MODEL 1
REMARK VINA RESULT:    -7.577      0.000      0.000
REMARK INTER + INTRA:          -8.630
REMARK INTER:                  -7.875
REMARK INTRA:                  -0.755
REMARK CONF_INDEPENDENT:        0.298
REMARK UNBOUND:                 0.755
REMARK  Name = 4091
REMARK  3 active torsions:
REMARK  status: ('A' for Active; 'I' for Inactive)
REMARK    1  A    between atoms: N_1  and  C_6
REMARK    2  A    between atoms: N_1  and  C_7
REMARK    3  A    between atoms: N_2  and  C_8
REMARK                            x       y       z     vdW  Elec       q    Type
REMARK                         _______ _______ _______ _____ _____    ______ ____
ROOT
ATOM      1  N   UNL     1       4.888  -2.096   3.281  0.00  0.00    +0.000 NA
ATOM      2  N   UNL     1       6.708  -0.688   2.898  0.00  0.00    +0.000 N 
ATOM      3  N   UNL     1       4.705   0.300   3.374  0.00  0.00    +0.000 N 
ATOM      4  C   UNL     1       5.381  -0.887   3.195  0.00  0.00    +0.000 C 
ATOM      5  H   UNL     1       7.102   0.244   2.828  0.00  0.00    +0.000 HD
ATOM      6  H   UNL     1       7.332  -1.471   2.739  0.00  0.00    +0.000 HD
ATOM      7  H   UNL     1       3.717   0.325   3.601  0.00  0.00    +0.000 HD
ATOM      8  H   UNL     1       5.179   1.192   3.285  0.00  0.00    +0.000 HD
ENDROOT
BRANCH   1  13
ATOM      9  N   UNL     1       2.713  -3.063   2.836  0.00  0.00    +0.000 N 
ATOM     10  N   UNL     1       3.160  -1.514   4.606  0.00  0.00    +0.000 NA
ATOM     11  C   UNL     1       3.211  -3.828   1.698  0.00  0.00    +0.000 C 
ATOM     12  C   UNL     1       1.330  -3.313   3.224  0.00  0.00    +0.000 C 
ATOM     13  C   UNL     1       3.545  -2.220   3.583  0.00  0.00    +0.000 C 
ATOM     14  H   UNL     1       2.162  -1.651   4.781  0.00  0.00    +0.000 HD
ENDBRANCH   1  13
TORSDOF 1
ENDMDL
MODEL 2
REMARK VINA RESULT:    -7.033      1.259      1.895
REMARK INTER + INTRA:          -8.036
REMARK INTER:                  -7.331
REMARK INTRA:                  -0.705
REMARK CONF_INDEPENDENT:        0.298
REMARK UNBOUND:                 0.705
REMARK  Name = 4091
REMARK  3 active torsions:
REMARK  status: ('A' for Active; 'I' for Inactive)
REMARK    1  A    between atoms: N_1  and  C_6
REMARK    2  A    between atoms: N_1  and  C_7
REMARK    3  A    between atoms: N_2  and  C_8
REMARK                            x       y       z     vdW  Elec       q    Type
REMARK                         _______ _______ _______ _____ _____    ______ ____
ROOT
ATOM      1  N   UNL     1       4.674  -1.807   4.109  0.00  0.00    +0.000 NA
ATOM      2  N   UNL     1       6.359  -0.193   4.047  0.00  0.00    +0.000 N 
ATOM      3  N   UNL     1       5.242  -0.613   2.099  0.00  0.00    +0.000 N 
ATOM      4  C   UNL     1       5.371  -0.928   3.434  0.00  0.00    +0.000 C 
ATOM      5  H   UNL     1       6.905   0.491   3.536  0.00  0.00    +0.000 HD
ATOM      6  H   UNL     1       6.568  -0.318   5.031  0.00  0.00    +0.000 HD
ATOM      7  H   UNL     1       4.556  -1.066   1.506  0.00  0.00    +0.000 HD
ATOM      8  H   UNL     1       5.834   0.088   1.666  0.00  0.00    +0.000 HD
ENDROOT
BRANCH   1  13
ATOM      9  N   UNL     1       2.426  -2.697   3.981  0.00  0.00    +0.000 N 
ATOM     10  N   UNL     1       4.069  -2.939   2.256  0.00  0.00    +0.000 NA
ATOM     11  C   UNL     1       2.077  -2.187   5.302  0.00  0.00    +0.000 C 
ATOM     12  C   UNL     1       1.344  -3.312   3.221  0.00  0.00    +0.000 C 
ATOM     13  C   UNL     1       3.698  -2.509   3.427  0.00  0.00    +0.000 C 
ATOM     14  H   UNL     1       3.305  -3.445   1.801  0.00  0.00    +0.000 HD
ENDBRANCH   1  13
TORSDOF 1
ENDMDL
MODEL 3
REMARK VINA RESULT:    -6.657      3.027      4.659
REMARK INTER + INTRA:          -7.713
REMARK INTER:                  -6.956
REMARK INTRA:                  -0.757
REMARK CONF_INDEPENDENT:        0.298
REMARK UNBOUND:                 0.757
REMARK  Name = 4091
REMARK  3 active torsions:
REMARK  status: ('A' for Active; 'I' for Inactive)
REMARK    1  A    between atoms: N_1  and  C_6
REMARK    2  A    between atoms: N_1  and  C_7
REMARK    3  A    between atoms: N_2  and  C_8
REMARK                            x       y       z     vdW  Elec       q    Type
REMARK                         _______ _______ _______ _____ _____    ______ ____
ROOT
ATOM      1  N   UNL     1       5.817   0.443   4.539  0.00  0.00    +0.000 NA
ATOM      2  N   UNL     1       6.939  -1.116   3.216  0.00  0.00    +0.000 N 
ATOM      3  N   UNL     1       4.871  -0.446   2.515  0.00  0.00    +0.000 N 
ATOM      4  C   UNL     1       5.849  -0.320   3.477  0.00  0.00    +0.000 C 
ATOM      5  H   UNL     1       6.977  -1.711   2.396  0.00  0.00    +0.000 HD
ATOM      6  H   UNL     1       7.739  -1.129   3.839  0.00  0.00    +0.000 HD
ATOM      7  H   UNL     1       4.004   0.077   2.561  0.00  0.00    +0.000 HD
ATOM      8  H   UNL     1       4.992  -1.068   1.723  0.00  0.00    +0.000 HD
ENDROOT
BRANCH   1  13
ATOM      9  N   UNL     1       4.790   2.587   5.003  0.00  0.00    +0.000 N 
ATOM     10  N   UNL     1       3.568   0.561   4.637  0.00  0.00    +0.000 NA
ATOM     11  C   UNL     1       6.081   3.259   5.104  0.00  0.00    +0.000 C 
ATOM     12  C   UNL     1       3.611   3.442   5.077  0.00  0.00    +0.000 C 
ATOM     13  C   UNL     1       4.688   1.216   4.739  0.00  0.00    +0.000 C 
ATOM     14  H   UNL     1       2.772   1.185   4.789  0.00  0.00    +0.000 HD
ENDBRANCH   1  13
TORSDOF 1
ENDMDL
MODEL 4
REMARK VINA RESULT:    -6.574      2.113      3.066
REMARK INTER + INTRA:          -7.034
REMARK INTER:                  -6.873
REMARK INTRA:                  -0.161
REMARK CONF_INDEPENDENT:        0.298
REMARK UNBOUND:                 0.161
REMARK  Name = 4091
REMARK  3 active torsions:
REMARK  status: ('A' for Active; 'I' for Inactive)
REMARK    1  A    between atoms: N_1  and  C_6
REMARK    2  A    between atoms: N_1  and  C_7
REMARK    3  A    between atoms: N_2  and  C_8
REMARK                            x       y       z     vdW  Elec       q    Type
REMARK                         _______ _______ _______ _____ _____    ______ ____
ROOT
ATOM      1  N   UNL     1       4.914  -1.378   4.366  0.00  0.00    +0.000 NA
ATOM      2  N   UNL     1       6.575  -1.157   2.742  0.00  0.00    +0.000 N 
ATOM      3  N   UNL     1       4.641   0.017   2.425  0.00  0.00    +0.000 N 
ATOM      4  C   UNL     1       5.329  -0.856   3.240  0.00  0.00    +0.000 C 
ATOM      5  H   UNL     1       6.909  -0.758   1.872  0.00  0.00    +0.000 HD
ATOM      6  H   UNL     1       7.197  -1.788   3.235  0.00  0.00    +0.000 HD
ATOM      7  H   UNL     1       3.707   0.339   2.653  0.00  0.00    +0.000 HD
ATOM      8  H   UNL     1       5.052   0.368   1.567  0.00  0.00    +0.000 HD
ENDROOT
BRANCH   1  13
ATOM      9  N   UNL     1       3.345   0.289   5.154  0.00  0.00    +0.000 N 
ATOM     10  N   UNL     1       2.806  -2.021   4.835  0.00  0.00    +0.000 NA
ATOM     11  C   UNL     1       4.342   1.352   5.097  0.00  0.00    +0.000 C 
ATOM     12  C   UNL     1       1.985   0.699   5.485  0.00  0.00    +0.000 C 
ATOM     13  C   UNL     1       3.650  -1.032   4.805  0.00  0.00    +0.000 C 
ATOM     14  H   UNL     1       1.891  -1.703   5.163  0.00  0.00    +0.000 HD
ENDBRANCH   1  13
TORSDOF 1
ENDMDL
MODEL 5
REMARK VINA RESULT:    -6.482      2.496      4.009
REMARK INTER + INTRA:          -7.532
REMARK INTER:                  -6.781
REMARK INTRA:                  -0.752
REMARK CONF_INDEPENDENT:        0.298
REMARK UNBOUND:                 0.752
REMARK  Name = 4091
REMARK  3 active torsions:
REMARK  status: ('A' for Active; 'I' for Inactive)
REMARK    1  A    between atoms: N_1  and  C_6
REMARK    2  A    between atoms: N_1  and  C_7
REMARK    3  A    between atoms: N_2  and  C_8
REMARK                            x       y       z     vdW  Elec       q    Type
REMARK                         _______ _______ _______ _____ _____    ______ ____
ROOT
ATOM      1  N   UNL     1       4.208  -1.024   4.746  0.00  0.00    +0.000 NA
ATOM      2  N   UNL     1       4.325  -3.043   3.583  0.00  0.00    +0.000 N 
ATOM      3  N   UNL     1       4.300  -1.123   2.345  0.00  0.00    +0.000 N 
ATOM      4  C   UNL     1       4.273  -1.669   3.610  0.00  0.00    +0.000 C 
ATOM      5  H   UNL     1       4.377  -3.554   2.709  0.00  0.00    +0.000 HD
ATOM      6  H   UNL     1       4.313  -3.584   4.440  0.00  0.00    +0.000 HD
ATOM      7  H   UNL     1       4.270  -0.121   2.193  0.00  0.00    +0.000 HD
ATOM      8  H   UNL     1       4.352  -1.712   1.521  0.00  0.00    +0.000 HD
ENDROOT
BRANCH   1  13
ATOM      9  N   UNL     1       3.180   1.068   5.403  0.00  0.00    +0.000 N 
ATOM     10  N   UNL     1       5.091   0.899   3.971  0.00  0.00    +0.000 NA
ATOM     11  C   UNL     1       2.161   0.395   6.200  0.00  0.00    +0.000 C 
ATOM     12  C   UNL     1       3.197   2.525   5.475  0.00  0.00    +0.000 C 
ATOM     13  C   UNL     1       4.158   0.357   4.697  0.00  0.00    +0.000 C 
ATOM     14  H   UNL     1       5.004   1.918   3.977  0.00  0.00    +0.000 HD
ENDBRANCH   1  13
TORSDOF 1
ENDMDL
MODEL 6
REMARK VINA RESULT:    -6.445      1.879      4.557
REMARK INTER + INTRA:          -7.468
REMARK INTER:                  -6.743
REMARK INTRA:                  -0.725
REMARK CONF_INDEPENDENT:        0.298
REMARK UNBOUND:                 0.725
REMARK  Name = 4091
REMARK  3 active torsions:
REMARK  status: ('A' for Active; 'I' for Inactive)
REMARK    1  A    between atoms: N_1  and  C_6
REMARK    2  A    between atoms: N_1  and  C_7
REMARK    3  A    between atoms: N_2  and  C_8
REMARK                            x       y       z     vdW  Elec       q    Type
REMARK                         _______ _______ _______ _____ _____    ______ ____
ROOT
ATOM      1  N   UNL     1       4.186  -0.516   4.020  0.00  0.00    +0.000 NA
ATOM      2  N   UNL     1       2.161  -1.441   4.718  0.00  0.00    +0.000 N 
ATOM      3  N   UNL     1       3.907  -2.877   4.388  0.00  0.00    +0.000 N 
ATOM      4  C   UNL     1       3.480  -1.567   4.352  0.00  0.00    +0.000 C 
ATOM      5  H   UNL     1       1.604  -2.247   4.978  0.00  0.00    +0.000 HD
ATOM      6  H   UNL     1       1.708  -0.534   4.739  0.00  0.00    +0.000 HD
ATOM      7  H   UNL     1       4.856  -3.138   4.147  0.00  0.00    +0.000 HD
ATOM      8  H   UNL     1       3.279  -3.625   4.661  0.00  0.00    +0.000 HD
ENDROOT
BRANCH   1  13
ATOM      9  N   UNL     1       6.525   0.088   4.181  0.00  0.00    +0.000 N 
ATOM     10  N   UNL     1       5.689  -1.711   2.841  0.00  0.00    +0.000 NA
ATOM     11  C   UNL     1       6.248   1.187   5.099  0.00  0.00    +0.000 C 
ATOM     12  C   UNL     1       7.933  -0.198   3.925  0.00  0.00    +0.000 C 
ATOM     13  C   UNL     1       5.506  -0.719   3.662  0.00  0.00    +0.000 C 
ATOM     14  H   UNL     1       6.682  -1.813   2.618  0.00  0.00    +0.000 HD
ENDBRANCH   1  13
TORSDOF 1
ENDMDL
MODEL 7
REMARK VINA RESULT:    -6.285      2.542      3.956
REMARK INTER + INTRA:          -7.137
REMARK INTER:                  -6.583
REMARK INTRA:                  -0.554
REMARK CONF_INDEPENDENT:        0.298
REMARK UNBOUND:                 0.554
REMARK  Name = 4091
REMARK  3 active torsions:
REMARK  status: ('A' for Active; 'I' for Inactive)
REMARK    1  A    between atoms: N_1  and  C_6
REMARK    2  A    between atoms: N_1  and  C_7
REMARK    3  A    between atoms: N_2  and  C_8
REMARK                            x       y       z     vdW  Elec       q    Type
REMARK                         _______ _______ _______ _____ _____    ______ ____
ROOT
ATOM      1  N   UNL     1       3.573  -4.124   1.482  0.00  0.00    +0.000 NA
ATOM      2  N   UNL     1       4.135  -3.277   3.582  0.00  0.00    +0.000 N 
ATOM      3  N   UNL     1       2.370  -2.308   2.502  0.00  0.00    +0.000 N 
ATOM      4  C   UNL     1       3.351  -3.274   2.452  0.00  0.00    +0.000 C 
ATOM      5  H   UNL     1       3.973  -2.624   4.340  0.00  0.00    +0.000 HD
ATOM      6  H   UNL     1       4.899  -3.935   3.687  0.00  0.00    +0.000 HD
ATOM      7  H   UNL     1       1.707  -2.178   1.746  0.00  0.00    +0.000 HD
ATOM      8  H   UNL     1       2.279  -1.694   3.304  0.00  0.00    +0.000 HD
ENDROOT
BRANCH   1  13
ATOM      9  N   UNL     1       3.229  -4.362  -0.903  0.00  0.00    +0.000 N 
ATOM     10  N   UNL     1       1.517  -3.732   0.646  0.00  0.00    +0.000 NA
ATOM     11  C   UNL     1       4.622  -4.727  -1.136  0.00  0.00    +0.000 C 
ATOM     12  C   UNL     1       2.342  -4.439  -2.059  0.00  0.00    +0.000 C 
ATOM     13  C   UNL     1       2.745  -4.063   0.376  0.00  0.00    +0.000 C 
ATOM     14  H   UNL     1       0.955  -3.708  -0.208  0.00  0.00    +0.000 HD
ENDBRANCH   1  13
TORSDOF 1
ENDMDL
MODEL 8
REMARK VINA RESULT:    -6.038      1.889      2.678
REMARK INTER + INTRA:          -7.089
REMARK INTER:                  -6.337
REMARK INTRA:                  -0.752
REMARK CONF_INDEPENDENT:        0.298
REMARK UNBOUND:                 0.752
REMARK  Name = 4091
REMARK  3 active torsions:
REMARK  status: ('A' for Active; 'I' for Inactive)
REMARK    1  A    between atoms: N_1  and  C_6
REMARK    2  A    between atoms: N_1  and  C_7
REMARK    3  A    between atoms: N_2  and  C_8
REMARK                            x       y       z     vdW  Elec       q    Type
REMARK                         _______ _______ _______ _____ _____    ______ ____
ROOT
ATOM      1  N   UNL     1       4.792   0.453   4.333  0.00  0.00    +0.000 NA
ATOM      2  N   UNL     1       4.891   2.779   4.483  0.00  0.00    +0.000 N 
ATOM      3  N   UNL     1       2.835   1.805   4.688  0.00  0.00    +0.000 N 
ATOM      4  C   UNL     1       4.184   1.600   4.494  0.00  0.00    +0.000 C 
ATOM      5  H   UNL     1       4.432   3.674   4.608  0.00  0.00    +0.000 HD
ATOM      6  H   UNL     1       5.896   2.784   4.349  0.00  0.00    +0.000 HD
ATOM      7  H   UNL     1       2.176   1.036   4.724  0.00  0.00    +0.000 HD
ATOM      8  H   UNL     1       2.459   2.740   4.805  0.00  0.00    +0.000 HD
ENDROOT
BRANCH   1  13
ATOM      9  N   UNL     1       4.146  -1.669   3.360  0.00  0.00    +0.000 N 
ATOM     10  N   UNL     1       3.204  -0.766   5.367  0.00  0.00    +0.000 NA
ATOM     11  C   UNL     1       5.079  -1.520   2.249  0.00  0.00    +0.000 C 
ATOM     12  C   UNL     1       3.439  -2.942   3.442  0.00  0.00    +0.000 C 
ATOM     13  C   UNL     1       4.016  -0.692   4.354  0.00  0.00    +0.000 C 
ATOM     14  H   UNL     1       2.663  -1.633   5.330  0.00  0.00    +0.000 HD
ENDBRANCH   1  13
TORSDOF 1
ENDMDL
MODEL 9
REMARK VINA RESULT:    -5.490      4.662      7.018
REMARK INTER + INTRA:          -6.542
REMARK INTER:                  -5.788
REMARK INTRA:                  -0.754
REMARK CONF_INDEPENDENT:        0.298
REMARK UNBOUND:                 0.754
REMARK  Name = 4091
REMARK  3 active torsions:
REMARK  status: ('A' for Active; 'I' for Inactive)
REMARK    1  A    between atoms: N_1  and  C_6
REMARK    2  A    between atoms: N_1  and  C_7
REMARK    3  A    between atoms: N_2  and  C_8
REMARK                            x       y       z     vdW  Elec       q    Type
REMARK                         _______ _______ _______ _____ _____    ______ ____
ROOT
ATOM      1  N   UNL     1       4.279   2.913   5.820  0.00  0.00    +0.000 NA
ATOM      2  N   UNL     1       2.442   1.559   5.331  0.00  0.00    +0.000 N 
ATOM      3  N   UNL     1       4.171   1.555   3.837  0.00  0.00    +0.000 N 
ATOM      4  C   UNL     1       3.686   2.059   5.025  0.00  0.00    +0.000 C 
ATOM      5  H   UNL     1       1.973   0.897   4.724  0.00  0.00    +0.000 HD
ATOM      6  H   UNL     1       1.959   1.841   6.177  0.00  0.00    +0.000 HD
ATOM      7  H   UNL     1       5.077   1.824   3.472  0.00  0.00    +0.000 HD
ATOM      8  H   UNL     1       3.631   0.893   3.290  0.00  0.00    +0.000 HD
ENDROOT
BRANCH   1  13
ATOM      9  N   UNL     1       5.831   4.740   5.478  0.00  0.00    +0.000 N 
ATOM     10  N   UNL     1       6.361   2.436   5.101  0.00  0.00    +0.000 NA
ATOM     11  C   UNL     1       4.846   5.739   5.878  0.00  0.00    +0.000 C 
ATOM     12  C   UNL     1       7.181   5.231   5.224  0.00  0.00    +0.000 C 
ATOM     13  C   UNL     1       5.528   3.374   5.448  0.00  0.00    +0.000 C 
ATOM     14  H   UNL     1       7.265   2.838   4.841  0.00  0.00    +0.000 HD
ENDBRANCH   1  13
TORSDOF 1
ENDMDL
