MODEL 1
REMARK VINA RESULT:   225.028      0.000      0.000
REMARK INTER + INTRA:         224.403
REMARK INTER:                 224.133
REMARK INTRA:                   0.270
REMARK CONF_INDEPENDENT:        0.895
REMARK UNBOUND:                -0.270
REMARK  Name = 9926791
REMARK  5 active torsions:
REMARK  status: ('A' for Active; 'I' for Inactive)
REMARK    1  A    between atoms: N_3  and  C_8
REMARK    2  A    between atoms: N_3  and  C_16
REMARK    3  A    between atoms: C_9  and  C_13
REMARK    4  A    between atoms: C_15  and  C_18
REMARK    5  A    between atoms: C_18  and  C_23
REMARK                            x       y       z     vdW  Elec       q    Type
REMARK                         _______ _______ _______ _____ _____    ______ ____
ROOT
ATOM      1  N   UNL     1      -1.630   3.806   1.145  0.00  0.00    +0.000 N 
ATOM      2  N   UNL     1      -2.770   1.918   2.060  0.00  0.00    +0.000 NA
ATOM      3  N   UNL     1      -5.789   2.545  -0.550  0.00  0.00    +0.000 N 
ATOM      4  N   UNL     1      -4.942   1.178   1.247  0.00  0.00    +0.000 NA
ATOM      5  C   UNL     1      -2.729   2.943   1.171  0.00  0.00    +0.000 A 
ATOM      6  C   UNL     1      -1.214   4.440  -0.103  0.00  0.00    +0.000 C 
ATOM      7  C   UNL     1      -3.801   3.114   0.289  0.00  0.00    +0.000 A 
ATOM      8  C   UNL     1      -4.850   2.208   0.388  0.00  0.00    +0.000 A 
ATOM      9  C   UNL     1      -4.136   4.022  -0.749  0.00  0.00    +0.000 A 
ATOM     10  C   UNL     1      -3.856   1.113   2.044  0.00  0.00    +0.000 A 
ATOM     11  C   UNL     1      -5.365   3.647  -1.248  0.00  0.00    +0.000 A 
ATOM     12  H   UNL     1      -6.662   2.057  -0.703  0.00  0.00    +0.000 HD
ENDROOT
BRANCH   1  15
ATOM     13  O   UNL     1       1.616   1.400   4.001  0.00  0.00    +0.000 OA
ATOM     14  N   UNL     1       1.272   3.641   3.491  0.00  0.00    +0.000 N 
ATOM     15  C   UNL     1      -0.869   4.084   2.344  0.00  0.00    +0.000 C 
ATOM     16  C   UNL     1      -0.690   5.604   2.547  0.00  0.00    +0.000 C 
ATOM     17  C   UNL     1       0.181   5.843   3.794  0.00  0.00    +0.000 C 
ATOM     18  C   UNL     1       0.470   3.343   2.301  0.00  0.00    +0.000 C 
ATOM     19  C   UNL     1       1.500   5.069   3.749  0.00  0.00    +0.000 C 
ATOM     20  C   UNL     1      -0.107   6.328   1.327  0.00  0.00    +0.000 C 
ATOM     21  C   UNL     1       1.819   2.595   4.233  0.00  0.00    +0.000 C 
BRANCH  21  22
ATOM     22  C   UNL     1       2.708   2.978   5.390  0.00  0.00    +0.000 C 
BRANCH  22  24
ATOM     23  N   UNL     1       4.746   4.373   4.521  0.00  0.00    +0.000 NA
ATOM     24  C   UNL     1       3.840   3.753   4.897  0.00  0.00    +0.000 C 
ENDBRANCH  22  24
ENDBRANCH  21  22
ENDBRANCH   1  15
TORSDOF 3
ENDMDL
