MODEL 1
REMARK VINA RESULT:   689.936      0.000      0.000
REMARK INTER + INTRA:         801.376
REMARK INTER:                 688.743
REMARK INTRA:                 112.634
REMARK CONF_INDEPENDENT:        1.193
REMARK UNBOUND:              -112.634
REMARK  Name = 
REMARK  6 active torsions:
REMARK  status: ('A' for Active; 'I' for Inactive)
REMARK    1  A    between atoms: C_1  and  C_2
REMARK    2  A    between atoms: C_15  and  C_16
REMARK    3  A    between atoms: C_20  and  C_21
REMARK    4  A    between atoms: C_21  and  C_23
REMARK    5  A    between atoms: C_23  and  N_24
REMARK    6  A    between atoms: N_27  and  C_28
REMARK                            x       y       z     vdW  Elec       q    Type
REMARK                         _______ _______ _______ _____ _____    ______ ____
ROOT
ATOM      1  C   UNL     1       8.948   0.956   5.311  0.00  0.00    +0.000 C 
ENDROOT
BRANCH   1   2
ATOM      2  N   UNL     1       8.473   0.159   4.271  0.00  0.00    +0.000 NA
ATOM      3  C   UNL     1       8.550  -1.240   4.366  0.00  0.00    +0.000 C 
ATOM      4  C   UNL     1       7.151  -1.807   4.141  0.00  0.00    +0.000 C 
ATOM      5  N   UNL     1       6.619  -1.192   2.929  0.00  0.00    +0.000 N 
ATOM      6  C   UNL     1       6.577   0.260   2.829  0.00  0.00    +0.000 C 
ATOM      7  C   UNL     1       7.991   0.745   3.091  0.00  0.00    +0.000 C 
BRANCH   5   8
ATOM      8  C   UNL     1       6.739  -1.916   1.704  0.00  0.00    +0.000 A 
ATOM      9  C   UNL     1       7.170  -1.179   0.611  0.00  0.00    +0.000 A 
ATOM     10  C   UNL     1       6.853  -1.593  -0.669  0.00  0.00    +0.000 A 
ATOM     11  N   UNL     1       7.648  -1.127  -1.771  0.00  0.00    +0.000 N 
ATOM     12  C   UNL     1       8.879  -1.837  -2.121  0.00  0.00    +0.000 C 
ATOM     13  C   UNL     1       8.406  -2.822  -3.183  0.00  0.00    +0.000 C 
ATOM     14  C   UNL     1       7.026  -2.335  -3.605  0.00  0.00    +0.000 C 
ATOM     15  C   UNL     1       7.016  -0.906  -3.071  0.00  0.00    +0.000 C 
ATOM     16  N   UNL     1       6.132  -2.737  -0.757  0.00  0.00    +0.000 NA
ATOM     17  C   UNL     1       5.953  -3.583   0.271  0.00  0.00    +0.000 A 
ATOM     18  N   UNL     1       5.947  -5.005   0.098  0.00  0.00    +0.000 N 
ATOM     19  C   UNL     1       7.092  -5.747  -0.423  0.00  0.00    +0.000 C 
ATOM     20  C   UNL     1       6.546  -7.098  -0.782  0.00  0.00    +0.000 C 
ATOM     21  C   UNL     1       5.469  -7.292   0.256  0.00  0.00    +0.000 C 
ATOM     22  C   UNL     1       5.098  -5.939   0.784  0.00  0.00    +0.000 C 
ATOM     23  N   UNL     1       6.020  -3.039   1.511  0.00  0.00    +0.000 NA
ENDBRANCH   5   8
ENDBRANCH   1   2
BRANCH   1  24
ATOM     24  C   UNL     1       8.491   2.385   5.290  0.00  0.00    +0.000 C 
ATOM     25  O   UNL     1       8.282   2.954   6.361  0.00  0.00    +0.000 OA
BRANCH  24  45
ATOM     26  C   UNL     1       8.570   4.477   3.832  0.00  0.00    +0.000 C 
ATOM     27  C   UNL     1       7.996   3.361   3.208  0.00  0.00    +0.000 C 
ATOM     28  C   UNL     1       8.728   2.507   2.288  0.00  0.00    +0.000 C 
ATOM     29  C   UNL     1       8.922   3.348   1.057  0.00  0.00    +0.000 C 
ATOM     30  C   UNL     1       7.896   4.053   0.629  0.00  0.00    +0.000 C 
ATOM     31  C   UNL     1       7.190   5.029   1.676  0.00  0.00    +0.000 C 
ATOM     32  C   UNL     1       5.794   5.182   0.850  0.00  0.00    +0.000 C 
ATOM     33  C   UNL     1       5.441   3.834   0.297  0.00  0.00    +0.000 C 
ATOM     34  C   UNL     1       6.288   3.480  -0.899  0.00  0.00    +0.000 C 
ATOM     35  C   UNL     1       6.412   2.167  -1.106  0.00  0.00    +0.000 C 
ATOM     36  C   UNL     1       7.634   1.518  -1.522  0.00  0.00    +0.000 C 
ATOM     37  O   UNL     1       7.851   0.279  -1.456  0.00  0.00    +0.000 OA
ATOM     38  C   UNL     1       8.794   2.353  -1.863  0.00  0.00    +0.000 C 
ATOM     39  C   UNL     1       8.662   3.632  -1.602  0.00  0.00    +0.000 C 
ATOM     40  C   UNL     1       7.593   4.223  -0.811  0.00  0.00    +0.000 C 
ATOM     41  C   UNL     1       7.453   5.658  -1.232  0.00  0.00    +0.000 C 
ATOM     42  C   UNL     1       6.554   3.732   2.575  0.00  0.00    +0.000 C 
ATOM     43  C   UNL     1       6.225   4.661   3.859  0.00  0.00    +0.000 C 
ATOM     44  C   UNL     1       6.646   3.832   5.020  0.00  0.00    +0.000 C 
ATOM     45  C   UNL     1       7.203   2.462   4.318  0.00  0.00    +0.000 C 
ENDBRANCH  24  45
ENDBRANCH   1  24
TORSDOF 4
ENDMDL
