MODEL 1
REMARK VINA RESULT:   125.649      0.000      0.000
REMARK INTER + INTRA:         415.082
REMARK INTER:                 119.086
REMARK INTRA:                 295.996
REMARK CONF_INDEPENDENT:        6.563
REMARK UNBOUND:              -295.996
REMARK  Name = 
REMARK  24 active torsions:
REMARK  status: ('A' for Active; 'I' for Inactive)
REMARK    1  A    between atoms: CD1_1  and  CG1_2
REMARK    2  A    between atoms: CG1_2  and  CB_3
REMARK    3  A    between atoms: CB_3  and  CG2_4
REMARK    4  A    between atoms: CB_3  and  CA_5
REMARK    5  A    between atoms: CA_5  and  N_6
REMARK    6  A    between atoms: CA_5  and  C_19
REMARK    7  A    between atoms: C_7  and  CA_9
REMARK    8  A    between atoms: CA_9  and  N_10
REMARK    9  A    between atoms: CA_9  and  CB_11
REMARK   10  A    between atoms: CB_11  and  CG_12
REMARK   11  A    between atoms: CZ_15  and  OH_16
REMARK   12  A    between atoms: N_21  and  CA_22
REMARK   13  A    between atoms: CA_22  and  C_23
REMARK   14  A    between atoms: N_25  and  CA_26
REMARK   15  A    between atoms: CA_26  and  CB_27
REMARK   16  A    between atoms: CA_26  and  C_29
REMARK   17  A    between atoms: CB_27  and  OG_28
REMARK   18  A    between atoms: N_31  and  CA_32
REMARK   19  A    between atoms: CA_32  and  CB_33
REMARK   20  A    between atoms: CA_32  and  C_40
REMARK   21  A    between atoms: CB_33  and  CG_34
REMARK   22  A    between atoms: CG_34  and  CD_35
REMARK   23  A    between atoms: CD_35  and  NE_36
REMARK   24  A    between atoms: C_40  and  OXT_42
REMARK                            x       y       z     vdW  Elec       q    Type
REMARK                         _______ _______ _______ _____ _____    ______ ____
ROOT
ATOM      1  C   GLY A   3       8.156  -2.114   4.486  0.00  0.00    +0.000 C 
ATOM      2  O   GLY A   3       6.909  -2.077   4.176  0.00  0.00    +0.000 OA
ATOM      3  N   SER A   4       8.519  -3.437   4.436  0.00  0.00    +0.000 N 
ATOM      4  H   SER A   4       8.735  -3.918   5.267  0.00  0.00    +0.000 HD
ENDROOT
BRANCH   1   5
ATOM      5  CA  GLY A   3       8.356  -0.887   3.785  0.00  0.00    +0.000 C 
BRANCH   5   8
ATOM      6  C   ILE A   2       7.692   1.297   2.963  0.00  0.00    +0.000 C 
ATOM      7  O   ILE A   2       8.859   1.510   2.500  0.00  0.00    +0.000 OA
ATOM      8  N   GLY A   3       7.465  -0.032   3.272  0.00  0.00    +0.000 N 
ATOM      9  H   GLY A   3       6.561  -0.381   3.098  0.00  0.00    +0.000 HD
BRANCH   6  10
ATOM     10  CA  ILE A   2       7.284   2.432   4.024  0.00  0.00    +0.000 C 
BRANCH  10  11
ATOM     11  N   ILE A   2       7.771   3.541   3.040  0.00  0.00    +0.000 N 
ATOM     12  C   TYR A   1       6.975   4.676   2.957  0.00  0.00    +0.000 C 
ATOM     13  O   TYR A   1       5.727   4.540   3.166  0.00  0.00    +0.000 OA
ATOM     14  H   ILE A   2       8.596   3.442   2.508  0.00  0.00    +0.000 HD
BRANCH  12  15
ATOM     15  CA  TYR A   1       7.101   5.559   1.599  0.00  0.00    +0.000 C 
BRANCH  15  16
ATOM     16  N   TYR A   1       5.531   5.600   1.392  0.00  0.00    +0.000 NA
ATOM     17  H1  TYR A   1       5.228   6.569   1.286  0.00  0.00    +0.000 HD
ATOM     18  H2  TYR A   1       5.071   5.187   2.201  0.00  0.00    +0.000 HD
ENDBRANCH  15  16
BRANCH  15  19
ATOM     19  CB  TYR A   1       7.259   6.962   2.438  0.00  0.00    +0.000 C 
BRANCH  19  20
ATOM     20  CG  TYR A   1       7.626   6.724   3.815  0.00  0.00    +0.000 A 
ATOM     21  CD1 TYR A   1       6.668   6.352   4.728  0.00  0.00    +0.000 A 
ATOM     22  CE1 TYR A   1       6.808   5.590   5.814  0.00  0.00    +0.000 A 
ATOM     23  CZ  TYR A   1       7.834   4.674   5.774  0.00  0.00    +0.000 A 
ATOM     24  CE2 TYR A   1       8.858   4.907   4.864  0.00  0.00    +0.000 A 
ATOM     25  CD2 TYR A   1       8.768   5.925   3.921  0.00  0.00    +0.000 A 
BRANCH  23  26
ATOM     26  OH  TYR A   1       7.658   3.461   6.433  0.00  0.00    +0.000 OA
ATOM     27  HH  TYR A   1       7.327   3.448   7.310  0.00  0.00    +0.000 HD
ENDBRANCH  23  26
ENDBRANCH  19  20
ENDBRANCH  15  19
ENDBRANCH  12  15
ENDBRANCH  10  11
BRANCH  10  28
ATOM     28  CB  ILE A   2       5.650   2.636   3.540  0.00  0.00    +0.000 C 
ATOM     29  CG2 ILE A   2       5.885   2.868   1.952  0.00  0.00    +0.000 C 
BRANCH  28  31
ATOM     30  CD1 ILE A   2       4.447   0.699   3.910  0.00  0.00    +0.000 C 
ATOM     31  CG1 ILE A   2       5.360   1.046   3.403  0.00  0.00    +0.000 C 
ENDBRANCH  28  31
ENDBRANCH  10  28
ENDBRANCH   6  10
ENDBRANCH   5   8
ENDBRANCH   1   5
BRANCH   3  32
ATOM     32  CA  SER A   4       8.593  -4.186   3.053  0.00  0.00    +0.000 C 
BRANCH  32  33
ATOM     33  C   SER A   4       8.984  -2.934   2.130  0.00  0.00    +0.000 C 
ATOM     34  O   SER A   4       9.534  -2.972   1.077  0.00  0.00    +0.000 OA
ATOM     35  N   ARG A   5       8.115  -1.895   2.417  0.00  0.00    +0.000 N 
ATOM     36  H   ARG A   5       7.523  -1.939   3.202  0.00  0.00    +0.000 HD
BRANCH  35  37
ATOM     37  CA  ARG A   5       8.093  -0.640   1.462  0.00  0.00    +0.000 C 
BRANCH  37  38
ATOM     38  C   ARG A   5       7.322  -1.445   0.279  0.00  0.00    +0.000 C 
ATOM     39  O   ARG A   5       6.059  -1.261   0.327  0.00  0.00    +0.000 OA
BRANCH  38  40
ATOM     40  OXT ARG A   5       7.888  -0.976  -0.921  0.00  0.00    +0.000 OA
ATOM     41  HXT ARG A   5       8.573  -1.462  -1.337  0.00  0.00    +0.000 HD
ENDBRANCH  38  40
ENDBRANCH  37  38
BRANCH  37  42
ATOM     42  CB  ARG A   5       9.571  -0.951   0.800  0.00  0.00    +0.000 C 
BRANCH  42  43
ATOM     43  CG  ARG A   5       9.584  -0.441  -0.580  0.00  0.00    +0.000 C 
BRANCH  43  44
ATOM     44  CD  ARG A   5       8.812   0.753  -0.902  0.00  0.00    +0.000 C 
BRANCH  44  45
ATOM     45  NE  ARG A   5       7.545   0.528  -1.543  0.00  0.00    +0.000 N 
ATOM     46  CZ  ARG A   5       7.408  -0.584  -2.436  0.00  0.00    +0.000 C 
ATOM     47  NH1 ARG A   5       8.303  -0.645  -3.355  0.00  0.00    +0.000 NA
ATOM     48  NH2 ARG A   5       6.161  -1.281  -2.536  0.00  0.00    +0.000 N 
ATOM     49  HE  ARG A   5       6.784   1.127  -1.371  0.00  0.00    +0.000 HD
ATOM     50  HH1 ARG A   5       9.149  -0.153  -3.253  0.00  0.00    +0.000 HD
ATOM     51 HH21 ARG A   5       5.499  -1.211  -1.811  0.00  0.00    +0.000 HD
ATOM     52 HH22 ARG A   5       5.968  -1.830  -3.329  0.00  0.00    +0.000 HD
ENDBRANCH  44  45
ENDBRANCH  43  44
ENDBRANCH  42  43
ENDBRANCH  37  42
ENDBRANCH  35  37
ENDBRANCH  32  33
BRANCH  32  53
ATOM     53  CB  SER A   4       6.974  -3.982   2.760  0.00  0.00    +0.000 C 
BRANCH  53  54
ATOM     54  OG  SER A   4       6.885  -3.123   1.694  0.00  0.00    +0.000 OA
ATOM     55  H   SER A   4       7.566  -3.349   1.040  0.00  0.00    +0.000 HD
ENDBRANCH  53  54
ENDBRANCH  32  53
ENDBRANCH   3  32
TORSDOF 22
ENDMDL
