MODEL 1
REMARK VINA RESULT:    19.689      0.000      0.000
REMARK INTER + INTRA:          17.371
REMARK INTER:                  17.899
REMARK INTRA:                  -0.528
REMARK CONF_INDEPENDENT:        1.790
REMARK UNBOUND:                 0.528
REMARK  Name = 5282379
REMARK  11 active torsions:
REMARK  status: ('A' for Active; 'I' for Inactive)
REMARK    1  A    between atoms: O_1  and  C_22
REMARK    2  A    between atoms: C_3  and  C_9
REMARK    3  A    between atoms: C_3  and  C_10
REMARK    4  A    between atoms: C_6  and  C_11
REMARK    5  A    between atoms: C_8  and  C_12
REMARK    6  A    between atoms: C_13  and  C_14
REMARK    7  A    between atoms: C_14  and  C_15
REMARK    8  A    between atoms: C_16  and  C_17
REMARK    9  A    between atoms: C_18  and  C_19
REMARK   10  A    between atoms: C_19  and  C_20
REMARK   11  A    between atoms: C_21  and  C_22
REMARK                            x       y       z     vdW  Elec       q    Type
REMARK                         _______ _______ _______ _____ _____    ______ ____
ROOT
ATOM      1  C   UNL     1       6.652   0.297   1.471  0.00  0.00    +0.000 C 
ATOM      2  C   UNL     1       6.586   0.689   2.930  0.00  0.00    +0.000 C 
ATOM      3  C   UNL     1       6.718   1.278   0.544  0.00  0.00    +0.000 C 
ENDROOT
BRANCH   1   5
ATOM      4  C   UNL     1       7.097  -2.122   1.942  0.00  0.00    +0.000 C 
ATOM      5  C   UNL     1       6.641  -1.132   1.157  0.00  0.00    +0.000 C 
BRANCH   4   9
ATOM      6  C   UNL     1       6.626  -3.807   0.102  0.00  0.00    +0.000 C 
ATOM      7  C   UNL     1       6.327  -5.315  -0.124  0.00  0.00    +0.000 C 
ATOM      8  C   UNL     1       7.377  -6.210   0.509  0.00  0.00    +0.000 C 
ATOM      9  C   UNL     1       7.054  -3.524   1.561  0.00  0.00    +0.000 C 
ATOM     10  C   UNL     1       7.427  -5.975   2.011  0.00  0.00    +0.000 C 
ATOM     11  C   UNL     1       7.388  -4.517   2.423  0.00  0.00    +0.000 C 
ATOM     12  C   UNL     1       5.330  -3.052  -0.283  0.00  0.00    +0.000 C 
ATOM     13  C   UNL     1       7.754  -3.370  -0.862  0.00  0.00    +0.000 C 
ATOM     14  C   UNL     1       7.764  -4.336   3.876  0.00  0.00    +0.000 C 
ENDBRANCH   4   9
ENDBRANCH   1   5
BRANCH   3  15
ATOM     15  C   UNL     1       6.736   2.714   0.748  0.00  0.00    +0.000 C 
ATOM     16  C   UNL     1       5.625   3.418   1.029  0.00  0.00    +0.000 C 
BRANCH  16  17
ATOM     17  C   UNL     1       5.532   4.866   1.247  0.00  0.00    +0.000 C 
ATOM     18  C   UNL     1       5.354   5.738   0.031  0.00  0.00    +0.000 C 
ATOM     19  C   UNL     1       5.635   5.321   2.513  0.00  0.00    +0.000 C 
BRANCH  19  21
ATOM     20  O   UNL     1       6.027   3.288   3.763  0.00  0.00    +0.000 OA
ATOM     21  C   UNL     1       5.836   4.489   3.721  0.00  0.00    +0.000 C 
BRANCH  21  22
ATOM     22  O   UNL     1       5.795   5.300   4.807  0.00  0.00    +0.000 OA
ATOM     23  H   UNL     1       5.212   6.075   4.663  0.00  0.00    +0.000 HD
ENDBRANCH  21  22
ENDBRANCH  19  21
ENDBRANCH  16  17
ENDBRANCH   3  15
TORSDOF 6
ENDMDL
