MODEL 1
REMARK VINA RESULT:    38.378      0.000      0.000
REMARK INTER + INTRA:          34.984
REMARK INTER:                  36.588
REMARK INTRA:                  -1.604
REMARK CONF_INDEPENDENT:        1.790
REMARK UNBOUND:                 1.604
REMARK  Name = 449171
REMARK  11 active torsions:
REMARK  status: ('A' for Active; 'I' for Inactive)
REMARK    1  A    between atoms: O_1  and  C_22
REMARK    2  A    between atoms: C_3  and  C_9
REMARK    3  A    between atoms: C_3  and  C_10
REMARK    4  A    between atoms: C_6  and  C_11
REMARK    5  A    between atoms: C_8  and  C_12
REMARK    6  A    between atoms: C_13  and  C_14
REMARK    7  A    between atoms: C_14  and  C_15
REMARK    8  A    between atoms: C_16  and  C_17
REMARK    9  A    between atoms: C_18  and  C_19
REMARK   10  A    between atoms: C_19  and  C_20
REMARK   11  A    between atoms: C_21  and  C_22
REMARK                            x       y       z     vdW  Elec       q    Type
REMARK                         _______ _______ _______ _____ _____    ______ ____
ROOT
ATOM      1  C   UNL     1       6.314   6.658   2.824  0.00  0.00    +0.000 C 
ATOM      2  C   UNL     1       7.132   7.234   3.957  0.00  0.00    +0.000 C 
ATOM      3  C   UNL     1       5.405   7.453   2.219  0.00  0.00    +0.000 C 
ENDROOT
BRANCH   1   5
ATOM      4  C   UNL     1       5.732   4.230   2.643  0.00  0.00    +0.000 C 
ATOM      5  C   UNL     1       6.566   5.265   2.453  0.00  0.00    +0.000 C 
BRANCH   4   9
ATOM      6  C   UNL     1       5.963   1.807   3.369  0.00  0.00    +0.000 C 
ATOM      7  C   UNL     1       6.033   0.364   2.798  0.00  0.00    +0.000 C 
ATOM      8  C   UNL     1       7.116   0.214   1.745  0.00  0.00    +0.000 C 
ATOM      9  C   UNL     1       6.052   2.868   2.247  0.00  0.00    +0.000 C 
ATOM     10  C   UNL     1       6.845   1.153   0.580  0.00  0.00    +0.000 C 
ATOM     11  C   UNL     1       6.427   2.553   0.982  0.00  0.00    +0.000 C 
ATOM     12  C   UNL     1       7.128   2.010   4.365  0.00  0.00    +0.000 C 
ATOM     13  C   UNL     1       4.628   1.893   4.149  0.00  0.00    +0.000 C 
ATOM     14  C   UNL     1       6.489   3.513  -0.185  0.00  0.00    +0.000 C 
ENDBRANCH   4   9
ENDBRANCH   1   5
BRANCH   3  15
ATOM     15  C   UNL     1       4.510   7.130   1.122  0.00  0.00    +0.000 C 
ATOM     16  C   UNL     1       3.937   5.920   0.989  0.00  0.00    +0.000 C 
BRANCH  16  17
ATOM     17  C   UNL     1       3.027   5.489  -0.080  0.00  0.00    +0.000 C 
ATOM     18  C   UNL     1       2.303   6.567  -0.845  0.00  0.00    +0.000 C 
ATOM     19  C   UNL     1       2.884   4.165  -0.289  0.00  0.00    +0.000 C 
BRANCH  19  21
ATOM     20  O   UNL     1       2.374   2.939  -2.311  0.00  0.00    +0.000 OA
ATOM     21  C   UNL     1       2.018   3.539  -1.313  0.00  0.00    +0.000 C 
BRANCH  21  22
ATOM     22  O   UNL     1       0.726   3.720  -0.946  0.00  0.00    +0.000 OA
ATOM     23  H   UNL     1       0.427   4.642  -1.097  0.00  0.00    +0.000 HD
ENDBRANCH  21  22
ENDBRANCH  19  21
ENDBRANCH  16  17
ENDBRANCH   3  15
TORSDOF 6
ENDMDL
