MODEL 1
REMARK VINA RESULT:  1542.156      0.000      0.000
REMARK INTER + INTRA:        1569.549
REMARK INTER:                1537.682
REMARK INTRA:                  31.867
REMARK CONF_INDEPENDENT:        4.474
REMARK UNBOUND:               -31.867
REMARK  Name = 60823
REMARK  17 active torsions:
REMARK  status: ('A' for Active; 'I' for Inactive)
REMARK    1  A    between atoms: O_2  and  C_16
REMARK    2  A    between atoms: O_3  and  C_22
REMARK    3  A    between atoms: O_5  and  C_35
REMARK    4  A    between atoms: N_7  and  C_10
REMARK    5  A    between atoms: N_8  and  C_34
REMARK    6  A    between atoms: C_9  and  C_12
REMARK    7  A    between atoms: C_10  and  C_13
REMARK    8  A    between atoms: C_11  and  C_18
REMARK    9  A    between atoms: C_12  and  C_19
REMARK   10  A    between atoms: C_12  and  C_20
REMARK   11  A    between atoms: C_13  and  C_16
REMARK   12  A    between atoms: C_14  and  C_23
REMARK   13  A    between atoms: C_15  and  C_21
REMARK   14  A    between atoms: C_16  and  C_17
REMARK   15  A    between atoms: C_17  and  C_22
REMARK   16  A    between atoms: C_22  and  C_24
REMARK   17  A    between atoms: C_24  and  C_35
REMARK                            x       y       z     vdW  Elec       q    Type
REMARK                         _______ _______ _______ _____ _____    ______ ____
ROOT
ATOM      1  N   UNL     1       3.653   5.606   1.028  0.00  0.00    +0.000 N 
ATOM      2  C   UNL     1       2.723   5.155   0.128  0.00  0.00    +0.000 A 
ATOM      3  C   UNL     1       4.030   4.579   1.854  0.00  0.00    +0.000 A 
ATOM      4  C   UNL     1       2.504   3.818   0.382  0.00  0.00    +0.000 A 
ATOM      5  C   UNL     1       3.331   3.454   1.474  0.00  0.00    +0.000 A 
ENDROOT
BRANCH   3   7
ATOM      6  F   UNL     1       7.779   5.253   5.928  0.00  0.00    +0.000 F 
ATOM      7  C   UNL     1       5.004   4.754   2.912  0.00  0.00    +0.000 A 
ATOM      8  C   UNL     1       6.163   5.494   2.678  0.00  0.00    +0.000 A 
ATOM      9  C   UNL     1       4.783   4.182   4.166  0.00  0.00    +0.000 A 
ATOM     10  C   UNL     1       7.100   5.663   3.697  0.00  0.00    +0.000 A 
ATOM     11  C   UNL     1       5.720   4.352   5.184  0.00  0.00    +0.000 A 
ATOM     12  C   UNL     1       6.879   5.091   4.951  0.00  0.00    +0.000 A 
ENDBRANCH   3   7
BRANCH   5  13
ATOM     13  C   UNL     1       3.470   2.178   2.119  0.00  0.00    +0.000 A 
ATOM     14  C   UNL     1       2.421   1.259   2.083  0.00  0.00    +0.000 A 
ATOM     15  C   UNL     1       4.655   1.856   2.781  0.00  0.00    +0.000 A 
ATOM     16  C   UNL     1       2.556   0.020   2.709  0.00  0.00    +0.000 A 
ATOM     17  C   UNL     1       4.790   0.617   3.407  0.00  0.00    +0.000 A 
ATOM     18  C   UNL     1       3.740  -0.301   3.371  0.00  0.00    +0.000 A 
ENDBRANCH   5  13
BRANCH   4  21
ATOM     19  O   UNL     1       1.389   1.802  -0.035  0.00  0.00    +0.000 OA
ATOM     20  N   UNL     1       0.986   3.596  -1.472  0.00  0.00    +0.000 N 
ATOM     21  C   UNL     1       1.593   2.989  -0.355  0.00  0.00    +0.000 C 
ATOM     22  H   UNL     1       1.227   4.570  -1.646  0.00  0.00    +0.000 HD
BRANCH  20  23
ATOM     23  C   UNL     1       0.081   3.034  -2.406  0.00  0.00    +0.000 A 
ATOM     24  C   UNL     1       0.258   3.260  -3.771  0.00  0.00    +0.000 A 
ATOM     25  C   UNL     1      -0.987   2.254  -1.961  0.00  0.00    +0.000 A 
ATOM     26  C   UNL     1      -0.633   2.706  -4.691  0.00  0.00    +0.000 A 
ATOM     27  C   UNL     1      -1.878   1.701  -2.882  0.00  0.00    +0.000 A 
ATOM     28  C   UNL     1      -1.701   1.927  -4.247  0.00  0.00    +0.000 A 
ENDBRANCH  20  23
ENDBRANCH   4  21
BRANCH   2  29
ATOM     29  C   UNL     1       2.128   6.043  -0.894  0.00  0.00    +0.000 C 
ATOM     30  C   UNL     1       0.735   6.581  -0.491  0.00  0.00    +0.000 C 
ATOM     31  C   UNL     1       2.040   5.387  -2.291  0.00  0.00    +0.000 C 
ENDBRANCH   2  29
BRANCH   1  32
ATOM     32  C   UNL     1       4.154   6.974   1.093  0.00  0.00    +0.000 C 
BRANCH  32  33
ATOM     33  C   UNL     1       5.167   7.311  -0.010  0.00  0.00    +0.000 C 
BRANCH  33  34
ATOM     34  C   UNL     1       6.633   7.206   0.434  0.00  0.00    +0.000 C 
BRANCH  34  35
ATOM     35  O   UNL     1       6.674   7.303   1.861  0.00  0.00    +0.000 OA
ATOM     36  H   UNL     1       5.764   7.196   2.187  0.00  0.00    +0.000 HD
ENDBRANCH  34  35
BRANCH  34  37
ATOM     37  C   UNL     1       7.315   5.884   0.037  0.00  0.00    +0.000 C 
BRANCH  37  38
ATOM     38  C   UNL     1       6.632   4.582   0.477  0.00  0.00    +0.000 C 
BRANCH  38  39
ATOM     39  O   UNL     1       5.313   4.543  -0.061  0.00  0.00    +0.000 OA
ATOM     40  H   UNL     1       5.336   4.962  -0.937  0.00  0.00    +0.000 HD
ENDBRANCH  38  39
BRANCH  38  41
ATOM     41  C   UNL     1       7.403   3.328   0.063  0.00  0.00    +0.000 C 
BRANCH  41  43
ATOM     42  O   UNL     1       7.034   3.993  -2.232  0.00  0.00    +0.000 OA
ATOM     43  C   UNL     1       7.344   3.120  -1.431  0.00  0.00    +0.000 C 
BRANCH  43  44
ATOM     44  O   UNL     1       7.656   1.851  -1.793  0.00  0.00    +0.000 OA
ATOM     45  H   UNL     1       7.393   1.199  -1.108  0.00  0.00    +0.000 HD
ENDBRANCH  43  44
ENDBRANCH  41  43
ENDBRANCH  38  41
ENDBRANCH  37  38
ENDBRANCH  34  37
ENDBRANCH  33  34
ENDBRANCH  32  33
ENDBRANCH   1  32
TORSDOF 15
ENDMDL
