MODEL 1
REMARK VINA RESULT:    -7.315      0.000      0.000
REMARK INTER + INTRA:          -7.315
REMARK INTER:                  -7.315
REMARK INTRA:                   0.000
REMARK CONF_INDEPENDENT:        0.000
REMARK UNBOUND:                -0.000
REMARK  Name = 
REMARK  2 active torsions:
REMARK  status: ('A' for Active; 'I' for Inactive)
REMARK    1  A    between atoms: C_6  and  C_7
REMARK    2  A    between atoms: C_13  and  C_14
REMARK                            x       y       z     vdW  Elec       q    Type
REMARK                         _______ _______ _______ _____ _____    ______ ____
ROOT
ATOM      1  C   UNL     1      -1.633   2.615   1.847  0.00  0.00    +0.000 C 
ATOM      2  C   UNL     1      -2.185   3.230   2.139  0.00  0.00    +0.000 C 
ATOM      3  C   UNL     1      -1.731   4.650   2.135  0.00  0.00    +0.000 C 
ATOM      4  C   UNL     1      -2.670   5.625   1.554  0.00  0.00    +0.000 C 
ATOM      5  C   UNL     1      -4.125   5.252   1.608  0.00  0.00    +0.000 C 
ATOM      6  C   UNL     1      -4.204   3.858   1.089  0.00  0.00    +0.000 C 
ATOM      7  C   UNL     1      -3.238   3.629   0.000  0.00  0.00    +0.000 C 
ATOM      8  C   UNL     1      -5.598   3.410   0.766  0.00  0.00    +0.000 C 
ATOM      9  C   UNL     1      -5.627   2.175   0.255  0.00  0.00    +0.000 C 
ATOM     10  O   UNL     1      -6.307   1.491  -0.750  0.00  0.00    +0.000 OA
ATOM     11  C   UNL     1      -5.385   0.630  -1.361  0.00  0.00    +0.000 C 
ATOM     12  O   UNL     1      -5.270   0.365  -2.599  0.00  0.00    +0.000 OA
ATOM     13  C   UNL     1      -4.240   0.541  -0.445  0.00  0.00    +0.000 C 
ATOM     14  C   UNL     1      -3.342  -0.657  -0.408  0.00  0.00    +0.000 C 
ATOM     15  C   UNL     1      -4.330   1.508   0.454  0.00  0.00    +0.000 C 
ATOM     16  C   UNL     1      -3.749   1.516   1.762  0.00  0.00    +0.000 C 
ATOM     17  C   UNL     1      -3.761   3.008   2.412  0.00  0.00    +0.000 C 
ENDROOT
TORSDOF 0
ENDMDL
MODEL 2
REMARK VINA RESULT:    -7.091      1.914      5.311
REMARK INTER + INTRA:          -7.091
REMARK INTER:                  -7.091
REMARK INTRA:                   0.000
REMARK CONF_INDEPENDENT:        0.000
REMARK UNBOUND:                -0.000
REMARK  Name = 
REMARK  2 active torsions:
REMARK  status: ('A' for Active; 'I' for Inactive)
REMARK    1  A    between atoms: C_6  and  C_7
REMARK    2  A    between atoms: C_13  and  C_14
REMARK                            x       y       z     vdW  Elec       q    Type
REMARK                         _______ _______ _______ _____ _____    ______ ____
ROOT
ATOM      1  C   UNL     1      -1.501  -1.095  -1.190  0.00  0.00    +0.000 C 
ATOM      2  C   UNL     1      -2.122  -1.560  -1.598  0.00  0.00    +0.000 C 
ATOM      3  C   UNL     1      -2.216  -3.021  -1.313  0.00  0.00    +0.000 C 
ATOM      4  C   UNL     1      -3.563  -3.533  -1.003  0.00  0.00    +0.000 C 
ATOM      5  C   UNL     1      -4.712  -2.757  -1.583  0.00  0.00    +0.000 C 
ATOM      6  C   UNL     1      -4.446  -1.330  -1.248  0.00  0.00    +0.000 C 
ATOM      7  C   UNL     1      -3.824  -1.192   0.080  0.00  0.00    +0.000 C 
ATOM      8  C   UNL     1      -5.625  -0.429  -1.460  0.00  0.00    +0.000 C 
ATOM      9  C   UNL     1      -5.369   0.833  -1.102  0.00  0.00    +0.000 C 
ATOM     10  O   UNL     1      -6.029   1.875  -0.454  0.00  0.00    +0.000 OA
ATOM     11  C   UNL     1      -5.084   2.521   0.357  0.00  0.00    +0.000 C 
ATOM     12  O   UNL     1      -5.250   2.980   1.530  0.00  0.00    +0.000 OA
ATOM     13  C   UNL     1      -3.766   2.078  -0.118  0.00  0.00    +0.000 C 
ATOM     14  C   UNL     1      -2.537   2.918   0.048  0.00  0.00    +0.000 C 
ATOM     15  C   UNL     1      -3.923   1.026  -0.904  0.00  0.00    +0.000 C 
ATOM     16  C   UNL     1      -3.027   0.584  -1.930  0.00  0.00    +0.000 C 
ATOM     17  C   UNL     1      -3.369  -0.933  -2.410  0.00  0.00    +0.000 C 
ENDROOT
TORSDOF 0
ENDMDL
MODEL 3
REMARK VINA RESULT:    -7.088      4.421      6.530
REMARK INTER + INTRA:          -7.088
REMARK INTER:                  -7.088
REMARK INTRA:                   0.000
REMARK CONF_INDEPENDENT:        0.000
REMARK UNBOUND:                -0.000
REMARK  Name = 
REMARK  2 active torsions:
REMARK  status: ('A' for Active; 'I' for Inactive)
REMARK    1  A    between atoms: C_6  and  C_7
REMARK    2  A    between atoms: C_13  and  C_14
REMARK                            x       y       z     vdW  Elec       q    Type
REMARK                         _______ _______ _______ _____ _____    ______ ____
ROOT
ATOM      1  C   UNL     1      -2.271  -2.798  -0.367  0.00  0.00    +0.000 C 
ATOM      2  C   UNL     1      -3.063  -2.546  -0.090  0.00  0.00    +0.000 C 
ATOM      3  C   UNL     1      -3.234  -1.145   0.390  0.00  0.00    +0.000 C 
ATOM      4  C   UNL     1      -4.389  -0.411  -0.157  0.00  0.00    +0.000 C 
ATOM      5  C   UNL     1      -5.554  -1.252  -0.598  0.00  0.00    +0.000 C 
ATOM      6  C   UNL     1      -4.978  -2.325  -1.455  0.00  0.00    +0.000 C 
ATOM      7  C   UNL     1      -3.849  -1.827  -2.260  0.00  0.00    +0.000 C 
ATOM      8  C   UNL     1      -6.000  -3.081  -2.248  0.00  0.00    +0.000 C 
ATOM      9  C   UNL     1      -5.445  -4.001  -3.043  0.00  0.00    +0.000 C 
ATOM     10  O   UNL     1      -5.625  -4.490  -4.335  0.00  0.00    +0.000 OA
ATOM     11  C   UNL     1      -4.350  -4.724  -4.870  0.00  0.00    +0.000 C 
ATOM     12  O   UNL     1      -3.950  -4.498  -6.055  0.00  0.00    +0.000 OA
ATOM     13  C   UNL     1      -3.422  -4.725  -3.731  0.00  0.00    +0.000 C 
ATOM     14  C   UNL     1      -2.131  -5.482  -3.757  0.00  0.00    +0.000 C 
ATOM     15  C   UNL     1      -4.035  -4.212  -2.676  0.00  0.00    +0.000 C 
ATOM     16  C   UNL     1      -3.715  -4.452  -1.301  0.00  0.00    +0.000 C 
ATOM     17  C   UNL     1      -4.433  -3.369  -0.322  0.00  0.00    +0.000 C 
ENDROOT
TORSDOF 0
ENDMDL
MODEL 4
REMARK VINA RESULT:    -6.764      3.223      4.887
REMARK INTER + INTRA:          -6.764
REMARK INTER:                  -6.764
REMARK INTRA:                   0.000
REMARK CONF_INDEPENDENT:        0.000
REMARK UNBOUND:                -0.000
REMARK  Name = 
REMARK  2 active torsions:
REMARK  status: ('A' for Active; 'I' for Inactive)
REMARK    1  A    between atoms: C_6  and  C_7
REMARK    2  A    between atoms: C_13  and  C_14
REMARK                            x       y       z     vdW  Elec       q    Type
REMARK                         _______ _______ _______ _____ _____    ______ ____
ROOT
ATOM      1  C   UNL     1      -1.728  -0.444  -1.482  0.00  0.00    +0.000 C 
ATOM      2  C   UNL     1      -2.291  -0.158  -0.874  0.00  0.00    +0.000 C 
ATOM      3  C   UNL     1      -2.576   1.303  -0.802  0.00  0.00    +0.000 C 
ATOM      4  C   UNL     1      -3.999   1.680  -0.737  0.00  0.00    +0.000 C 
ATOM      5  C   UNL     1      -4.925   0.656  -0.144  0.00  0.00    +0.000 C 
ATOM      6  C   UNL     1      -4.605  -0.625  -0.833  0.00  0.00    +0.000 C 
ATOM      7  C   UNL     1      -4.263  -0.407  -2.250  0.00  0.00    +0.000 C 
ATOM      8  C   UNL     1      -5.625  -1.701  -0.615  0.00  0.00    +0.000 C 
ATOM      9  C   UNL     1      -5.334  -2.819  -1.288  0.00  0.00    +0.000 C 
ATOM     10  O   UNL     1      -6.015  -3.789  -2.020  0.00  0.00    +0.000 OA
ATOM     11  C   UNL     1      -5.206  -4.125  -3.115  0.00  0.00    +0.000 C 
ATOM     12  O   UNL     1      -5.569  -4.356  -4.310  0.00  0.00    +0.000 OA
ATOM     13  C   UNL     1      -3.864  -3.613  -2.803  0.00  0.00    +0.000 C 
ATOM     14  C   UNL     1      -2.625  -4.229  -3.375  0.00  0.00    +0.000 C 
ATOM     15  C   UNL     1      -3.949  -2.771  -1.786  0.00  0.00    +0.000 C 
ATOM     16  C   UNL     1      -2.904  -2.427  -0.870  0.00  0.00    +0.000 C 
ATOM     17  C   UNL     1      -3.277  -1.099  -0.008  0.00  0.00    +0.000 C 
ENDROOT
TORSDOF 0
ENDMDL
MODEL 5
REMARK VINA RESULT:    -6.335      3.255      5.161
REMARK INTER + INTRA:          -6.335
REMARK INTER:                  -6.335
REMARK INTRA:                   0.000
REMARK CONF_INDEPENDENT:        0.000
REMARK UNBOUND:                -0.000
REMARK  Name = 
REMARK  2 active torsions:
REMARK  status: ('A' for Active; 'I' for Inactive)
REMARK    1  A    between atoms: C_6  and  C_7
REMARK    2  A    between atoms: C_13  and  C_14
REMARK                            x       y       z     vdW  Elec       q    Type
REMARK                         _______ _______ _______ _____ _____    ______ ____
ROOT
ATOM      1  C   UNL     1      -3.314  -2.247   1.756  0.00  0.00    +0.000 C 
ATOM      2  C   UNL     1      -3.775  -1.523   1.580  0.00  0.00    +0.000 C 
ATOM      3  C   UNL     1      -3.092  -0.203   1.692  0.00  0.00    +0.000 C 
ATOM      4  C   UNL     1      -3.272   0.715   0.553  0.00  0.00    +0.000 C 
ATOM      5  C   UNL     1      -4.531   0.533  -0.247  0.00  0.00    +0.000 C 
ATOM      6  C   UNL     1      -4.613  -0.924  -0.544  0.00  0.00    +0.000 C 
ATOM      7  C   UNL     1      -3.280  -1.504  -0.786  0.00  0.00    +0.000 C 
ATOM      8  C   UNL     1      -5.624  -1.272  -1.595  0.00  0.00    +0.000 C 
ATOM      9  C   UNL     1      -5.636  -2.579  -1.874  0.00  0.00    +0.000 C 
ATOM     10  O   UNL     1      -5.748  -3.392  -3.000  0.00  0.00    +0.000 OA
ATOM     11  C   UNL     1      -4.868  -4.469  -2.822  0.00  0.00    +0.000 C 
ATOM     12  O   UNL     1      -4.127  -5.021  -3.693  0.00  0.00    +0.000 OA
ATOM     13  C   UNL     1      -4.516  -4.478  -1.395  0.00  0.00    +0.000 C 
ATOM     14  C   UNL     1      -4.106  -5.730  -0.684  0.00  0.00    +0.000 C 
ATOM     15  C   UNL     1      -4.884  -3.327  -0.854  0.00  0.00    +0.000 C 
ATOM     16  C   UNL     1      -5.178  -3.087   0.527  0.00  0.00    +0.000 C 
ATOM     17  C   UNL     1      -5.221  -1.495   0.861  0.00  0.00    +0.000 C 
ENDROOT
TORSDOF 0
ENDMDL
MODEL 6
REMARK VINA RESULT:    -5.925      4.987      7.449
REMARK INTER + INTRA:          -5.925
REMARK INTER:                  -5.925
REMARK INTRA:                   0.000
REMARK CONF_INDEPENDENT:        0.000
REMARK UNBOUND:                -0.000
REMARK  Name = 
REMARK  2 active torsions:
REMARK  status: ('A' for Active; 'I' for Inactive)
REMARK    1  A    between atoms: C_6  and  C_7
REMARK    2  A    between atoms: C_13  and  C_14
REMARK                            x       y       z     vdW  Elec       q    Type
REMARK                         _______ _______ _______ _____ _____    ______ ____
ROOT
ATOM      1  C   UNL     1      -1.771  -4.202  -2.150  0.00  0.00    +0.000 C 
ATOM      2  C   UNL     1      -2.356  -4.125  -2.797  0.00  0.00    +0.000 C 
ATOM      3  C   UNL     1      -2.661  -5.328  -3.624  0.00  0.00    +0.000 C 
ATOM      4  C   UNL     1      -4.090  -5.623  -3.832  0.00  0.00    +0.000 C 
ATOM      5  C   UNL     1      -5.022  -4.447  -3.759  0.00  0.00    +0.000 C 
ATOM      6  C   UNL     1      -4.665  -3.724  -2.507  0.00  0.00    +0.000 C 
ATOM      7  C   UNL     1      -4.280  -4.658  -1.434  0.00  0.00    +0.000 C 
ATOM      8  C   UNL     1      -5.679  -2.703  -2.087  0.00  0.00    +0.000 C 
ATOM      9  C   UNL     1      -5.353  -2.111  -0.933  0.00  0.00    +0.000 C 
ATOM     10  O   UNL     1      -5.999  -1.683   0.224  0.00  0.00    +0.000 OA
ATOM     11  C   UNL     1      -5.151  -1.972   1.302  0.00  0.00    +0.000 C 
ATOM     12  O   UNL     1      -5.473  -2.413   2.449  0.00  0.00    +0.000 OA
ATOM     13  C   UNL     1      -3.826  -2.231   0.722  0.00  0.00    +0.000 C 
ATOM     14  C   UNL     1      -2.562  -2.005   1.492  0.00  0.00    +0.000 C 
ATOM     15  C   UNL     1      -3.954  -2.406  -0.584  0.00  0.00    +0.000 C 
ATOM     16  C   UNL     1      -2.943  -2.204  -1.577  0.00  0.00    +0.000 C 
ATOM     17  C   UNL     1      -3.359  -2.875  -2.999  0.00  0.00    +0.000 C 
ENDROOT
TORSDOF 0
ENDMDL
MODEL 7
REMARK VINA RESULT:    -5.855      1.757      2.289
REMARK INTER + INTRA:          -5.855
REMARK INTER:                  -5.855
REMARK INTRA:                   0.000
REMARK CONF_INDEPENDENT:        0.000
REMARK UNBOUND:                -0.000
REMARK  Name = 
REMARK  2 active torsions:
REMARK  status: ('A' for Active; 'I' for Inactive)
REMARK    1  A    between atoms: C_6  and  C_7
REMARK    2  A    between atoms: C_13  and  C_14
REMARK                            x       y       z     vdW  Elec       q    Type
REMARK                         _______ _______ _______ _____ _____    ______ ____
ROOT
ATOM      1  C   UNL     1      -1.381   0.096   1.925  0.00  0.00    +0.000 C 
ATOM      2  C   UNL     1      -1.525   0.959   1.872  0.00  0.00    +0.000 C 
ATOM      3  C   UNL     1      -0.392   1.845   1.483  0.00  0.00    +0.000 C 
ATOM      4  C   UNL     1      -0.677   2.831   0.425  0.00  0.00    +0.000 C 
ATOM      5  C   UNL     1      -2.110   3.266   0.299  0.00  0.00    +0.000 C 
ATOM      6  C   UNL     1      -2.912   2.012   0.277  0.00  0.00    +0.000 C 
ATOM      7  C   UNL     1      -2.214   0.934  -0.445  0.00  0.00    +0.000 C 
ATOM      8  C   UNL     1      -4.333   2.210  -0.158  0.00  0.00    +0.000 C 
ATOM      9  C   UNL     1      -5.010   1.059  -0.216  0.00  0.00    +0.000 C 
ATOM     10  O   UNL     1      -5.950   0.457  -1.050  0.00  0.00    +0.000 OA
ATOM     11  C   UNL     1      -5.621  -0.903  -1.129  0.00  0.00    +0.000 C 
ATOM     12  O   UNL     1      -5.666  -1.656  -2.152  0.00  0.00    +0.000 OA
ATOM     13  C   UNL     1      -4.694  -1.166  -0.020  0.00  0.00    +0.000 C 
ATOM     14  C   UNL     1      -4.562  -2.520   0.604  0.00  0.00    +0.000 C 
ATOM     15  C   UNL     1      -4.259  -0.011   0.460  0.00  0.00    +0.000 C 
ATOM     16  C   UNL     1      -3.759   0.232   1.780  0.00  0.00    +0.000 C 
ATOM     17  C   UNL     1      -2.981   1.658   1.870  0.00  0.00    +0.000 C 
ENDROOT
TORSDOF 0
ENDMDL
MODEL 8
REMARK VINA RESULT:    -5.625     12.326     13.963
REMARK INTER + INTRA:          -5.625
REMARK INTER:                  -5.625
REMARK INTRA:                   0.000
REMARK CONF_INDEPENDENT:        0.000
REMARK UNBOUND:                -0.000
REMARK  Name = 
REMARK  2 active torsions:
REMARK  status: ('A' for Active; 'I' for Inactive)
REMARK    1  A    between atoms: C_6  and  C_7
REMARK    2  A    between atoms: C_13  and  C_14
REMARK                            x       y       z     vdW  Elec       q    Type
REMARK                         _______ _______ _______ _____ _____    ______ ____
ROOT
ATOM      1  C   UNL     1       6.657  -3.672   1.243  0.00  0.00    +0.000 C 
ATOM      2  C   UNL     1       6.320  -4.424   0.943  0.00  0.00    +0.000 C 
ATOM      3  C   UNL     1       7.028  -5.125  -0.165  0.00  0.00    +0.000 C 
ATOM      4  C   UNL     1       7.259  -6.568   0.027  0.00  0.00    +0.000 C 
ATOM      5  C   UNL     1       6.288  -7.276   0.929  0.00  0.00    +0.000 C 
ATOM      6  C   UNL     1       6.198  -6.444   2.160  0.00  0.00    +0.000 C 
ATOM      7  C   UNL     1       7.500  -5.844   2.504  0.00  0.00    +0.000 C 
ATOM      8  C   UNL     1       5.527  -7.133   3.310  0.00  0.00    +0.000 C 
ATOM      9  C   UNL     1       5.509  -6.378   4.413  0.00  0.00    +0.000 C 
ATOM     10  O   UNL     1       5.684  -6.553   5.784  0.00  0.00    +0.000 OA
ATOM     11  C   UNL     1       6.394  -5.439   6.255  0.00  0.00    +0.000 C 
ATOM     12  O   UNL     1       7.322  -5.418   7.123  0.00  0.00    +0.000 OA
ATOM     13  C   UNL     1       6.301  -4.419   5.202  0.00  0.00    +0.000 C 
ATOM     14  C   UNL     1       6.393  -2.955   5.501  0.00  0.00    +0.000 C 
ATOM     15  C   UNL     1       5.869  -4.988   4.088  0.00  0.00    +0.000 C 
ATOM     16  C   UNL     1       5.192  -4.342   3.004  0.00  0.00    +0.000 C 
ATOM     17  C   UNL     1       5.161  -5.279   1.675  0.00  0.00    +0.000 C 
ENDROOT
TORSDOF 0
ENDMDL
MODEL 9
REMARK VINA RESULT:    -5.457      3.707      4.609
REMARK INTER + INTRA:          -5.457
REMARK INTER:                  -5.457
REMARK INTRA:                   0.000
REMARK CONF_INDEPENDENT:        0.000
REMARK UNBOUND:                -0.000
REMARK  Name = 
REMARK  2 active torsions:
REMARK  status: ('A' for Active; 'I' for Inactive)
REMARK    1  A    between atoms: C_6  and  C_7
REMARK    2  A    between atoms: C_13  and  C_14
REMARK                            x       y       z     vdW  Elec       q    Type
REMARK                         _______ _______ _______ _____ _____    ______ ____
ROOT
ATOM      1  C   UNL     1      -0.939  -2.039  -0.038  0.00  0.00    +0.000 C 
ATOM      2  C   UNL     1      -0.958  -1.174  -0.175  0.00  0.00    +0.000 C 
ATOM      3  C   UNL     1       0.164  -0.551  -0.934  0.00  0.00    +0.000 C 
ATOM      4  C   UNL     1      -0.223   0.364  -2.022  0.00  0.00    +0.000 C 
ATOM      5  C   UNL     1      -1.557   1.039  -1.872  0.00  0.00    +0.000 C 
ATOM      6  C   UNL     1      -2.523  -0.044  -1.535  0.00  0.00    +0.000 C 
ATOM      7  C   UNL     1      -2.202  -1.295  -2.244  0.00  0.00    +0.000 C 
ATOM      8  C   UNL     1      -3.959   0.368  -1.652  0.00  0.00    +0.000 C 
ATOM      9  C   UNL     1      -4.798  -0.641  -1.393  0.00  0.00    +0.000 C 
ATOM     10  O   UNL     1      -5.998  -1.138  -1.895  0.00  0.00    +0.000 OA
ATOM     11  C   UNL     1      -5.913  -2.537  -1.861  0.00  0.00    +0.000 C 
ATOM     12  O   UNL     1      -6.328  -3.364  -2.732  0.00  0.00    +0.000 OA
ATOM     13  C   UNL     1      -4.788  -2.856  -0.971  0.00  0.00    +0.000 C 
ATOM     14  C   UNL     1      -4.713  -4.146  -0.214  0.00  0.00    +0.000 C 
ATOM     15  C   UNL     1      -4.074  -1.760  -0.768  0.00  0.00    +0.000 C 
ATOM     16  C   UNL     1      -3.227  -1.487   0.353  0.00  0.00    +0.000 C 
ATOM     17  C   UNL     1      -2.242  -0.224   0.064  0.00  0.00    +0.000 C 
ENDROOT
TORSDOF 0
ENDMDL
