MODEL 1
REMARK VINA RESULT:    40.186      0.000      0.000
REMARK INTER + INTRA:          40.065
REMARK INTER:                  38.396
REMARK INTRA:                   1.669
REMARK CONF_INDEPENDENT:        1.790
REMARK UNBOUND:                -1.669
REMARK  Name = 641785
REMARK  7 active torsions:
REMARK  status: ('A' for Active; 'I' for Inactive)
REMARK    1  A    between atoms: O_1  and  C_6
REMARK    2  A    between atoms: O_1  and  C_20
REMARK    3  A    between atoms: O_2  and  C_7
REMARK    4  A    between atoms: O_3  and  C_11
REMARK    5  A    between atoms: C_5  and  C_8
REMARK    6  A    between atoms: C_8  and  C_12
REMARK    7  A    between atoms: C_13  and  C_14
REMARK                            x       y       z     vdW  Elec       q    Type
REMARK                         _______ _______ _______ _____ _____    ______ ____
ROOT
ATOM      1  C   UNL     1      -1.774   0.995   4.329  0.00  0.00    +0.000 A 
ATOM      2  C   UNL     1      -2.111   1.244   5.647  0.00  0.00    +0.000 A 
ATOM      3  C   UNL     1      -2.706   1.088   3.311  0.00  0.00    +0.000 A 
ATOM      4  C   UNL     1      -3.425   1.598   5.957  0.00  0.00    +0.000 A 
ATOM      5  C   UNL     1      -4.019   1.441   3.621  0.00  0.00    +0.000 A 
ATOM      6  C   UNL     1      -4.378   1.696   4.944  0.00  0.00    +0.000 A 
ENDROOT
BRANCH   2   7
ATOM      7  O   UNL     1      -1.195   1.154   6.653  0.00  0.00    +0.000 OA
ATOM      8  C   UNL     1      -0.470  -0.069   6.760  0.00  0.00    +0.000 C 
ENDBRANCH   2   7
BRANCH   3   9
ATOM      9  O   UNL     1      -2.376   0.844   2.011  0.00  0.00    +0.000 OA
ATOM     10  H   UNL     1      -3.174   0.771   1.463  0.00  0.00    +0.000 HD
ENDBRANCH   3   9
BRANCH   6  11
ATOM     11  O   UNL     1      -5.660   2.041   5.247  0.00  0.00    +0.000 OA
ATOM     12  H   UNL     1      -5.649   2.678   5.983  0.00  0.00    +0.000 HD
ENDBRANCH   6  11
BRANCH   1  14
ATOM     13  O   UNL     1       0.505   0.769   4.836  0.00  0.00    +0.000 OA
ATOM     14  C   UNL     1      -0.379   0.619   3.999  0.00  0.00    +0.000 C 
BRANCH  14  15
ATOM     15  C   UNL     1      -0.109   0.098   2.630  0.00  0.00    +0.000 C 
ATOM     16  C   UNL     1      -0.761  -0.996   2.176  0.00  0.00    +0.000 C 
BRANCH  16  17
ATOM     17  C   UNL     1      -0.567  -1.604   0.869  0.00  0.00    +0.000 A 
ATOM     18  C   UNL     1       0.255  -2.723   0.734  0.00  0.00    +0.000 A 
ATOM     19  C   UNL     1      -1.204  -1.068  -0.250  0.00  0.00    +0.000 A 
ATOM     20  C   UNL     1       0.441  -3.305  -0.519  0.00  0.00    +0.000 A 
ATOM     21  C   UNL     1      -1.018  -1.652  -1.505  0.00  0.00    +0.000 A 
ATOM     22  C   UNL     1      -0.196  -2.770  -1.638  0.00  0.00    +0.000 A 
ENDBRANCH  16  17
ENDBRANCH  14  15
ENDBRANCH   1  14
TORSDOF 6
ENDMDL
