MODEL 1
REMARK VINA RESULT:   105.495      0.000      0.000
REMARK INTER + INTRA:         102.450
REMARK INTER:                 103.705
REMARK INTRA:                  -1.255
REMARK CONF_INDEPENDENT:        1.790
REMARK UNBOUND:                 1.255
REMARK  Name = 5318517
REMARK  8 active torsions:
REMARK  status: ('A' for Active; 'I' for Inactive)
REMARK    1  A    between atoms: O_1  and  C_11
REMARK    2  A    between atoms: O_2  and  C_17
REMARK    3  A    between atoms: O_4  and  C_23
REMARK    4  A    between atoms: C_6  and  C_14
REMARK    5  A    between atoms: C_8  and  C_17
REMARK    6  A    between atoms: C_8  and  C_18
REMARK    7  A    between atoms: C_9  and  C_19
REMARK    8  A    between atoms: C_19  and  C_21
REMARK                            x       y       z     vdW  Elec       q    Type
REMARK                         _______ _______ _______ _____ _____    ______ ____
ROOT
ATOM      1  C   UNL     1      -2.212   0.761   3.293  0.00  0.00    +0.000 C 
ATOM      2  C   UNL     1      -2.107   2.055   4.200  0.00  0.00    +0.000 C 
ATOM      3  C   UNL     1      -3.417   2.499   4.954  0.00  0.00    +0.000 C 
ATOM      4  C   UNL     1      -0.896   0.704   2.407  0.00  0.00    +0.000 C 
ATOM      5  C   UNL     1      -3.459   0.891   2.381  0.00  0.00    +0.000 C 
ATOM      6  C   UNL     1      -4.597   2.519   3.939  0.00  0.00    +0.000 C 
ATOM      7  C   UNL     1      -0.840   2.014   5.086  0.00  0.00    +0.000 C 
ATOM      8  C   UNL     1      -4.740   1.232   3.134  0.00  0.00    +0.000 C 
ATOM      9  C   UNL     1      -2.333  -0.554   4.106  0.00  0.00    +0.000 C 
ATOM     10  C   UNL     1       0.431   1.861   4.248  0.00  0.00    +0.000 C 
ATOM     11  C   UNL     1       0.340   0.688   3.306  0.00  0.00    +0.000 C 
ATOM     12  C   UNL     1      -3.243   3.953   5.478  0.00  0.00    +0.000 C 
ATOM     13  C   UNL     1       1.290  -0.263   3.313  0.00  0.00    +0.000 C 
ENDROOT
BRANCH   6  14
ATOM     14  O   UNL     1      -5.839   2.805   4.580  0.00  0.00    +0.000 OA
ATOM     15  H   UNL     1      -5.782   3.704   4.947  0.00  0.00    +0.000 HD
ENDBRANCH   6  14
BRANCH   3  16
ATOM     16  C   UNL     1      -3.751   1.646   6.197  0.00  0.00    +0.000 C 
BRANCH  16  17
ATOM     17  O   UNL     1      -5.075   1.178   6.059  0.00  0.00    +0.000 OA
ATOM     18  H   UNL     1      -5.667   1.906   6.317  0.00  0.00    +0.000 HD
ENDBRANCH  16  17
ENDBRANCH   3  16
BRANCH   4  19
ATOM     19  C   UNL     1      -0.904  -0.386   1.322  0.00  0.00    +0.000 C 
BRANCH  19  22
ATOM     20  O   UNL     1       0.685  -4.730   2.435  0.00  0.00    +0.000 OA
ATOM     21  O   UNL     1      -1.567  -4.495   2.854  0.00  0.00    +0.000 OA
ATOM     22  C   UNL     1      -1.131  -1.732   1.926  0.00  0.00    +0.000 C 
ATOM     23  C   UNL     1      -0.254  -2.735   1.851  0.00  0.00    +0.000 C 
ATOM     24  C   UNL     1       1.104  -2.727   1.261  0.00  0.00    +0.000 C 
ATOM     25  C   UNL     1      -0.506  -4.061   2.445  0.00  0.00    +0.000 C 
ATOM     26  C   UNL     1       1.753  -3.844   2.049  0.00  0.00    +0.000 C 
BRANCH  24  27
ATOM     27  O   UNL     1       1.036  -3.102  -0.108  0.00  0.00    +0.000 OA
ATOM     28  H   UNL     1       0.174  -2.806  -0.449  0.00  0.00    +0.000 HD
ENDBRANCH  24  27
ENDBRANCH  19  22
ENDBRANCH   4  19
TORSDOF 6
ENDMDL
