MODEL 1
REMARK VINA RESULT:    -6.344      0.000      0.000
REMARK INTER + INTRA:         -18.417
REMARK INTER:                 -10.819
REMARK INTRA:                  -7.598
REMARK CONF_INDEPENDENT:        4.474
REMARK UNBOUND:                 7.598
REMARK  Name = 60823
REMARK  17 active torsions:
REMARK  status: ('A' for Active; 'I' for Inactive)
REMARK    1  A    between atoms: O_2  and  C_16
REMARK    2  A    between atoms: O_3  and  C_22
REMARK    3  A    between atoms: O_5  and  C_35
REMARK    4  A    between atoms: N_7  and  C_10
REMARK    5  A    between atoms: N_8  and  C_34
REMARK    6  A    between atoms: C_9  and  C_12
REMARK    7  A    between atoms: C_10  and  C_13
REMARK    8  A    between atoms: C_11  and  C_18
REMARK    9  A    between atoms: C_12  and  C_19
REMARK   10  A    between atoms: C_12  and  C_20
REMARK   11  A    between atoms: C_13  and  C_16
REMARK   12  A    between atoms: C_14  and  C_23
REMARK   13  A    between atoms: C_15  and  C_21
REMARK   14  A    between atoms: C_16  and  C_17
REMARK   15  A    between atoms: C_17  and  C_22
REMARK   16  A    between atoms: C_22  and  C_24
REMARK   17  A    between atoms: C_24  and  C_35
REMARK                            x       y       z     vdW  Elec       q    Type
REMARK                         _______ _______ _______ _____ _____    ______ ____
ROOT
ATOM      1  N   UNL     1      -0.101  -2.132   1.531  0.00  0.00    +0.000 N 
ATOM      2  C   UNL     1       0.900  -2.552   0.694  0.00  0.00    +0.000 A 
ATOM      3  C   UNL     1       0.445  -1.622   2.680  0.00  0.00    +0.000 A 
ATOM      4  C   UNL     1       2.103  -2.305   1.318  0.00  0.00    +0.000 A 
ATOM      5  C   UNL     1       1.815  -1.717   2.575  0.00  0.00    +0.000 A 
ENDROOT
BRANCH   3   7
ATOM      6  F   UNL     1      -2.693   0.393   6.828  0.00  0.00    +0.000 F 
ATOM      7  C   UNL     1      -0.370  -1.098   3.758  0.00  0.00    +0.000 A 
ATOM      8  C   UNL     1      -0.907   0.187   3.667  0.00  0.00    +0.000 A 
ATOM      9  C   UNL     1      -0.619  -1.878   4.888  0.00  0.00    +0.000 A 
ATOM     10  C   UNL     1      -1.691   0.690   4.704  0.00  0.00    +0.000 A 
ATOM     11  C   UNL     1      -1.404  -1.374   5.924  0.00  0.00    +0.000 A 
ATOM     12  C   UNL     1      -1.940  -0.090   5.833  0.00  0.00    +0.000 A 
ENDBRANCH   3   7
BRANCH   5  13
ATOM     13  C   UNL     1       2.722  -1.275   3.599  0.00  0.00    +0.000 A 
ATOM     14  C   UNL     1       3.838  -2.047   3.922  0.00  0.00    +0.000 A 
ATOM     15  C   UNL     1       2.487  -0.075   4.269  0.00  0.00    +0.000 A 
ATOM     16  C   UNL     1       4.719  -1.620   4.916  0.00  0.00    +0.000 A 
ATOM     17  C   UNL     1       3.367   0.352   5.263  0.00  0.00    +0.000 A 
ATOM     18  C   UNL     1       4.483  -0.420   5.586  0.00  0.00    +0.000 A 
ENDBRANCH   5  13
BRANCH   4  21
ATOM     19  O   UNL     1       4.032  -1.759   0.107  0.00  0.00    +0.000 OA
ATOM     20  N   UNL     1       3.845  -3.925   0.955  0.00  0.00    +0.000 N 
ATOM     21  C   UNL     1       3.389  -2.608   0.755  0.00  0.00    +0.000 C 
ATOM     22  H   UNL     1       3.238  -4.538   1.496  0.00  0.00    +0.000 HD
BRANCH  20  23
ATOM     23  C   UNL     1       5.041  -4.531   0.497  0.00  0.00    +0.000 A 
ATOM     24  C   UNL     1       6.181  -3.755   0.289  0.00  0.00    +0.000 A 
ATOM     25  C   UNL     1       5.079  -5.905   0.255  0.00  0.00    +0.000 A 
ATOM     26  C   UNL     1       7.359  -4.352  -0.161  0.00  0.00    +0.000 A 
ATOM     27  C   UNL     1       6.258  -6.501  -0.195  0.00  0.00    +0.000 A 
ATOM     28  C   UNL     1       7.397  -5.725  -0.403  0.00  0.00    +0.000 A 
ENDBRANCH  20  23
ENDBRANCH   4  21
BRANCH   2  29
ATOM     29  C   UNL     1       0.614  -3.152  -0.627  0.00  0.00    +0.000 C 
ATOM     30  C   UNL     1       1.418  -4.447  -0.890  0.00  0.00    +0.000 C 
ATOM     31  C   UNL     1       0.829  -2.168  -1.799  0.00  0.00    +0.000 C 
ENDBRANCH   2  29
BRANCH   1  32
ATOM     32  C   UNL     1      -1.526  -2.223   1.236  0.00  0.00    +0.000 C 
BRANCH  32  33
ATOM     33  C   UNL     1      -2.309  -3.077   2.242  0.00  0.00    +0.000 C 
BRANCH  33  34
ATOM     34  C   UNL     1      -3.768  -2.638   2.435  0.00  0.00    +0.000 C 
BRANCH  34  35
ATOM     35  O   UNL     1      -4.522  -3.775   2.866  0.00  0.00    +0.000 OA
ATOM     36  H   UNL     1      -4.942  -3.544   3.712  0.00  0.00    +0.000 HD
ENDBRANCH  34  35
BRANCH  34  37
ATOM     37  C   UNL     1      -3.955  -1.529   3.486  0.00  0.00    +0.000 C 
BRANCH  37  38
ATOM     38  C   UNL     1      -5.055  -0.491   3.223  0.00  0.00    +0.000 C 
BRANCH  38  39
ATOM     39  O   UNL     1      -5.342  -0.459   1.828  0.00  0.00    +0.000 OA
ATOM     40  H   UNL     1      -5.749  -1.308   1.588  0.00  0.00    +0.000 HD
ENDBRANCH  38  39
BRANCH  38  41
ATOM     41  C   UNL     1      -6.336  -0.759   4.014  0.00  0.00    +0.000 C 
BRANCH  41  43
ATOM     42  O   UNL     1      -6.753  -2.864   5.126  0.00  0.00    +0.000 OA
ATOM     43  C   UNL     1      -6.638  -2.236   4.081  0.00  0.00    +0.000 C 
BRANCH  43  44
ATOM     44  O   UNL     1      -6.753  -2.801   2.854  0.00  0.00    +0.000 OA
ATOM     45  H   UNL     1      -6.108  -2.427   2.216  0.00  0.00    +0.000 HD
ENDBRANCH  43  44
ENDBRANCH  41  43
ENDBRANCH  38  41
ENDBRANCH  37  38
ENDBRANCH  34  37
ENDBRANCH  33  34
ENDBRANCH  32  33
ENDBRANCH   1  32
TORSDOF 15
ENDMDL
MODEL 2
REMARK VINA RESULT:    -4.584      3.774      8.442
REMARK INTER + INTRA:         -19.369
REMARK INTER:                  -9.058
REMARK INTRA:                 -10.311
REMARK CONF_INDEPENDENT:        4.474
REMARK UNBOUND:                10.311
REMARK  Name = 60823
REMARK  17 active torsions:
REMARK  status: ('A' for Active; 'I' for Inactive)
REMARK    1  A    between atoms: O_2  and  C_16
REMARK    2  A    between atoms: O_3  and  C_22
REMARK    3  A    between atoms: O_5  and  C_35
REMARK    4  A    between atoms: N_7  and  C_10
REMARK    5  A    between atoms: N_8  and  C_34
REMARK    6  A    between atoms: C_9  and  C_12
REMARK    7  A    between atoms: C_10  and  C_13
REMARK    8  A    between atoms: C_11  and  C_18
REMARK    9  A    between atoms: C_12  and  C_19
REMARK   10  A    between atoms: C_12  and  C_20
REMARK   11  A    between atoms: C_13  and  C_16
REMARK   12  A    between atoms: C_14  and  C_23
REMARK   13  A    between atoms: C_15  and  C_21
REMARK   14  A    between atoms: C_16  and  C_17
REMARK   15  A    between atoms: C_17  and  C_22
REMARK   16  A    between atoms: C_22  and  C_24
REMARK   17  A    between atoms: C_24  and  C_35
REMARK                            x       y       z     vdW  Elec       q    Type
REMARK                         _______ _______ _______ _____ _____    ______ ____
ROOT
ATOM      1  N   UNL     1       2.199  -0.868   0.555  0.00  0.00    +0.000 N 
ATOM      2  C   UNL     1       1.166  -0.961   1.451  0.00  0.00    +0.000 A 
ATOM      3  C   UNL     1       1.791  -0.159  -0.544  0.00  0.00    +0.000 A 
ATOM      4  C   UNL     1       0.083  -0.298   0.916  0.00  0.00    +0.000 A 
ATOM      5  C   UNL     1       0.478   0.209  -0.347  0.00  0.00    +0.000 A 
ENDROOT
BRANCH   3   7
ATOM      6  F   UNL     1       5.177   0.849  -4.861  0.00  0.00    +0.000 F 
ATOM      7  C   UNL     1       2.671   0.104  -1.666  0.00  0.00    +0.000 A 
ATOM      8  C   UNL     1       3.672   1.070  -1.557  0.00  0.00    +0.000 A 
ATOM      9  C   UNL     1       2.518  -0.611  -2.855  0.00  0.00    +0.000 A 
ATOM     10  C   UNL     1       4.518   1.321  -2.637  0.00  0.00    +0.000 A 
ATOM     11  C   UNL     1       3.365  -0.359  -3.934  0.00  0.00    +0.000 A 
ATOM     12  C   UNL     1       4.365   0.607  -3.825  0.00  0.00    +0.000 A 
ENDBRANCH   3   7
BRANCH   5  13
ATOM     13  C   UNL     1      -0.284   0.970  -1.297  0.00  0.00    +0.000 A 
ATOM     14  C   UNL     1      -0.822   2.204  -0.931  0.00  0.00    +0.000 A 
ATOM     15  C   UNL     1      -0.486   0.477  -2.586  0.00  0.00    +0.000 A 
ATOM     16  C   UNL     1      -1.563   2.944  -1.853  0.00  0.00    +0.000 A 
ATOM     17  C   UNL     1      -1.227   1.216  -3.508  0.00  0.00    +0.000 A 
ATOM     18  C   UNL     1      -1.765   2.450  -3.142  0.00  0.00    +0.000 A 
ENDBRANCH   5  13
BRANCH   4  21
ATOM     19  O   UNL     1      -1.540   0.885   2.120  0.00  0.00    +0.000 OA
ATOM     20  N   UNL     1      -1.998  -1.330   1.547  0.00  0.00    +0.000 N 
ATOM     21  C   UNL     1      -1.195  -0.173   1.561  0.00  0.00    +0.000 C 
ATOM     22  H   UNL     1      -1.616  -2.142   1.066  0.00  0.00    +0.000 HD
BRANCH  20  23
ATOM     23  C   UNL     1      -3.277  -1.531   2.123  0.00  0.00    +0.000 A 
ATOM     24  C   UNL     1      -3.725  -2.824   2.394  0.00  0.00    +0.000 A 
ATOM     25  C   UNL     1      -4.088  -0.435   2.420  0.00  0.00    +0.000 A 
ATOM     26  C   UNL     1      -4.984  -3.021   2.962  0.00  0.00    +0.000 A 
ATOM     27  C   UNL     1      -5.347  -0.633   2.988  0.00  0.00    +0.000 A 
ATOM     28  C   UNL     1      -5.795  -1.926   3.259  0.00  0.00    +0.000 A 
ENDBRANCH  20  23
ENDBRANCH   4  21
BRANCH   2  29
ATOM     29  C   UNL     1       1.308  -1.675   2.738  0.00  0.00    +0.000 C 
ATOM     30  C   UNL     1       0.009  -1.675   3.579  0.00  0.00    +0.000 C 
ATOM     31  C   UNL     1       2.477  -1.143   3.600  0.00  0.00    +0.000 C 
ENDBRANCH   2  29
BRANCH   1  32
ATOM     32  C   UNL     1       3.524  -1.446   0.750  0.00  0.00    +0.000 C 
BRANCH  32  33
ATOM     33  C   UNL     1       3.499  -2.939   1.102  0.00  0.00    +0.000 C 
BRANCH  33  34
ATOM     34  C   UNL     1       2.551  -3.773   0.228  0.00  0.00    +0.000 C 
BRANCH  34  35
ATOM     35  O   UNL     1       1.277  -3.823   0.876  0.00  0.00    +0.000 OA
ATOM     36  H   UNL     1       0.668  -4.301   0.287  0.00  0.00    +0.000 HD
ENDBRANCH  34  35
BRANCH  34  37
ATOM     37  C   UNL     1       2.334  -3.200  -1.185  0.00  0.00    +0.000 C 
BRANCH  37  38
ATOM     38  C   UNL     1       1.331  -3.927  -2.091  0.00  0.00    +0.000 C 
BRANCH  38  39
ATOM     39  O   UNL     1       0.658  -4.928  -1.332  0.00  0.00    +0.000 OA
ATOM     40  H   UNL     1      -0.015  -4.487  -0.788  0.00  0.00    +0.000 HD
ENDBRANCH  38  39
BRANCH  38  41
ATOM     41  C   UNL     1       0.312  -2.988  -2.736  0.00  0.00    +0.000 C 
BRANCH  41  43
ATOM     42  O   UNL     1      -1.962  -2.427  -2.141  0.00  0.00    +0.000 OA
ATOM     43  C   UNL     1      -0.815  -2.668  -1.785  0.00  0.00    +0.000 C 
BRANCH  43  44
ATOM     44  O   UNL     1      -0.417  -2.659  -0.489  0.00  0.00    +0.000 OA
ATOM     45  H   UNL     1      -0.477  -3.550  -0.082  0.00  0.00    +0.000 HD
ENDBRANCH  43  44
ENDBRANCH  41  43
ENDBRANCH  38  41
ENDBRANCH  37  38
ENDBRANCH  34  37
ENDBRANCH  33  34
ENDBRANCH  32  33
ENDBRANCH   1  32
TORSDOF 15
ENDMDL
MODEL 3
REMARK VINA RESULT:    -4.420      4.027      6.844
REMARK INTER + INTRA:         -18.252
REMARK INTER:                  -8.894
REMARK INTRA:                  -9.358
REMARK CONF_INDEPENDENT:        4.474
REMARK UNBOUND:                 9.358
REMARK  Name = 60823
REMARK  17 active torsions:
REMARK  status: ('A' for Active; 'I' for Inactive)
REMARK    1  A    between atoms: O_2  and  C_16
REMARK    2  A    between atoms: O_3  and  C_22
REMARK    3  A    between atoms: O_5  and  C_35
REMARK    4  A    between atoms: N_7  and  C_10
REMARK    5  A    between atoms: N_8  and  C_34
REMARK    6  A    between atoms: C_9  and  C_12
REMARK    7  A    between atoms: C_10  and  C_13
REMARK    8  A    between atoms: C_11  and  C_18
REMARK    9  A    between atoms: C_12  and  C_19
REMARK   10  A    between atoms: C_12  and  C_20
REMARK   11  A    between atoms: C_13  and  C_16
REMARK   12  A    between atoms: C_14  and  C_23
REMARK   13  A    between atoms: C_15  and  C_21
REMARK   14  A    between atoms: C_16  and  C_17
REMARK   15  A    between atoms: C_17  and  C_22
REMARK   16  A    between atoms: C_22  and  C_24
REMARK   17  A    between atoms: C_24  and  C_35
REMARK                            x       y       z     vdW  Elec       q    Type
REMARK                         _______ _______ _______ _____ _____    ______ ____
ROOT
ATOM      1  N   UNL     1      -1.968   1.949   1.308  0.00  0.00    +0.000 N 
ATOM      2  C   UNL     1      -1.773   2.683   0.166  0.00  0.00    +0.000 A 
ATOM      3  C   UNL     1      -1.406   0.708   1.158  0.00  0.00    +0.000 A 
ATOM      4  C   UNL     1      -1.075   1.899  -0.725  0.00  0.00    +0.000 A 
ATOM      5  C   UNL     1      -0.843   0.649  -0.099  0.00  0.00    +0.000 A 
ENDROOT
BRANCH   3   7
ATOM      6  F   UNL     1      -1.589  -3.151   5.181  0.00  0.00    +0.000 F 
ATOM      7  C   UNL     1      -1.453  -0.295   2.203  0.00  0.00    +0.000 A 
ATOM      8  C   UNL     1      -0.886  -0.030   3.450  0.00  0.00    +0.000 A 
ATOM      9  C   UNL     1      -2.066  -1.525   1.963  0.00  0.00    +0.000 A 
ATOM     10  C   UNL     1      -0.932  -0.995   4.456  0.00  0.00    +0.000 A 
ATOM     11  C   UNL     1      -2.112  -2.489   2.969  0.00  0.00    +0.000 A 
ATOM     12  C   UNL     1      -1.545  -2.225   4.215  0.00  0.00    +0.000 A 
ENDBRANCH   3   7
BRANCH   5  13
ATOM     13  C   UNL     1      -0.159  -0.508  -0.608  0.00  0.00    +0.000 A 
ATOM     14  C   UNL     1       1.235  -0.533  -0.646  0.00  0.00    +0.000 A 
ATOM     15  C   UNL     1      -0.889  -1.605  -1.064  0.00  0.00    +0.000 A 
ATOM     16  C   UNL     1       1.900  -1.656  -1.141  0.00  0.00    +0.000 A 
ATOM     17  C   UNL     1      -0.225  -2.727  -1.559  0.00  0.00    +0.000 A 
ATOM     18  C   UNL     1       1.170  -2.753  -1.597  0.00  0.00    +0.000 A 
ENDBRANCH   5  13
BRANCH   4  21
ATOM     19  O   UNL     1       0.434   2.840  -2.249  0.00  0.00    +0.000 OA
ATOM     20  N   UNL     1      -1.638   2.132  -3.053  0.00  0.00    +0.000 N 
ATOM     21  C   UNL     1      -0.678   2.318  -2.040  0.00  0.00    +0.000 C 
ATOM     22  H   UNL     1      -2.517   1.700  -2.772  0.00  0.00    +0.000 HD
BRANCH  20  23
ATOM     23  C   UNL     1      -1.560   2.474  -4.426  0.00  0.00    +0.000 A 
ATOM     24  C   UNL     1      -1.096   3.733  -4.807  0.00  0.00    +0.000 A 
ATOM     25  C   UNL     1      -1.945   1.550  -5.398  0.00  0.00    +0.000 A 
ATOM     26  C   UNL     1      -1.018   4.068  -6.159  0.00  0.00    +0.000 A 
ATOM     27  C   UNL     1      -1.868   1.885  -6.750  0.00  0.00    +0.000 A 
ATOM     28  C   UNL     1      -1.404   3.145  -7.130  0.00  0.00    +0.000 A 
ENDBRANCH  20  23
ENDBRANCH   4  21
BRANCH   2  29
ATOM     29  C   UNL     1      -2.273   4.068   0.033  0.00  0.00    +0.000 C 
ATOM     30  C   UNL     1      -3.413   4.203  -1.005  0.00  0.00    +0.000 C 
ATOM     31  C   UNL     1      -1.157   5.087  -0.296  0.00  0.00    +0.000 C 
ENDBRANCH   2  29
BRANCH   1  32
ATOM     32  C   UNL     1      -2.672   2.424   2.493  0.00  0.00    +0.000 C 
BRANCH  32  33
ATOM     33  C   UNL     1      -4.144   2.773   2.236  0.00  0.00    +0.000 C 
BRANCH  33  34
ATOM     34  C   UNL     1      -5.122   1.631   2.547  0.00  0.00    +0.000 C 
BRANCH  34  35
ATOM     35  O   UNL     1      -5.108   0.721   1.443  0.00  0.00    +0.000 OA
ATOM     36  H   UNL     1      -5.948   0.231   1.457  0.00  0.00    +0.000 HD
ENDBRANCH  34  35
BRANCH  34  37
ATOM     37  C   UNL     1      -4.769   0.831   3.815  0.00  0.00    +0.000 C 
BRANCH  37  38
ATOM     38  C   UNL     1      -5.723  -0.301   4.219  0.00  0.00    +0.000 C 
BRANCH  38  39
ATOM     39  O   UNL     1      -6.844  -0.303   3.337  0.00  0.00    +0.000 OA
ATOM     40  H   UNL     1      -6.517  -0.488   2.442  0.00  0.00    +0.000 HD
ENDBRANCH  38  39
BRANCH  38  41
ATOM     41  C   UNL     1      -5.058  -1.677   4.221  0.00  0.00    +0.000 C 
BRANCH  41  43
ATOM     42  O   UNL     1      -5.811  -3.559   2.905  0.00  0.00    +0.000 OA
ATOM     43  C   UNL     1      -5.348  -2.427   2.943  0.00  0.00    +0.000 C 
BRANCH  43  44
ATOM     44  O   UNL     1      -5.025  -1.714   1.836  0.00  0.00    +0.000 OA
ATOM     45  H   UNL     1      -5.718  -1.057   1.608  0.00  0.00    +0.000 HD
ENDBRANCH  43  44
ENDBRANCH  41  43
ENDBRANCH  38  41
ENDBRANCH  37  38
ENDBRANCH  34  37
ENDBRANCH  33  34
ENDBRANCH  32  33
ENDBRANCH   1  32
TORSDOF 15
ENDMDL
MODEL 4
REMARK VINA RESULT:    -3.874      3.375      5.977
REMARK INTER + INTRA:         -18.527
REMARK INTER:                  -8.349
REMARK INTRA:                 -10.179
REMARK CONF_INDEPENDENT:        4.474
REMARK UNBOUND:                10.179
REMARK  Name = 60823
REMARK  17 active torsions:
REMARK  status: ('A' for Active; 'I' for Inactive)
REMARK    1  A    between atoms: O_2  and  C_16
REMARK    2  A    between atoms: O_3  and  C_22
REMARK    3  A    between atoms: O_5  and  C_35
REMARK    4  A    between atoms: N_7  and  C_10
REMARK    5  A    between atoms: N_8  and  C_34
REMARK    6  A    between atoms: C_9  and  C_12
REMARK    7  A    between atoms: C_10  and  C_13
REMARK    8  A    between atoms: C_11  and  C_18
REMARK    9  A    between atoms: C_12  and  C_19
REMARK   10  A    between atoms: C_12  and  C_20
REMARK   11  A    between atoms: C_13  and  C_16
REMARK   12  A    between atoms: C_14  and  C_23
REMARK   13  A    between atoms: C_15  and  C_21
REMARK   14  A    between atoms: C_16  and  C_17
REMARK   15  A    between atoms: C_17  and  C_22
REMARK   16  A    between atoms: C_22  and  C_24
REMARK   17  A    between atoms: C_24  and  C_35
REMARK                            x       y       z     vdW  Elec       q    Type
REMARK                         _______ _______ _______ _____ _____    ______ ____
ROOT
ATOM      1  N   UNL     1       0.582   0.655   0.800  0.00  0.00    +0.000 N 
ATOM      2  C   UNL     1       0.861  -0.554   1.382  0.00  0.00    +0.000 A 
ATOM      3  C   UNL     1       0.291   0.471  -0.526  0.00  0.00    +0.000 A 
ATOM      4  C   UNL     1       0.746  -1.526   0.413  0.00  0.00    +0.000 A 
ATOM      5  C   UNL     1       0.385  -0.878  -0.795  0.00  0.00    +0.000 A 
ENDROOT
BRANCH   3   7
ATOM      6  F   UNL     1      -1.003   4.708  -3.915  0.00  0.00    +0.000 F 
ATOM      7  C   UNL     1      -0.046   1.572  -1.406  0.00  0.00    +0.000 A 
ATOM      8  C   UNL     1       0.803   2.676  -1.499  0.00  0.00    +0.000 A 
ATOM      9  C   UNL     1      -1.217   1.528  -2.162  0.00  0.00    +0.000 A 
ATOM     10  C   UNL     1       0.479   3.735  -2.346  0.00  0.00    +0.000 A 
ATOM     11  C   UNL     1      -1.540   2.587  -3.010  0.00  0.00    +0.000 A 
ATOM     12  C   UNL     1      -0.693   3.691  -3.102  0.00  0.00    +0.000 A 
ENDBRANCH   3   7
BRANCH   5  13
ATOM     13  C   UNL     1       0.144  -1.447  -2.092  0.00  0.00    +0.000 A 
ATOM     14  C   UNL     1       1.149  -1.426  -3.060  0.00  0.00    +0.000 A 
ATOM     15  C   UNL     1      -1.093  -2.019  -2.385  0.00  0.00    +0.000 A 
ATOM     16  C   UNL     1       0.916  -1.978  -4.320  0.00  0.00    +0.000 A 
ATOM     17  C   UNL     1      -1.327  -2.571  -3.644  0.00  0.00    +0.000 A 
ATOM     18  C   UNL     1      -0.322  -2.550  -4.612  0.00  0.00    +0.000 A 
ENDBRANCH   5  13
BRANCH   4  21
ATOM     19  O   UNL     1       0.283  -3.567   1.462  0.00  0.00    +0.000 OA
ATOM     20  N   UNL     1       2.007  -3.507  -0.109  0.00  0.00    +0.000 N 
ATOM     21  C   UNL     1       0.962  -2.928   0.636  0.00  0.00    +0.000 C 
ATOM     22  H   UNL     1       2.501  -2.892  -0.753  0.00  0.00    +0.000 HD
BRANCH  20  23
ATOM     23  C   UNL     1       2.482  -4.842  -0.084  0.00  0.00    +0.000 A 
ATOM     24  C   UNL     1       3.792  -5.109   0.315  0.00  0.00    +0.000 A 
ATOM     25  C   UNL     1       1.640  -5.890  -0.459  0.00  0.00    +0.000 A 
ATOM     26  C   UNL     1       4.259  -6.424   0.340  0.00  0.00    +0.000 A 
ATOM     27  C   UNL     1       2.108  -7.204  -0.434  0.00  0.00    +0.000 A 
ATOM     28  C   UNL     1       3.417  -7.471  -0.035  0.00  0.00    +0.000 A 
ENDBRANCH  20  23
ENDBRANCH   4  21
BRANCH   2  29
ATOM     29  C   UNL     1       1.215  -0.670   2.814  0.00  0.00    +0.000 C 
ATOM     30  C   UNL     1       2.644  -1.216   3.043  0.00  0.00    +0.000 C 
ATOM     31  C   UNL     1       0.205  -1.519   3.620  0.00  0.00    +0.000 C 
ENDBRANCH   2  29
BRANCH   1  32
ATOM     32  C   UNL     1       0.600   1.937   1.495  0.00  0.00    +0.000 C 
BRANCH  32  33
ATOM     33  C   UNL     1      -0.459   2.054   2.599  0.00  0.00    +0.000 C 
BRANCH  33  34
ATOM     34  C   UNL     1      -1.896   2.195   2.077  0.00  0.00    +0.000 C 
BRANCH  34  35
ATOM     35  O   UNL     1      -2.013   1.417   0.882  0.00  0.00    +0.000 OA
ATOM     36  H   UNL     1      -2.112   0.487   1.147  0.00  0.00    +0.000 HD
ENDBRANCH  34  35
BRANCH  34  37
ATOM     37  C   UNL     1      -2.972   1.701   3.062  0.00  0.00    +0.000 C 
BRANCH  37  38
ATOM     38  C   UNL     1      -3.616   0.338   2.773  0.00  0.00    +0.000 C 
BRANCH  38  39
ATOM     39  O   UNL     1      -4.175   0.355   1.462  0.00  0.00    +0.000 OA
ATOM     40  H   UNL     1      -3.443   0.324   0.825  0.00  0.00    +0.000 HD
ENDBRANCH  38  39
BRANCH  38  41
ATOM     41  C   UNL     1      -2.638  -0.830   2.908  0.00  0.00    +0.000 C 
BRANCH  41  43
ATOM     42  O   UNL     1      -3.448  -2.898   1.955  0.00  0.00    +0.000 OA
ATOM     43  C   UNL     1      -2.842  -1.844   1.808  0.00  0.00    +0.000 C 
BRANCH  43  44
ATOM     44  O   UNL     1      -2.268  -1.468   0.639  0.00  0.00    +0.000 OA
ATOM     45  H   UNL     1      -2.591  -0.592   0.337  0.00  0.00    +0.000 HD
ENDBRANCH  43  44
ENDBRANCH  41  43
ENDBRANCH  38  41
ENDBRANCH  37  38
ENDBRANCH  34  37
ENDBRANCH  33  34
ENDBRANCH  32  33
ENDBRANCH   1  32
TORSDOF 15
ENDMDL
MODEL 5
REMARK VINA RESULT:    -3.683      4.225      9.256
REMARK INTER + INTRA:         -19.856
REMARK INTER:                  -8.157
REMARK INTRA:                 -11.699
REMARK CONF_INDEPENDENT:        4.474
REMARK UNBOUND:                11.699
REMARK  Name = 60823
REMARK  17 active torsions:
REMARK  status: ('A' for Active; 'I' for Inactive)
REMARK    1  A    between atoms: O_2  and  C_16
REMARK    2  A    between atoms: O_3  and  C_22
REMARK    3  A    between atoms: O_5  and  C_35
REMARK    4  A    between atoms: N_7  and  C_10
REMARK    5  A    between atoms: N_8  and  C_34
REMARK    6  A    between atoms: C_9  and  C_12
REMARK    7  A    between atoms: C_10  and  C_13
REMARK    8  A    between atoms: C_11  and  C_18
REMARK    9  A    between atoms: C_12  and  C_19
REMARK   10  A    between atoms: C_12  and  C_20
REMARK   11  A    between atoms: C_13  and  C_16
REMARK   12  A    between atoms: C_14  and  C_23
REMARK   13  A    between atoms: C_15  and  C_21
REMARK   14  A    between atoms: C_16  and  C_17
REMARK   15  A    between atoms: C_17  and  C_22
REMARK   16  A    between atoms: C_22  and  C_24
REMARK   17  A    between atoms: C_24  and  C_35
REMARK                            x       y       z     vdW  Elec       q    Type
REMARK                         _______ _______ _______ _____ _____    ______ ____
ROOT
ATOM      1  N   UNL     1       4.062  -2.715  -1.473  0.00  0.00    +0.000 N 
ATOM      2  C   UNL     1       3.364  -2.250  -0.389  0.00  0.00    +0.000 A 
ATOM      3  C   UNL     1       3.217  -2.839  -2.545  0.00  0.00    +0.000 A 
ATOM      4  C   UNL     1       2.053  -2.072  -0.775  0.00  0.00    +0.000 A 
ATOM      5  C   UNL     1       1.960  -2.445  -2.139  0.00  0.00    +0.000 A 
ENDROOT
BRANCH   3   7
ATOM      6  F   UNL     1       4.963  -4.658  -7.520  0.00  0.00    +0.000 F 
ATOM      7  C   UNL     1       3.670  -3.311  -3.838  0.00  0.00    +0.000 A 
ATOM      8  C   UNL     1       4.372  -2.455  -4.687  0.00  0.00    +0.000 A 
ATOM      9  C   UNL     1       3.406  -4.623  -4.233  0.00  0.00    +0.000 A 
ATOM     10  C   UNL     1       4.808  -2.910  -5.931  0.00  0.00    +0.000 A 
ATOM     11  C   UNL     1       3.844  -5.077  -5.477  0.00  0.00    +0.000 A 
ATOM     12  C   UNL     1       4.544  -4.222  -6.326  0.00  0.00    +0.000 A 
ENDBRANCH   3   7
BRANCH   5  13
ATOM     13  C   UNL     1       0.812  -2.441  -3.004  0.00  0.00    +0.000 A 
ATOM     14  C   UNL     1       0.979  -2.544  -4.385  0.00  0.00    +0.000 A 
ATOM     15  C   UNL     1      -0.469  -2.334  -2.463  0.00  0.00    +0.000 A 
ATOM     16  C   UNL     1      -0.134  -2.540  -5.225  0.00  0.00    +0.000 A 
ATOM     17  C   UNL     1      -1.582  -2.329  -3.302  0.00  0.00    +0.000 A 
ATOM     18  C   UNL     1      -1.415  -2.433  -4.684  0.00  0.00    +0.000 A 
ENDBRANCH   5  13
BRANCH   4  21
ATOM     19  O   UNL     1       0.923  -0.391   0.399  0.00  0.00    +0.000 OA
ATOM     20  N   UNL     1       0.126  -2.577   0.574  0.00  0.00    +0.000 N 
ATOM     21  C   UNL     1       1.008  -1.594   0.086  0.00  0.00    +0.000 C 
ATOM     22  H   UNL     1       0.290  -3.531   0.259  0.00  0.00    +0.000 HD
BRANCH  20  23
ATOM     23  C   UNL     1      -0.969  -2.427   1.461  0.00  0.00    +0.000 A 
ATOM     24  C   UNL     1      -2.273  -2.424   0.965  0.00  0.00    +0.000 A 
ATOM     25  C   UNL     1      -0.744  -2.283   2.830  0.00  0.00    +0.000 A 
ATOM     26  C   UNL     1      -3.351  -2.278   1.838  0.00  0.00    +0.000 A 
ATOM     27  C   UNL     1      -1.823  -2.137   3.703  0.00  0.00    +0.000 A 
ATOM     28  C   UNL     1      -3.126  -2.134   3.207  0.00  0.00    +0.000 A 
ENDBRANCH  20  23
ENDBRANCH   4  21
BRANCH   2  29
ATOM     29  C   UNL     1       4.014  -2.017   0.919  0.00  0.00    +0.000 C 
ATOM     30  C   UNL     1       3.330  -2.778   2.079  0.00  0.00    +0.000 C 
ATOM     31  C   UNL     1       4.126  -0.519   1.283  0.00  0.00    +0.000 C 
ENDBRANCH   2  29
BRANCH   1  32
ATOM     32  C   UNL     1       5.485  -3.032  -1.473  0.00  0.00    +0.000 C 
BRANCH  32  33
ATOM     33  C   UNL     1       5.792  -4.485  -1.860  0.00  0.00    +0.000 C 
BRANCH  33  34
ATOM     34  C   UNL     1       5.175  -5.528  -0.917  0.00  0.00    +0.000 C 
BRANCH  34  35
ATOM     35  O   UNL     1       4.754  -4.856   0.274  0.00  0.00    +0.000 OA
ATOM     36  H   UNL     1       3.837  -5.126   0.454  0.00  0.00    +0.000 HD
ENDBRANCH  34  35
BRANCH  34  37
ATOM     37  C   UNL     1       3.949  -6.253  -1.501  0.00  0.00    +0.000 C 
BRANCH  37  38
ATOM     38  C   UNL     1       3.225  -7.253  -0.589  0.00  0.00    +0.000 C 
BRANCH  38  39
ATOM     39  O   UNL     1       3.785  -7.181   0.720  0.00  0.00    +0.000 OA
ATOM     40  H   UNL     1       3.466  -6.363   1.135  0.00  0.00    +0.000 HD
ENDBRANCH  38  39
BRANCH  38  41
ATOM     41  C   UNL     1       1.715  -7.024  -0.524  0.00  0.00    +0.000 C 
BRANCH  41  43
ATOM     42  O   UNL     1       0.804  -4.931  -1.319  0.00  0.00    +0.000 OA
ATOM     43  C   UNL     1       1.389  -5.553  -0.441  0.00  0.00    +0.000 C 
BRANCH  43  44
ATOM     44  O   UNL     1       1.828  -4.986   0.710  0.00  0.00    +0.000 OA
ATOM     45  H   UNL     1       2.730  -5.291   0.947  0.00  0.00    +0.000 HD
ENDBRANCH  43  44
ENDBRANCH  41  43
ENDBRANCH  38  41
ENDBRANCH  37  38
ENDBRANCH  34  37
ENDBRANCH  33  34
ENDBRANCH  32  33
ENDBRANCH   1  32
TORSDOF 15
ENDMDL
MODEL 6
REMARK VINA RESULT:    -3.395      3.140      5.870
REMARK INTER + INTRA:         -19.038
REMARK INTER:                  -7.869
REMARK INTRA:                 -11.169
REMARK CONF_INDEPENDENT:        4.474
REMARK UNBOUND:                11.169
REMARK  Name = 60823
REMARK  17 active torsions:
REMARK  status: ('A' for Active; 'I' for Inactive)
REMARK    1  A    between atoms: O_2  and  C_16
REMARK    2  A    between atoms: O_3  and  C_22
REMARK    3  A    between atoms: O_5  and  C_35
REMARK    4  A    between atoms: N_7  and  C_10
REMARK    5  A    between atoms: N_8  and  C_34
REMARK    6  A    between atoms: C_9  and  C_12
REMARK    7  A    between atoms: C_10  and  C_13
REMARK    8  A    between atoms: C_11  and  C_18
REMARK    9  A    between atoms: C_12  and  C_19
REMARK   10  A    between atoms: C_12  and  C_20
REMARK   11  A    between atoms: C_13  and  C_16
REMARK   12  A    between atoms: C_14  and  C_23
REMARK   13  A    between atoms: C_15  and  C_21
REMARK   14  A    between atoms: C_16  and  C_17
REMARK   15  A    between atoms: C_17  and  C_22
REMARK   16  A    between atoms: C_22  and  C_24
REMARK   17  A    between atoms: C_24  and  C_35
REMARK                            x       y       z     vdW  Elec       q    Type
REMARK                         _______ _______ _______ _____ _____    ______ ____
ROOT
ATOM      1  N   UNL     1      -3.478   0.799   4.307  0.00  0.00    +0.000 N 
ATOM      2  C   UNL     1      -2.407  -0.047   4.440  0.00  0.00    +0.000 A 
ATOM      3  C   UNL     1      -3.286   1.616   3.223  0.00  0.00    +0.000 A 
ATOM      4  C   UNL     1      -1.519   0.234   3.426  0.00  0.00    +0.000 A 
ATOM      5  C   UNL     1      -2.074   1.286   2.656  0.00  0.00    +0.000 A 
ENDROOT
BRANCH   3   7
ATOM      6  F   UNL     1      -7.009   5.482   1.705  0.00  0.00    +0.000 F 
ATOM      7  C   UNL     1      -4.254   2.620   2.829  0.00  0.00    +0.000 A 
ATOM      8  C   UNL     1      -4.492   3.721   3.653  0.00  0.00    +0.000 A 
ATOM      9  C   UNL     1      -4.946   2.488   1.625  0.00  0.00    +0.000 A 
ATOM     10  C   UNL     1      -5.423   4.687   3.273  0.00  0.00    +0.000 A 
ATOM     11  C   UNL     1      -5.876   3.455   1.246  0.00  0.00    +0.000 A 
ATOM     12  C   UNL     1      -6.115   4.555   2.069  0.00  0.00    +0.000 A 
ENDBRANCH   3   7
BRANCH   5  13
ATOM     13  C   UNL     1      -1.540   1.938   1.492  0.00  0.00    +0.000 A 
ATOM     14  C   UNL     1      -1.147   1.182   0.387  0.00  0.00    +0.000 A 
ATOM     15  C   UNL     1      -1.413   3.327   1.467  0.00  0.00    +0.000 A 
ATOM     16  C   UNL     1      -0.628   1.814  -0.743  0.00  0.00    +0.000 A 
ATOM     17  C   UNL     1      -0.893   3.959   0.337  0.00  0.00    +0.000 A 
ATOM     18  C   UNL     1      -0.501   3.203  -0.767  0.00  0.00    +0.000 A 
ENDBRANCH   5  13
BRANCH   4  21
ATOM     19  O   UNL     1       0.697  -0.267   3.994  0.00  0.00    +0.000 OA
ATOM     20  N   UNL     1      -0.205  -1.282   2.098  0.00  0.00    +0.000 N 
ATOM     21  C   UNL     1      -0.269  -0.445   3.227  0.00  0.00    +0.000 C 
ATOM     22  H   UNL     1      -1.051  -1.352   1.535  0.00  0.00    +0.000 HD
BRANCH  20  23
ATOM     23  C   UNL     1       0.887  -2.049   1.619  0.00  0.00    +0.000 A 
ATOM     24  C   UNL     1       0.659  -3.139   0.780  0.00  0.00    +0.000 A 
ATOM     25  C   UNL     1       2.190  -1.712   1.987  0.00  0.00    +0.000 A 
ATOM     26  C   UNL     1       1.735  -3.892   0.308  0.00  0.00    +0.000 A 
ATOM     27  C   UNL     1       3.265  -2.466   1.515  0.00  0.00    +0.000 A 
ATOM     28  C   UNL     1       3.037  -3.556   0.676  0.00  0.00    +0.000 A 
ENDBRANCH  20  23
ENDBRANCH   4  21
BRANCH   2  29
ATOM     29  C   UNL     1      -2.332  -1.047   5.527  0.00  0.00    +0.000 C 
ATOM     30  C   UNL     1      -1.697  -0.486   6.822  0.00  0.00    +0.000 C 
ATOM     31  C   UNL     1      -1.592  -2.339   5.112  0.00  0.00    +0.000 C 
ENDBRANCH   2  29
BRANCH   1  32
ATOM     32  C   UNL     1      -4.637   0.821   5.191  0.00  0.00    +0.000 C 
BRANCH  32  33
ATOM     33  C   UNL     1      -5.975   0.661   4.457  0.00  0.00    +0.000 C 
BRANCH  33  34
ATOM     34  C   UNL     1      -6.048  -0.575   3.550  0.00  0.00    +0.000 C 
BRANCH  34  35
ATOM     35  O   UNL     1      -5.713  -0.171   2.219  0.00  0.00    +0.000 OA
ATOM     36  H   UNL     1      -4.854  -0.571   1.999  0.00  0.00    +0.000 HD
ENDBRANCH  34  35
BRANCH  34  37
ATOM     37  C   UNL     1      -5.082  -1.705   3.951  0.00  0.00    +0.000 C 
BRANCH  37  38
ATOM     38  C   UNL     1      -4.909  -2.866   2.962  0.00  0.00    +0.000 C 
BRANCH  38  39
ATOM     39  O   UNL     1      -5.619  -2.566   1.763  0.00  0.00    +0.000 OA
ATOM     40  H   UNL     1      -5.344  -1.683   1.467  0.00  0.00    +0.000 HD
ENDBRANCH  38  39
BRANCH  38  41
ATOM     41  C   UNL     1      -3.446  -3.170   2.640  0.00  0.00    +0.000 C 
BRANCH  41  43
ATOM     42  O   UNL     1      -2.324  -2.801   0.531  0.00  0.00    +0.000 OA
ATOM     43  C   UNL     1      -2.961  -2.345   1.473  0.00  0.00    +0.000 C 
BRANCH  43  44
ATOM     44  O   UNL     1      -3.293  -1.035   1.586  0.00  0.00    +0.000 OA
ATOM     45  H   UNL     1      -3.681  -0.830   2.463  0.00  0.00    +0.000 HD
ENDBRANCH  43  44
ENDBRANCH  41  43
ENDBRANCH  38  41
ENDBRANCH  37  38
ENDBRANCH  34  37
ENDBRANCH  33  34
ENDBRANCH  32  33
ENDBRANCH   1  32
TORSDOF 15
ENDMDL
