MODEL 1
REMARK VINA RESULT:    -2.653      0.000      0.000
REMARK INTER + INTRA:          -7.408
REMARK INTER:                  -5.039
REMARK INTRA:                  -2.369
REMARK CONF_INDEPENDENT:        2.386
REMARK UNBOUND:                 2.369
REMARK  Name = 
REMARK  8 active torsions:
REMARK  status: ('A' for Active; 'I' for Inactive)
REMARK    1  A    between atoms: C_2  and  C_3
REMARK    2  A    between atoms: C_2  and  O_13
REMARK    3  A    between atoms: C_4  and  C_5
REMARK    4  A    between atoms: C_8  and  O_9
REMARK    5  A    between atoms: C_10  and  O_11
REMARK    6  A    between atoms: O_13  and  C_14
REMARK    7  A    between atoms: C_14  and  C_15
REMARK    8  A    between atoms: C_15  and  C_16
REMARK                            x       y       z     vdW  Elec       q    Type
REMARK                         _______ _______ _______ _____ _____    ______ ____
ROOT
ATOM      1  C   UNL     1      -1.083  -5.200   2.672  0.00  0.00    +0.000 C 
ATOM      2  C   UNL     1      -0.979  -5.650   3.897  0.00  0.00    +0.000 C 
ENDROOT
BRANCH   2   3
ATOM      3  C   UNL     1      -1.903  -5.307   4.980  0.00  0.00    +0.000 A 
ATOM      4  C   UNL     1      -2.518  -4.063   5.051  0.00  0.00    +0.000 A 
ATOM      5  C   UNL     1      -3.852  -3.963   5.427  0.00  0.00    +0.000 A 
ATOM      6  C   UNL     1      -4.554  -5.082   5.861  0.00  0.00    +0.000 A 
ATOM      7  C   UNL     1      -3.777  -6.163   6.256  0.00  0.00    +0.000 A 
ATOM      8  C   UNL     1      -2.483  -6.296   5.766  0.00  0.00    +0.000 A 
BRANCH   6   9
ATOM      9  O   UNL     1      -5.916  -5.228   5.584  0.00  0.00    +0.000 OA
ATOM     10  H   UNL     1      -6.382  -5.976   5.900  0.00  0.00    +0.000 HD
ENDBRANCH   6   9
BRANCH   7  11
ATOM     11  O   UNL     1      -4.418  -7.167   6.958  0.00  0.00    +0.000 OA
ATOM     12  H   UNL     1      -5.354  -7.176   7.013  0.00  0.00    +0.000 HD
ENDBRANCH   7  11
ENDBRANCH   2   3
BRANCH   1  14
ATOM     13  O   UNL     1       0.790  -5.270   1.256  0.00  0.00    +0.000 OA
ATOM     14  C   UNL     1      -0.338  -5.773   1.544  0.00  0.00    +0.000 C 
BRANCH  14  15
ATOM     15  O   UNL     1      -0.684  -7.038   1.089  0.00  0.00    +0.000 OA
BRANCH  15  16
ATOM     16  C   UNL     1      -2.002  -7.521   1.320  0.00  0.00    +0.000 C 
BRANCH  16  17
ATOM     17  C   UNL     1      -2.889  -6.971   0.221  0.00  0.00    +0.000 C 
BRANCH  17  18
ATOM     18  C   UNL     1      -4.177  -6.598   0.848  0.00  0.00    +0.000 A 
ATOM     19  C   UNL     1      -4.145  -6.022   2.104  0.00  0.00    +0.000 A 
ATOM     20  C   UNL     1      -5.195  -5.204   2.478  0.00  0.00    +0.000 A 
ATOM     21  C   UNL     1      -6.232  -4.938   1.611  0.00  0.00    +0.000 A 
ATOM     22  C   UNL     1      -6.421  -5.771   0.518  0.00  0.00    +0.000 A 
ATOM     23  C   UNL     1      -5.363  -6.591   0.155  0.00  0.00    +0.000 A 
ENDBRANCH  17  18
ENDBRANCH  16  17
ENDBRANCH  15  16
ENDBRANCH  14  15
ENDBRANCH   1  14
TORSDOF 8
ENDMDL
MODEL 2
REMARK VINA RESULT:    -2.556      1.619      5.884
REMARK INTER + INTRA:          -7.309
REMARK INTER:                  -4.943
REMARK INTRA:                  -2.366
REMARK CONF_INDEPENDENT:        2.386
REMARK UNBOUND:                 2.366
REMARK  Name = 
REMARK  8 active torsions:
REMARK  status: ('A' for Active; 'I' for Inactive)
REMARK    1  A    between atoms: C_2  and  C_3
REMARK    2  A    between atoms: C_2  and  O_13
REMARK    3  A    between atoms: C_4  and  C_5
REMARK    4  A    between atoms: C_8  and  O_9
REMARK    5  A    between atoms: C_10  and  O_11
REMARK    6  A    between atoms: O_13  and  C_14
REMARK    7  A    between atoms: C_14  and  C_15
REMARK    8  A    between atoms: C_15  and  C_16
REMARK                            x       y       z     vdW  Elec       q    Type
REMARK                         _______ _______ _______ _____ _____    ______ ____
ROOT
ATOM      1  C   UNL     1      -5.261  -5.625   2.227  0.00  0.00    +0.000 C 
ATOM      2  C   UNL     1      -4.749  -6.396   1.303  0.00  0.00    +0.000 C 
ENDROOT
BRANCH   2   3
ATOM      3  C   UNL     1      -3.383  -6.926   1.337  0.00  0.00    +0.000 A 
ATOM      4  C   UNL     1      -2.781  -7.468   0.208  0.00  0.00    +0.000 A 
ATOM      5  C   UNL     1      -1.444  -7.203  -0.065  0.00  0.00    +0.000 A 
ATOM      6  C   UNL     1      -0.658  -6.506   0.844  0.00  0.00    +0.000 A 
ATOM      7  C   UNL     1      -1.149  -6.444   2.141  0.00  0.00    +0.000 A 
ATOM      8  C   UNL     1      -2.512  -6.595   2.368  0.00  0.00    +0.000 A 
BRANCH   6   9
ATOM      9  O   UNL     1       0.354  -5.646   0.408  0.00  0.00    +0.000 OA
ATOM     10  H   UNL     1       0.889  -5.195   1.031  0.00  0.00    +0.000 HD
ENDBRANCH   6   9
BRANCH   7  11
ATOM     11  O   UNL     1      -0.270  -6.020   3.121  0.00  0.00    +0.000 OA
ATOM     12  H   UNL     1       0.620  -5.829   2.901  0.00  0.00    +0.000 HD
ENDBRANCH   7  11
ENDBRANCH   2   3
BRANCH   1  14
ATOM     13  O   UNL     1      -7.479  -5.922   1.513  0.00  0.00    +0.000 OA
ATOM     14  C   UNL     1      -6.699  -5.346   2.330  0.00  0.00    +0.000 C 
BRANCH  14  15
ATOM     15  O   UNL     1      -7.190  -4.794   3.506  0.00  0.00    +0.000 OA
BRANCH  15  16
ATOM     16  C   UNL     1      -6.320  -4.022   4.325  0.00  0.00    +0.000 C 
BRANCH  16  17
ATOM     17  C   UNL     1      -5.893  -4.896   5.488  0.00  0.00    +0.000 C 
BRANCH  17  18
ATOM     18  C   UNL     1      -4.466  -5.229   5.281  0.00  0.00    +0.000 A 
ATOM     19  C   UNL     1      -3.639  -4.248   4.768  0.00  0.00    +0.000 A 
ATOM     20  C   UNL     1      -2.287  -4.314   5.052  0.00  0.00    +0.000 A 
ATOM     21  C   UNL     1      -1.778  -5.310   5.855  0.00  0.00    +0.000 A 
ATOM     22  C   UNL     1      -2.540  -6.450   6.073  0.00  0.00    +0.000 A 
ATOM     23  C   UNL     1      -3.893  -6.373   5.778  0.00  0.00    +0.000 A 
ENDBRANCH  17  18
ENDBRANCH  16  17
ENDBRANCH  15  16
ENDBRANCH  14  15
ENDBRANCH   1  14
TORSDOF 8
ENDMDL
MODEL 3
REMARK VINA RESULT:    -2.451      2.233      5.081
REMARK INTER + INTRA:          -7.176
REMARK INTER:                  -4.838
REMARK INTRA:                  -2.338
REMARK CONF_INDEPENDENT:        2.386
REMARK UNBOUND:                 2.338
REMARK  Name = 
REMARK  8 active torsions:
REMARK  status: ('A' for Active; 'I' for Inactive)
REMARK    1  A    between atoms: C_2  and  C_3
REMARK    2  A    between atoms: C_2  and  O_13
REMARK    3  A    between atoms: C_4  and  C_5
REMARK    4  A    between atoms: C_8  and  O_9
REMARK    5  A    between atoms: C_10  and  O_11
REMARK    6  A    between atoms: O_13  and  C_14
REMARK    7  A    between atoms: C_14  and  C_15
REMARK    8  A    between atoms: C_15  and  C_16
REMARK                            x       y       z     vdW  Elec       q    Type
REMARK                         _______ _______ _______ _____ _____    ______ ____
ROOT
ATOM      1  C   UNL     1      -5.212  -4.857   2.865  0.00  0.00    +0.000 C 
ATOM      2  C   UNL     1      -4.688  -5.804   2.130  0.00  0.00    +0.000 C 
ENDROOT
BRANCH   2   3
ATOM      3  C   UNL     1      -3.359  -6.379   2.353  0.00  0.00    +0.000 A 
ATOM      4  C   UNL     1      -2.790  -7.276   1.457  0.00  0.00    +0.000 A 
ATOM      5  C   UNL     1      -1.439  -7.188   1.144  0.00  0.00    +0.000 A 
ATOM      6  C   UNL     1      -0.611  -6.294   1.813  0.00  0.00    +0.000 A 
ATOM      7  C   UNL     1      -1.100  -5.807   3.018  0.00  0.00    +0.000 A 
ATOM      8  C   UNL     1      -2.470  -5.800   3.251  0.00  0.00    +0.000 A 
BRANCH   6   9
ATOM      9  O   UNL     1       0.454  -5.671   1.156  0.00  0.00    +0.000 OA
ATOM     10  H   UNL     1       0.975  -5.035   1.605  0.00  0.00    +0.000 HD
ENDBRANCH   6   9
BRANCH   7  11
ATOM     11  O   UNL     1      -0.198  -5.157   3.840  0.00  0.00    +0.000 OA
ATOM     12  H   UNL     1       0.535  -4.707   3.467  0.00  0.00    +0.000 HD
ENDBRANCH   7  11
ENDBRANCH   2   3
BRANCH   1  14
ATOM     13  O   UNL     1      -6.962  -3.303   3.067  0.00  0.00    +0.000 OA
ATOM     14  C   UNL     1      -6.637  -4.502   2.815  0.00  0.00    +0.000 C 
BRANCH  14  15
ATOM     15  O   UNL     1      -7.511  -5.347   2.144  0.00  0.00    +0.000 OA
BRANCH  15  16
ATOM     16  C   UNL     1      -7.686  -5.193   0.741  0.00  0.00    +0.000 C 
BRANCH  16  17
ATOM     17  C   UNL     1      -7.490  -6.553   0.104  0.00  0.00    +0.000 C 
BRANCH  17  18
ATOM     18  C   UNL     1      -6.335  -6.440  -0.815  0.00  0.00    +0.000 A 
ATOM     19  C   UNL     1      -5.889  -5.174  -1.143  0.00  0.00    +0.000 A 
ATOM     20  C   UNL     1      -4.569  -5.022  -1.525  0.00  0.00    +0.000 A 
ATOM     21  C   UNL     1      -3.706  -6.096  -1.544  0.00  0.00    +0.000 A 
ATOM     22  C   UNL     1      -4.234  -7.378  -1.547  0.00  0.00    +0.000 A 
ATOM     23  C   UNL     1      -5.562  -7.518  -1.169  0.00  0.00    +0.000 A 
ENDBRANCH  17  18
ENDBRANCH  16  17
ENDBRANCH  15  16
ENDBRANCH  14  15
ENDBRANCH   1  14
TORSDOF 8
ENDMDL
MODEL 4
REMARK VINA RESULT:    -2.410      1.955      5.911
REMARK INTER + INTRA:          -7.258
REMARK INTER:                  -4.797
REMARK INTRA:                  -2.461
REMARK CONF_INDEPENDENT:        2.386
REMARK UNBOUND:                 2.461
REMARK  Name = 
REMARK  8 active torsions:
REMARK  status: ('A' for Active; 'I' for Inactive)
REMARK    1  A    between atoms: C_2  and  C_3
REMARK    2  A    between atoms: C_2  and  O_13
REMARK    3  A    between atoms: C_4  and  C_5
REMARK    4  A    between atoms: C_8  and  O_9
REMARK    5  A    between atoms: C_10  and  O_11
REMARK    6  A    between atoms: O_13  and  C_14
REMARK    7  A    between atoms: C_14  and  C_15
REMARK    8  A    between atoms: C_15  and  C_16
REMARK                            x       y       z     vdW  Elec       q    Type
REMARK                         _______ _______ _______ _____ _____    ______ ____
ROOT
ATOM      1  C   UNL     1      -5.102  -6.114   1.021  0.00  0.00    +0.000 C 
ATOM      2  C   UNL     1      -4.556  -6.971   0.196  0.00  0.00    +0.000 C 
ENDROOT
BRANCH   2   3
ATOM      3  C   UNL     1      -3.133  -7.321   0.196  0.00  0.00    +0.000 A 
ATOM      4  C   UNL     1      -2.428  -7.519  -0.985  0.00  0.00    +0.000 A 
ATOM      5  C   UNL     1      -1.132  -7.035  -1.115  0.00  0.00    +0.000 A 
ATOM      6  C   UNL     1      -0.475  -6.464  -0.031  0.00  0.00    +0.000 A 
ATOM      7  C   UNL     1      -1.010  -6.752   1.216  0.00  0.00    +0.000 A 
ATOM      8  C   UNL     1      -2.346  -7.119   1.324  0.00  0.00    +0.000 A 
BRANCH   6   9
ATOM      9  O   UNL     1       0.424  -5.409  -0.211  0.00  0.00    +0.000 OA
ATOM     10  H   UNL     1       0.746  -4.935   0.530  0.00  0.00    +0.000 HD
ENDBRANCH   6   9
BRANCH   7  11
ATOM     11  O   UNL     1      -0.227  -6.451   2.315  0.00  0.00    +0.000 OA
ATOM     12  H   UNL     1       0.374  -5.732   2.279  0.00  0.00    +0.000 HD
ENDBRANCH   7  11
ENDBRANCH   2   3
BRANCH   1  14
ATOM     13  O   UNL     1      -7.310  -6.660   0.432  0.00  0.00    +0.000 OA
ATOM     14  C   UNL     1      -6.554  -5.995   1.203  0.00  0.00    +0.000 C 
BRANCH  14  15
ATOM     15  O   UNL     1      -7.037  -5.490   2.403  0.00  0.00    +0.000 OA
BRANCH  15  16
ATOM     16  C   UNL     1      -6.370  -4.390   3.011  0.00  0.00    +0.000 C 
BRANCH  16  17
ATOM     17  C   UNL     1      -5.721  -4.896   4.283  0.00  0.00    +0.000 C 
BRANCH  17  18
ATOM     18  C   UNL     1      -4.286  -5.105   3.986  0.00  0.00    +0.000 A 
ATOM     19  C   UNL     1      -3.645  -4.171   3.194  0.00  0.00    +0.000 A 
ATOM     20  C   UNL     1      -2.277  -4.024   3.330  0.00  0.00    +0.000 A 
ATOM     21  C   UNL     1      -1.571  -4.760   4.255  0.00  0.00    +0.000 A 
ATOM     22  C   UNL     1      -2.152  -5.904   4.784  0.00  0.00    +0.000 A 
ATOM     23  C   UNL     1      -3.525  -6.044   4.637  0.00  0.00    +0.000 A 
ENDBRANCH  17  18
ENDBRANCH  16  17
ENDBRANCH  15  16
ENDBRANCH  14  15
ENDBRANCH   1  14
TORSDOF 8
ENDMDL
MODEL 5
REMARK VINA RESULT:    -2.367      2.473      4.633
REMARK INTER + INTRA:          -7.348
REMARK INTER:                  -4.753
REMARK INTRA:                  -2.595
REMARK CONF_INDEPENDENT:        2.386
REMARK UNBOUND:                 2.595
REMARK  Name = 
REMARK  8 active torsions:
REMARK  status: ('A' for Active; 'I' for Inactive)
REMARK    1  A    between atoms: C_2  and  C_3
REMARK    2  A    between atoms: C_2  and  O_13
REMARK    3  A    between atoms: C_4  and  C_5
REMARK    4  A    between atoms: C_8  and  O_9
REMARK    5  A    between atoms: C_10  and  O_11
REMARK    6  A    between atoms: O_13  and  C_14
REMARK    7  A    between atoms: C_14  and  C_15
REMARK    8  A    between atoms: C_15  and  C_16
REMARK                            x       y       z     vdW  Elec       q    Type
REMARK                         _______ _______ _______ _____ _____    ______ ____
ROOT
ATOM      1  C   UNL     1      -4.587  -6.932  -0.633  0.00  0.00    +0.000 C 
ATOM      2  C   UNL     1      -3.348  -7.349  -0.584  0.00  0.00    +0.000 C 
ENDROOT
BRANCH   2   3
ATOM      3  C   UNL     1      -2.523  -7.338   0.627  0.00  0.00    +0.000 A 
ATOM      4  C   UNL     1      -1.223  -6.846   0.622  0.00  0.00    +0.000 A 
ATOM      5  C   UNL     1      -0.763  -6.077   1.684  0.00  0.00    +0.000 A 
ATOM      6  C   UNL     1      -1.542  -5.896   2.820  0.00  0.00    +0.000 A 
ATOM      7  C   UNL     1      -2.578  -6.804   2.990  0.00  0.00    +0.000 A 
ATOM      8  C   UNL     1      -3.097  -7.470   1.886  0.00  0.00    +0.000 A 
BRANCH   6   9
ATOM      9  O   UNL     1      -1.504  -4.695   3.534  0.00  0.00    +0.000 OA
ATOM     10  H   UNL     1      -2.027  -4.589   4.303  0.00  0.00    +0.000 HD
ENDBRANCH   6   9
BRANCH   7  11
ATOM     11  O   UNL     1      -3.181  -6.837   4.234  0.00  0.00    +0.000 OA
ATOM     12  H   UNL     1      -2.815  -6.348   4.945  0.00  0.00    +0.000 HD
ENDBRANCH   7  11
ENDBRANCH   2   3
BRANCH   1  14
ATOM     13  O   UNL     1      -4.962  -7.521  -2.876  0.00  0.00    +0.000 OA
ATOM     14  C   UNL     1      -5.483  -7.219  -1.761  0.00  0.00    +0.000 C 
BRANCH  14  15
ATOM     15  O   UNL     1      -6.813  -7.521  -1.497  0.00  0.00    +0.000 OA
BRANCH  15  16
ATOM     16  C   UNL     1      -7.438  -6.956  -0.351  0.00  0.00    +0.000 C 
BRANCH  16  17
ATOM     17  C   UNL     1      -7.506  -5.456  -0.560  0.00  0.00    +0.000 C 
BRANCH  17  18
ATOM     18  C   UNL     1      -6.828  -4.825   0.594  0.00  0.00    +0.000 A 
ATOM     19  C   UNL     1      -6.869  -5.482   1.809  0.00  0.00    +0.000 A 
ATOM     20  C   UNL     1      -5.860  -5.238   2.722  0.00  0.00    +0.000 A 
ATOM     21  C   UNL     1      -4.816  -4.392   2.418  0.00  0.00    +0.000 A 
ATOM     22  C   UNL     1      -4.962  -3.501   1.365  0.00  0.00    +0.000 A 
ATOM     23  C   UNL     1      -5.982  -3.752   0.459  0.00  0.00    +0.000 A 
ENDBRANCH  17  18
ENDBRANCH  16  17
ENDBRANCH  15  16
ENDBRANCH  14  15
ENDBRANCH   1  14
TORSDOF 8
ENDMDL
MODEL 6
REMARK VINA RESULT:    -2.315      1.977      5.114
REMARK INTER + INTRA:          -7.225
REMARK INTER:                  -4.701
REMARK INTRA:                  -2.524
REMARK CONF_INDEPENDENT:        2.386
REMARK UNBOUND:                 2.524
REMARK  Name = 
REMARK  8 active torsions:
REMARK  status: ('A' for Active; 'I' for Inactive)
REMARK    1  A    between atoms: C_2  and  C_3
REMARK    2  A    between atoms: C_2  and  O_13
REMARK    3  A    between atoms: C_4  and  C_5
REMARK    4  A    between atoms: C_8  and  O_9
REMARK    5  A    between atoms: C_10  and  O_11
REMARK    6  A    between atoms: O_13  and  C_14
REMARK    7  A    between atoms: C_14  and  C_15
REMARK    8  A    between atoms: C_15  and  C_16
REMARK                            x       y       z     vdW  Elec       q    Type
REMARK                         _______ _______ _______ _____ _____    ______ ____
ROOT
ATOM      1  C   UNL     1      -4.947  -5.334   3.365  0.00  0.00    +0.000 C 
ATOM      2  C   UNL     1      -3.663  -5.204   3.578  0.00  0.00    +0.000 C 
ENDROOT
BRANCH   2   3
ATOM      3  C   UNL     1      -2.640  -6.079   2.998  0.00  0.00    +0.000 A 
ATOM      4  C   UNL     1      -2.977  -7.204   2.254  0.00  0.00    +0.000 A 
ATOM      5  C   UNL     1      -2.261  -7.521   1.106  0.00  0.00    +0.000 A 
ATOM      6  C   UNL     1      -1.125  -6.801   0.755  0.00  0.00    +0.000 A 
ATOM      7  C   UNL     1      -0.551  -6.051   1.771  0.00  0.00    +0.000 A 
ATOM      8  C   UNL     1      -1.327  -5.647   2.851  0.00  0.00    +0.000 A 
BRANCH   6   9
ATOM      9  O   UNL     1      -0.803  -6.576  -0.587  0.00  0.00    +0.000 OA
ATOM     10  H   UNL     1      -0.019  -6.115  -0.811  0.00  0.00    +0.000 HD
ENDBRANCH   6   9
BRANCH   7  11
ATOM     11  O   UNL     1       0.723  -5.564   1.543  0.00  0.00    +0.000 OA
ATOM     12  H   UNL     1       1.050  -5.500   0.667  0.00  0.00    +0.000 HD
ENDBRANCH   7  11
ENDBRANCH   2   3
BRANCH   1  14
ATOM     13  O   UNL     1      -5.564  -3.080   3.601  0.00  0.00    +0.000 OA
ATOM     14  C   UNL     1      -5.923  -4.291   3.707  0.00  0.00    +0.000 C 
BRANCH  14  15
ATOM     15  O   UNL     1      -7.269  -4.628   3.759  0.00  0.00    +0.000 OA
BRANCH  15  16
ATOM     16  C   UNL     1      -8.074  -4.451   2.599  0.00  0.00    +0.000 C 
BRANCH  16  17
ATOM     17  C   UNL     1      -8.098  -5.771   1.854  0.00  0.00    +0.000 C 
BRANCH  17  18
ATOM     18  C   UNL     1      -7.112  -5.667   0.754  0.00  0.00    +0.000 A 
ATOM     19  C   UNL     1      -6.547  -4.431   0.504  0.00  0.00    +0.000 A 
ATOM     20  C   UNL     1      -5.303  -4.388  -0.098  0.00  0.00    +0.000 A 
ATOM     21  C   UNL     1      -4.624  -5.545  -0.409  0.00  0.00    +0.000 A 
ATOM     22  C   UNL     1      -5.328  -6.739  -0.469  0.00  0.00    +0.000 A 
ATOM     23  C   UNL     1      -6.577  -6.769   0.133  0.00  0.00    +0.000 A 
ENDBRANCH  17  18
ENDBRANCH  16  17
ENDBRANCH  15  16
ENDBRANCH  14  15
ENDBRANCH   1  14
TORSDOF 8
ENDMDL
MODEL 7
REMARK VINA RESULT:    -2.038      2.761      4.136
REMARK INTER + INTRA:          -7.231
REMARK INTER:                  -4.425
REMARK INTRA:                  -2.806
REMARK CONF_INDEPENDENT:        2.386
REMARK UNBOUND:                 2.806
REMARK  Name = 
REMARK  8 active torsions:
REMARK  status: ('A' for Active; 'I' for Inactive)
REMARK    1  A    between atoms: C_2  and  C_3
REMARK    2  A    between atoms: C_2  and  O_13
REMARK    3  A    between atoms: C_4  and  C_5
REMARK    4  A    between atoms: C_8  and  O_9
REMARK    5  A    between atoms: C_10  and  O_11
REMARK    6  A    between atoms: O_13  and  C_14
REMARK    7  A    between atoms: C_14  and  C_15
REMARK    8  A    between atoms: C_15  and  C_16
REMARK                            x       y       z     vdW  Elec       q    Type
REMARK                         _______ _______ _______ _____ _____    ______ ____
ROOT
ATOM      1  C   UNL     1      -0.741  -5.298   1.977  0.00  0.00    +0.000 C 
ATOM      2  C   UNL     1      -1.406  -6.399   2.218  0.00  0.00    +0.000 C 
ENDROOT
BRANCH   2   3
ATOM      3  C   UNL     1      -2.867  -6.503   2.181  0.00  0.00    +0.000 A 
ATOM      4  C   UNL     1      -3.680  -5.651   2.919  0.00  0.00    +0.000 A 
ATOM      5  C   UNL     1      -4.848  -5.144   2.362  0.00  0.00    +0.000 A 
ATOM      6  C   UNL     1      -5.289  -5.578   1.118  0.00  0.00    +0.000 A 
ATOM      7  C   UNL     1      -4.741  -6.772   0.668  0.00  0.00    +0.000 A 
ATOM      8  C   UNL     1      -3.510  -7.192   1.159  0.00  0.00    +0.000 A 
BRANCH   6   9
ATOM      9  O   UNL     1      -5.951  -4.708   0.247  0.00  0.00    +0.000 OA
ATOM     10  H   UNL     1      -6.046  -4.932  -0.658  0.00  0.00    +0.000 HD
ENDBRANCH   6   9
BRANCH   7  11
ATOM     11  O   UNL     1      -5.361  -7.375  -0.410  0.00  0.00    +0.000 OA
ATOM     12  H   UNL     1      -5.979  -6.894  -0.925  0.00  0.00    +0.000 HD
ENDBRANCH   7  11
ENDBRANCH   2   3
BRANCH   1  14
ATOM     13  O   UNL     1       1.479  -5.610   2.679  0.00  0.00    +0.000 OA
ATOM     14  C   UNL     1       0.706  -5.276   1.731  0.00  0.00    +0.000 C 
BRANCH  14  15
ATOM     15  O   UNL     1       1.160  -5.269   0.418  0.00  0.00    +0.000 OA
BRANCH  15  16
ATOM     16  C   UNL     1       0.508  -6.088  -0.545  0.00  0.00    +0.000 C 
BRANCH  16  17
ATOM     17  C   UNL     1      -0.262  -5.173  -1.476  0.00  0.00    +0.000 C 
BRANCH  17  18
ATOM     18  C   UNL     1      -1.623  -5.737  -1.613  0.00  0.00    +0.000 A 
ATOM     19  C   UNL     1      -2.681  -4.856  -1.736  0.00  0.00    +0.000 A 
ATOM     20  C   UNL     1      -3.826  -5.292  -2.378  0.00  0.00    +0.000 A 
ATOM     21  C   UNL     1      -3.902  -6.558  -2.915  0.00  0.00    +0.000 A 
ATOM     22  C   UNL     1      -2.994  -7.519  -2.495  0.00  0.00    +0.000 A 
ATOM     23  C   UNL     1      -1.852  -7.071  -1.846  0.00  0.00    +0.000 A 
ENDBRANCH  17  18
ENDBRANCH  16  17
ENDBRANCH  15  16
ENDBRANCH  14  15
ENDBRANCH   1  14
TORSDOF 8
ENDMDL
MODEL 8
REMARK VINA RESULT:    -2.013      2.653      5.515
REMARK INTER + INTRA:          -7.065
REMARK INTER:                  -4.400
REMARK INTRA:                  -2.666
REMARK CONF_INDEPENDENT:        2.386
REMARK UNBOUND:                 2.666
REMARK  Name = 
REMARK  8 active torsions:
REMARK  status: ('A' for Active; 'I' for Inactive)
REMARK    1  A    between atoms: C_2  and  C_3
REMARK    2  A    between atoms: C_2  and  O_13
REMARK    3  A    between atoms: C_4  and  C_5
REMARK    4  A    between atoms: C_8  and  O_9
REMARK    5  A    between atoms: C_10  and  O_11
REMARK    6  A    between atoms: O_13  and  C_14
REMARK    7  A    between atoms: C_14  and  C_15
REMARK    8  A    between atoms: C_15  and  C_16
REMARK                            x       y       z     vdW  Elec       q    Type
REMARK                         _______ _______ _______ _____ _____    ______ ____
ROOT
ATOM      1  C   UNL     1      -5.726  -6.759   0.744  0.00  0.00    +0.000 C 
ATOM      2  C   UNL     1      -4.905  -5.956   1.370  0.00  0.00    +0.000 C 
ENDROOT
BRANCH   2   3
ATOM      3  C   UNL     1      -3.601  -6.362   1.901  0.00  0.00    +0.000 A 
ATOM      4  C   UNL     1      -2.951  -7.504   1.448  0.00  0.00    +0.000 A 
ATOM      5  C   UNL     1      -1.577  -7.490   1.239  0.00  0.00    +0.000 A 
ATOM      6  C   UNL     1      -0.816  -6.384   1.600  0.00  0.00    +0.000 A 
ATOM      7  C   UNL     1      -1.413  -5.508   2.495  0.00  0.00    +0.000 A 
ATOM      8  C   UNL     1      -2.799  -5.464   2.594  0.00  0.00    +0.000 A 
BRANCH   6   9
ATOM      9  O   UNL     1       0.304  -6.009   0.851  0.00  0.00    +0.000 OA
ATOM     10  H   UNL     1       1.074  -5.695   1.283  0.00  0.00    +0.000 HD
ENDBRANCH   6   9
BRANCH   7  11
ATOM     11  O   UNL     1      -0.590  -4.571   3.093  0.00  0.00    +0.000 OA
ATOM     12  H   UNL     1       0.250  -4.381   2.723  0.00  0.00    +0.000 HD
ENDBRANCH   7  11
ENDBRANCH   2   3
BRANCH   1  14
ATOM     13  O   UNL     1      -7.645  -5.424   0.508  0.00  0.00    +0.000 OA
ATOM     14  C   UNL     1      -6.879  -6.280  -0.029  0.00  0.00    +0.000 C 
BRANCH  14  15
ATOM     15  O   UNL     1      -6.884  -6.469  -1.405  0.00  0.00    +0.000 OA
BRANCH  15  16
ATOM     16  C   UNL     1      -5.941  -7.361  -1.986  0.00  0.00    +0.000 C 
BRANCH  16  17
ATOM     17  C   UNL     1      -5.034  -6.544  -2.884  0.00  0.00    +0.000 C 
BRANCH  17  18
ATOM     18  C   UNL     1      -3.718  -6.460  -2.211  0.00  0.00    +0.000 A 
ATOM     19  C   UNL     1      -2.842  -7.519  -2.363  0.00  0.00    +0.000 A 
ATOM     20  C   UNL     1      -1.488  -7.275  -2.229  0.00  0.00    +0.000 A 
ATOM     21  C   UNL     1      -1.015  -6.004  -1.987  0.00  0.00    +0.000 A 
ATOM     22  C   UNL     1      -1.894  -5.043  -1.508  0.00  0.00    +0.000 A 
ATOM     23  C   UNL     1      -3.250  -5.302  -1.642  0.00  0.00    +0.000 A 
ENDBRANCH  17  18
ENDBRANCH  16  17
ENDBRANCH  15  16
ENDBRANCH  14  15
ENDBRANCH   1  14
TORSDOF 8
ENDMDL
MODEL 9
REMARK VINA RESULT:    -1.856      1.776      5.228
REMARK INTER + INTRA:          -6.928
REMARK INTER:                  -4.243
REMARK INTRA:                  -2.685
REMARK CONF_INDEPENDENT:        2.386
REMARK UNBOUND:                 2.685
REMARK  Name = 
REMARK  8 active torsions:
REMARK  status: ('A' for Active; 'I' for Inactive)
REMARK    1  A    between atoms: C_2  and  C_3
REMARK    2  A    between atoms: C_2  and  O_13
REMARK    3  A    between atoms: C_4  and  C_5
REMARK    4  A    between atoms: C_8  and  O_9
REMARK    5  A    between atoms: C_10  and  O_11
REMARK    6  A    between atoms: O_13  and  C_14
REMARK    7  A    between atoms: C_14  and  C_15
REMARK    8  A    between atoms: C_15  and  C_16
REMARK                            x       y       z     vdW  Elec       q    Type
REMARK                         _______ _______ _______ _____ _____    ______ ____
ROOT
ATOM      1  C   UNL     1      -2.833  -6.273   4.159  0.00  0.00    +0.000 C 
ATOM      2  C   UNL     1      -3.091  -6.984   3.091  0.00  0.00    +0.000 C 
ENDROOT
BRANCH   2   3
ATOM      3  C   UNL     1      -2.180  -7.116   1.951  0.00  0.00    +0.000 A 
ATOM      4  C   UNL     1      -2.628  -7.521   0.699  0.00  0.00    +0.000 A 
ATOM      5  C   UNL     1      -2.137  -6.911  -0.449  0.00  0.00    +0.000 A 
ATOM      6  C   UNL     1      -1.104  -5.985  -0.375  0.00  0.00    +0.000 A 
ATOM      7  C   UNL     1      -0.363  -6.003   0.798  0.00  0.00    +0.000 A 
ATOM      8  C   UNL     1      -0.928  -6.513   1.961  0.00  0.00    +0.000 A 
BRANCH   6   9
ATOM      9  O   UNL     1      -1.047  -4.900  -1.255  0.00  0.00    +0.000 OA
ATOM     10  H   UNL     1      -0.692  -4.081  -0.968  0.00  0.00    +0.000 HD
ENDBRANCH   6   9
BRANCH   7  11
ATOM     11  O   UNL     1       0.835  -5.312   0.790  0.00  0.00    +0.000 OA
ATOM     12  H   UNL     1       1.020  -4.703   0.102  0.00  0.00    +0.000 HD
ENDBRANCH   7  11
ENDBRANCH   2   3
BRANCH   1  14
ATOM     13  O   UNL     1      -3.033  -6.851   6.427  0.00  0.00    +0.000 OA
ATOM     14  C   UNL     1      -3.611  -6.384   5.400  0.00  0.00    +0.000 C 
BRANCH  14  15
ATOM     15  O   UNL     1      -4.783  -5.650   5.520  0.00  0.00    +0.000 OA
BRANCH  15  16
ATOM     16  C   UNL     1      -4.881  -4.387   4.874  0.00  0.00    +0.000 C 
BRANCH  16  17
ATOM     17  C   UNL     1      -5.760  -4.565   3.653  0.00  0.00    +0.000 C 
BRANCH  17  18
ATOM     18  C   UNL     1      -5.051  -3.945   2.511  0.00  0.00    +0.000 A 
ATOM     19  C   UNL     1      -4.032  -3.052   2.788  0.00  0.00    +0.000 A 
ATOM     20  C   UNL     1      -3.038  -2.877   1.844  0.00  0.00    +0.000 A 
ATOM     21  C   UNL     1      -3.038  -3.599   0.670  0.00  0.00    +0.000 A 
ATOM     22  C   UNL     1      -4.212  -4.216   0.264  0.00  0.00    +0.000 A 
ATOM     23  C   UNL     1      -5.205  -4.380   1.218  0.00  0.00    +0.000 A 
ENDBRANCH  17  18
ENDBRANCH  16  17
ENDBRANCH  15  16
ENDBRANCH  14  15
ENDBRANCH   1  14
TORSDOF 8
ENDMDL
