MODEL 1
REMARK VINA RESULT:    -6.881      0.000      0.000
REMARK INTER + INTRA:         -11.197
REMARK INTER:                  -8.671
REMARK INTRA:                  -2.527
REMARK CONF_INDEPENDENT:        1.790
REMARK UNBOUND:                 2.527
REMARK  Name = 5318517
REMARK  8 active torsions:
REMARK  status: ('A' for Active; 'I' for Inactive)
REMARK    1  A    between atoms: O_1  and  C_11
REMARK    2  A    between atoms: O_2  and  C_17
REMARK    3  A    between atoms: O_4  and  C_23
REMARK    4  A    between atoms: C_6  and  C_14
REMARK    5  A    between atoms: C_8  and  C_17
REMARK    6  A    between atoms: C_8  and  C_18
REMARK    7  A    between atoms: C_9  and  C_19
REMARK    8  A    between atoms: C_19  and  C_21
REMARK                            x       y       z     vdW  Elec       q    Type
REMARK                         _______ _______ _______ _____ _____    ______ ____
ROOT
ATOM      1  C   UNL     1       1.462  -1.583  -5.430  0.00  0.00    +0.000 C 
ATOM      2  C   UNL     1       0.323  -1.358  -4.353  0.00  0.00    +0.000 C 
ATOM      3  C   UNL     1      -1.087  -0.913  -4.897  0.00  0.00    +0.000 C 
ATOM      4  C   UNL     1       2.833  -1.705  -4.640  0.00  0.00    +0.000 C 
ATOM      5  C   UNL     1       1.503  -0.355  -6.376  0.00  0.00    +0.000 C 
ATOM      6  C   UNL     1      -0.891   0.276  -5.882  0.00  0.00    +0.000 C 
ATOM      7  C   UNL     1       0.279  -2.524  -3.337  0.00  0.00    +0.000 C 
ATOM      8  C   UNL     1       0.147   0.012  -6.968  0.00  0.00    +0.000 C 
ATOM      9  C   UNL     1       1.257  -2.858  -6.289  0.00  0.00    +0.000 C 
ATOM     10  C   UNL     1       1.627  -2.715  -2.638  0.00  0.00    +0.000 C 
ATOM     11  C   UNL     1       2.755  -2.848  -3.628  0.00  0.00    +0.000 C 
ATOM     12  C   UNL     1      -1.952  -0.387  -3.716  0.00  0.00    +0.000 C 
ATOM     13  C   UNL     1       3.579  -3.908  -3.580  0.00  0.00    +0.000 C 
ENDROOT
BRANCH   6  14
ATOM     14  O   UNL     1      -2.119   0.659  -6.499  0.00  0.00    +0.000 OA
ATOM     15  H   UNL     1      -2.484  -0.126  -6.942  0.00  0.00    +0.000 HD
ENDBRANCH   6  14
BRANCH   3  16
ATOM     16  C   UNL     1      -1.907  -2.053  -5.538  0.00  0.00    +0.000 C 
BRANCH  16  17
ATOM     17  O   UNL     1      -1.625  -2.066  -6.920  0.00  0.00    +0.000 OA
ATOM     18  H   UNL     1      -2.153  -1.359  -7.330  0.00  0.00    +0.000 HD
ENDBRANCH  16  17
ENDBRANCH   3  16
BRANCH   4  19
ATOM     19  C   UNL     1       4.084  -1.737  -5.535  0.00  0.00    +0.000 C 
BRANCH  19  22
ATOM     20  O   UNL     1       6.547   2.098  -4.172  0.00  0.00    +0.000 OA
ATOM     21  O   UNL     1       5.382   2.462  -6.124  0.00  0.00    +0.000 OA
ATOM     22  C   UNL     1       4.580  -0.355  -5.802  0.00  0.00    +0.000 C 
ATOM     23  C   UNL     1       5.226   0.387  -4.901  0.00  0.00    +0.000 C 
ATOM     24  C   UNL     1       5.655   0.009  -3.535  0.00  0.00    +0.000 C 
ATOM     25  C   UNL     1       5.696   1.757  -5.184  0.00  0.00    +0.000 C 
ATOM     26  C   UNL     1       6.820   0.954  -3.341  0.00  0.00    +0.000 C 
BRANCH  24  27
ATOM     27  O   UNL     1       4.631   0.335  -2.603  0.00  0.00    +0.000 OA
ATOM     28  H   UNL     1       3.778   0.141  -3.028  0.00  0.00    +0.000 HD
ENDBRANCH  24  27
ENDBRANCH  19  22
ENDBRANCH   4  19
TORSDOF 6
ENDMDL
MODEL 2
REMARK VINA RESULT:    -6.143      3.339      7.740
REMARK INTER + INTRA:         -10.328
REMARK INTER:                  -7.933
REMARK INTRA:                  -2.395
REMARK CONF_INDEPENDENT:        1.790
REMARK UNBOUND:                 2.395
REMARK  Name = 5318517
REMARK  8 active torsions:
REMARK  status: ('A' for Active; 'I' for Inactive)
REMARK    1  A    between atoms: O_1  and  C_11
REMARK    2  A    between atoms: O_2  and  C_17
REMARK    3  A    between atoms: O_4  and  C_23
REMARK    4  A    between atoms: C_6  and  C_14
REMARK    5  A    between atoms: C_8  and  C_17
REMARK    6  A    between atoms: C_8  and  C_18
REMARK    7  A    between atoms: C_9  and  C_19
REMARK    8  A    between atoms: C_19  and  C_21
REMARK                            x       y       z     vdW  Elec       q    Type
REMARK                         _______ _______ _______ _____ _____    ______ ____
ROOT
ATOM      1  C   UNL     1      -1.365  -1.117  -4.479  0.00  0.00    +0.000 C 
ATOM      2  C   UNL     1      -0.234  -0.478  -5.385  0.00  0.00    +0.000 C 
ATOM      3  C   UNL     1       0.912  -1.444  -5.872  0.00  0.00    +0.000 C 
ATOM      4  C   UNL     1      -2.203   0.082  -3.863  0.00  0.00    +0.000 C 
ATOM      5  C   UNL     1      -0.694  -1.932  -3.344  0.00  0.00    +0.000 C 
ATOM      6  C   UNL     1       1.445  -2.245  -4.648  0.00  0.00    +0.000 C 
ATOM      7  C   UNL     1      -0.844   0.405  -6.498  0.00  0.00    +0.000 C 
ATOM      8  C   UNL     1       0.350  -2.928  -3.835  0.00  0.00    +0.000 C 
ATOM      9  C   UNL     1      -2.323  -2.056  -5.257  0.00  0.00    +0.000 C 
ATOM     10  C   UNL     1      -1.734   1.508  -5.921  0.00  0.00    +0.000 C 
ATOM     11  C   UNL     1      -2.774   0.951  -4.983  0.00  0.00    +0.000 C 
ATOM     12  C   UNL     1       2.100  -0.600  -6.415  0.00  0.00    +0.000 C 
ATOM     13  C   UNL     1      -4.076   1.223  -5.176  0.00  0.00    +0.000 C 
ENDROOT
BRANCH   6  14
ATOM     14  O   UNL     1       2.411  -3.221  -5.037  0.00  0.00    +0.000 OA
ATOM     15  H   UNL     1       1.940  -3.935  -5.500  0.00  0.00    +0.000 HD
ENDBRANCH   6  14
BRANCH   3  16
ATOM     16  C   UNL     1       0.502  -2.379  -7.029  0.00  0.00    +0.000 C 
BRANCH  16  17
ATOM     17  O   UNL     1       1.631  -3.145  -7.389  0.00  0.00    +0.000 OA
ATOM     18  H   UNL     1       1.583  -3.981  -6.894  0.00  0.00    +0.000 HD
ENDBRANCH  16  17
ENDBRANCH   3  16
BRANCH   4  19
ATOM     19  C   UNL     1      -3.232  -0.338  -2.801  0.00  0.00    +0.000 C 
BRANCH  19  22
ATOM     20  O   UNL     1      -5.720  -4.388  -2.995  0.00  0.00    +0.000 OA
ATOM     21  O   UNL     1      -6.250  -2.959  -4.720  0.00  0.00    +0.000 OA
ATOM     22  C   UNL     1      -4.316  -1.163  -3.410  0.00  0.00    +0.000 C 
ATOM     23  C   UNL     1      -4.532  -2.445  -3.105  0.00  0.00    +0.000 C 
ATOM     24  C   UNL     1      -3.846  -3.277  -2.091  0.00  0.00    +0.000 C 
ATOM     25  C   UNL     1      -5.602  -3.244  -3.731  0.00  0.00    +0.000 C 
ATOM     26  C   UNL     1      -4.923  -4.297  -1.799  0.00  0.00    +0.000 C 
BRANCH  24  27
ATOM     27  O   UNL     1      -2.731  -3.933  -2.682  0.00  0.00    +0.000 OA
ATOM     28  H   UNL     1      -3.063  -4.737  -3.117  0.00  0.00    +0.000 HD
ENDBRANCH  24  27
ENDBRANCH  19  22
ENDBRANCH   4  19
TORSDOF 6
ENDMDL
MODEL 3
REMARK VINA RESULT:    -5.717      1.785      2.600
REMARK INTER + INTRA:          -9.871
REMARK INTER:                  -7.506
REMARK INTRA:                  -2.364
REMARK CONF_INDEPENDENT:        1.790
REMARK UNBOUND:                 2.364
REMARK  Name = 5318517
REMARK  8 active torsions:
REMARK  status: ('A' for Active; 'I' for Inactive)
REMARK    1  A    between atoms: O_1  and  C_11
REMARK    2  A    between atoms: O_2  and  C_17
REMARK    3  A    between atoms: O_4  and  C_23
REMARK    4  A    between atoms: C_6  and  C_14
REMARK    5  A    between atoms: C_8  and  C_17
REMARK    6  A    between atoms: C_8  and  C_18
REMARK    7  A    between atoms: C_9  and  C_19
REMARK    8  A    between atoms: C_19  and  C_21
REMARK                            x       y       z     vdW  Elec       q    Type
REMARK                         _______ _______ _______ _____ _____    ______ ____
ROOT
ATOM      1  C   UNL     1       3.422  -1.789  -4.164  0.00  0.00    +0.000 C 
ATOM      2  C   UNL     1       1.849  -1.625  -4.094  0.00  0.00    +0.000 C 
ATOM      3  C   UNL     1       1.091  -1.473  -5.467  0.00  0.00    +0.000 C 
ATOM      4  C   UNL     1       3.977  -1.602  -2.689  0.00  0.00    +0.000 C 
ATOM      5  C   UNL     1       3.998  -0.687  -5.090  0.00  0.00    +0.000 C 
ATOM      6  C   UNL     1       1.814  -0.388  -6.320  0.00  0.00    +0.000 C 
ATOM      7  C   UNL     1       1.223  -2.658  -3.128  0.00  0.00    +0.000 C 
ATOM      8  C   UNL     1       3.317  -0.609  -6.452  0.00  0.00    +0.000 C 
ATOM      9  C   UNL     1       3.875  -3.171  -4.704  0.00  0.00    +0.000 C 
ATOM     10  C   UNL     1       1.820  -2.553  -1.723  0.00  0.00    +0.000 C 
ATOM     11  C   UNL     1       3.326  -2.619  -1.752  0.00  0.00    +0.000 C 
ATOM     12  C   UNL     1      -0.353  -0.958  -5.205  0.00  0.00    +0.000 C 
ATOM     13  C   UNL     1       3.979  -3.524  -1.003  0.00  0.00    +0.000 C 
ENDROOT
BRANCH   6  14
ATOM     14  O   UNL     1       1.245  -0.278  -7.624  0.00  0.00    +0.000 OA
ATOM     15  H   UNL     1       0.338  -0.626  -7.581  0.00  0.00    +0.000 HD
ENDBRANCH   6  14
BRANCH   3  16
ATOM     16  C   UNL     1       0.926  -2.794  -6.249  0.00  0.00    +0.000 C 
BRANCH  16  17
ATOM     17  O   UNL     1       1.313  -2.559  -7.584  0.00  0.00    +0.000 OA
ATOM     18  H   UNL     1       2.227  -2.224  -7.567  0.00  0.00    +0.000 HD
ENDBRANCH  16  17
ENDBRANCH   3  16
BRANCH   4  19
ATOM     19  C   UNL     1       5.510  -1.540  -2.587  0.00  0.00    +0.000 C 
BRANCH  19  22
ATOM     20  O   UNL     1       5.968   3.163  -2.029  0.00  0.00    +0.000 OA
ATOM     21  O   UNL     1       6.754   2.450  -4.072  0.00  0.00    +0.000 OA
ATOM     22  C   UNL     1       6.020  -0.222  -3.070  0.00  0.00    +0.000 C 
ATOM     23  C   UNL     1       5.719   0.944  -2.495  0.00  0.00    +0.000 C 
ATOM     24  C   UNL     1       4.927   1.187  -1.268  0.00  0.00    +0.000 C 
ATOM     25  C   UNL     1       6.225   2.235  -2.998  0.00  0.00    +0.000 C 
ATOM     26  C   UNL     1       5.500   2.517  -0.830  0.00  0.00    +0.000 C 
BRANCH  24  27
ATOM     27  O   UNL     1       3.557   1.360  -1.607  0.00  0.00    +0.000 OA
ATOM     28  H   UNL     1       3.524   1.791  -2.478  0.00  0.00    +0.000 HD
ENDBRANCH  24  27
ENDBRANCH  19  22
ENDBRANCH   4  19
TORSDOF 6
ENDMDL
MODEL 4
REMARK VINA RESULT:    -5.699      3.211      5.037
REMARK INTER + INTRA:          -9.533
REMARK INTER:                  -7.489
REMARK INTRA:                  -2.045
REMARK CONF_INDEPENDENT:        1.790
REMARK UNBOUND:                 2.045
REMARK  Name = 5318517
REMARK  8 active torsions:
REMARK  status: ('A' for Active; 'I' for Inactive)
REMARK    1  A    between atoms: O_1  and  C_11
REMARK    2  A    between atoms: O_2  and  C_17
REMARK    3  A    between atoms: O_4  and  C_23
REMARK    4  A    between atoms: C_6  and  C_14
REMARK    5  A    between atoms: C_8  and  C_17
REMARK    6  A    between atoms: C_8  and  C_18
REMARK    7  A    between atoms: C_9  and  C_19
REMARK    8  A    between atoms: C_19  and  C_21
REMARK                            x       y       z     vdW  Elec       q    Type
REMARK                         _______ _______ _______ _____ _____    ______ ____
ROOT
ATOM      1  C   UNL     1       1.882  -2.444  -3.652  0.00  0.00    +0.000 C 
ATOM      2  C   UNL     1       1.044  -1.910  -4.884  0.00  0.00    +0.000 C 
ATOM      3  C   UNL     1      -0.462  -1.537  -4.607  0.00  0.00    +0.000 C 
ATOM      4  C   UNL     1       3.234  -3.043  -4.231  0.00  0.00    +0.000 C 
ATOM      5  C   UNL     1       1.071  -3.559  -2.942  0.00  0.00    +0.000 C 
ATOM      6  C   UNL     1      -1.133  -2.709  -3.832  0.00  0.00    +0.000 C 
ATOM      7  C   UNL     1       1.834  -0.840  -5.674  0.00  0.00    +0.000 C 
ATOM      8  C   UNL     1      -0.358  -3.155  -2.597  0.00  0.00    +0.000 C 
ATOM      9  C   UNL     1       2.221  -1.345  -2.611  0.00  0.00    +0.000 C 
ATOM     10  C   UNL     1       3.184  -1.376  -6.156  0.00  0.00    +0.000 C 
ATOM     11  C   UNL     1       3.982  -1.973  -5.025  0.00  0.00    +0.000 C 
ATOM     12  C   UNL     1      -1.215  -1.396  -5.960  0.00  0.00    +0.000 C 
ATOM     13  C   UNL     1       5.234  -1.551  -4.782  0.00  0.00    +0.000 C 
ENDROOT
BRANCH   6  14
ATOM     14  O   UNL     1      -2.470  -2.391  -3.450  0.00  0.00    +0.000 OA
ATOM     15  H   UNL     1      -2.494  -1.448  -3.214  0.00  0.00    +0.000 HD
ENDBRANCH   6  14
BRANCH   3  16
ATOM     16  C   UNL     1      -0.656  -0.189  -3.879  0.00  0.00    +0.000 C 
BRANCH  16  17
ATOM     17  O   UNL     1      -1.985   0.232  -4.095  0.00  0.00    +0.000 OA
ATOM     18  H   UNL     1      -2.499  -0.552  -4.355  0.00  0.00    +0.000 HD
ENDBRANCH  16  17
ENDBRANCH   3  16
BRANCH   4  19
ATOM     19  C   UNL     1       4.098  -3.784  -3.197  0.00  0.00    +0.000 C 
BRANCH  19  22
ATOM     20  O   UNL     1       7.236  -7.356  -3.025  0.00  0.00    +0.000 OA
ATOM     21  O   UNL     1       7.256  -6.280  -5.060  0.00  0.00    +0.000 OA
ATOM     22  C   UNL     1       5.093  -4.668  -3.875  0.00  0.00    +0.000 C 
ATOM     23  C   UNL     1       5.863  -5.547  -3.230  0.00  0.00    +0.000 C 
ATOM     24  C   UNL     1       5.856  -5.894  -1.791  0.00  0.00    +0.000 C 
ATOM     25  C   UNL     1       6.848  -6.401  -3.921  0.00  0.00    +0.000 C 
ATOM     26  C   UNL     1       6.412  -7.300  -1.845  0.00  0.00    +0.000 C 
BRANCH  24  27
ATOM     27  O   UNL     1       6.768  -5.059  -1.090  0.00  0.00    +0.000 OA
ATOM     28  H   UNL     1       6.334  -4.780  -0.265  0.00  0.00    +0.000 HD
ENDBRANCH  24  27
ENDBRANCH  19  22
ENDBRANCH   4  19
TORSDOF 6
ENDMDL
MODEL 5
REMARK VINA RESULT:    -5.695      4.014      6.940
REMARK INTER + INTRA:          -9.977
REMARK INTER:                  -7.484
REMARK INTRA:                  -2.493
REMARK CONF_INDEPENDENT:        1.790
REMARK UNBOUND:                 2.493
REMARK  Name = 5318517
REMARK  8 active torsions:
REMARK  status: ('A' for Active; 'I' for Inactive)
REMARK    1  A    between atoms: O_1  and  C_11
REMARK    2  A    between atoms: O_2  and  C_17
REMARK    3  A    between atoms: O_4  and  C_23
REMARK    4  A    between atoms: C_6  and  C_14
REMARK    5  A    between atoms: C_8  and  C_17
REMARK    6  A    between atoms: C_8  and  C_18
REMARK    7  A    between atoms: C_9  and  C_19
REMARK    8  A    between atoms: C_19  and  C_21
REMARK                            x       y       z     vdW  Elec       q    Type
REMARK                         _______ _______ _______ _____ _____    ______ ____
ROOT
ATOM      1  C   UNL     1      -4.117  -2.619  -3.618  0.00  0.00    +0.000 C 
ATOM      2  C   UNL     1      -5.012  -3.726  -4.311  0.00  0.00    +0.000 C 
ATOM      3  C   UNL     1      -5.964  -4.556  -3.369  0.00  0.00    +0.000 C 
ATOM      4  C   UNL     1      -3.039  -2.155  -4.687  0.00  0.00    +0.000 C 
ATOM      5  C   UNL     1      -3.408  -3.247  -2.390  0.00  0.00    +0.000 C 
ATOM      6  C   UNL     1      -5.142  -5.066  -2.149  0.00  0.00    +0.000 C 
ATOM      7  C   UNL     1      -5.693  -3.175  -5.586  0.00  0.00    +0.000 C 
ATOM      8  C   UNL     1      -4.353  -3.972  -1.438  0.00  0.00    +0.000 C 
ATOM      9  C   UNL     1      -4.921  -1.382  -3.141  0.00  0.00    +0.000 C 
ATOM     10  C   UNL     1      -4.668  -2.634  -6.585  0.00  0.00    +0.000 C 
ATOM     11  C   UNL     1      -3.737  -1.637  -5.944  0.00  0.00    +0.000 C 
ATOM     12  C   UNL     1      -6.474  -5.813  -4.131  0.00  0.00    +0.000 C 
ATOM     13  C   UNL     1      -3.586  -0.412  -6.474  0.00  0.00    +0.000 C 
ENDROOT
BRANCH   6  14
ATOM     14  O   UNL     1      -5.969  -5.733  -1.198  0.00  0.00    +0.000 OA
ATOM     15  H   UNL     1      -6.398  -5.053  -0.651  0.00  0.00    +0.000 HD
ENDBRANCH   6  14
BRANCH   3  16
ATOM     16  C   UNL     1      -7.232  -3.798  -2.924  0.00  0.00    +0.000 C 
BRANCH  16  17
ATOM     17  O   UNL     1      -7.017  -3.326  -1.612  0.00  0.00    +0.000 OA
ATOM     18  H   UNL     1      -7.292  -4.033  -1.002  0.00  0.00    +0.000 HD
ENDBRANCH  16  17
ENDBRANCH   3  16
BRANCH   4  19
ATOM     19  C   UNL     1      -1.954  -1.215  -4.133  0.00  0.00    +0.000 C 
BRANCH  19  22
ATOM     20  O   UNL     1       1.969  -2.016  -6.702  0.00  0.00    +0.000 OA
ATOM     21  O   UNL     1       1.957  -3.217  -4.738  0.00  0.00    +0.000 OA
ATOM     22  C   UNL     1      -0.600  -1.829  -4.272  0.00  0.00    +0.000 C 
ATOM     23  C   UNL     1       0.102  -1.825  -5.407  0.00  0.00    +0.000 C 
ATOM     24  C   UNL     1      -0.236  -1.179  -6.696  0.00  0.00    +0.000 C 
ATOM     25  C   UNL     1       1.433  -2.450  -5.523  0.00  0.00    +0.000 C 
ATOM     26  C   UNL     1       1.147  -0.982  -7.275  0.00  0.00    +0.000 C 
BRANCH  24  27
ATOM     27  O   UNL     1      -0.958  -2.089  -7.515  0.00  0.00    +0.000 OA
ATOM     28  H   UNL     1      -1.858  -1.734  -7.622  0.00  0.00    +0.000 HD
ENDBRANCH  24  27
ENDBRANCH  19  22
ENDBRANCH   4  19
TORSDOF 6
ENDMDL
MODEL 6
REMARK VINA RESULT:    -5.525      3.209      6.376
REMARK INTER + INTRA:          -9.887
REMARK INTER:                  -7.315
REMARK INTRA:                  -2.572
REMARK CONF_INDEPENDENT:        1.790
REMARK UNBOUND:                 2.572
REMARK  Name = 5318517
REMARK  8 active torsions:
REMARK  status: ('A' for Active; 'I' for Inactive)
REMARK    1  A    between atoms: O_1  and  C_11
REMARK    2  A    between atoms: O_2  and  C_17
REMARK    3  A    between atoms: O_4  and  C_23
REMARK    4  A    between atoms: C_6  and  C_14
REMARK    5  A    between atoms: C_8  and  C_17
REMARK    6  A    between atoms: C_8  and  C_18
REMARK    7  A    between atoms: C_9  and  C_19
REMARK    8  A    between atoms: C_19  and  C_21
REMARK                            x       y       z     vdW  Elec       q    Type
REMARK                         _______ _______ _______ _____ _____    ______ ____
ROOT
ATOM      1  C   UNL     1      -0.492  -1.300  -3.590  0.00  0.00    +0.000 C 
ATOM      2  C   UNL     1       0.778  -1.790  -4.398  0.00  0.00    +0.000 C 
ATOM      3  C   UNL     1       1.750  -2.783  -3.656  0.00  0.00    +0.000 C 
ATOM      4  C   UNL     1      -1.125  -0.091  -4.401  0.00  0.00    +0.000 C 
ATOM      5  C   UNL     1      -0.035  -0.816  -2.189  0.00  0.00    +0.000 C 
ATOM      6  C   UNL     1       2.069  -2.210  -2.244  0.00  0.00    +0.000 C 
ATOM      7  C   UNL     1       0.393  -2.222  -5.833  0.00  0.00    +0.000 C 
ATOM      8  C   UNL     1       0.831  -1.824  -1.442  0.00  0.00    +0.000 C 
ATOM      9  C   UNL     1      -1.567  -2.402  -3.402  0.00  0.00    +0.000 C 
ATOM     10  C   UNL     1      -0.307  -1.095  -6.595  0.00  0.00    +0.000 C 
ATOM     11  C   UNL     1      -1.474  -0.539  -5.820  0.00  0.00    +0.000 C 
ATOM     12  C   UNL     1       3.097  -2.861  -4.430  0.00  0.00    +0.000 C 
ATOM     13  C   UNL     1      -2.694  -0.480  -6.381  0.00  0.00    +0.000 C 
ENDROOT
BRANCH   6  14
ATOM     14  O   UNL     1       2.857  -3.115  -1.473  0.00  0.00    +0.000 OA
ATOM     15  H   UNL     1       2.422  -3.984  -1.501  0.00  0.00    +0.000 HD
ENDBRANCH   6  14
BRANCH   3  16
ATOM     16  C   UNL     1       1.231  -4.235  -3.576  0.00  0.00    +0.000 C 
BRANCH  16  17
ATOM     17  O   UNL     1       0.469  -4.359  -2.396  0.00  0.00    +0.000 OA
ATOM     18  H   UNL     1       1.080  -4.261  -1.645  0.00  0.00    +0.000 HD
ENDBRANCH  16  17
ENDBRANCH   3  16
BRANCH   4  19
ATOM     19  C   UNL     1      -2.263   0.642  -3.671  0.00  0.00    +0.000 C 
BRANCH  19  22
ATOM     20  O   UNL     1      -2.165   5.007  -5.560  0.00  0.00    +0.000 OA
ATOM     21  O   UNL     1      -1.155   4.932  -3.492  0.00  0.00    +0.000 OA
ATOM     22  C   UNL     1      -1.962   2.098  -3.549  0.00  0.00    +0.000 C 
ATOM     23  C   UNL     1      -2.032   2.957  -4.568  0.00  0.00    +0.000 C 
ATOM     24  C   UNL     1      -2.479   2.703  -5.956  0.00  0.00    +0.000 C 
ATOM     25  C   UNL     1      -1.718   4.392  -4.425  0.00  0.00    +0.000 C 
ATOM     26  C   UNL     1      -2.937   4.088  -6.356  0.00  0.00    +0.000 C 
BRANCH  24  27
ATOM     27  O   UNL     1      -1.367   2.330  -6.759  0.00  0.00    +0.000 OA
ATOM     28  H   UNL     1      -0.858   3.137  -6.945  0.00  0.00    +0.000 HD
ENDBRANCH  24  27
ENDBRANCH  19  22
ENDBRANCH   4  19
TORSDOF 6
ENDMDL
MODEL 7
REMARK VINA RESULT:    -5.454      4.391      8.404
REMARK INTER + INTRA:          -9.620
REMARK INTER:                  -7.244
REMARK INTRA:                  -2.376
REMARK CONF_INDEPENDENT:        1.790
REMARK UNBOUND:                 2.376
REMARK  Name = 5318517
REMARK  8 active torsions:
REMARK  status: ('A' for Active; 'I' for Inactive)
REMARK    1  A    between atoms: O_1  and  C_11
REMARK    2  A    between atoms: O_2  and  C_17
REMARK    3  A    between atoms: O_4  and  C_23
REMARK    4  A    between atoms: C_6  and  C_14
REMARK    5  A    between atoms: C_8  and  C_17
REMARK    6  A    between atoms: C_8  and  C_18
REMARK    7  A    between atoms: C_9  and  C_19
REMARK    8  A    between atoms: C_19  and  C_21
REMARK                            x       y       z     vdW  Elec       q    Type
REMARK                         _______ _______ _______ _____ _____    ______ ____
ROOT
ATOM      1  C   UNL     1      -2.387  -1.159  -3.216  0.00  0.00    +0.000 C 
ATOM      2  C   UNL     1      -0.899  -1.346  -3.723  0.00  0.00    +0.000 C 
ATOM      3  C   UNL     1      -0.659  -1.222  -5.275  0.00  0.00    +0.000 C 
ATOM      4  C   UNL     1      -2.428  -1.637  -1.703  0.00  0.00    +0.000 C 
ATOM      5  C   UNL     1      -3.322  -2.047  -4.076  0.00  0.00    +0.000 C 
ATOM      6  C   UNL     1      -1.706  -2.107  -6.015  0.00  0.00    +0.000 C 
ATOM      7  C   UNL     1       0.092  -0.534  -2.855  0.00  0.00    +0.000 C 
ATOM      8  C   UNL     1      -3.145  -1.854  -5.578  0.00  0.00    +0.000 C 
ATOM      9  C   UNL     1      -2.889   0.306  -3.298  0.00  0.00    +0.000 C 
ATOM     10  C   UNL     1      -0.007  -0.916  -1.377  0.00  0.00    +0.000 C 
ATOM     11  C   UNL     1      -1.425  -0.835  -0.873  0.00  0.00    +0.000 C 
ATOM     12  C   UNL     1       0.746  -1.790  -5.627  0.00  0.00    +0.000 C 
ATOM     13  C   UNL     1      -1.719  -0.096   0.210  0.00  0.00    +0.000 C 
ENDROOT
BRANCH   6  14
ATOM     14  O   UNL     1      -1.617  -1.955  -7.431  0.00  0.00    +0.000 OA
ATOM     15  H   UNL     1      -1.433  -1.019  -7.617  0.00  0.00    +0.000 HD
ENDBRANCH   6  14
BRANCH   3  16
ATOM     16  C   UNL     1      -0.666   0.228  -5.803  0.00  0.00    +0.000 C 
BRANCH  16  17
ATOM     17  O   UNL     1       0.178   0.283  -6.932  0.00  0.00    +0.000 OA
ATOM     18  H   UNL     1      -0.227  -0.268  -7.624  0.00  0.00    +0.000 HD
ENDBRANCH  16  17
ENDBRANCH   3  16
BRANCH   4  19
ATOM     19  C   UNL     1      -3.838  -1.708  -1.094  0.00  0.00    +0.000 C 
BRANCH  19  22
ATOM     20  O   UNL     1      -5.683  -5.980  -0.105  0.00  0.00    +0.000 OA
ATOM     21  O   UNL     1      -4.478  -5.125   1.661  0.00  0.00    +0.000 OA
ATOM     22  C   UNL     1      -3.964  -2.885  -0.184  0.00  0.00    +0.000 C 
ATOM     23  C   UNL     1      -4.824  -3.886  -0.382  0.00  0.00    +0.000 C 
ATOM     24  C   UNL     1      -5.743  -4.097  -1.524  0.00  0.00    +0.000 C 
ATOM     25  C   UNL     1      -4.938  -5.033   0.539  0.00  0.00    +0.000 C 
ATOM     26  C   UNL     1      -5.898  -5.601  -1.477  0.00  0.00    +0.000 C 
BRANCH  24  27
ATOM     27  O   UNL     1      -6.999  -3.490  -1.248  0.00  0.00    +0.000 OA
ATOM     28  H   UNL     1      -7.211  -3.669  -0.316  0.00  0.00    +0.000 HD
ENDBRANCH  24  27
ENDBRANCH  19  22
ENDBRANCH   4  19
TORSDOF 6
ENDMDL
MODEL 8
REMARK VINA RESULT:    -5.392      2.883      6.666
REMARK INTER + INTRA:          -9.285
REMARK INTER:                  -7.182
REMARK INTRA:                  -2.103
REMARK CONF_INDEPENDENT:        1.790
REMARK UNBOUND:                 2.103
REMARK  Name = 5318517
REMARK  8 active torsions:
REMARK  status: ('A' for Active; 'I' for Inactive)
REMARK    1  A    between atoms: O_1  and  C_11
REMARK    2  A    between atoms: O_2  and  C_17
REMARK    3  A    between atoms: O_4  and  C_23
REMARK    4  A    between atoms: C_6  and  C_14
REMARK    5  A    between atoms: C_8  and  C_17
REMARK    6  A    between atoms: C_8  and  C_18
REMARK    7  A    between atoms: C_9  and  C_19
REMARK    8  A    between atoms: C_19  and  C_21
REMARK                            x       y       z     vdW  Elec       q    Type
REMARK                         _______ _______ _______ _____ _____    ______ ____
ROOT
ATOM      1  C   UNL     1       1.500  -2.140  -4.043  0.00  0.00    +0.000 C 
ATOM      2  C   UNL     1       3.036  -1.941  -3.713  0.00  0.00    +0.000 C 
ATOM      3  C   UNL     1       3.614  -2.774  -2.507  0.00  0.00    +0.000 C 
ATOM      4  C   UNL     1       1.088  -0.989  -5.055  0.00  0.00    +0.000 C 
ATOM      5  C   UNL     1       0.686  -2.007  -2.730  0.00  0.00    +0.000 C 
ATOM      6  C   UNL     1       2.666  -2.606  -1.283  0.00  0.00    +0.000 C 
ATOM      7  C   UNL     1       3.894  -1.996  -4.999  0.00  0.00    +0.000 C 
ATOM      8  C   UNL     1       1.200  -2.886  -1.595  0.00  0.00    +0.000 C 
ATOM      9  C   UNL     1       1.178  -3.515  -4.683  0.00  0.00    +0.000 C 
ATOM     10  C   UNL     1       3.443  -0.953  -6.024  0.00  0.00    +0.000 C 
ATOM     11  C   UNL     1       1.965  -1.051  -6.305  0.00  0.00    +0.000 C 
ATOM     12  C   UNL     1       4.997  -2.193  -2.095  0.00  0.00    +0.000 C 
ATOM     13  C   UNL     1       1.522  -1.191  -7.566  0.00  0.00    +0.000 C 
ENDROOT
BRANCH   6  14
ATOM     14  O   UNL     1       3.071  -3.424  -0.186  0.00  0.00    +0.000 OA
ATOM     15  H   UNL     1       3.002  -4.351  -0.469  0.00  0.00    +0.000 HD
ENDBRANCH   6  14
BRANCH   3  16
ATOM     16  C   UNL     1       3.867  -4.262  -2.829  0.00  0.00    +0.000 C 
BRANCH  16  17
ATOM     17  O   UNL     1       4.660  -4.801  -1.795  0.00  0.00    +0.000 OA
ATOM     18  H   UNL     1       4.093  -4.884  -1.008  0.00  0.00    +0.000 HD
ENDBRANCH  16  17
ENDBRANCH   3  16
BRANCH   4  19
ATOM     19  C   UNL     1      -0.421  -0.903  -5.345  0.00  0.00    +0.000 C 
BRANCH  19  22
ATOM     20  O   UNL     1      -3.824   2.383  -5.850  0.00  0.00    +0.000 OA
ATOM     21  O   UNL     1      -1.742   3.196  -6.401  0.00  0.00    +0.000 OA
ATOM     22  C   UNL     1      -0.829   0.506  -5.617  0.00  0.00    +0.000 C 
ATOM     23  C   UNL     1      -2.097   0.895  -5.765  0.00  0.00    +0.000 C 
ATOM     24  C   UNL     1      -3.329   0.088  -5.619  0.00  0.00    +0.000 C 
ATOM     25  C   UNL     1      -2.475   2.293  -6.046  0.00  0.00    +0.000 C 
ATOM     26  C   UNL     1      -4.325   1.168  -5.260  0.00  0.00    +0.000 C 
BRANCH  24  27
ATOM     27  O   UNL     1      -3.686  -0.475  -6.874  0.00  0.00    +0.000 OA
ATOM     28  H   UNL     1      -3.157  -1.283  -6.994  0.00  0.00    +0.000 HD
ENDBRANCH  24  27
ENDBRANCH  19  22
ENDBRANCH   4  19
TORSDOF 6
ENDMDL
MODEL 9
REMARK VINA RESULT:    -5.199      2.379      3.959
REMARK INTER + INTRA:          -9.253
REMARK INTER:                  -6.989
REMARK INTRA:                  -2.264
REMARK CONF_INDEPENDENT:        1.790
REMARK UNBOUND:                 2.264
REMARK  Name = 5318517
REMARK  8 active torsions:
REMARK  status: ('A' for Active; 'I' for Inactive)
REMARK    1  A    between atoms: O_1  and  C_11
REMARK    2  A    between atoms: O_2  and  C_17
REMARK    3  A    between atoms: O_4  and  C_23
REMARK    4  A    between atoms: C_6  and  C_14
REMARK    5  A    between atoms: C_8  and  C_17
REMARK    6  A    between atoms: C_8  and  C_18
REMARK    7  A    between atoms: C_9  and  C_19
REMARK    8  A    between atoms: C_19  and  C_21
REMARK                            x       y       z     vdW  Elec       q    Type
REMARK                         _______ _______ _______ _____ _____    ______ ____
ROOT
ATOM      1  C   UNL     1       0.635  -2.113  -4.383  0.00  0.00    +0.000 C 
ATOM      2  C   UNL     1      -0.763  -1.590  -4.910  0.00  0.00    +0.000 C 
ATOM      3  C   UNL     1      -1.982  -1.707  -3.918  0.00  0.00    +0.000 C 
ATOM      4  C   UNL     1       1.607  -2.189  -5.636  0.00  0.00    +0.000 C 
ATOM      5  C   UNL     1       0.443  -3.526  -3.775  0.00  0.00    +0.000 C 
ATOM      6  C   UNL     1      -2.013  -3.150  -3.332  0.00  0.00    +0.000 C 
ATOM      7  C   UNL     1      -0.621  -0.208  -5.590  0.00  0.00    +0.000 C 
ATOM      8  C   UNL     1      -0.681  -3.608  -2.749  0.00  0.00    +0.000 C 
ATOM      9  C   UNL     1       1.271  -1.197  -3.305  0.00  0.00    +0.000 C 
ATOM     10  C   UNL     1       0.388  -0.245  -6.740  0.00  0.00    +0.000 C 
ATOM     11  C   UNL     1       1.711  -0.818  -6.302  0.00  0.00    +0.000 C 
ATOM     12  C   UNL     1      -3.308  -1.507  -4.705  0.00  0.00    +0.000 C 
ATOM     13  C   UNL     1       2.847  -0.128  -6.499  0.00  0.00    +0.000 C 
ENDROOT
BRANCH   6  14
ATOM     14  O   UNL     1      -3.028  -3.294  -2.340  0.00  0.00    +0.000 OA
ATOM     15  H   UNL     1      -3.452  -2.426  -2.223  0.00  0.00    +0.000 HD
ENDBRANCH   6  14
BRANCH   3  16
ATOM     16  C   UNL     1      -1.994  -0.641  -2.802  0.00  0.00    +0.000 C 
BRANCH  16  17
ATOM     17  O   UNL     1      -1.718  -1.288  -1.580  0.00  0.00    +0.000 OA
ATOM     18  H   UNL     1      -2.441  -1.919  -1.417  0.00  0.00    +0.000 HD
ENDBRANCH  16  17
ENDBRANCH   3  16
BRANCH   4  19
ATOM     19  C   UNL     1       2.963  -2.859  -5.352  0.00  0.00    +0.000 C 
BRANCH  19  22
ATOM     20  O   UNL     1       5.360  -2.299  -1.281  0.00  0.00    +0.000 OA
ATOM     21  O   UNL     1       5.205  -0.336  -2.476  0.00  0.00    +0.000 OA
ATOM     22  C   UNL     1       3.792  -2.013  -4.444  0.00  0.00    +0.000 C 
ATOM     23  C   UNL     1       4.143  -2.376  -3.209  0.00  0.00    +0.000 C 
ATOM     24  C   UNL     1       3.883  -3.660  -2.519  0.00  0.00    +0.000 C 
ATOM     25  C   UNL     1       4.954  -1.517  -2.325  0.00  0.00    +0.000 C 
ATOM     26  C   UNL     1       5.029  -3.678  -1.531  0.00  0.00    +0.000 C 
BRANCH  24  27
ATOM     27  O   UNL     1       2.656  -3.583  -1.807  0.00  0.00    +0.000 OA
ATOM     28  H   UNL     1       2.146  -4.385  -2.015  0.00  0.00    +0.000 HD
ENDBRANCH  24  27
ENDBRANCH  19  22
ENDBRANCH   4  19
TORSDOF 6
ENDMDL
