MODEL 1
REMARK VINA RESULT:    -6.259      0.000      0.000
REMARK INTER + INTRA:          -7.215
REMARK INTER:                  -6.856
REMARK INTRA:                  -0.359
REMARK CONF_INDEPENDENT:        0.597
REMARK UNBOUND:                 0.359
REMARK  Name = 2353
REMARK  4 active torsions:
REMARK  status: ('A' for Active; 'I' for Inactive)
REMARK    1  A    between atoms: O_3  and  C_19
REMARK    2  A    between atoms: O_3  and  C_24
REMARK    3  A    between atoms: O_4  and  C_21
REMARK    4  A    between atoms: O_4  and  C_25
REMARK                            x       y       z     vdW  Elec       q    Type
REMARK                         _______ _______ _______ _____ _____    ______ ____
ROOT
ATOM      1  O   UNL     1      -5.000  -2.509  -3.588  0.00  0.00    +0.000 OA
ATOM      2  O   UNL     1      -3.569  -3.376  -1.856  0.00  0.00    +0.000 OA
ATOM      3  N   UNL     1       1.029  -1.306  -5.266  0.00  0.00    +0.000 N 
ATOM      4  C   UNL     1       0.111  -0.372  -5.967  0.00  0.00    +0.000 C 
ATOM      5  C   UNL     1      -1.153  -1.106  -6.375  0.00  0.00    +0.000 C 
ATOM      6  C   UNL     1       0.560  -2.206  -4.354  0.00  0.00    +0.000 A 
ATOM      7  C   UNL     1      -1.768  -1.724  -5.151  0.00  0.00    +0.000 A 
ATOM      8  C   UNL     1      -0.902  -2.252  -4.154  0.00  0.00    +0.000 A 
ATOM      9  C   UNL     1       2.352  -1.197  -5.523  0.00  0.00    +0.000 A 
ATOM     10  C   UNL     1       1.475  -3.046  -3.696  0.00  0.00    +0.000 A 
ATOM     11  C   UNL     1       3.294  -2.006  -4.889  0.00  0.00    +0.000 A 
ATOM     12  C   UNL     1       2.847  -2.954  -3.956  0.00  0.00    +0.000 A 
ATOM     13  C   UNL     1      -3.165  -1.793  -5.027  0.00  0.00    +0.000 A 
ATOM     14  C   UNL     1      -1.486  -2.820  -3.004  0.00  0.00    +0.000 A 
ATOM     15  C   UNL     1      -3.680  -2.365  -3.886  0.00  0.00    +0.000 A 
ATOM     16  C   UNL     1      -2.864  -2.860  -2.901  0.00  0.00    +0.000 A 
ATOM     17  C   UNL     1       4.668  -1.895  -5.161  0.00  0.00    +0.000 A 
ATOM     18  C   UNL     1       3.783  -3.779  -3.312  0.00  0.00    +0.000 A 
ATOM     19  C   UNL     1       5.587  -2.720  -4.513  0.00  0.00    +0.000 A 
ATOM     20  C   UNL     1      -4.922  -3.150  -2.299  0.00  0.00    +0.000 C 
ATOM     21  C   UNL     1       5.145  -3.662  -3.589  0.00  0.00    +0.000 A 
ENDROOT
BRANCH  17  22
ATOM     22  O   UNL     1       5.130  -0.980  -6.065  0.00  0.00    +0.000 OA
ATOM     23  C   UNL     1       5.329   0.349  -5.592  0.00  0.00    +0.000 C 
ENDBRANCH  17  22
BRANCH  19  24
ATOM     24  O   UNL     1       6.920  -2.616  -4.776  0.00  0.00    +0.000 OA
ATOM     25  C   UNL     1       7.494  -3.609  -5.624  0.00  0.00    +0.000 C 
ENDBRANCH  19  24
TORSDOF 2
ENDMDL
MODEL 2
REMARK VINA RESULT:    -6.050      1.848      7.446
REMARK INTER + INTRA:          -7.010
REMARK INTER:                  -6.646
REMARK INTRA:                  -0.364
REMARK CONF_INDEPENDENT:        0.597
REMARK UNBOUND:                 0.364
REMARK  Name = 2353
REMARK  4 active torsions:
REMARK  status: ('A' for Active; 'I' for Inactive)
REMARK    1  A    between atoms: O_3  and  C_19
REMARK    2  A    between atoms: O_3  and  C_24
REMARK    3  A    between atoms: O_4  and  C_21
REMARK    4  A    between atoms: O_4  and  C_25
REMARK                            x       y       z     vdW  Elec       q    Type
REMARK                         _______ _______ _______ _____ _____    ______ ____
ROOT
ATOM      1  O   UNL     1       7.364  -4.278  -3.630  0.00  0.00    +0.000 OA
ATOM      2  O   UNL     1       5.500  -5.636  -2.934  0.00  0.00    +0.000 OA
ATOM      3  N   UNL     1       2.023  -1.383  -5.555  0.00  0.00    +0.000 N 
ATOM      4  C   UNL     1       3.174  -0.923  -6.375  0.00  0.00    +0.000 C 
ATOM      5  C   UNL     1       4.401  -0.775  -5.496  0.00  0.00    +0.000 C 
ATOM      6  C   UNL     1       2.176  -2.346  -4.601  0.00  0.00    +0.000 A 
ATOM      7  C   UNL     1       4.661  -2.083  -4.804  0.00  0.00    +0.000 A 
ATOM      8  C   UNL     1       3.544  -2.855  -4.379  0.00  0.00    +0.000 A 
ATOM      9  C   UNL     1       0.809  -0.852  -5.823  0.00  0.00    +0.000 A 
ATOM     10  C   UNL     1       1.048  -2.767  -3.875  0.00  0.00    +0.000 A 
ATOM     11  C   UNL     1      -0.335  -1.244  -5.131  0.00  0.00    +0.000 A 
ATOM     12  C   UNL     1      -0.215  -2.222  -4.133  0.00  0.00    +0.000 A 
ATOM     13  C   UNL     1       5.980  -2.502  -4.567  0.00  0.00    +0.000 A 
ATOM     14  C   UNL     1       3.795  -4.086  -3.741  0.00  0.00    +0.000 A 
ATOM     15  C   UNL     1       6.166  -3.709  -3.932  0.00  0.00    +0.000 A 
ATOM     16  C   UNL     1       5.103  -4.481  -3.536  0.00  0.00    +0.000 A 
ATOM     17  C   UNL     1      -1.595  -0.687  -5.407  0.00  0.00    +0.000 A 
ATOM     18  C   UNL     1      -1.358  -2.626  -3.423  0.00  0.00    +0.000 A 
ATOM     19  C   UNL     1      -2.723  -1.097  -4.695  0.00  0.00    +0.000 A 
ATOM     20  C   UNL     1       6.934  -5.501  -2.998  0.00  0.00    +0.000 C 
ATOM     21  C   UNL     1      -2.605  -2.066  -3.704  0.00  0.00    +0.000 A 
ENDROOT
BRANCH  17  22
ATOM     22  O   UNL     1      -1.742   0.267  -6.375  0.00  0.00    +0.000 OA
ATOM     23  C   UNL     1      -1.869   1.616  -5.935  0.00  0.00    +0.000 C 
ENDBRANCH  17  22
BRANCH  19  24
ATOM     24  O   UNL     1      -3.945  -0.558  -4.961  0.00  0.00    +0.000 OA
ATOM     25  C   UNL     1      -4.637  -1.052  -6.107  0.00  0.00    +0.000 C 
ENDBRANCH  19  24
TORSDOF 2
ENDMDL
MODEL 3
REMARK VINA RESULT:    -5.983      1.791      3.012
REMARK INTER + INTRA:          -6.907
REMARK INTER:                  -6.579
REMARK INTRA:                  -0.328
REMARK CONF_INDEPENDENT:        0.597
REMARK UNBOUND:                 0.328
REMARK  Name = 2353
REMARK  4 active torsions:
REMARK  status: ('A' for Active; 'I' for Inactive)
REMARK    1  A    between atoms: O_3  and  C_19
REMARK    2  A    between atoms: O_3  and  C_24
REMARK    3  A    between atoms: O_4  and  C_21
REMARK    4  A    between atoms: O_4  and  C_25
REMARK                            x       y       z     vdW  Elec       q    Type
REMARK                         _______ _______ _______ _____ _____    ______ ____
ROOT
ATOM      1  O   UNL     1      -7.192  -3.137  -1.492  0.00  0.00    +0.000 OA
ATOM      2  O   UNL     1      -5.313  -3.915  -0.203  0.00  0.00    +0.000 OA
ATOM      3  N   UNL     1      -1.880  -1.281  -4.484  0.00  0.00    +0.000 N 
ATOM      4  C   UNL     1      -3.020  -0.420  -4.892  0.00  0.00    +0.000 C 
ATOM      5  C   UNL     1      -4.274  -1.262  -5.029  0.00  0.00    +0.000 C 
ATOM      6  C   UNL     1      -2.033  -2.254  -3.540  0.00  0.00    +0.000 A 
ATOM      7  C   UNL     1      -4.518  -1.980  -3.731  0.00  0.00    +0.000 A 
ATOM      8  C   UNL     1      -3.393  -2.453  -3.000  0.00  0.00    +0.000 A 
ATOM      9  C   UNL     1      -0.674  -1.031  -5.041  0.00  0.00    +0.000 A 
ATOM     10  C   UNL     1      -0.915  -3.020  -3.168  0.00  0.00    +0.000 A 
ATOM     11  C   UNL     1       0.461  -1.763  -4.697  0.00  0.00    +0.000 A 
ATOM     12  C   UNL     1       0.340  -2.782  -3.740  0.00  0.00    +0.000 A 
ATOM     13  C   UNL     1      -5.831  -2.192  -3.283  0.00  0.00    +0.000 A 
ATOM     14  C   UNL     1      -3.628  -3.115  -1.779  0.00  0.00    +0.000 A 
ATOM     15  C   UNL     1      -6.002  -2.852  -2.087  0.00  0.00    +0.000 A 
ATOM     16  C   UNL     1      -4.930  -3.296  -1.354  0.00  0.00    +0.000 A 
ATOM     17  C   UNL     1       1.713  -1.506  -5.281  0.00  0.00    +0.000 A 
ATOM     18  C   UNL     1       1.473  -3.532  -3.385  0.00  0.00    +0.000 A 
ATOM     19  C   UNL     1       2.831  -2.257  -4.919  0.00  0.00    +0.000 A 
ATOM     20  C   UNL     1      -6.747  -3.810  -0.298  0.00  0.00    +0.000 C 
ATOM     21  C   UNL     1       2.712  -3.270  -3.972  0.00  0.00    +0.000 A 
ENDROOT
BRANCH  17  22
ATOM     22  O   UNL     1       1.860  -0.519  -6.215  0.00  0.00    +0.000 OA
ATOM     23  C   UNL     1       1.277  -0.750  -7.494  0.00  0.00    +0.000 C 
ENDBRANCH  17  22
BRANCH  19  24
ATOM     24  O   UNL     1       4.046  -2.011  -5.484  0.00  0.00    +0.000 OA
ATOM     25  C   UNL     1       4.769  -0.879  -5.001  0.00  0.00    +0.000 C 
ENDBRANCH  19  24
TORSDOF 2
ENDMDL
MODEL 4
REMARK VINA RESULT:    -5.784      1.537      7.670
REMARK INTER + INTRA:          -6.741
REMARK INTER:                  -6.380
REMARK INTRA:                  -0.361
REMARK CONF_INDEPENDENT:        0.597
REMARK UNBOUND:                 0.361
REMARK  Name = 2353
REMARK  4 active torsions:
REMARK  status: ('A' for Active; 'I' for Inactive)
REMARK    1  A    between atoms: O_3  and  C_19
REMARK    2  A    between atoms: O_3  and  C_24
REMARK    3  A    between atoms: O_4  and  C_21
REMARK    4  A    between atoms: O_4  and  C_25
REMARK                            x       y       z     vdW  Elec       q    Type
REMARK                         _______ _______ _______ _____ _____    ______ ____
ROOT
ATOM      1  O   UNL     1       6.066  -3.158  -4.246  0.00  0.00    +0.000 OA
ATOM      2  O   UNL     1       4.558  -4.507  -2.941  0.00  0.00    +0.000 OA
ATOM      3  N   UNL     1       0.118  -1.571  -5.893  0.00  0.00    +0.000 N 
ATOM      4  C   UNL     1       1.061  -1.203  -6.980  0.00  0.00    +0.000 C 
ATOM      5  C   UNL     1       2.351  -0.674  -6.382  0.00  0.00    +0.000 C 
ATOM      6  C   UNL     1       0.550  -2.221  -4.774  0.00  0.00    +0.000 A 
ATOM      7  C   UNL     1       2.910  -1.709  -5.447  0.00  0.00    +0.000 A 
ATOM      8  C   UNL     1       2.000  -2.476  -4.668  0.00  0.00    +0.000 A 
ATOM      9  C   UNL     1      -1.192  -1.287  -6.075  0.00  0.00    +0.000 A 
ATOM     10  C   UNL     1      -0.389  -2.574  -3.789  0.00  0.00    +0.000 A 
ATOM     11  C   UNL     1      -2.156  -1.624  -5.127  0.00  0.00    +0.000 A 
ATOM     12  C   UNL     1      -1.748  -2.281  -3.956  0.00  0.00    +0.000 A 
ATOM     13  C   UNL     1       4.299  -1.881  -5.340  0.00  0.00    +0.000 A 
ATOM     14  C   UNL     1       2.531  -3.453  -3.802  0.00  0.00    +0.000 A 
ATOM     15  C   UNL     1       4.762  -2.844  -4.473  0.00  0.00    +0.000 A 
ATOM     16  C   UNL     1       3.902  -3.611  -3.729  0.00  0.00    +0.000 A 
ATOM     17  C   UNL     1      -3.516  -1.323  -5.314  0.00  0.00    +0.000 A 
ATOM     18  C   UNL     1      -2.707  -2.623  -2.988  0.00  0.00    +0.000 A 
ATOM     19  C   UNL     1      -4.458  -1.670  -4.346  0.00  0.00    +0.000 A 
ATOM     20  C   UNL     1       5.929  -4.214  -3.275  0.00  0.00    +0.000 C 
ATOM     21  C   UNL     1      -4.055  -2.319  -3.184  0.00  0.00    +0.000 A 
ENDROOT
BRANCH  17  22
ATOM     22  O   UNL     1      -3.941  -0.685  -6.445  0.00  0.00    +0.000 OA
ATOM     23  C   UNL     1      -4.483  -1.500  -7.480  0.00  0.00    +0.000 C 
ENDBRANCH  17  22
BRANCH  19  24
ATOM     24  O   UNL     1      -5.777  -1.379  -4.525  0.00  0.00    +0.000 OA
ATOM     25  C   UNL     1      -6.691  -2.474  -4.507  0.00  0.00    +0.000 C 
ENDBRANCH  19  24
TORSDOF 2
ENDMDL
MODEL 5
REMARK VINA RESULT:    -5.764      2.257      3.630
REMARK INTER + INTRA:          -6.705
REMARK INTER:                  -6.360
REMARK INTRA:                  -0.345
REMARK CONF_INDEPENDENT:        0.597
REMARK UNBOUND:                 0.345
REMARK  Name = 2353
REMARK  4 active torsions:
REMARK  status: ('A' for Active; 'I' for Inactive)
REMARK    1  A    between atoms: O_3  and  C_19
REMARK    2  A    between atoms: O_3  and  C_24
REMARK    3  A    between atoms: O_4  and  C_21
REMARK    4  A    between atoms: O_4  and  C_25
REMARK                            x       y       z     vdW  Elec       q    Type
REMARK                         _______ _______ _______ _____ _____    ______ ____
ROOT
ATOM      1  O   UNL     1      -3.285   0.830  -4.508  0.00  0.00    +0.000 OA
ATOM      2  O   UNL     1      -1.588   1.297  -6.153  0.00  0.00    +0.000 OA
ATOM      3  N   UNL     1       1.554  -3.194  -3.506  0.00  0.00    +0.000 N 
ATOM      4  C   UNL     1       0.306  -3.746  -2.922  0.00  0.00    +0.000 C 
ATOM      5  C   UNL     1      -0.507  -2.627  -2.300  0.00  0.00    +0.000 C 
ATOM      6  C   UNL     1       1.549  -2.023  -4.205  0.00  0.00    +0.000 A 
ATOM      7  C   UNL     1      -0.764  -1.578  -3.346  0.00  0.00    +0.000 A 
ATOM      8  C   UNL     1       0.263  -1.302  -4.290  0.00  0.00    +0.000 A 
ATOM      9  C   UNL     1       2.687  -3.920  -3.368  0.00  0.00    +0.000 A 
ATOM     10  C   UNL     1       2.753  -1.560  -4.765  0.00  0.00    +0.000 A 
ATOM     11  C   UNL     1       3.901  -3.501  -3.911  0.00  0.00    +0.000 A 
ATOM     12  C   UNL     1       3.937  -2.293  -4.624  0.00  0.00    +0.000 A 
ATOM     13  C   UNL     1      -1.982  -0.881  -3.356  0.00  0.00    +0.000 A 
ATOM     14  C   UNL     1       0.011  -0.326  -5.275  0.00  0.00    +0.000 A 
ATOM     15  C   UNL     1      -2.171   0.067  -4.336  0.00  0.00    +0.000 A 
ATOM     16  C   UNL     1      -1.203   0.333  -5.271  0.00  0.00    +0.000 A 
ATOM     17  C   UNL     1       5.078  -4.253  -3.761  0.00  0.00    +0.000 A 
ATOM     18  C   UNL     1       5.153  -1.855  -5.174  0.00  0.00    +0.000 A 
ATOM     19  C   UNL     1       6.278  -3.807  -4.313  0.00  0.00    +0.000 A 
ATOM     20  C   UNL     1      -2.908   1.606  -5.663  0.00  0.00    +0.000 C 
ATOM     21  C   UNL     1       6.317  -2.609  -5.019  0.00  0.00    +0.000 A 
ENDROOT
BRANCH  17  22
ATOM     22  O   UNL     1       5.071  -5.434  -3.072  0.00  0.00    +0.000 OA
ATOM     23  C   UNL     1       5.681  -5.432  -1.785  0.00  0.00    +0.000 C 
ENDBRANCH  17  22
BRANCH  19  24
ATOM     24  O   UNL     1       7.421  -4.534  -4.169  0.00  0.00    +0.000 OA
ATOM     25  C   UNL     1       7.499  -5.768  -4.882  0.00  0.00    +0.000 C 
ENDBRANCH  19  24
TORSDOF 2
ENDMDL
MODEL 6
REMARK VINA RESULT:    -5.657      2.202      2.589
REMARK INTER + INTRA:          -6.617
REMARK INTER:                  -6.253
REMARK INTRA:                  -0.363
REMARK CONF_INDEPENDENT:        0.597
REMARK UNBOUND:                 0.363
REMARK  Name = 2353
REMARK  4 active torsions:
REMARK  status: ('A' for Active; 'I' for Inactive)
REMARK    1  A    between atoms: O_3  and  C_19
REMARK    2  A    between atoms: O_3  and  C_24
REMARK    3  A    between atoms: O_4  and  C_21
REMARK    4  A    between atoms: O_4  and  C_25
REMARK                            x       y       z     vdW  Elec       q    Type
REMARK                         _______ _______ _______ _____ _____    ______ ____
ROOT
ATOM      1  O   UNL     1      -3.496   1.041  -5.356  0.00  0.00    +0.000 OA
ATOM      2  O   UNL     1      -2.876   0.416  -3.115  0.00  0.00    +0.000 OA
ATOM      3  N   UNL     1       2.404  -1.358  -5.569  0.00  0.00    +0.000 N 
ATOM      4  C   UNL     1       2.166  -0.489  -6.750  0.00  0.00    +0.000 C 
ATOM      5  C   UNL     1       0.746  -0.679  -7.248  0.00  0.00    +0.000 C 
ATOM      6  C   UNL     1       1.460  -1.498  -4.594  0.00  0.00    +0.000 A 
ATOM      7  C   UNL     1      -0.203  -0.403  -6.116  0.00  0.00    +0.000 A 
ATOM      8  C   UNL     1       0.174  -0.804  -4.805  0.00  0.00    +0.000 A 
ATOM      9  C   UNL     1       3.609  -1.963  -5.466  0.00  0.00    +0.000 A 
ATOM     10  C   UNL     1       1.748  -2.308  -3.481  0.00  0.00    +0.000 A 
ATOM     11  C   UNL     1       3.938  -2.770  -4.378  0.00  0.00    +0.000 A 
ATOM     12  C   UNL     1       2.986  -2.949  -3.363  0.00  0.00    +0.000 A 
ATOM     13  C   UNL     1      -1.439   0.213  -6.372  0.00  0.00    +0.000 A 
ATOM     14  C   UNL     1      -0.716  -0.531  -3.748  0.00  0.00    +0.000 A 
ATOM     15  C   UNL     1      -2.272   0.448  -5.303  0.00  0.00    +0.000 A 
ATOM     16  C   UNL     1      -1.918   0.091  -4.026  0.00  0.00    +0.000 A 
ATOM     17  C   UNL     1       5.188  -3.402  -4.276  0.00  0.00    +0.000 A 
ATOM     18  C   UNL     1       3.300  -3.762  -2.261  0.00  0.00    +0.000 A 
ATOM     19  C   UNL     1       5.487  -4.206  -3.176  0.00  0.00    +0.000 A 
ATOM     20  C   UNL     1      -3.873   1.018  -3.964  0.00  0.00    +0.000 C 
ATOM     21  C   UNL     1       4.544  -4.387  -2.169  0.00  0.00    +0.000 A 
ENDROOT
BRANCH  17  22
ATOM     22  O   UNL     1       6.134  -3.244  -5.250  0.00  0.00    +0.000 OA
ATOM     23  C   UNL     1       7.201  -2.343  -4.972  0.00  0.00    +0.000 C 
ENDBRANCH  17  22
BRANCH  19  24
ATOM     24  O   UNL     1       6.699  -4.821  -3.075  0.00  0.00    +0.000 OA
ATOM     25  C   UNL     1       6.820  -6.116  -3.661  0.00  0.00    +0.000 C 
ENDBRANCH  19  24
TORSDOF 2
ENDMDL
MODEL 7
REMARK VINA RESULT:    -5.558      2.855      8.461
REMARK INTER + INTRA:          -6.460
REMARK INTER:                  -6.154
REMARK INTRA:                  -0.306
REMARK CONF_INDEPENDENT:        0.597
REMARK UNBOUND:                 0.306
REMARK  Name = 2353
REMARK  4 active torsions:
REMARK  status: ('A' for Active; 'I' for Inactive)
REMARK    1  A    between atoms: O_3  and  C_19
REMARK    2  A    between atoms: O_3  and  C_24
REMARK    3  A    between atoms: O_4  and  C_21
REMARK    4  A    between atoms: O_4  and  C_25
REMARK                            x       y       z     vdW  Elec       q    Type
REMARK                         _______ _______ _______ _____ _____    ______ ____
ROOT
ATOM      1  O   UNL     1       1.650  -0.379  -7.050  0.00  0.00    +0.000 OA
ATOM      2  O   UNL     1       2.228  -1.273  -4.889  0.00  0.00    +0.000 OA
ATOM      3  N   UNL     1      -3.734  -2.312  -4.241  0.00  0.00    +0.000 N 
ATOM      4  C   UNL     1      -3.921  -2.258  -5.713  0.00  0.00    +0.000 C 
ATOM      5  C   UNL     1      -3.197  -1.050  -6.277  0.00  0.00    +0.000 C 
ATOM      6  C   UNL     1      -2.524  -2.042  -3.672  0.00  0.00    +0.000 A 
ATOM      7  C   UNL     1      -1.752  -1.121  -5.872  0.00  0.00    +0.000 A 
ATOM      8  C   UNL     1      -1.437  -1.629  -4.581  0.00  0.00    +0.000 A 
ATOM      9  C   UNL     1      -4.791  -2.690  -3.486  0.00  0.00    +0.000 A 
ATOM     10  C   UNL     1      -2.393  -2.137  -2.275  0.00  0.00    +0.000 A 
ATOM     11  C   UNL     1      -4.704  -2.803  -2.100  0.00  0.00    +0.000 A 
ATOM     12  C   UNL     1      -3.479  -2.519  -1.478  0.00  0.00    +0.000 A 
ATOM     13  C   UNL     1      -0.754  -0.668  -6.750  0.00  0.00    +0.000 A 
ATOM     14  C   UNL     1      -0.079  -1.703  -4.213  0.00  0.00    +0.000 A 
ATOM     15  C   UNL     1       0.555  -0.757  -6.335  0.00  0.00    +0.000 A 
ATOM     16  C   UNL     1       0.883  -1.265  -5.103  0.00  0.00    +0.000 A 
ATOM     17  C   UNL     1      -5.805  -3.190  -1.318  0.00  0.00    +0.000 A 
ATOM     18  C   UNL     1      -3.375  -2.623  -0.082  0.00  0.00    +0.000 A 
ATOM     19  C   UNL     1      -5.688  -3.291   0.068  0.00  0.00    +0.000 A 
ATOM     20  C   UNL     1       2.707  -0.710  -6.127  0.00  0.00    +0.000 C 
ATOM     21  C   UNL     1      -4.474  -3.008   0.687  0.00  0.00    +0.000 A 
ENDROOT
BRANCH  17  22
ATOM     22  O   UNL     1      -7.010  -3.473  -1.897  0.00  0.00    +0.000 OA
ATOM     23  C   UNL     1      -7.099  -4.686  -2.640  0.00  0.00    +0.000 C 
ENDBRANCH  17  22
BRANCH  19  24
ATOM     24  O   UNL     1      -6.754  -3.666   0.830  0.00  0.00    +0.000 OA
ATOM     25  C   UNL     1      -6.517  -3.871   2.222  0.00  0.00    +0.000 C 
ENDBRANCH  19  24
TORSDOF 2
ENDMDL
MODEL 8
REMARK VINA RESULT:    -4.899      3.445      6.923
REMARK INTER + INTRA:          -5.827
REMARK INTER:                  -5.495
REMARK INTRA:                  -0.332
REMARK CONF_INDEPENDENT:        0.597
REMARK UNBOUND:                 0.332
REMARK  Name = 2353
REMARK  4 active torsions:
REMARK  status: ('A' for Active; 'I' for Inactive)
REMARK    1  A    between atoms: O_3  and  C_19
REMARK    2  A    between atoms: O_3  and  C_24
REMARK    3  A    between atoms: O_4  and  C_21
REMARK    4  A    between atoms: O_4  and  C_25
REMARK                            x       y       z     vdW  Elec       q    Type
REMARK                         _______ _______ _______ _____ _____    ______ ____
ROOT
ATOM      1  O   UNL     1       5.270  -4.880   1.406  0.00  0.00    +0.000 OA
ATOM      2  O   UNL     1       2.997  -4.329   1.978  0.00  0.00    +0.000 OA
ATOM      3  N   UNL     1       2.474  -2.502  -3.804  0.00  0.00    +0.000 N 
ATOM      4  C   UNL     1       3.644  -3.332  -4.190  0.00  0.00    +0.000 C 
ATOM      5  C   UNL     1       4.772  -3.120  -3.198  0.00  0.00    +0.000 C 
ATOM      6  C   UNL     1       2.088  -2.388  -2.501  0.00  0.00    +0.000 A 
ATOM      7  C   UNL     1       4.265  -3.428  -1.817  0.00  0.00    +0.000 A 
ATOM      8  C   UNL     1       2.926  -3.069  -1.494  0.00  0.00    +0.000 A 
ATOM      9  C   UNL     1       1.773  -1.906  -4.795  0.00  0.00    +0.000 A 
ATOM     10  C   UNL     1       0.955  -1.615  -2.193  0.00  0.00    +0.000 A 
ATOM     11  C   UNL     1       0.641  -1.135  -4.535  0.00  0.00    +0.000 A 
ATOM     12  C   UNL     1       0.222  -0.984  -3.204  0.00  0.00    +0.000 A 
ATOM     13  C   UNL     1       5.115  -4.030  -0.876  0.00  0.00    +0.000 A 
ATOM     14  C   UNL     1       2.454  -3.372  -0.202  0.00  0.00    +0.000 A 
ATOM     15  C   UNL     1       4.603  -4.295   0.374  0.00  0.00    +0.000 A 
ATOM     16  C   UNL     1       3.308  -3.979   0.700  0.00  0.00    +0.000 A 
ATOM     17  C   UNL     1      -0.083  -0.512  -5.565  0.00  0.00    +0.000 A 
ATOM     18  C   UNL     1      -0.914  -0.207  -2.925  0.00  0.00    +0.000 A 
ATOM     19  C   UNL     1      -1.210   0.256  -5.274  0.00  0.00    +0.000 A 
ATOM     20  C   UNL     1       4.245  -4.899   2.419  0.00  0.00    +0.000 C 
ATOM     21  C   UNL     1      -1.626   0.409  -3.955  0.00  0.00    +0.000 A 
ENDROOT
BRANCH  17  22
ATOM     22  O   UNL     1       0.302  -0.644  -6.870  0.00  0.00    +0.000 OA
ATOM     23  C   UNL     1       0.044  -1.897  -7.495  0.00  0.00    +0.000 C 
ENDBRANCH  17  22
BRANCH  19  24
ATOM     24  O   UNL     1      -1.914   0.862  -6.271  0.00  0.00    +0.000 OA
ATOM     25  C   UNL     1      -1.870   2.287  -6.322  0.00  0.00    +0.000 C 
ENDBRANCH  19  24
TORSDOF 2
ENDMDL
MODEL 9
REMARK VINA RESULT:    -4.616      4.304      6.618
REMARK INTER + INTRA:          -5.574
REMARK INTER:                  -5.212
REMARK INTRA:                  -0.361
REMARK CONF_INDEPENDENT:        0.597
REMARK UNBOUND:                 0.361
REMARK  Name = 2353
REMARK  4 active torsions:
REMARK  status: ('A' for Active; 'I' for Inactive)
REMARK    1  A    between atoms: O_3  and  C_19
REMARK    2  A    between atoms: O_3  and  C_24
REMARK    3  A    between atoms: O_4  and  C_21
REMARK    4  A    between atoms: O_4  and  C_25
REMARK                            x       y       z     vdW  Elec       q    Type
REMARK                         _______ _______ _______ _____ _____    ______ ____
ROOT
ATOM      1  O   UNL     1      -6.411  -4.368   3.040  0.00  0.00    +0.000 OA
ATOM      2  O   UNL     1      -5.387  -2.189   3.012  0.00  0.00    +0.000 OA
ATOM      3  N   UNL     1      -4.308  -3.285  -2.877  0.00  0.00    +0.000 N 
ATOM      4  C   UNL     1      -5.380  -4.313  -2.900  0.00  0.00    +0.000 C 
ATOM      5  C   UNL     1      -5.240  -5.225  -1.696  0.00  0.00    +0.000 C 
ATOM      6  C   UNL     1      -3.949  -2.664  -1.716  0.00  0.00    +0.000 A 
ATOM      7  C   UNL     1      -5.259  -4.386  -0.449  0.00  0.00    +0.000 A 
ATOM      8  C   UNL     1      -4.625  -3.113  -0.483  0.00  0.00    +0.000 A 
ATOM      9  C   UNL     1      -3.737  -2.946  -4.055  0.00  0.00    +0.000 A 
ATOM     10  C   UNL     1      -2.949  -1.676  -1.755  0.00  0.00    +0.000 A 
ATOM     11  C   UNL     1      -2.747  -1.969  -4.140  0.00  0.00    +0.000 A 
ATOM     12  C   UNL     1      -2.342  -1.319  -2.964  0.00  0.00    +0.000 A 
ATOM     13  C   UNL     1      -5.868  -4.876   0.717  0.00  0.00    +0.000 A 
ATOM     14  C   UNL     1      -4.657  -2.327   0.686  0.00  0.00    +0.000 A 
ATOM     15  C   UNL     1      -5.863  -4.068   1.831  0.00  0.00    +0.000 A 
ATOM     16  C   UNL     1      -5.278  -2.827   1.814  0.00  0.00    +0.000 A 
ATOM     17  C   UNL     1      -2.152  -1.622  -5.364  0.00  0.00    +0.000 A 
ATOM     18  C   UNL     1      -1.342  -0.334  -3.032  0.00  0.00    +0.000 A 
ATOM     19  C   UNL     1      -1.161  -0.642  -5.418  0.00  0.00    +0.000 A 
ATOM     20  C   UNL     1      -6.107  -3.171   3.784  0.00  0.00    +0.000 C 
ATOM     21  C   UNL     1      -0.756   0.002  -4.252  0.00  0.00    +0.000 A 
ENDROOT
BRANCH  17  22
ATOM     22  O   UNL     1      -2.528  -2.238  -6.525  0.00  0.00    +0.000 OA
ATOM     23  C   UNL     1      -3.722  -1.771  -7.144  0.00  0.00    +0.000 C 
ENDBRANCH  17  22
BRANCH  19  24
ATOM     24  O   UNL     1      -0.581  -0.304  -6.603  0.00  0.00    +0.000 OA
ATOM     25  C   UNL     1       0.482  -1.136  -7.066  0.00  0.00    +0.000 C 
ENDBRANCH  19  24
TORSDOF 2
ENDMDL
