MODEL 1
REMARK VINA RESULT:    -7.988      0.000      0.000
REMARK INTER + INTRA:          -9.295
REMARK INTER:                  -8.883
REMARK INTRA:                  -0.411
REMARK CONF_INDEPENDENT:        0.895
REMARK UNBOUND:                 0.411
REMARK  Name = 
REMARK  9 active torsions:
REMARK  status: ('A' for Active; 'I' for Inactive)
REMARK    1  A    between atoms: C_1  and  C_2
REMARK    2  A    between atoms: C_3  and  O_4
REMARK    3  A    between atoms: C_13  and  C_14
REMARK    4  A    between atoms: C_17  and  C_18
REMARK    5  A    between atoms: C_21  and  C_22
REMARK    6  A    between atoms: C_21  and  C_23
REMARK    7  A    between atoms: C_23  and  O_25
REMARK    8  A    between atoms: C_28  and  C_29
REMARK    9  A    between atoms: C_32  and  C_33
REMARK                            x       y       z     vdW  Elec       q    Type
REMARK                         _______ _______ _______ _____ _____    ______ ____
ROOT
ATOM      1  C   UNL     1      -3.934   7.027  -3.971  0.00  0.00    +0.000 C 
ATOM      2  C   UNL     1      -2.652   6.646  -3.429  0.00  0.00    +0.000 C 
ATOM      3  C   UNL     1      -1.562   6.701  -4.195  0.00  0.00    +0.000 C 
ATOM      4  C   UNL     1      -0.275   6.483  -3.520  0.00  0.00    +0.000 C 
ATOM      5  O   UNL     1       0.757   6.994  -4.019  0.00  0.00    +0.000 OA
ATOM      6  C   UNL     1      -0.287   5.783  -2.237  0.00  0.00    +0.000 C 
ATOM      7  C   UNL     1      -1.382   5.670  -1.483  0.00  0.00    +0.000 C 
ATOM      8  C   UNL     1      -2.579   6.355  -1.991  0.00  0.00    +0.000 C 
ATOM      9  C   UNL     1      -3.411   7.015  -1.182  0.00  0.00    +0.000 C 
ATOM     10  C   UNL     1      -3.017   7.164   0.224  0.00  0.00    +0.000 C 
ATOM     11  C   UNL     1      -1.972   6.517   0.746  0.00  0.00    +0.000 C 
ATOM     12  C   UNL     1      -1.274   5.427  -0.011  0.00  0.00    +0.000 C 
ATOM     13  C   UNL     1       0.204   5.491   0.353  0.00  0.00    +0.000 C 
ATOM     14  C   UNL     1      -1.772   4.063   0.337  0.00  0.00    +0.000 C 
ATOM     15  C   UNL     1      -2.091   3.844   1.776  0.00  0.00    +0.000 C 
ATOM     16  C   UNL     1      -3.019   4.978   2.181  0.00  0.00    +0.000 C 
ATOM     17  C   UNL     1      -4.246   5.022   1.379  0.00  0.00    +0.000 C 
ATOM     18  C   UNL     1      -3.433   4.677   3.744  0.00  0.00    +0.000 C 
ATOM     19  C   UNL     1      -4.428   3.434   3.291  0.00  0.00    +0.000 C 
ATOM     20  C   UNL     1      -5.265   3.197   4.513  0.00  0.00    +0.000 C 
ATOM     21  C   UNL     1      -4.474   2.887   5.744  0.00  0.00    +0.000 C 
ATOM     22  C   UNL     1      -6.232   4.362   4.701  0.00  0.00    +0.000 C 
ATOM     23  C   UNL     1      -5.919   5.283   3.521  0.00  0.00    +0.000 C 
ATOM     24  C   UNL     1      -4.602   5.833   3.789  0.00  0.00    +0.000 C 
ATOM     25  C   UNL     1      -4.556   6.144   5.290  0.00  0.00    +0.000 C 
ATOM     26  C   UNL     1      -4.168   7.046   3.115  0.00  0.00    +0.000 C 
ATOM     27  C   UNL     1      -2.715   7.309   2.995  0.00  0.00    +0.000 C 
ATOM     28  C   UNL     1      -2.145   6.185   2.196  0.00  0.00    +0.000 C 
ATOM     29  C   UNL     1      -0.828   5.808   2.845  0.00  0.00    +0.000 C 
ENDROOT
BRANCH   3  30
ATOM     30  O   UNL     1      -1.635   7.087  -5.535  0.00  0.00    +0.000 OA
ATOM     31  H   UNL     1      -2.333   7.640  -5.826  0.00  0.00    +0.000 HD
ENDBRANCH   3  30
BRANCH  20  32
ATOM     32  C   UNL     1      -6.152   2.031   4.220  0.00  0.00    +0.000 C 
ATOM     33  O   UNL     1      -7.392   2.306   4.283  0.00  0.00    +0.000 OA
BRANCH  32  34
ATOM     34  O   UNL     1      -5.810   1.286   3.086  0.00  0.00    +0.000 OA
ATOM     35  H   UNL     1      -5.932   1.650   2.232  0.00  0.00    +0.000 HD
ENDBRANCH  32  34
ENDBRANCH  20  32
TORSDOF 3
ENDMDL
MODEL 2
REMARK VINA RESULT:    -6.009      1.833      2.338
REMARK INTER + INTRA:          -7.426
REMARK INTER:                  -6.904
REMARK INTRA:                  -0.523
REMARK CONF_INDEPENDENT:        0.895
REMARK UNBOUND:                 0.523
REMARK  Name = 
REMARK  9 active torsions:
REMARK  status: ('A' for Active; 'I' for Inactive)
REMARK    1  A    between atoms: C_1  and  C_2
REMARK    2  A    between atoms: C_3  and  O_4
REMARK    3  A    between atoms: C_13  and  C_14
REMARK    4  A    between atoms: C_17  and  C_18
REMARK    5  A    between atoms: C_21  and  C_22
REMARK    6  A    between atoms: C_21  and  C_23
REMARK    7  A    between atoms: C_23  and  O_25
REMARK    8  A    between atoms: C_28  and  C_29
REMARK    9  A    between atoms: C_32  and  C_33
REMARK                            x       y       z     vdW  Elec       q    Type
REMARK                         _______ _______ _______ _____ _____    ______ ____
ROOT
ATOM      1  C   UNL     1      -7.126   5.857  -2.497  0.00  0.00    +0.000 C 
ATOM      2  C   UNL     1      -5.686   5.839  -2.597  0.00  0.00    +0.000 C 
ATOM      3  C   UNL     1      -5.099   5.966  -3.787  0.00  0.00    +0.000 C 
ATOM      4  C   UNL     1      -3.639   6.130  -3.782  0.00  0.00    +0.000 C 
ATOM      5  O   UNL     1      -3.101   6.734  -4.743  0.00  0.00    +0.000 OA
ATOM      6  C   UNL     1      -2.905   5.687  -2.598  0.00  0.00    +0.000 C 
ATOM      7  C   UNL     1      -3.488   5.501  -1.412  0.00  0.00    +0.000 C 
ATOM      8  C   UNL     1      -4.918   5.835  -1.345  0.00  0.00    +0.000 C 
ATOM      9  C   UNL     1      -5.448   6.455  -0.289  0.00  0.00    +0.000 C 
ATOM     10  C   UNL     1      -4.529   6.933   0.752  0.00  0.00    +0.000 C 
ATOM     11  C   UNL     1      -3.235   6.608   0.766  0.00  0.00    +0.000 C 
ATOM     12  C   UNL     1      -2.686   5.557  -0.151  0.00  0.00    +0.000 C 
ATOM     13  C   UNL     1      -1.270   5.973  -0.530  0.00  0.00    +0.000 C 
ATOM     14  C   UNL     1      -2.610   4.208   0.486  0.00  0.00    +0.000 C 
ATOM     15  C   UNL     1      -2.196   4.196   1.918  0.00  0.00    +0.000 C 
ATOM     16  C   UNL     1      -3.109   5.181   2.630  0.00  0.00    +0.000 C 
ATOM     17  C   UNL     1      -4.529   4.838   2.498  0.00  0.00    +0.000 C 
ATOM     18  C   UNL     1      -2.701   5.095   4.221  0.00  0.00    +0.000 C 
ATOM     19  C   UNL     1      -3.436   3.620   4.379  0.00  0.00    +0.000 C 
ATOM     20  C   UNL     1      -3.559   3.452   5.863  0.00  0.00    +0.000 C 
ATOM     21  C   UNL     1      -2.258   3.532   6.596  0.00  0.00    +0.000 C 
ATOM     22  C   UNL     1      -4.608   4.419   6.401  0.00  0.00    +0.000 C 
ATOM     23  C   UNL     1      -5.095   5.153   5.150  0.00  0.00    +0.000 C 
ATOM     24  C   UNL     1      -3.986   5.989   4.728  0.00  0.00    +0.000 C 
ATOM     25  C   UNL     1      -3.366   6.571   6.004  0.00  0.00    +0.000 C 
ATOM     26  C   UNL     1      -4.221   7.120   3.845  0.00  0.00    +0.000 C 
ATOM     27  C   UNL     1      -3.090   7.636   3.038  0.00  0.00    +0.000 C 
ATOM     28  C   UNL     1      -2.661   6.519   2.146  0.00  0.00    +0.000 C 
ATOM     29  C   UNL     1      -1.146   6.531   2.125  0.00  0.00    +0.000 C 
ENDROOT
BRANCH   3  30
ATOM     30  O   UNL     1      -5.850   6.079  -4.959  0.00  0.00    +0.000 OA
ATOM     31  H   UNL     1      -5.667   6.767  -5.568  0.00  0.00    +0.000 HD
ENDBRANCH   3  30
BRANCH  20  32
ATOM     32  C   UNL     1      -4.151   2.101   6.106  0.00  0.00    +0.000 C 
ATOM     33  O   UNL     1      -4.194   1.777   7.334  0.00  0.00    +0.000 OA
BRANCH  32  34
ATOM     34  O   UNL     1      -5.345   1.837   5.424  0.00  0.00    +0.000 OA
ATOM     35  H   UNL     1      -5.787   2.527   4.971  0.00  0.00    +0.000 HD
ENDBRANCH  32  34
ENDBRANCH  20  32
TORSDOF 3
ENDMDL
MODEL 3
REMARK VINA RESULT:    -5.680      2.366      3.060
REMARK INTER + INTRA:          -7.074
REMARK INTER:                  -6.575
REMARK INTRA:                  -0.499
REMARK CONF_INDEPENDENT:        0.895
REMARK UNBOUND:                 0.499
REMARK  Name = 
REMARK  9 active torsions:
REMARK  status: ('A' for Active; 'I' for Inactive)
REMARK    1  A    between atoms: C_1  and  C_2
REMARK    2  A    between atoms: C_3  and  O_4
REMARK    3  A    between atoms: C_13  and  C_14
REMARK    4  A    between atoms: C_17  and  C_18
REMARK    5  A    between atoms: C_21  and  C_22
REMARK    6  A    between atoms: C_21  and  C_23
REMARK    7  A    between atoms: C_23  and  O_25
REMARK    8  A    between atoms: C_28  and  C_29
REMARK    9  A    between atoms: C_32  and  C_33
REMARK                            x       y       z     vdW  Elec       q    Type
REMARK                         _______ _______ _______ _____ _____    ______ ____
ROOT
ATOM      1  C   UNL     1      -4.984   4.632  -1.860  0.00  0.00    +0.000 C 
ATOM      2  C   UNL     1      -3.674   5.189  -1.623  0.00  0.00    +0.000 C 
ATOM      3  C   UNL     1      -3.024   5.807  -2.610  0.00  0.00    +0.000 C 
ATOM      4  C   UNL     1      -1.788   6.509  -2.240  0.00  0.00    +0.000 C 
ATOM      5  O   UNL     1      -1.417   7.480  -2.944  0.00  0.00    +0.000 OA
ATOM      6  C   UNL     1      -1.121   6.113  -1.001  0.00  0.00    +0.000 C 
ATOM      7  C   UNL     1      -1.741   5.445  -0.026  0.00  0.00    +0.000 C 
ATOM      8  C   UNL     1      -3.171   5.182  -0.243  0.00  0.00    +0.000 C 
ATOM      9  C   UNL     1      -4.064   5.286   0.743  0.00  0.00    +0.000 C 
ATOM     10  C   UNL     1      -3.598   5.817   2.031  0.00  0.00    +0.000 C 
ATOM     11  C   UNL     1      -2.305   6.017   2.295  0.00  0.00    +0.000 C 
ATOM     12  C   UNL     1      -1.235   5.503   1.380  0.00  0.00    +0.000 C 
ATOM     13  C   UNL     1      -0.087   6.505   1.409  0.00  0.00    +0.000 C 
ATOM     14  C   UNL     1      -0.694   4.176   1.801  0.00  0.00    +0.000 C 
ATOM     15  C   UNL     1      -0.532   3.986   3.271  0.00  0.00    +0.000 C 
ATOM     16  C   UNL     1      -1.870   4.350   3.894  0.00  0.00    +0.000 C 
ATOM     17  C   UNL     1      -2.977   3.533   3.384  0.00  0.00    +0.000 C 
ATOM     18  C   UNL     1      -1.706   4.053   5.503  0.00  0.00    +0.000 C 
ATOM     19  C   UNL     1      -1.766   2.417   5.256  0.00  0.00    +0.000 C 
ATOM     20  C   UNL     1      -2.027   1.869   6.627  0.00  0.00    +0.000 C 
ATOM     21  C   UNL     1      -1.006   2.264   7.646  0.00  0.00    +0.000 C 
ATOM     22  C   UNL     1      -3.453   2.207   7.049  0.00  0.00    +0.000 C 
ATOM     23  C   UNL     1      -4.011   2.973   5.847  0.00  0.00    +0.000 C 
ATOM     24  C   UNL     1      -3.308   4.243   5.829  0.00  0.00    +0.000 C 
ATOM     25  C   UNL     1      -3.189   4.697   7.288  0.00  0.00    +0.000 C 
ATOM     26  C   UNL     1      -3.862   5.372   5.101  0.00  0.00    +0.000 C 
ATOM     27  C   UNL     1      -2.948   6.455   4.668  0.00  0.00    +0.000 C 
ATOM     28  C   UNL     1      -1.961   5.830   3.740  0.00  0.00    +0.000 C 
ATOM     29  C   UNL     1      -0.607   6.424   4.074  0.00  0.00    +0.000 C 
ENDROOT
BRANCH   3  30
ATOM     30  O   UNL     1      -3.569   5.898  -3.892  0.00  0.00    +0.000 OA
ATOM     31  H   UNL     1      -3.137   6.405  -4.551  0.00  0.00    +0.000 HD
ENDBRANCH   3  30
BRANCH  20  32
ATOM     32  C   UNL     1      -2.024   0.379   6.514  0.00  0.00    +0.000 C 
ATOM     33  O   UNL     1      -0.956  -0.162   6.941  0.00  0.00    +0.000 OA
BRANCH  32  34
ATOM     34  O   UNL     1      -3.184  -0.260   6.967  0.00  0.00    +0.000 OA
ATOM     35  H   UNL     1      -3.119  -1.015   7.517  0.00  0.00    +0.000 HD
ENDBRANCH  32  34
ENDBRANCH  20  32
TORSDOF 3
ENDMDL
