MODEL 1
REMARK VINA RESULT:    -7.074      0.000      0.000
REMARK INTER + INTRA:          -8.108
REMARK INTER:                  -7.373
REMARK INTRA:                  -0.736
REMARK CONF_INDEPENDENT:        0.298
REMARK UNBOUND:                 0.736
REMARK  Name = 4091
REMARK  3 active torsions:
REMARK  status: ('A' for Active; 'I' for Inactive)
REMARK    1  A    between atoms: N_1  and  C_6
REMARK    2  A    between atoms: N_1  and  C_7
REMARK    3  A    between atoms: N_2  and  C_8
REMARK                            x       y       z     vdW  Elec       q    Type
REMARK                         _______ _______ _______ _____ _____    ______ ____
ROOT
ATOM      1  N   UNL     1       0.722   2.392   1.567  0.00  0.00    +0.000 NA
ATOM      2  N   UNL     1      -1.295   3.437   2.099  0.00  0.00    +0.000 N 
ATOM      3  N   UNL     1       0.580   4.741   2.061  0.00  0.00    +0.000 N 
ATOM      4  C   UNL     1       0.063   3.475   1.890  0.00  0.00    +0.000 C 
ATOM      5  H   UNL     1      -1.817   4.269   2.349  0.00  0.00    +0.000 HD
ATOM      6  H   UNL     1      -1.814   2.570   2.009  0.00  0.00    +0.000 HD
ATOM      7  H   UNL     1       1.567   4.938   1.940  0.00  0.00    +0.000 HD
ATOM      8  H   UNL     1      -0.018   5.522   2.312  0.00  0.00    +0.000 HD
ENDROOT
BRANCH   1  13
ATOM      9  N   UNL     1       2.981   1.652   2.028  0.00  0.00    +0.000 N 
ATOM     10  N   UNL     1       2.429   3.438   0.533  0.00  0.00    +0.000 NA
ATOM     11  C   UNL     1       2.526   0.625   2.959  0.00  0.00    +0.000 C 
ATOM     12  C   UNL     1       4.409   1.665   1.730  0.00  0.00    +0.000 C 
ATOM     13  C   UNL     1       2.086   2.505   1.372  0.00  0.00    +0.000 C 
ATOM     14  H   UNL     1       3.446   3.470   0.429  0.00  0.00    +0.000 HD
ENDBRANCH   1  13
TORSDOF 1
ENDMDL
MODEL 2
REMARK VINA RESULT:    -6.686      7.171      8.197
REMARK INTER + INTRA:          -7.705
REMARK INTER:                  -6.985
REMARK INTRA:                  -0.720
REMARK CONF_INDEPENDENT:        0.298
REMARK UNBOUND:                 0.720
REMARK  Name = 4091
REMARK  3 active torsions:
REMARK  status: ('A' for Active; 'I' for Inactive)
REMARK    1  A    between atoms: N_1  and  C_6
REMARK    2  A    between atoms: N_1  and  C_7
REMARK    3  A    between atoms: N_2  and  C_8
REMARK                            x       y       z     vdW  Elec       q    Type
REMARK                         _______ _______ _______ _____ _____    ______ ____
ROOT
ATOM      1  N   UNL     1      -1.179  -5.118   2.859  0.00  0.00    +0.000 NA
ATOM      2  N   UNL     1      -2.877  -6.522   2.092  0.00  0.00    +0.000 N 
ATOM      3  N   UNL     1      -1.250  -5.938   0.599  0.00  0.00    +0.000 N 
ATOM      4  C   UNL     1      -1.717  -5.811   1.889  0.00  0.00    +0.000 C 
ATOM      5  H   UNL     1      -3.304  -7.063   1.349  0.00  0.00    +0.000 HD
ATOM      6  H   UNL     1      -3.338  -6.522   2.995  0.00  0.00    +0.000 HD
ATOM      7  H   UNL     1      -0.402  -5.477   0.289  0.00  0.00    +0.000 HD
ATOM      8  H   UNL     1      -1.742  -6.503  -0.084  0.00  0.00    +0.000 HD
ENDROOT
BRANCH   1  13
ATOM      9  N   UNL     1       1.078  -4.474   3.458  0.00  0.00    +0.000 N 
ATOM     10  N   UNL     1      -0.033  -3.776   1.456  0.00  0.00    +0.000 NA
ATOM     11  C   UNL     1       1.033  -5.226   4.707  0.00  0.00    +0.000 C 
ATOM     12  C   UNL     1       2.360  -3.869   3.117  0.00  0.00    +0.000 C 
ATOM     13  C   UNL     1      -0.013  -4.428   2.582  0.00  0.00    +0.000 C 
ATOM     14  H   UNL     1       0.855  -3.292   1.306  0.00  0.00    +0.000 HD
ENDBRANCH   1  13
TORSDOF 1
ENDMDL
MODEL 3
REMARK VINA RESULT:    -6.461      2.151      2.744
REMARK INTER + INTRA:          -7.378
REMARK INTER:                  -6.759
REMARK INTRA:                  -0.619
REMARK CONF_INDEPENDENT:        0.298
REMARK UNBOUND:                 0.619
REMARK  Name = 4091
REMARK  3 active torsions:
REMARK  status: ('A' for Active; 'I' for Inactive)
REMARK    1  A    between atoms: N_1  and  C_6
REMARK    2  A    between atoms: N_1  and  C_7
REMARK    3  A    between atoms: N_2  and  C_8
REMARK                            x       y       z     vdW  Elec       q    Type
REMARK                         _______ _______ _______ _____ _____    ______ ____
ROOT
ATOM      1  N   UNL     1      -0.031   3.035   1.884  0.00  0.00    +0.000 NA
ATOM      2  N   UNL     1       0.570   5.284   1.722  0.00  0.00    +0.000 N 
ATOM      3  N   UNL     1       1.887   3.770   0.631  0.00  0.00    +0.000 N 
ATOM      4  C   UNL     1       0.777   3.957   1.426  0.00  0.00    +0.000 C 
ATOM      5  H   UNL     1       1.188   6.008   1.374  0.00  0.00    +0.000 HD
ATOM      6  H   UNL     1      -0.211   5.574   2.301  0.00  0.00    +0.000 HD
ATOM      7  H   UNL     1       2.175   2.848   0.322  0.00  0.00    +0.000 HD
ATOM      8  H   UNL     1       2.452   4.555   0.326  0.00  0.00    +0.000 HD
ENDROOT
BRANCH   1  13
ATOM      9  N   UNL     1       0.028   0.684   2.461  0.00  0.00    +0.000 N 
ATOM     10  N   UNL     1       0.675   1.563   0.330  0.00  0.00    +0.000 NA
ATOM     11  C   UNL     1      -0.462   0.934   3.811  0.00  0.00    +0.000 C 
ATOM     12  C   UNL     1       0.175  -0.716   2.077  0.00  0.00    +0.000 C 
ATOM     13  C   UNL     1       0.240   1.722   1.546  0.00  0.00    +0.000 C 
ATOM     14  H   UNL     1       0.852   0.574   0.139  0.00  0.00    +0.000 HD
ENDBRANCH   1  13
TORSDOF 1
ENDMDL
MODEL 4
REMARK VINA RESULT:    -6.302      1.709      2.472
REMARK INTER + INTRA:          -7.351
REMARK INTER:                  -6.601
REMARK INTRA:                  -0.750
REMARK CONF_INDEPENDENT:        0.298
REMARK UNBOUND:                 0.750
REMARK  Name = 4091
REMARK  3 active torsions:
REMARK  status: ('A' for Active; 'I' for Inactive)
REMARK    1  A    between atoms: N_1  and  C_6
REMARK    2  A    between atoms: N_1  and  C_7
REMARK    3  A    between atoms: N_2  and  C_8
REMARK                            x       y       z     vdW  Elec       q    Type
REMARK                         _______ _______ _______ _____ _____    ______ ____
ROOT
ATOM      1  N   UNL     1       2.206   3.541   2.873  0.00  0.00    +0.000 NA
ATOM      2  N   UNL     1       0.568   4.893   1.907  0.00  0.00    +0.000 N 
ATOM      3  N   UNL     1      -0.143   3.063   3.075  0.00  0.00    +0.000 N 
ATOM      4  C   UNL     1       0.942   3.795   2.646  0.00  0.00    +0.000 C 
ATOM      5  H   UNL     1      -0.407   5.101   1.724  0.00  0.00    +0.000 HD
ATOM      6  H   UNL     1       1.260   5.526   1.523  0.00  0.00    +0.000 HD
ATOM      7  H   UNL     1      -0.035   2.224   3.634  0.00  0.00    +0.000 HD
ATOM      8  H   UNL     1      -1.090   3.345   2.846  0.00  0.00    +0.000 HD
ENDROOT
BRANCH   1  13
ATOM      9  N   UNL     1       3.490   1.515   3.202  0.00  0.00    +0.000 N 
ATOM     10  N   UNL     1       1.825   2.315   4.725  0.00  0.00    +0.000 NA
ATOM     11  C   UNL     1       4.219   1.694   1.952  0.00  0.00    +0.000 C 
ATOM     12  C   UNL     1       3.919   0.405   4.046  0.00  0.00    +0.000 C 
ATOM     13  C   UNL     1       2.508   2.420   3.623  0.00  0.00    +0.000 C 
ATOM     14  H   UNL     1       2.095   1.471   5.236  0.00  0.00    +0.000 HD
ENDBRANCH   1  13
TORSDOF 1
ENDMDL
MODEL 5
REMARK VINA RESULT:    -6.269      1.623      3.360
REMARK INTER + INTRA:          -6.931
REMARK INTER:                  -6.568
REMARK INTRA:                  -0.363
REMARK CONF_INDEPENDENT:        0.298
REMARK UNBOUND:                 0.363
REMARK  Name = 4091
REMARK  3 active torsions:
REMARK  status: ('A' for Active; 'I' for Inactive)
REMARK    1  A    between atoms: N_1  and  C_6
REMARK    2  A    between atoms: N_1  and  C_7
REMARK    3  A    between atoms: N_2  and  C_8
REMARK                            x       y       z     vdW  Elec       q    Type
REMARK                         _______ _______ _______ _____ _____    ______ ____
ROOT
ATOM      1  N   UNL     1       1.083   2.495   0.663  0.00  0.00    +0.000 NA
ATOM      2  N   UNL     1       3.265   2.858  -0.079  0.00  0.00    +0.000 N 
ATOM      3  N   UNL     1       2.877   3.059   2.163  0.00  0.00    +0.000 N 
ATOM      4  C   UNL     1       2.331   2.789   0.927  0.00  0.00    +0.000 C 
ATOM      5  H   UNL     1       4.234   3.085   0.113  0.00  0.00    +0.000 HD
ATOM      6  H   UNL     1       3.008   2.683  -1.044  0.00  0.00    +0.000 HD
ATOM      7  H   UNL     1       2.319   3.047   3.010  0.00  0.00    +0.000 HD
ATOM      8  H   UNL     1       3.862   3.278   2.265  0.00  0.00    +0.000 HD
ENDROOT
BRANCH   1  13
ATOM      9  N   UNL     1      -0.067   1.239   2.385  0.00  0.00    +0.000 N 
ATOM     10  N   UNL     1      -0.321   3.594   2.042  0.00  0.00    +0.000 NA
ATOM     11  C   UNL     1       0.552  -0.018   1.976  0.00  0.00    +0.000 C 
ATOM     12  C   UNL     1      -0.887   1.190   3.591  0.00  0.00    +0.000 C 
ATOM     13  C   UNL     1       0.199   2.444   1.725  0.00  0.00    +0.000 C 
ATOM     14  H   UNL     1      -0.961   3.493   2.833  0.00  0.00    +0.000 HD
ENDBRANCH   1  13
TORSDOF 1
ENDMDL
MODEL 6
REMARK VINA RESULT:    -6.255      2.072      3.432
REMARK INTER + INTRA:          -7.305
REMARK INTER:                  -6.553
REMARK INTRA:                  -0.752
REMARK CONF_INDEPENDENT:        0.298
REMARK UNBOUND:                 0.752
REMARK  Name = 4091
REMARK  3 active torsions:
REMARK  status: ('A' for Active; 'I' for Inactive)
REMARK    1  A    between atoms: N_1  and  C_6
REMARK    2  A    between atoms: N_1  and  C_7
REMARK    3  A    between atoms: N_2  and  C_8
REMARK                            x       y       z     vdW  Elec       q    Type
REMARK                         _______ _______ _______ _____ _____    ______ ____
ROOT
ATOM      1  N   UNL     1       2.670   3.177   1.758  0.00  0.00    +0.000 NA
ATOM      2  N   UNL     1       3.278   2.017  -0.172  0.00  0.00    +0.000 N 
ATOM      3  N   UNL     1       1.155   1.703   0.610  0.00  0.00    +0.000 N 
ATOM      4  C   UNL     1       2.360   2.344   0.797  0.00  0.00    +0.000 C 
ATOM      5  H   UNL     1       3.051   1.373  -0.922  0.00  0.00    +0.000 HD
ATOM      6  H   UNL     1       4.212   2.412  -0.163  0.00  0.00    +0.000 HD
ATOM      7  H   UNL     1       0.372   1.840   1.239  0.00  0.00    +0.000 HD
ATOM      8  H   UNL     1       1.013   1.072  -0.172  0.00  0.00    +0.000 HD
ENDROOT
BRANCH   1  13
ATOM      9  N   UNL     1       1.984   3.416   4.068  0.00  0.00    +0.000 N 
ATOM     10  N   UNL     1       0.541   3.777   2.193  0.00  0.00    +0.000 NA
ATOM     11  C   UNL     1       3.305   3.051   4.568  0.00  0.00    +0.000 C 
ATOM     12  C   UNL     1       1.012   3.844   5.068  0.00  0.00    +0.000 C 
ATOM     13  C   UNL     1       1.696   3.460   2.699  0.00  0.00    +0.000 C 
ATOM     14  H   UNL     1      -0.133   3.978   2.935  0.00  0.00    +0.000 HD
ENDBRANCH   1  13
TORSDOF 1
ENDMDL
MODEL 7
REMARK VINA RESULT:    -6.188      2.510      3.529
REMARK INTER + INTRA:          -7.235
REMARK INTER:                  -6.486
REMARK INTRA:                  -0.749
REMARK CONF_INDEPENDENT:        0.298
REMARK UNBOUND:                 0.749
REMARK  Name = 4091
REMARK  3 active torsions:
REMARK  status: ('A' for Active; 'I' for Inactive)
REMARK    1  A    between atoms: N_1  and  C_6
REMARK    2  A    between atoms: N_1  and  C_7
REMARK    3  A    between atoms: N_2  and  C_8
REMARK                            x       y       z     vdW  Elec       q    Type
REMARK                         _______ _______ _______ _____ _____    ______ ____
ROOT
ATOM      1  N   UNL     1       3.632   2.839   2.084  0.00  0.00    +0.000 NA
ATOM      2  N   UNL     1       2.868   3.338  -0.063  0.00  0.00    +0.000 N 
ATOM      3  N   UNL     1       2.438   1.242   0.739  0.00  0.00    +0.000 N 
ATOM      4  C   UNL     1       3.011   2.470   0.993  0.00  0.00    +0.000 C 
ATOM      5  H   UNL     1       2.388   3.064  -0.913  0.00  0.00    +0.000 HD
ATOM      6  H   UNL     1       3.240   4.280  -0.020  0.00  0.00    +0.000 HD
ATOM      7  H   UNL     1       2.456   0.491   1.419  0.00  0.00    +0.000 HD
ATOM      8  H   UNL     1       1.975   1.053  -0.144  0.00  0.00    +0.000 HD
ENDROOT
BRANCH   1  13
ATOM      9  N   UNL     1       4.974   1.639   3.703  0.00  0.00    +0.000 N 
ATOM     10  N   UNL     1       2.610   1.364   3.448  0.00  0.00    +0.000 NA
ATOM     11  C   UNL     1       6.204   2.291   3.268  0.00  0.00    +0.000 C 
ATOM     12  C   UNL     1       5.084   0.771   4.871  0.00  0.00    +0.000 C 
ATOM     13  C   UNL     1       3.739   1.913   3.105  0.00  0.00    +0.000 C 
ATOM     14  H   UNL     1       2.753   0.695   4.208  0.00  0.00    +0.000 HD
ENDBRANCH   1  13
TORSDOF 1
ENDMDL
MODEL 8
REMARK VINA RESULT:    -6.047      7.651      9.009
REMARK INTER + INTRA:          -7.101
REMARK INTER:                  -6.346
REMARK INTRA:                  -0.756
REMARK CONF_INDEPENDENT:        0.298
REMARK UNBOUND:                 0.756
REMARK  Name = 4091
REMARK  3 active torsions:
REMARK  status: ('A' for Active; 'I' for Inactive)
REMARK    1  A    between atoms: N_1  and  C_6
REMARK    2  A    between atoms: N_1  and  C_7
REMARK    3  A    between atoms: N_2  and  C_8
REMARK                            x       y       z     vdW  Elec       q    Type
REMARK                         _______ _______ _______ _____ _____    ______ ____
ROOT
ATOM      1  N   UNL     1      -1.272  -4.574   2.972  0.00  0.00    +0.000 NA
ATOM      2  N   UNL     1      -0.924  -5.641   0.927  0.00  0.00    +0.000 N 
ATOM      3  N   UNL     1      -2.796  -6.219   2.102  0.00  0.00    +0.000 N 
ATOM      4  C   UNL     1      -1.664  -5.435   2.067  0.00  0.00    +0.000 C 
ATOM      5  H   UNL     1      -1.216  -6.304   0.218  0.00  0.00    +0.000 HD
ATOM      6  H   UNL     1      -0.062  -5.133   0.764  0.00  0.00    +0.000 HD
ATOM      7  H   UNL     1      -3.449  -6.184   2.876  0.00  0.00    +0.000 HD
ATOM      8  H   UNL     1      -3.013  -6.859   1.345  0.00  0.00    +0.000 HD
ENDROOT
BRANCH   1  13
ATOM      9  N   UNL     1      -2.448  -3.148   4.537  0.00  0.00    +0.000 N 
ATOM     10  N   UNL     1      -2.419  -5.539   4.656  0.00  0.00    +0.000 NA
ATOM     11  C   UNL     1      -2.014  -1.932   3.858  0.00  0.00    +0.000 C 
ATOM     12  C   UNL     1      -3.395  -2.972   5.632  0.00  0.00    +0.000 C 
ATOM     13  C   UNL     1      -2.066  -4.420   4.094  0.00  0.00    +0.000 C 
ATOM     14  H   UNL     1      -3.006  -5.360   5.474  0.00  0.00    +0.000 HD
ENDBRANCH   1  13
TORSDOF 1
ENDMDL
MODEL 9
REMARK VINA RESULT:    -5.733      7.127      8.233
REMARK INTER + INTRA:          -6.783
REMARK INTER:                  -6.031
REMARK INTRA:                  -0.752
REMARK CONF_INDEPENDENT:        0.298
REMARK UNBOUND:                 0.752
REMARK  Name = 4091
REMARK  3 active torsions:
REMARK  status: ('A' for Active; 'I' for Inactive)
REMARK    1  A    between atoms: N_1  and  C_6
REMARK    2  A    between atoms: N_1  and  C_7
REMARK    3  A    between atoms: N_2  and  C_8
REMARK                            x       y       z     vdW  Elec       q    Type
REMARK                         _______ _______ _______ _____ _____    ______ ____
ROOT
ATOM      1  N   UNL     1      -0.690  -5.585   2.150  0.00  0.00    +0.000 NA
ATOM      2  N   UNL     1      -2.778  -6.535   1.725  0.00  0.00    +0.000 N 
ATOM      3  N   UNL     1      -2.574  -5.257   3.608  0.00  0.00    +0.000 N 
ATOM      4  C   UNL     1      -1.938  -5.767   2.497  0.00  0.00    +0.000 C 
ATOM      5  H   UNL     1      -3.747  -6.682   1.983  0.00  0.00    +0.000 HD
ATOM      6  H   UNL     1      -2.448  -6.976   0.874  0.00  0.00    +0.000 HD
ATOM      7  H   UNL     1      -2.093  -4.668   4.278  0.00  0.00    +0.000 HD
ATOM      8  H   UNL     1      -3.552  -5.457   3.790  0.00  0.00    +0.000 HD
ENDROOT
BRANCH   1  13
ATOM      9  N   UNL     1       0.882  -3.767   2.452  0.00  0.00    +0.000 N 
ATOM     10  N   UNL     1       0.013  -5.105   4.237  0.00  0.00    +0.000 NA
ATOM     11  C   UNL     1       0.929  -3.481   1.022  0.00  0.00    +0.000 C 
ATOM     12  C   UNL     1       1.607  -2.844   3.317  0.00  0.00    +0.000 C 
ATOM     13  C   UNL     1       0.097  -4.801   2.975  0.00  0.00    +0.000 C 
ATOM     14  H   UNL     1       0.612  -4.490   4.794  0.00  0.00    +0.000 HD
ENDBRANCH   1  13
TORSDOF 1
ENDMDL
