MODEL 1
REMARK VINA RESULT:   138.318      0.000      0.000
REMARK INTER + INTRA:         133.446
REMARK INTER:                 135.335
REMARK INTRA:                  -1.888
REMARK CONF_INDEPENDENT:        2.983
REMARK UNBOUND:                 1.888
REMARK  Name = 969516
REMARK  12 active torsions:
REMARK  status: ('A' for Active; 'I' for Inactive)
REMARK    1  A    between atoms: O_1  and  C_12
REMARK    2  A    between atoms: O_1  and  C_26
REMARK    3  A    between atoms: O_2  and  C_13
REMARK    4  A    between atoms: O_2  and  C_27
REMARK    5  A    between atoms: O_3  and  C_18
REMARK    6  A    between atoms: O_4  and  C_19
REMARK    7  A    between atoms: C_7  and  C_16
REMARK    8  A    between atoms: C_8  and  C_17
REMARK    9  A    between atoms: C_9  and  C_20
REMARK   10  A    between atoms: C_9  and  C_21
REMARK   11  A    between atoms: C_20  and  C_24
REMARK   12  A    between atoms: C_21  and  C_25
REMARK                            x       y       z     vdW  Elec       q    Type
REMARK                         _______ _______ _______ _____ _____    ______ ____
ROOT
ATOM      1  C   UNL     1      -5.209  -0.946   1.456  0.00  0.00    +0.000 C 
ENDROOT
BRANCH   1   3
ATOM      2  O   UNL     1      -6.533   0.952   2.126  0.00  0.00    +0.000 OA
ATOM      3  C   UNL     1      -5.841   0.418   1.264  0.00  0.00    +0.000 C 
BRANCH   3   5
ATOM      4  C   UNL     1      -5.659   2.428  -0.141  0.00  0.00    +0.000 C 
ATOM      5  C   UNL     1      -5.531   1.099  -0.028  0.00  0.00    +0.000 C 
BRANCH   4   6
ATOM      6  C   UNL     1      -5.389   3.193  -1.372  0.00  0.00    +0.000 A 
ATOM      7  C   UNL     1      -4.140   3.766  -1.555  0.00  0.00    +0.000 A 
ATOM      8  C   UNL     1      -3.886   4.491  -2.719  0.00  0.00    +0.000 A 
ATOM      9  C   UNL     1      -6.390   3.326  -2.320  0.00  0.00    +0.000 A 
ATOM     10  C   UNL     1      -4.883   4.633  -3.683  0.00  0.00    +0.000 A 
ATOM     11  C   UNL     1      -6.135   4.051  -3.485  0.00  0.00    +0.000 A 
BRANCH   8  12
ATOM     12  O   UNL     1      -2.660   5.055  -2.902  0.00  0.00    +0.000 OA
ATOM     13  C   UNL     1      -2.594   6.480  -2.902  0.00  0.00    +0.000 C 
ENDBRANCH   8  12
BRANCH  10  14
ATOM     14  O   UNL     1      -4.646   5.338  -4.825  0.00  0.00    +0.000 OA
ATOM     15  H   UNL     1      -4.910   4.789  -5.584  0.00  0.00    +0.000 HD
ENDBRANCH  10  14
ENDBRANCH   4   6
ENDBRANCH   3   5
ENDBRANCH   1   3
BRANCH   1  17
ATOM     16  O   UNL     1      -3.259  -1.876   2.528  0.00  0.00    +0.000 OA
ATOM     17  C   UNL     1      -3.766  -0.933   1.925  0.00  0.00    +0.000 C 
BRANCH  17  19
ATOM     18  C   UNL     1      -3.238   1.458   2.159  0.00  0.00    +0.000 C 
ATOM     19  C   UNL     1      -2.979   0.283   1.567  0.00  0.00    +0.000 C 
BRANCH  18  20
ATOM     20  C   UNL     1      -2.528   2.716   1.870  0.00  0.00    +0.000 A 
ATOM     21  C   UNL     1      -1.143   2.724   1.847  0.00  0.00    +0.000 A 
ATOM     22  C   UNL     1      -0.471   3.915   1.574  0.00  0.00    +0.000 A 
ATOM     23  C   UNL     1      -3.260   3.867   1.627  0.00  0.00    +0.000 A 
ATOM     24  C   UNL     1      -1.193   5.082   1.327  0.00  0.00    +0.000 A 
ATOM     25  C   UNL     1      -2.588   5.059   1.354  0.00  0.00    +0.000 A 
BRANCH  22  26
ATOM     26  O   UNL     1       0.891   3.926   1.550  0.00  0.00    +0.000 OA
ATOM     27  C   UNL     1       1.516   4.798   0.609  0.00  0.00    +0.000 C 
ENDBRANCH  22  26
BRANCH  24  28
ATOM     28  O   UNL     1      -0.549   6.252   1.057  0.00  0.00    +0.000 OA
ATOM     29  H   UNL     1      -1.194   6.898   0.722  0.00  0.00    +0.000 HD
ENDBRANCH  24  28
ENDBRANCH  18  20
ENDBRANCH  17  19
ENDBRANCH   1  17
TORSDOF 10
ENDMDL
