MODEL 1
REMARK VINA RESULT:    -5.603      0.000      0.000
REMARK INTER + INTRA:          -9.810
REMARK INTER:                  -8.586
REMARK INTRA:                  -1.224
REMARK CONF_INDEPENDENT:        2.983
REMARK UNBOUND:                 1.224
REMARK  Name = 969516
REMARK  12 active torsions:
REMARK  status: ('A' for Active; 'I' for Inactive)
REMARK    1  A    between atoms: O_1  and  C_12
REMARK    2  A    between atoms: O_1  and  C_26
REMARK    3  A    between atoms: O_2  and  C_13
REMARK    4  A    between atoms: O_2  and  C_27
REMARK    5  A    between atoms: O_3  and  C_18
REMARK    6  A    between atoms: O_4  and  C_19
REMARK    7  A    between atoms: C_7  and  C_16
REMARK    8  A    between atoms: C_8  and  C_17
REMARK    9  A    between atoms: C_9  and  C_20
REMARK   10  A    between atoms: C_9  and  C_21
REMARK   11  A    between atoms: C_20  and  C_24
REMARK   12  A    between atoms: C_21  and  C_25
REMARK                            x       y       z     vdW  Elec       q    Type
REMARK                         _______ _______ _______ _____ _____    ______ ____
ROOT
ATOM      1  C   UNL     1      -6.497  -7.687  -3.833  0.00  0.00    +0.000 C 
ENDROOT
BRANCH   1   3
ATOM      2  O   UNL     1      -5.278  -6.999  -1.871  0.00  0.00    +0.000 OA
ATOM      3  C   UNL     1      -5.252  -7.291  -3.064  0.00  0.00    +0.000 C 
BRANCH   3   5
ATOM      4  C   UNL     1      -2.797  -7.261  -3.202  0.00  0.00    +0.000 C 
ATOM      5  C   UNL     1      -3.975  -7.323  -3.837  0.00  0.00    +0.000 C 
BRANCH   4   6
ATOM      6  C   UNL     1      -1.484  -7.274  -3.872  0.00  0.00    +0.000 A 
ATOM      7  C   UNL     1      -0.330  -7.229  -3.105  0.00  0.00    +0.000 A 
ATOM      8  C   UNL     1       0.912  -7.241  -3.739  0.00  0.00    +0.000 A 
ATOM      9  C   UNL     1      -1.429  -7.330  -5.255  0.00  0.00    +0.000 A 
ATOM     10  C   UNL     1       0.984  -7.296  -5.131  0.00  0.00    +0.000 A 
ATOM     11  C   UNL     1      -0.186  -7.341  -5.889  0.00  0.00    +0.000 A 
BRANCH   8  12
ATOM     12  O   UNL     1       2.048  -7.197  -2.988  0.00  0.00    +0.000 OA
ATOM     13  C   UNL     1       2.731  -5.947  -2.917  0.00  0.00    +0.000 C 
ENDBRANCH   8  12
BRANCH  10  14
ATOM     14  O   UNL     1       2.191  -7.309  -5.761  0.00  0.00    +0.000 OA
ATOM     15  H   UNL     1       2.638  -6.464  -5.584  0.00  0.00    +0.000 HD
ENDBRANCH  10  14
ENDBRANCH   4   6
ENDBRANCH   3   5
ENDBRANCH   1   3
BRANCH   1  17
ATOM     16  O   UNL     1      -7.468  -7.513  -6.033  0.00  0.00    +0.000 OA
ATOM     17  C   UNL     1      -6.517  -7.274  -5.292  0.00  0.00    +0.000 C 
BRANCH  17  19
ATOM     18  C   UNL     1      -5.129  -5.245  -5.385  0.00  0.00    +0.000 C 
ATOM     19  C   UNL     1      -5.324  -6.515  -5.768  0.00  0.00    +0.000 C 
BRANCH  18  20
ATOM     20  C   UNL     1      -3.993  -4.408  -5.805  0.00  0.00    +0.000 A 
ATOM     21  C   UNL     1      -2.889  -4.295  -4.976  0.00  0.00    +0.000 A 
ATOM     22  C   UNL     1      -1.813  -3.501  -5.375  0.00  0.00    +0.000 A 
ATOM     23  C   UNL     1      -4.051  -3.749  -7.023  0.00  0.00    +0.000 A 
ATOM     24  C   UNL     1      -1.856  -2.832  -6.597  0.00  0.00    +0.000 A 
ATOM     25  C   UNL     1      -2.975  -2.956  -7.422  0.00  0.00    +0.000 A 
BRANCH  22  26
ATOM     26  O   UNL     1      -0.726  -3.389  -4.562  0.00  0.00    +0.000 OA
ATOM     27  C   UNL     1       0.382  -4.245  -4.838  0.00  0.00    +0.000 C 
ENDBRANCH  22  26
BRANCH  24  28
ATOM     28  O   UNL     1      -0.811  -2.056  -6.999  0.00  0.00    +0.000 OA
ATOM     29  H   UNL     1      -0.085  -2.147  -6.360  0.00  0.00    +0.000 HD
ENDBRANCH  24  28
ENDBRANCH  18  20
ENDBRANCH  17  19
ENDBRANCH   1  17
TORSDOF 10
ENDMDL
