MODEL 1
REMARK VINA RESULT:    -8.144      0.000      0.000
REMARK INTER + INTRA:         -13.516
REMARK INTER:                 -11.127
REMARK INTRA:                  -2.388
REMARK CONF_INDEPENDENT:        2.983
REMARK UNBOUND:                 2.388
REMARK  Name = 969516
REMARK  12 active torsions:
REMARK  status: ('A' for Active; 'I' for Inactive)
REMARK    1  A    between atoms: O_1  and  C_12
REMARK    2  A    between atoms: O_1  and  C_26
REMARK    3  A    between atoms: O_2  and  C_13
REMARK    4  A    between atoms: O_2  and  C_27
REMARK    5  A    between atoms: O_3  and  C_18
REMARK    6  A    between atoms: O_4  and  C_19
REMARK    7  A    between atoms: C_7  and  C_16
REMARK    8  A    between atoms: C_8  and  C_17
REMARK    9  A    between atoms: C_9  and  C_20
REMARK   10  A    between atoms: C_9  and  C_21
REMARK   11  A    between atoms: C_20  and  C_24
REMARK   12  A    between atoms: C_21  and  C_25
REMARK                            x       y       z     vdW  Elec       q    Type
REMARK                         _______ _______ _______ _____ _____    ______ ____
ROOT
ATOM      1  C   UNL     1       0.775  -0.256  -4.470  0.00  0.00    +0.000 C 
ENDROOT
BRANCH   1   3
ATOM      2  O   UNL     1       2.237  -0.848  -6.292  0.00  0.00    +0.000 OA
ATOM      3  C   UNL     1       1.151  -0.996  -5.738  0.00  0.00    +0.000 C 
BRANCH   3   5
ATOM      4  C   UNL     1      -0.930  -2.286  -5.504  0.00  0.00    +0.000 C 
ATOM      5  C   UNL     1       0.133  -1.960  -6.252  0.00  0.00    +0.000 C 
BRANCH   4   6
ATOM      6  C   UNL     1      -1.983  -3.233  -5.914  0.00  0.00    +0.000 A 
ATOM      7  C   UNL     1      -3.314  -2.880  -5.750  0.00  0.00    +0.000 A 
ATOM      8  C   UNL     1      -4.309  -3.777  -6.137  0.00  0.00    +0.000 A 
ATOM      9  C   UNL     1      -1.622  -4.456  -6.453  0.00  0.00    +0.000 A 
ATOM     10  C   UNL     1      -3.962  -5.013  -6.681  0.00  0.00    +0.000 A 
ATOM     11  C   UNL     1      -2.619  -5.353  -6.840  0.00  0.00    +0.000 A 
BRANCH   8  12
ATOM     12  O   UNL     1      -5.618  -3.434  -5.977  0.00  0.00    +0.000 OA
ATOM     13  C   UNL     1      -6.107  -2.354  -6.771  0.00  0.00    +0.000 C 
ENDBRANCH   8  12
BRANCH  10  14
ATOM     14  O   UNL     1      -4.926  -5.896  -7.064  0.00  0.00    +0.000 OA
ATOM     15  H   UNL     1      -5.795  -5.492  -6.897  0.00  0.00    +0.000 HD
ENDBRANCH  10  14
ENDBRANCH   4   6
ENDBRANCH   3   5
ENDBRANCH   1   3
BRANCH   1  17
ATOM     16  O   UNL     1       0.928  -0.464  -2.073  0.00  0.00    +0.000 OA
ATOM     17  C   UNL     1       1.107  -0.974  -3.176  0.00  0.00    +0.000 C 
BRANCH  17  19
ATOM     18  C   UNL     1       2.750  -2.604  -4.010  0.00  0.00    +0.000 C 
ATOM     19  C   UNL     1       1.625  -2.367  -3.322  0.00  0.00    +0.000 C 
BRANCH  18  20
ATOM     20  C   UNL     1       3.337  -3.939  -4.221  0.00  0.00    +0.000 A 
ATOM     21  C   UNL     1       4.581  -4.225  -3.683  0.00  0.00    +0.000 A 
ATOM     22  C   UNL     1       5.138  -5.489  -3.883  0.00  0.00    +0.000 A 
ATOM     23  C   UNL     1       2.633  -4.881  -4.953  0.00  0.00    +0.000 A 
ATOM     24  C   UNL     1       4.441  -6.448  -4.618  0.00  0.00    +0.000 A 
ATOM     25  C   UNL     1       3.189  -6.145  -5.154  0.00  0.00    +0.000 A 
BRANCH  22  26
ATOM     26  O   UNL     1       6.360  -5.775  -3.355  0.00  0.00    +0.000 OA
ATOM     27  C   UNL     1       6.456  -6.935  -2.531  0.00  0.00    +0.000 C 
ENDBRANCH  22  26
BRANCH  24  28
ATOM     28  O   UNL     1       4.972  -7.687  -4.819  0.00  0.00    +0.000 OA
ATOM     29  H   UNL     1       5.930  -7.650  -4.660  0.00  0.00    +0.000 HD
ENDBRANCH  24  28
ENDBRANCH  18  20
ENDBRANCH  17  19
ENDBRANCH   1  17
TORSDOF 10
ENDMDL
MODEL 2
REMARK VINA RESULT:    -8.080      0.822      7.212
REMARK INTER + INTRA:         -13.260
REMARK INTER:                 -11.063
REMARK INTRA:                  -2.196
REMARK CONF_INDEPENDENT:        2.983
REMARK UNBOUND:                 2.196
REMARK  Name = 969516
REMARK  12 active torsions:
REMARK  status: ('A' for Active; 'I' for Inactive)
REMARK    1  A    between atoms: O_1  and  C_12
REMARK    2  A    between atoms: O_1  and  C_26
REMARK    3  A    between atoms: O_2  and  C_13
REMARK    4  A    between atoms: O_2  and  C_27
REMARK    5  A    between atoms: O_3  and  C_18
REMARK    6  A    between atoms: O_4  and  C_19
REMARK    7  A    between atoms: C_7  and  C_16
REMARK    8  A    between atoms: C_8  and  C_17
REMARK    9  A    between atoms: C_9  and  C_20
REMARK   10  A    between atoms: C_9  and  C_21
REMARK   11  A    between atoms: C_20  and  C_24
REMARK   12  A    between atoms: C_21  and  C_25
REMARK                            x       y       z     vdW  Elec       q    Type
REMARK                         _______ _______ _______ _____ _____    ______ ____
ROOT
ATOM      1  C   UNL     1       1.116   0.019  -4.300  0.00  0.00    +0.000 C 
ENDROOT
BRANCH   1   3
ATOM      2  O   UNL     1       0.772  -0.435  -1.958  0.00  0.00    +0.000 OA
ATOM      3  C   UNL     1       1.132  -0.849  -3.057  0.00  0.00    +0.000 C 
BRANCH   3   5
ATOM      4  C   UNL     1       2.785  -2.530  -3.755  0.00  0.00    +0.000 C 
ATOM      5  C   UNL     1       1.570  -2.262  -3.259  0.00  0.00    +0.000 C 
BRANCH   4   6
ATOM      6  C   UNL     1       3.308  -3.886  -4.002  0.00  0.00    +0.000 A 
ATOM      7  C   UNL     1       2.691  -4.688  -4.950  0.00  0.00    +0.000 A 
ATOM      8  C   UNL     1       3.186  -5.972  -5.183  0.00  0.00    +0.000 A 
ATOM      9  C   UNL     1       4.403  -4.333  -3.281  0.00  0.00    +0.000 A 
ATOM     10  C   UNL     1       4.287  -6.436  -4.465  0.00  0.00    +0.000 A 
ATOM     11  C   UNL     1       4.897  -5.617  -3.514  0.00  0.00    +0.000 A 
BRANCH   8  12
ATOM     12  O   UNL     1       2.583  -6.762  -6.114  0.00  0.00    +0.000 OA
ATOM     13  C   UNL     1       1.181  -6.980  -5.971  0.00  0.00    +0.000 C 
ENDBRANCH   8  12
BRANCH  10  14
ATOM     14  O   UNL     1       4.780  -7.687  -4.685  0.00  0.00    +0.000 OA
ATOM     15  H   UNL     1       5.739  -7.671  -4.526  0.00  0.00    +0.000 HD
ENDBRANCH  10  14
ENDBRANCH   4   6
ENDBRANCH   3   5
ENDBRANCH   1   3
BRANCH   1  17
ATOM     16  O   UNL     1       2.480  -0.435  -6.235  0.00  0.00    +0.000 OA
ATOM     17  C   UNL     1       1.465  -0.692  -5.593  0.00  0.00    +0.000 C 
BRANCH  17  19
ATOM     18  C   UNL     1      -0.621  -1.973  -5.344  0.00  0.00    +0.000 C 
ATOM     19  C   UNL     1       0.518  -1.764  -6.019  0.00  0.00    +0.000 C 
BRANCH  18  20
ATOM     20  C   UNL     1      -1.614  -3.008  -5.676  0.00  0.00    +0.000 A 
ATOM     21  C   UNL     1      -2.964  -2.713  -5.573  0.00  0.00    +0.000 A 
ATOM     22  C   UNL     1      -3.904  -3.695  -5.886  0.00  0.00    +0.000 A 
ATOM     23  C   UNL     1      -1.178  -4.259  -6.084  0.00  0.00    +0.000 A 
ATOM     24  C   UNL     1      -3.481  -4.958  -6.299  0.00  0.00    +0.000 A 
ATOM     25  C   UNL     1      -2.118  -5.241  -6.398  0.00  0.00    +0.000 A 
BRANCH  22  26
ATOM     26  O   UNL     1      -5.231  -3.407  -5.787  0.00  0.00    +0.000 OA
ATOM     27  C   UNL     1      -5.747  -2.413  -6.670  0.00  0.00    +0.000 C 
ENDBRANCH  22  26
BRANCH  24  28
ATOM     28  O   UNL     1      -4.389  -5.925  -6.610  0.00  0.00    +0.000 OA
ATOM     29  H   UNL     1      -5.268  -5.644  -6.304  0.00  0.00    +0.000 HD
ENDBRANCH  24  28
ENDBRANCH  18  20
ENDBRANCH  17  19
ENDBRANCH   1  17
TORSDOF 10
ENDMDL
MODEL 3
REMARK VINA RESULT:    -8.048      1.255      2.259
REMARK INTER + INTRA:         -13.163
REMARK INTER:                 -11.031
REMARK INTRA:                  -2.131
REMARK CONF_INDEPENDENT:        2.983
REMARK UNBOUND:                 2.131
REMARK  Name = 969516
REMARK  12 active torsions:
REMARK  status: ('A' for Active; 'I' for Inactive)
REMARK    1  A    between atoms: O_1  and  C_12
REMARK    2  A    between atoms: O_1  and  C_26
REMARK    3  A    between atoms: O_2  and  C_13
REMARK    4  A    between atoms: O_2  and  C_27
REMARK    5  A    between atoms: O_3  and  C_18
REMARK    6  A    between atoms: O_4  and  C_19
REMARK    7  A    between atoms: C_7  and  C_16
REMARK    8  A    between atoms: C_8  and  C_17
REMARK    9  A    between atoms: C_9  and  C_20
REMARK   10  A    between atoms: C_9  and  C_21
REMARK   11  A    between atoms: C_20  and  C_24
REMARK   12  A    between atoms: C_21  and  C_25
REMARK                            x       y       z     vdW  Elec       q    Type
REMARK                         _______ _______ _______ _____ _____    ______ ____
ROOT
ATOM      1  C   UNL     1       1.075   0.301  -4.278  0.00  0.00    +0.000 C 
ENDROOT
BRANCH   1   3
ATOM      2  O   UNL     1       2.412  -0.055  -6.251  0.00  0.00    +0.000 OA
ATOM      3  C   UNL     1       1.505  -0.449  -5.523  0.00  0.00    +0.000 C 
BRANCH   3   5
ATOM      4  C   UNL     1      -0.519  -1.846  -5.508  0.00  0.00    +0.000 C 
ATOM      5  C   UNL     1       0.787  -1.731  -5.788  0.00  0.00    +0.000 C 
BRANCH   4   6
ATOM      6  C   UNL     1      -1.315  -3.068  -5.721  0.00  0.00    +0.000 A 
ATOM      7  C   UNL     1      -0.673  -4.244  -6.073  0.00  0.00    +0.000 A 
ATOM      8  C   UNL     1      -1.428  -5.400  -6.275  0.00  0.00    +0.000 A 
ATOM      9  C   UNL     1      -2.691  -3.016  -5.566  0.00  0.00    +0.000 A 
ATOM     10  C   UNL     1      -2.813  -5.363  -6.123  0.00  0.00    +0.000 A 
ATOM     11  C   UNL     1      -3.445  -4.172  -5.769  0.00  0.00    +0.000 A 
BRANCH   8  12
ATOM     12  O   UNL     1      -0.799  -6.558  -6.621  0.00  0.00    +0.000 OA
ATOM     13  C   UNL     1       0.622  -6.587  -6.498  0.00  0.00    +0.000 C 
ENDBRANCH   8  12
BRANCH  10  14
ATOM     14  O   UNL     1      -3.560  -6.486  -6.317  0.00  0.00    +0.000 OA
ATOM     15  H   UNL     1      -2.972  -7.258  -6.264  0.00  0.00    +0.000 HD
ENDBRANCH  10  14
ENDBRANCH   4   6
ENDBRANCH   3   5
ENDBRANCH   1   3
BRANCH   1  17
ATOM     16  O   UNL     1       0.814  -0.018  -1.903  0.00  0.00    +0.000 OA
ATOM     17  C   UNL     1       1.091  -0.508  -2.995  0.00  0.00    +0.000 C 
BRANCH  17  19
ATOM     18  C   UNL     1       2.647  -2.335  -3.537  0.00  0.00    +0.000 C 
ATOM     19  C   UNL     1       1.422  -1.955  -3.145  0.00  0.00    +0.000 C 
BRANCH  18  20
ATOM     20  C   UNL     1       3.069  -3.733  -3.725  0.00  0.00    +0.000 A 
ATOM     21  C   UNL     1       4.417  -4.049  -3.667  0.00  0.00    +0.000 A 
ATOM     22  C   UNL     1       4.817  -5.373  -3.846  0.00  0.00    +0.000 A 
ATOM     23  C   UNL     1       2.110  -4.706  -3.958  0.00  0.00    +0.000 A 
ATOM     24  C   UNL     1       3.864  -6.364  -4.080  0.00  0.00    +0.000 A 
ATOM     25  C   UNL     1       2.510  -6.031  -4.137  0.00  0.00    +0.000 A 
BRANCH  22  26
ATOM     26  O   UNL     1       6.141  -5.687  -3.787  0.00  0.00    +0.000 OA
ATOM     27  C   UNL     1       6.511  -6.788  -2.960  0.00  0.00    +0.000 C 
ENDBRANCH  22  26
BRANCH  24  28
ATOM     28  O   UNL     1       4.241  -7.661  -4.255  0.00  0.00    +0.000 OA
ATOM     29  H   UNL     1       5.180  -7.687  -4.505  0.00  0.00    +0.000 HD
ENDBRANCH  24  28
ENDBRANCH  18  20
ENDBRANCH  17  19
ENDBRANCH   1  17
TORSDOF 10
ENDMDL
