MODEL 1
REMARK VINA RESULT:    -3.998      0.000      0.000
REMARK INTER + INTRA:          -9.931
REMARK INTER:                  -6.981
REMARK INTRA:                  -2.950
REMARK CONF_INDEPENDENT:        2.983
REMARK UNBOUND:                 2.950
REMARK  Name = 969516
REMARK  12 active torsions:
REMARK  status: ('A' for Active; 'I' for Inactive)
REMARK    1  A    between atoms: O_1  and  C_12
REMARK    2  A    between atoms: O_1  and  C_26
REMARK    3  A    between atoms: O_2  and  C_13
REMARK    4  A    between atoms: O_2  and  C_27
REMARK    5  A    between atoms: O_3  and  C_18
REMARK    6  A    between atoms: O_4  and  C_19
REMARK    7  A    between atoms: C_7  and  C_16
REMARK    8  A    between atoms: C_8  and  C_17
REMARK    9  A    between atoms: C_9  and  C_20
REMARK   10  A    between atoms: C_9  and  C_21
REMARK   11  A    between atoms: C_20  and  C_24
REMARK   12  A    between atoms: C_21  and  C_25
REMARK                            x       y       z     vdW  Elec       q    Type
REMARK                         _______ _______ _______ _____ _____    ______ ____
ROOT
ATOM      1  C   UNL     1       4.380  -4.974   0.927  0.00  0.00    +0.000 C 
ENDROOT
BRANCH   1   3
ATOM      2  O   UNL     1       5.860  -6.652   1.819  0.00  0.00    +0.000 OA
ATOM      3  C   UNL     1       5.388  -6.101   0.829  0.00  0.00    +0.000 C 
BRANCH   3   5
ATOM      4  C   UNL     1       4.985  -6.161  -1.596  0.00  0.00    +0.000 C 
ATOM      5  C   UNL     1       5.741  -6.536  -0.555  0.00  0.00    +0.000 C 
BRANCH   4   6
ATOM      6  C   UNL     1       5.240  -6.545  -2.997  0.00  0.00    +0.000 A 
ATOM      7  C   UNL     1       4.174  -6.902  -3.807  0.00  0.00    +0.000 A 
ATOM      8  C   UNL     1       4.416  -7.266  -5.132  0.00  0.00    +0.000 A 
ATOM      9  C   UNL     1       6.540  -6.543  -3.474  0.00  0.00    +0.000 A 
ATOM     10  C   UNL     1       5.720  -7.269  -5.627  0.00  0.00    +0.000 A 
ATOM     11  C   UNL     1       6.782  -6.908  -4.799  0.00  0.00    +0.000 A 
BRANCH   8  12
ATOM     12  O   UNL     1       3.370  -7.617  -5.931  0.00  0.00    +0.000 OA
ATOM     13  C   UNL     1       3.017  -6.710  -6.974  0.00  0.00    +0.000 C 
ENDBRANCH   8  12
BRANCH  10  14
ATOM     14  O   UNL     1       5.968  -7.622  -6.919  0.00  0.00    +0.000 OA
ATOM     15  H   UNL     1       5.135  -7.566  -7.417  0.00  0.00    +0.000 HD
ENDBRANCH  10  14
ENDBRANCH   4   6
ENDBRANCH   3   5
ENDBRANCH   1   3
BRANCH   1  17
ATOM     16  O   UNL     1       5.076  -2.805   1.717  0.00  0.00    +0.000 OA
ATOM     17  C   UNL     1       4.949  -3.577   0.770  0.00  0.00    +0.000 C 
BRANCH  17  19
ATOM     18  C   UNL     1       4.491  -2.968  -1.570  0.00  0.00    +0.000 C 
ATOM     19  C   UNL     1       5.393  -3.209  -0.607  0.00  0.00    +0.000 C 
BRANCH  18  20
ATOM     20  C   UNL     1       4.825  -2.609  -2.959  0.00  0.00    +0.000 A 
ATOM     21  C   UNL     1       5.242  -1.320  -3.245  0.00  0.00    +0.000 A 
ATOM     22  C   UNL     1       5.557  -0.980  -4.561  0.00  0.00    +0.000 A 
ATOM     23  C   UNL     1       4.713  -3.569  -3.952  0.00  0.00    +0.000 A 
ATOM     24  C   UNL     1       5.450  -1.935  -5.572  0.00  0.00    +0.000 A 
ATOM     25  C   UNL     1       5.028  -3.229  -5.268  0.00  0.00    +0.000 A 
BRANCH  22  26
ATOM     26  O   UNL     1       5.969   0.287  -4.846  0.00  0.00    +0.000 OA
ATOM     27  C   UNL     1       7.329   0.452  -5.243  0.00  0.00    +0.000 C 
ENDBRANCH  22  26
BRANCH  24  28
ATOM     28  O   UNL     1       5.757  -1.617  -6.861  0.00  0.00    +0.000 OA
ATOM     29  H   UNL     1       6.652  -1.239  -6.889  0.00  0.00    +0.000 HD
ENDBRANCH  24  28
ENDBRANCH  18  20
ENDBRANCH  17  19
ENDBRANCH   1  17
TORSDOF 10
ENDMDL
MODEL 2
REMARK VINA RESULT:    -3.677      2.497      7.887
REMARK INTER + INTRA:         -10.147
REMARK INTER:                  -6.660
REMARK INTRA:                  -3.487
REMARK CONF_INDEPENDENT:        2.983
REMARK UNBOUND:                 3.487
REMARK  Name = 969516
REMARK  12 active torsions:
REMARK  status: ('A' for Active; 'I' for Inactive)
REMARK    1  A    between atoms: O_1  and  C_12
REMARK    2  A    between atoms: O_1  and  C_26
REMARK    3  A    between atoms: O_2  and  C_13
REMARK    4  A    between atoms: O_2  and  C_27
REMARK    5  A    between atoms: O_3  and  C_18
REMARK    6  A    between atoms: O_4  and  C_19
REMARK    7  A    between atoms: C_7  and  C_16
REMARK    8  A    between atoms: C_8  and  C_17
REMARK    9  A    between atoms: C_9  and  C_20
REMARK   10  A    between atoms: C_9  and  C_21
REMARK   11  A    between atoms: C_20  and  C_24
REMARK   12  A    between atoms: C_21  and  C_25
REMARK                            x       y       z     vdW  Elec       q    Type
REMARK                         _______ _______ _______ _____ _____    ______ ____
ROOT
ATOM      1  C   UNL     1       4.460  -3.238  -3.771  0.00  0.00    +0.000 C 
ENDROOT
BRANCH   1   3
ATOM      2  O   UNL     1       5.278  -1.006  -3.377  0.00  0.00    +0.000 OA
ATOM      3  C   UNL     1       4.862  -2.061  -2.906  0.00  0.00    +0.000 C 
BRANCH   3   5
ATOM      4  C   UNL     1       5.721  -2.538  -0.651  0.00  0.00    +0.000 C 
ATOM      5  C   UNL     1       4.675  -2.245  -1.435  0.00  0.00    +0.000 C 
BRANCH   4   6
ATOM      6  C   UNL     1       5.642  -2.750   0.805  0.00  0.00    +0.000 A 
ATOM      7  C   UNL     1       4.637  -3.553   1.321  0.00  0.00    +0.000 A 
ATOM      8  C   UNL     1       4.563  -3.753   2.699  0.00  0.00    +0.000 A 
ATOM      9  C   UNL     1       6.572  -2.140   1.630  0.00  0.00    +0.000 A 
ATOM     10  C   UNL     1       5.492  -3.145   3.543  0.00  0.00    +0.000 A 
ATOM     11  C   UNL     1       6.497  -2.339   3.009  0.00  0.00    +0.000 A 
BRANCH   8  12
ATOM     12  O   UNL     1       3.576  -4.542   3.209  0.00  0.00    +0.000 OA
ATOM     13  C   UNL     1       2.287  -4.441   2.607  0.00  0.00    +0.000 C 
ENDBRANCH   8  12
BRANCH  10  14
ATOM     14  O   UNL     1       5.429  -3.333   4.891  0.00  0.00    +0.000 OA
ATOM     15  H   UNL     1       4.646  -3.875   5.088  0.00  0.00    +0.000 HD
ENDBRANCH  10  14
ENDBRANCH   4   6
ENDBRANCH   3   5
ENDBRANCH   1   3
BRANCH   1  17
ATOM     16  O   UNL     1       5.977  -5.051  -4.249  0.00  0.00    +0.000 OA
ATOM     17  C   UNL     1       5.176  -4.541  -3.469  0.00  0.00    +0.000 C 
BRANCH  17  19
ATOM     18  C   UNL     1       5.875  -5.391  -1.269  0.00  0.00    +0.000 C 
ATOM     19  C   UNL     1       4.883  -5.148  -2.138  0.00  0.00    +0.000 C 
BRANCH  18  20
ATOM     20  C   UNL     1       5.693  -5.995   0.062  0.00  0.00    +0.000 A 
ATOM     21  C   UNL     1       4.471  -6.559   0.390  0.00  0.00    +0.000 A 
ATOM     22  C   UNL     1       4.299  -7.130   1.652  0.00  0.00    +0.000 A 
ATOM     23  C   UNL     1       6.749  -5.986   0.960  0.00  0.00    +0.000 A 
ATOM     24  C   UNL     1       5.352  -7.130   2.566  0.00  0.00    +0.000 A 
ATOM     25  C   UNL     1       6.577  -6.557   2.221  0.00  0.00    +0.000 A 
BRANCH  22  26
ATOM     26  O   UNL     1       3.099  -7.687   1.977  0.00  0.00    +0.000 OA
ATOM     27  C   UNL     1       2.020  -7.478   1.068  0.00  0.00    +0.000 C 
ENDBRANCH  22  26
BRANCH  24  28
ATOM     28  O   UNL     1       5.198  -7.686   3.800  0.00  0.00    +0.000 OA
ATOM     29  H   UNL     1       4.727  -7.058   4.374  0.00  0.00    +0.000 HD
ENDBRANCH  24  28
ENDBRANCH  18  20
ENDBRANCH  17  19
ENDBRANCH   1  17
TORSDOF 10
ENDMDL
