MODEL 1
REMARK VINA RESULT:    -6.329      0.000      0.000
REMARK INTER + INTRA:          -6.329
REMARK INTER:                  -6.329
REMARK INTRA:                   0.000
REMARK CONF_INDEPENDENT:        0.000
REMARK UNBOUND:                -0.000
REMARK  Name = 
REMARK  2 active torsions:
REMARK  status: ('A' for Active; 'I' for Inactive)
REMARK    1  A    between atoms: C_6  and  C_7
REMARK    2  A    between atoms: C_13  and  C_14
REMARK                            x       y       z     vdW  Elec       q    Type
REMARK                         _______ _______ _______ _____ _____    ______ ____
ROOT
ATOM      1  C   UNL     1      -5.131   1.568  -0.191  0.00  0.00    +0.000 C 
ATOM      2  C   UNL     1      -5.346   2.416  -0.134  0.00  0.00    +0.000 C 
ATOM      3  C   UNL     1      -4.874   3.189   1.049  0.00  0.00    +0.000 C 
ATOM      4  C   UNL     1      -4.241   4.488   0.761  0.00  0.00    +0.000 C 
ATOM      5  C   UNL     1      -4.667   5.160  -0.514  0.00  0.00    +0.000 C 
ATOM      6  C   UNL     1      -4.567   4.118  -1.573  0.00  0.00    +0.000 C 
ATOM      7  C   UNL     1      -3.417   3.224  -1.347  0.00  0.00    +0.000 C 
ATOM      8  C   UNL     1      -4.644   4.662  -2.968  0.00  0.00    +0.000 C 
ATOM      9  C   UNL     1      -4.500   3.708  -3.893  0.00  0.00    +0.000 C 
ATOM     10  O   UNL     1      -3.862   3.552  -5.122  0.00  0.00    +0.000 OA
ATOM     11  C   UNL     1      -3.342   2.250  -5.155  0.00  0.00    +0.000 C 
ATOM     12  O   UNL     1      -2.224   1.871  -5.623  0.00  0.00    +0.000 OA
ATOM     13  C   UNL     1      -4.016   1.513  -4.077  0.00  0.00    +0.000 C 
ATOM     14  C   UNL     1      -4.203   0.028  -4.125  0.00  0.00    +0.000 C 
ATOM     15  C   UNL     1      -4.622   2.376  -3.278  0.00  0.00    +0.000 C 
ATOM     16  C   UNL     1      -5.746   2.113  -2.431  0.00  0.00    +0.000 C 
ATOM     17  C   UNL     1      -5.961   3.300  -1.338  0.00  0.00    +0.000 C 
ENDROOT
TORSDOF 0
ENDMDL
MODEL 2
REMARK VINA RESULT:    -5.804      3.203      5.205
REMARK INTER + INTRA:          -5.804
REMARK INTER:                  -5.804
REMARK INTRA:                   0.000
REMARK CONF_INDEPENDENT:        0.000
REMARK UNBOUND:                -0.000
REMARK  Name = 
REMARK  2 active torsions:
REMARK  status: ('A' for Active; 'I' for Inactive)
REMARK    1  A    between atoms: C_6  and  C_7
REMARK    2  A    between atoms: C_13  and  C_14
REMARK                            x       y       z     vdW  Elec       q    Type
REMARK                         _______ _______ _______ _____ _____    ______ ____
ROOT
ATOM      1  C   UNL     1      -4.453   4.795  -2.826  0.00  0.00    +0.000 C 
ATOM      2  C   UNL     1      -5.009   4.482  -2.224  0.00  0.00    +0.000 C 
ATOM      3  C   UNL     1      -5.514   3.088  -2.380  0.00  0.00    +0.000 C 
ATOM      4  C   UNL     1      -5.442   2.238  -1.179  0.00  0.00    +0.000 C 
ATOM      5  C   UNL     1      -5.477   2.957   0.140  0.00  0.00    +0.000 C 
ATOM      6  C   UNL     1      -4.469   4.048   0.033  0.00  0.00    +0.000 C 
ATOM      7  C   UNL     1      -3.294   3.625  -0.751  0.00  0.00    +0.000 C 
ATOM      8  C   UNL     1      -4.123   4.684   1.345  0.00  0.00    +0.000 C 
ATOM      9  C   UNL     1      -3.179   5.623   1.220  0.00  0.00    +0.000 C 
ATOM     10  O   UNL     1      -2.053   6.051   1.919  0.00  0.00    +0.000 OA
ATOM     11  C   UNL     1      -1.076   6.379   0.968  0.00  0.00    +0.000 C 
ATOM     12  O   UNL     1       0.172   6.150   1.024  0.00  0.00    +0.000 OA
ATOM     13  C   UNL     1      -1.780   6.500  -0.316  0.00  0.00    +0.000 C 
ATOM     14  C   UNL     1      -1.271   7.367  -1.425  0.00  0.00    +0.000 C 
ATOM     15  C   UNL     1      -2.987   5.970  -0.197  0.00  0.00    +0.000 C 
ATOM     16  C   UNL     1      -4.140   6.283  -0.988  0.00  0.00    +0.000 C 
ATOM     17  C   UNL     1      -5.314   5.173  -0.797  0.00  0.00    +0.000 C 
ENDROOT
TORSDOF 0
ENDMDL
MODEL 3
REMARK VINA RESULT:    -5.551      2.053      4.250
REMARK INTER + INTRA:          -5.551
REMARK INTER:                  -5.551
REMARK INTRA:                   0.000
REMARK CONF_INDEPENDENT:        0.000
REMARK UNBOUND:                -0.000
REMARK  Name = 
REMARK  2 active torsions:
REMARK  status: ('A' for Active; 'I' for Inactive)
REMARK    1  A    between atoms: C_6  and  C_7
REMARK    2  A    between atoms: C_13  and  C_14
REMARK                            x       y       z     vdW  Elec       q    Type
REMARK                         _______ _______ _______ _____ _____    ______ ____
ROOT
ATOM      1  C   UNL     1      -4.885   2.432   0.477  0.00  0.00    +0.000 C 
ATOM      2  C   UNL     1      -4.405   2.124  -0.188  0.00  0.00    +0.000 C 
ATOM      3  C   UNL     1      -4.604   0.709  -0.612  0.00  0.00    +0.000 C 
ATOM      4  C   UNL     1      -4.775   0.486  -2.058  0.00  0.00    +0.000 C 
ATOM      5  C   UNL     1      -4.145   1.508  -2.961  0.00  0.00    +0.000 C 
ATOM      6  C   UNL     1      -4.575   2.833  -2.434  0.00  0.00    +0.000 C 
ATOM      7  C   UNL     1      -5.955   2.790  -1.920  0.00  0.00    +0.000 C 
ATOM      8  C   UNL     1      -4.314   3.972  -3.373  0.00  0.00    +0.000 C 
ATOM      9  C   UNL     1      -4.758   5.138  -2.892  0.00  0.00    +0.000 C 
ATOM     10  O   UNL     1      -5.404   6.273  -3.375  0.00  0.00    +0.000 OA
ATOM     11  C   UNL     1      -6.322   6.675  -2.394  0.00  0.00    +0.000 C 
ATOM     12  O   UNL     1      -7.500   7.119  -2.566  0.00  0.00    +0.000 OA
ATOM     13  C   UNL     1      -5.934   5.978  -1.160  0.00  0.00    +0.000 C 
ATOM     14  C   UNL     1      -6.243   6.530   0.197  0.00  0.00    +0.000 C 
ATOM     15  C   UNL     1      -5.083   5.010  -1.462  0.00  0.00    +0.000 C 
ATOM     16  C   UNL     1      -4.112   4.422  -0.589  0.00  0.00    +0.000 C 
ATOM     17  C   UNL     1      -3.527   3.031  -1.196  0.00  0.00    +0.000 C 
ENDROOT
TORSDOF 0
ENDMDL
MODEL 4
REMARK VINA RESULT:    -5.308      3.241      4.745
REMARK INTER + INTRA:          -5.308
REMARK INTER:                  -5.308
REMARK INTRA:                   0.000
REMARK CONF_INDEPENDENT:        0.000
REMARK UNBOUND:                -0.000
REMARK  Name = 
REMARK  2 active torsions:
REMARK  status: ('A' for Active; 'I' for Inactive)
REMARK    1  A    between atoms: C_6  and  C_7
REMARK    2  A    between atoms: C_13  and  C_14
REMARK                            x       y       z     vdW  Elec       q    Type
REMARK                         _______ _______ _______ _____ _____    ______ ____
ROOT
ATOM      1  C   UNL     1      -4.874   3.539  -2.810  0.00  0.00    +0.000 C 
ATOM      2  C   UNL     1      -4.917   4.357  -2.499  0.00  0.00    +0.000 C 
ATOM      3  C   UNL     1      -5.999   5.251  -3.000  0.00  0.00    +0.000 C 
ATOM      4  C   UNL     1      -6.763   5.979  -1.971  0.00  0.00    +0.000 C 
ATOM      5  C   UNL     1      -6.041   6.245  -0.680  0.00  0.00    +0.000 C 
ATOM      6  C   UNL     1      -5.446   4.942  -0.273  0.00  0.00    +0.000 C 
ATOM      7  C   UNL     1      -6.330   3.813  -0.614  0.00  0.00    +0.000 C 
ATOM      8  C   UNL     1      -4.951   4.917   1.141  0.00  0.00    +0.000 C 
ATOM      9  C   UNL     1      -4.471   3.719   1.490  0.00  0.00    +0.000 C 
ATOM     10  O   UNL     1      -4.501   2.880   2.602  0.00  0.00    +0.000 OA
ATOM     11  C   UNL     1      -4.625   1.567   2.126  0.00  0.00    +0.000 C 
ATOM     12  O   UNL     1      -5.329   0.627   2.609  0.00  0.00    +0.000 OA
ATOM     13  C   UNL     1      -4.282   1.616   0.697  0.00  0.00    +0.000 C 
ATOM     14  C   UNL     1      -3.731   0.429  -0.030  0.00  0.00    +0.000 C 
ATOM     15  C   UNL     1      -4.282   2.877   0.297  0.00  0.00    +0.000 C 
ATOM     16  C   UNL     1      -3.566   3.421  -0.818  0.00  0.00    +0.000 C 
ATOM     17  C   UNL     1      -4.109   4.903  -1.211  0.00  0.00    +0.000 C 
ENDROOT
TORSDOF 0
ENDMDL
MODEL 5
REMARK VINA RESULT:    -5.306      1.830      2.997
REMARK INTER + INTRA:          -5.306
REMARK INTER:                  -5.306
REMARK INTRA:                   0.000
REMARK CONF_INDEPENDENT:        0.000
REMARK UNBOUND:                -0.000
REMARK  Name = 
REMARK  2 active torsions:
REMARK  status: ('A' for Active; 'I' for Inactive)
REMARK    1  A    between atoms: C_6  and  C_7
REMARK    2  A    between atoms: C_13  and  C_14
REMARK                            x       y       z     vdW  Elec       q    Type
REMARK                         _______ _______ _______ _____ _____    ______ ____
ROOT
ATOM      1  C   UNL     1      -3.999  -0.090  -1.972  0.00  0.00    +0.000 C 
ATOM      2  C   UNL     1      -4.510   0.020  -1.268  0.00  0.00    +0.000 C 
ATOM      3  C   UNL     1      -4.000  -0.433   0.057  0.00  0.00    +0.000 C 
ATOM      4  C   UNL     1      -4.125   0.534   1.162  0.00  0.00    +0.000 C 
ATOM      5  C   UNL     1      -5.235   1.538   1.035  0.00  0.00    +0.000 C 
ATOM      6  C   UNL     1      -5.114   2.104  -0.337  0.00  0.00    +0.000 C 
ATOM      7  C   UNL     1      -3.704   2.239  -0.744  0.00  0.00    +0.000 C 
ATOM      8  C   UNL     1      -5.927   3.344  -0.555  0.00  0.00    +0.000 C 
ATOM      9  C   UNL     1      -5.755   3.855  -1.779  0.00  0.00    +0.000 C 
ATOM     10  O   UNL     1      -5.622   5.113  -2.361  0.00  0.00    +0.000 OA
ATOM     11  C   UNL     1      -4.660   4.999  -3.375  0.00  0.00    +0.000 C 
ATOM     12  O   UNL     1      -3.751   5.832  -3.682  0.00  0.00    +0.000 OA
ATOM     13  C   UNL     1      -4.507   3.561  -3.634  0.00  0.00    +0.000 C 
ATOM     14  C   UNL     1      -4.060   3.035  -4.962  0.00  0.00    +0.000 C 
ATOM     15  C   UNL     1      -5.070   2.883  -2.646  0.00  0.00    +0.000 C 
ATOM     16  C   UNL     1      -5.574   1.544  -2.707  0.00  0.00    +0.000 C 
ATOM     17  C   UNL     1      -5.838   0.938  -1.221  0.00  0.00    +0.000 C 
ENDROOT
TORSDOF 0
ENDMDL
MODEL 6
REMARK VINA RESULT:    -5.225      2.715      5.145
REMARK INTER + INTRA:          -5.225
REMARK INTER:                  -5.225
REMARK INTRA:                   0.000
REMARK CONF_INDEPENDENT:        0.000
REMARK UNBOUND:                -0.000
REMARK  Name = 
REMARK  2 active torsions:
REMARK  status: ('A' for Active; 'I' for Inactive)
REMARK    1  A    between atoms: C_6  and  C_7
REMARK    2  A    between atoms: C_13  and  C_14
REMARK                            x       y       z     vdW  Elec       q    Type
REMARK                         _______ _______ _______ _____ _____    ______ ____
ROOT
ATOM      1  C   UNL     1      -4.435   3.449  -3.766  0.00  0.00    +0.000 C 
ATOM      2  C   UNL     1      -4.464   2.620  -4.051  0.00  0.00    +0.000 C 
ATOM      3  C   UNL     1      -3.369   2.137  -4.938  0.00  0.00    +0.000 C 
ATOM      4  C   UNL     1      -2.764   0.844  -4.572  0.00  0.00    +0.000 C 
ATOM      5  C   UNL     1      -3.645  -0.101  -3.804  0.00  0.00    +0.000 C 
ATOM      6  C   UNL     1      -4.228   0.703  -2.694  0.00  0.00    +0.000 C 
ATOM      7  C   UNL     1      -3.264   1.686  -2.172  0.00  0.00    +0.000 C 
ATOM      8  C   UNL     1      -4.886  -0.123  -1.630  0.00  0.00    +0.000 C 
ATOM      9  C   UNL     1      -5.353   0.625  -0.624  0.00  0.00    +0.000 C 
ATOM     10  O   UNL     1      -5.420   0.557   0.765  0.00  0.00    +0.000 OA
ATOM     11  C   UNL     1      -5.186   1.850   1.254  0.00  0.00    +0.000 C 
ATOM     12  O   UNL     1      -4.504   2.185   2.272  0.00  0.00    +0.000 OA
ATOM     13  C   UNL     1      -5.358   2.757   0.110  0.00  0.00    +0.000 C 
ATOM     14  C   UNL     1      -5.768   4.186   0.283  0.00  0.00    +0.000 C 
ATOM     15  C   UNL     1      -5.363   2.046  -1.006  0.00  0.00    +0.000 C 
ATOM     16  C   UNL     1      -5.964   2.416  -2.252  0.00  0.00    +0.000 C 
ATOM     17  C   UNL     1      -5.442   1.473  -3.471  0.00  0.00    +0.000 C 
ENDROOT
TORSDOF 0
ENDMDL
MODEL 7
REMARK VINA RESULT:    -5.139      2.267      3.376
REMARK INTER + INTRA:          -5.139
REMARK INTER:                  -5.139
REMARK INTRA:                   0.000
REMARK CONF_INDEPENDENT:        0.000
REMARK UNBOUND:                -0.000
REMARK  Name = 
REMARK  2 active torsions:
REMARK  status: ('A' for Active; 'I' for Inactive)
REMARK    1  A    between atoms: C_6  and  C_7
REMARK    2  A    between atoms: C_13  and  C_14
REMARK                            x       y       z     vdW  Elec       q    Type
REMARK                         _______ _______ _______ _____ _____    ______ ____
ROOT
ATOM      1  C   UNL     1      -1.973  -0.724  -1.322  0.00  0.00    +0.000 C 
ATOM      2  C   UNL     1      -2.770  -0.855  -0.982  0.00  0.00    +0.000 C 
ATOM      3  C   UNL     1      -2.947  -0.703   0.490  0.00  0.00    +0.000 C 
ATOM      4  C   UNL     1      -4.087   0.123   0.922  0.00  0.00    +0.000 C 
ATOM      5  C   UNL     1      -5.246   0.196  -0.032  0.00  0.00    +0.000 C 
ATOM      6  C   UNL     1      -4.655   0.516  -1.361  0.00  0.00    +0.000 C 
ATOM      7  C   UNL     1      -3.509   1.433  -1.238  0.00  0.00    +0.000 C 
ATOM      8  C   UNL     1      -5.664   0.942  -2.385  0.00  0.00    +0.000 C 
ATOM      9  C   UNL     1      -5.095   1.270  -3.550  0.00  0.00    +0.000 C 
ATOM     10  O   UNL     1      -5.251   2.244  -4.534  0.00  0.00    +0.000 OA
ATOM     11  C   UNL     1      -3.966   2.607  -4.962  0.00  0.00    +0.000 C 
ATOM     12  O   UNL     1      -3.541   3.769  -5.248  0.00  0.00    +0.000 OA
ATOM     13  C   UNL     1      -3.061   1.552  -4.482  0.00  0.00    +0.000 C 
ATOM     14  C   UNL     1      -1.772   1.234  -5.174  0.00  0.00    +0.000 C 
ATOM     15  C   UNL     1      -3.694   0.820  -3.580  0.00  0.00    +0.000 C 
ATOM     16  C   UNL     1      -3.403  -0.536  -3.223  0.00  0.00    +0.000 C 
ATOM     17  C   UNL     1      -4.138  -0.959  -1.835  0.00  0.00    +0.000 C 
ENDROOT
TORSDOF 0
ENDMDL
MODEL 8
REMARK VINA RESULT:    -5.098      1.988      3.301
REMARK INTER + INTRA:          -5.098
REMARK INTER:                  -5.098
REMARK INTRA:                   0.000
REMARK CONF_INDEPENDENT:        0.000
REMARK UNBOUND:                -0.000
REMARK  Name = 
REMARK  2 active torsions:
REMARK  status: ('A' for Active; 'I' for Inactive)
REMARK    1  A    between atoms: C_6  and  C_7
REMARK    2  A    between atoms: C_13  and  C_14
REMARK                            x       y       z     vdW  Elec       q    Type
REMARK                         _______ _______ _______ _____ _____    ______ ____
ROOT
ATOM      1  C   UNL     1      -2.707   1.888  -0.821  0.00  0.00    +0.000 C 
ATOM      2  C   UNL     1      -3.563   1.711  -0.882  0.00  0.00    +0.000 C 
ATOM      3  C   UNL     1      -4.535   2.806  -0.601  0.00  0.00    +0.000 C 
ATOM      4  C   UNL     1      -5.609   2.986  -1.594  0.00  0.00    +0.000 C 
ATOM      5  C   UNL     1      -5.989   1.764  -2.382  0.00  0.00    +0.000 C 
ATOM      6  C   UNL     1      -4.708   1.191  -2.880  0.00  0.00    +0.000 C 
ATOM      7  C   UNL     1      -3.742   2.247  -3.233  0.00  0.00    +0.000 C 
ATOM      8  C   UNL     1      -4.884   0.152  -3.946  0.00  0.00    +0.000 C 
ATOM      9  C   UNL     1      -3.715  -0.305  -4.407  0.00  0.00    +0.000 C 
ATOM     10  O   UNL     1      -3.158  -0.660  -5.634  0.00  0.00    +0.000 OA
ATOM     11  C   UNL     1      -1.829  -0.213  -5.630  0.00  0.00    +0.000 C 
ATOM     12  O   UNL     1      -1.183   0.314  -6.588  0.00  0.00    +0.000 OA
ATOM     13  C   UNL     1      -1.499   0.074  -4.227  0.00  0.00    +0.000 C 
ATOM     14  C   UNL     1      -0.095   0.006  -3.710  0.00  0.00    +0.000 C 
ATOM     15  C   UNL     1      -2.617   0.114  -3.520  0.00  0.00    +0.000 C 
ATOM     16  C   UNL     1      -2.747  -0.117  -2.113  0.00  0.00    +0.000 C 
ATOM     17  C   UNL     1      -4.192   0.385  -1.557  0.00  0.00    +0.000 C 
ENDROOT
TORSDOF 0
ENDMDL
MODEL 9
REMARK VINA RESULT:    -5.062      3.071      4.793
REMARK INTER + INTRA:          -5.062
REMARK INTER:                  -5.062
REMARK INTRA:                   0.000
REMARK CONF_INDEPENDENT:        0.000
REMARK UNBOUND:                -0.000
REMARK  Name = 
REMARK  2 active torsions:
REMARK  status: ('A' for Active; 'I' for Inactive)
REMARK    1  A    between atoms: C_6  and  C_7
REMARK    2  A    between atoms: C_13  and  C_14
REMARK                            x       y       z     vdW  Elec       q    Type
REMARK                         _______ _______ _______ _____ _____    ______ ____
ROOT
ATOM      1  C   UNL     1      -4.502   1.218  -3.202  0.00  0.00    +0.000 C 
ATOM      2  C   UNL     1      -4.141   1.998  -3.030  0.00  0.00    +0.000 C 
ATOM      3  C   UNL     1      -4.501   3.154  -3.901  0.00  0.00    +0.000 C 
ATOM      4  C   UNL     1      -4.884   4.393  -3.203  0.00  0.00    +0.000 C 
ATOM      5  C   UNL     1      -4.308   4.579  -1.827  0.00  0.00    +0.000 C 
ATOM      6  C   UNL     1      -4.562   3.301  -1.106  0.00  0.00    +0.000 C 
ATOM      7  C   UNL     1      -5.858   2.713  -1.486  0.00  0.00    +0.000 C 
ATOM      8  C   UNL     1      -4.347   3.388   0.375  0.00  0.00    +0.000 C 
ATOM      9  C   UNL     1      -4.633   2.239   0.996  0.00  0.00    +0.000 C 
ATOM     10  O   UNL     1      -5.252   1.832   2.176  0.00  0.00    +0.000 OA
ATOM     11  C   UNL     1      -5.996   0.681   1.877  0.00  0.00    +0.000 C 
ATOM     12  O   UNL     1      -7.150   0.367   2.305  0.00  0.00    +0.000 OA
ATOM     13  C   UNL     1      -5.496   0.197   0.582  0.00  0.00    +0.000 C 
ATOM     14  C   UNL     1      -5.576  -1.245   0.188  0.00  0.00    +0.000 C 
ATOM     15  C   UNL     1      -4.769   1.148   0.018  0.00  0.00    +0.000 C 
ATOM     16  C   UNL     1      -3.735   0.969  -0.957  0.00  0.00    +0.000 C 
ATOM     17  C   UNL     1      -3.344   2.374  -1.677  0.00  0.00    +0.000 C 
ENDROOT
TORSDOF 0
ENDMDL
