MODEL 1
REMARK VINA RESULT:    10.059      0.000      0.000
REMARK INTER + INTRA:           9.484
REMARK INTER:                   9.463
REMARK INTRA:                   0.021
REMARK CONF_INDEPENDENT:        0.597
REMARK UNBOUND:                -0.021
REMARK  Name = 2353
REMARK  4 active torsions:
REMARK  status: ('A' for Active; 'I' for Inactive)
REMARK    1  A    between atoms: O_3  and  C_19
REMARK    2  A    between atoms: O_3  and  C_24
REMARK    3  A    between atoms: O_4  and  C_21
REMARK    4  A    between atoms: O_4  and  C_25
REMARK                            x       y       z     vdW  Elec       q    Type
REMARK                         _______ _______ _______ _____ _____    ______ ____
ROOT
ATOM      1  O   UNL     1      -6.330  -6.789  -5.053  0.00  0.00    +0.000 OA
ATOM      2  O   UNL     1      -6.936  -4.609  -5.879  0.00  0.00    +0.000 OA
ATOM      3  N   UNL     1      -1.726  -2.721  -3.360  0.00  0.00    +0.000 N 
ATOM      4  C   UNL     1      -1.198  -4.110  -3.370  0.00  0.00    +0.000 C 
ATOM      5  C   UNL     1      -2.252  -5.061  -2.836  0.00  0.00    +0.000 C 
ATOM      6  C   UNL     1      -3.006  -2.449  -3.748  0.00  0.00    +0.000 A 
ATOM      7  C   UNL     1      -3.503  -4.905  -3.653  0.00  0.00    +0.000 A 
ATOM      8  C   UNL     1      -3.853  -3.603  -4.107  0.00  0.00    +0.000 A 
ATOM      9  C   UNL     1      -0.878  -1.729  -3.005  0.00  0.00    +0.000 A 
ATOM     10  C   UNL     1      -3.445  -1.114  -3.749  0.00  0.00    +0.000 A 
ATOM     11  C   UNL     1      -1.271  -0.392  -2.998  0.00  0.00    +0.000 A 
ATOM     12  C   UNL     1      -2.584  -0.075  -3.376  0.00  0.00    +0.000 A 
ATOM     13  C   UNL     1      -4.307  -6.022  -3.926  0.00  0.00    +0.000 A 
ATOM     14  C   UNL     1      -5.022  -3.465  -4.883  0.00  0.00    +0.000 A 
ATOM     15  C   UNL     1      -5.441  -5.828  -4.681  0.00  0.00    +0.000 A 
ATOM     16  C   UNL     1      -5.786  -4.586  -5.150  0.00  0.00    +0.000 A 
ATOM     17  C   UNL     1      -0.390   0.636  -2.623  0.00  0.00    +0.000 A 
ATOM     18  C   UNL     1      -2.998   1.267  -3.370  0.00  0.00    +0.000 A 
ATOM     19  C   UNL     1      -0.813   1.966  -2.623  0.00  0.00    +0.000 A 
ATOM     20  C   UNL     1      -7.275  -6.008  -5.813  0.00  0.00    +0.000 C 
ATOM     21  C   UNL     1      -2.116   2.282  -2.996  0.00  0.00    +0.000 A 
ENDROOT
BRANCH  17  22
ATOM     22  O   UNL     1       0.895   0.356  -2.251  0.00  0.00    +0.000 OA
ATOM     23  C   UNL     1       1.437   1.124  -1.181  0.00  0.00    +0.000 C 
ENDBRANCH  17  22
BRANCH  19  24
ATOM     24  O   UNL     1       0.039   2.965  -2.259  0.00  0.00    +0.000 OA
ATOM     25  C   UNL     1       0.746   3.628  -3.306  0.00  0.00    +0.000 C 
ENDBRANCH  19  24
TORSDOF 2
ENDMDL
