MODEL 1
REMARK VINA RESULT:    -7.869      0.000      0.000
REMARK INTER + INTRA:          -8.806
REMARK INTER:                  -8.465
REMARK INTRA:                  -0.341
REMARK CONF_INDEPENDENT:        0.597
REMARK UNBOUND:                 0.341
REMARK  Name = 2353
REMARK  4 active torsions:
REMARK  status: ('A' for Active; 'I' for Inactive)
REMARK    1  A    between atoms: O_3  and  C_19
REMARK    2  A    between atoms: O_3  and  C_24
REMARK    3  A    between atoms: O_4  and  C_21
REMARK    4  A    between atoms: O_4  and  C_25
REMARK                            x       y       z     vdW  Elec       q    Type
REMARK                         _______ _______ _______ _____ _____    ______ ____
ROOT
ATOM      1  O   UNL     1       5.680  -5.691  -3.187  0.00  0.00    +0.000 OA
ATOM      2  O   UNL     1       5.899  -3.688  -1.867  0.00  0.00    +0.000 OA
ATOM      3  N   UNL     1       1.617  -6.132   1.703  0.00  0.00    +0.000 N 
ATOM      4  C   UNL     1       1.927  -7.485   1.177  0.00  0.00    +0.000 C 
ATOM      5  C   UNL     1       2.025  -7.437  -0.336  0.00  0.00    +0.000 C 
ATOM      6  C   UNL     1       2.224  -5.020   1.195  0.00  0.00    +0.000 A 
ATOM      7  C   UNL     1       3.052  -6.410  -0.721  0.00  0.00    +0.000 A 
ATOM      8  C   UNL     1       3.144  -5.224   0.059  0.00  0.00    +0.000 A 
ATOM      9  C   UNL     1       0.752  -6.043   2.739  0.00  0.00    +0.000 A 
ATOM     10  C   UNL     1       1.917  -3.765   1.749  0.00  0.00    +0.000 A 
ATOM     11  C   UNL     1       0.424  -4.820   3.321  0.00  0.00    +0.000 A 
ATOM     12  C   UNL     1       1.018  -3.654   2.816  0.00  0.00    +0.000 A 
ATOM     13  C   UNL     1       3.871  -6.622  -1.841  0.00  0.00    +0.000 A 
ATOM     14  C   UNL     1       4.118  -4.270  -0.301  0.00  0.00    +0.000 A 
ATOM     15  C   UNL     1       4.799  -5.654  -2.151  0.00  0.00    +0.000 A 
ATOM     16  C   UNL     1       4.921  -4.513  -1.399  0.00  0.00    +0.000 A 
ATOM     17  C   UNL     1      -0.479  -4.729   4.394  0.00  0.00    +0.000 A 
ATOM     18  C   UNL     1       0.695  -2.412   3.389  0.00  0.00    +0.000 A 
ATOM     19  C   UNL     1      -0.790  -3.490   4.955  0.00  0.00    +0.000 A 
ATOM     20  C   UNL     1       6.375  -4.442  -3.000  0.00  0.00    +0.000 C 
ATOM     21  C   UNL     1      -0.204  -2.332   4.453  0.00  0.00    +0.000 A 
ENDROOT
BRANCH  17  22
ATOM     22  O   UNL     1      -1.071  -5.849   4.906  0.00  0.00    +0.000 OA
ATOM     23  C   UNL     1      -0.333  -6.579   5.881  0.00  0.00    +0.000 C 
ENDBRANCH  17  22
BRANCH  19  24
ATOM     24  O   UNL     1      -1.666  -3.399   5.994  0.00  0.00    +0.000 OA
ATOM     25  C   UNL     1      -2.250  -2.121   6.240  0.00  0.00    +0.000 C 
ENDBRANCH  19  24
TORSDOF 2
ENDMDL
MODEL 2
REMARK VINA RESULT:    -7.843      2.755      5.235
REMARK INTER + INTRA:          -8.709
REMARK INTER:                  -8.440
REMARK INTRA:                  -0.270
REMARK CONF_INDEPENDENT:        0.597
REMARK UNBOUND:                 0.270
REMARK  Name = 2353
REMARK  4 active torsions:
REMARK  status: ('A' for Active; 'I' for Inactive)
REMARK    1  A    between atoms: O_3  and  C_19
REMARK    2  A    between atoms: O_3  and  C_24
REMARK    3  A    between atoms: O_4  and  C_21
REMARK    4  A    between atoms: O_4  and  C_25
REMARK                            x       y       z     vdW  Elec       q    Type
REMARK                         _______ _______ _______ _____ _____    ______ ____
ROOT
ATOM      1  O   UNL     1       7.350  -1.875  -6.423  0.00  0.00    +0.000 OA
ATOM      2  O   UNL     1       5.513  -3.381  -6.816  0.00  0.00    +0.000 OA
ATOM      3  N   UNL     1       4.649  -3.158  -0.795  0.00  0.00    +0.000 N 
ATOM      4  C   UNL     1       5.400  -1.879  -0.718  0.00  0.00    +0.000 C 
ATOM      5  C   UNL     1       6.685  -1.991  -1.516  0.00  0.00    +0.000 C 
ATOM      6  C   UNL     1       4.547  -3.847  -1.968  0.00  0.00    +0.000 A 
ATOM      7  C   UNL     1       6.346  -2.387  -2.925  0.00  0.00    +0.000 A 
ATOM      8  C   UNL     1       5.273  -3.298  -3.130  0.00  0.00    +0.000 A 
ATOM      9  C   UNL     1       4.025  -3.589   0.324  0.00  0.00    +0.000 A 
ATOM     10  C   UNL     1       3.798  -5.037  -1.994  0.00  0.00    +0.000 A 
ATOM     11  C   UNL     1       3.268  -4.759   0.342  0.00  0.00    +0.000 A 
ATOM     12  C   UNL     1       3.153  -5.502  -0.843  0.00  0.00    +0.000 A 
ATOM     13  C   UNL     1       7.098  -1.880  -3.997  0.00  0.00    +0.000 A 
ATOM     14  C   UNL     1       4.953  -3.656  -4.455  0.00  0.00    +0.000 A 
ATOM     15  C   UNL     1       6.746  -2.269  -5.269  0.00  0.00    +0.000 A 
ATOM     16  C   UNL     1       5.700  -3.129  -5.492  0.00  0.00    +0.000 A 
ATOM     17  C   UNL     1       2.625  -5.208   1.507  0.00  0.00    +0.000 A 
ATOM     18  C   UNL     1       2.397  -6.687  -0.841  0.00  0.00    +0.000 A 
ATOM     19  C   UNL     1       1.877  -6.385   1.495  0.00  0.00    +0.000 A 
ATOM     20  C   UNL     1       6.561  -2.583  -7.400  0.00  0.00    +0.000 C 
ATOM     21  C   UNL     1       1.763  -7.125   0.322  0.00  0.00    +0.000 A 
ENDROOT
BRANCH  17  22
ATOM     22  O   UNL     1       2.720  -4.503   2.674  0.00  0.00    +0.000 OA
ATOM     23  C   UNL     1       2.012  -3.269   2.741  0.00  0.00    +0.000 C 
ENDBRANCH  17  22
BRANCH  19  24
ATOM     24  O   UNL     1       1.253  -6.823   2.624  0.00  0.00    +0.000 OA
ATOM     25  C   UNL     1       0.242  -5.980   3.175  0.00  0.00    +0.000 C 
ENDBRANCH  19  24
TORSDOF 2
ENDMDL
MODEL 3
REMARK VINA RESULT:    -7.399      2.187      8.061
REMARK INTER + INTRA:          -8.356
REMARK INTER:                  -7.996
REMARK INTRA:                  -0.360
REMARK CONF_INDEPENDENT:        0.597
REMARK UNBOUND:                 0.360
REMARK  Name = 2353
REMARK  4 active torsions:
REMARK  status: ('A' for Active; 'I' for Inactive)
REMARK    1  A    between atoms: O_3  and  C_19
REMARK    2  A    between atoms: O_3  and  C_24
REMARK    3  A    between atoms: O_4  and  C_21
REMARK    4  A    between atoms: O_4  and  C_25
REMARK                            x       y       z     vdW  Elec       q    Type
REMARK                         _______ _______ _______ _____ _____    ______ ____
ROOT
ATOM      1  O   UNL     1       0.649  -6.657   4.055  0.00  0.00    +0.000 OA
ATOM      2  O   UNL     1       1.583  -4.444   4.220  0.00  0.00    +0.000 OA
ATOM      3  N   UNL     1       3.438  -5.303  -1.513  0.00  0.00    +0.000 N 
ATOM      4  C   UNL     1       2.419  -6.366  -1.701  0.00  0.00    +0.000 C 
ATOM      5  C   UNL     1       2.441  -7.313  -0.516  0.00  0.00    +0.000 C 
ATOM      6  C   UNL     1       3.624  -4.710  -0.298  0.00  0.00    +0.000 A 
ATOM      7  C   UNL     1       2.232  -6.517   0.741  0.00  0.00    +0.000 A 
ATOM      8  C   UNL     1       2.816  -5.223   0.825  0.00  0.00    +0.000 A 
ATOM      9  C   UNL     1       4.140  -4.905  -2.599  0.00  0.00    +0.000 A 
ATOM     10  C   UNL     1       4.581  -3.687  -0.181  0.00  0.00    +0.000 A 
ATOM     11  C   UNL     1       5.094  -3.892  -2.528  0.00  0.00    +0.000 A 
ATOM     12  C   UNL     1       5.322  -3.269  -1.292  0.00  0.00    +0.000 A 
ATOM     13  C   UNL     1       1.500  -7.067   1.806  0.00  0.00    +0.000 A 
ATOM     14  C   UNL     1       2.606  -4.478   2.003  0.00  0.00    +0.000 A 
ATOM     15  C   UNL     1       1.333  -6.298   2.935  0.00  0.00    +0.000 A 
ATOM     16  C   UNL     1       1.867  -5.037   3.028  0.00  0.00    +0.000 A 
ATOM     17  C   UNL     1       5.825  -3.484  -3.656  0.00  0.00    +0.000 A 
ATOM     18  C   UNL     1       6.283  -2.248  -1.203  0.00  0.00    +0.000 A 
ATOM     19  C   UNL     1       6.776  -2.468  -3.554  0.00  0.00    +0.000 A 
ATOM     20  C   UNL     1       0.811  -5.476   4.865  0.00  0.00    +0.000 C 
ATOM     21  C   UNL     1       7.006  -1.850  -2.329  0.00  0.00    +0.000 A 
ENDROOT
BRANCH  17  22
ATOM     22  O   UNL     1       5.622  -4.074  -4.872  0.00  0.00    +0.000 OA
ATOM     23  C   UNL     1       4.807  -3.368  -5.802  0.00  0.00    +0.000 C 
ENDBRANCH  17  22
BRANCH  19  24
ATOM     24  O   UNL     1       7.488  -2.072  -4.647  0.00  0.00    +0.000 OA
ATOM     25  C   UNL     1       7.337  -0.714  -5.060  0.00  0.00    +0.000 C 
ENDBRANCH  19  24
TORSDOF 2
ENDMDL
MODEL 4
REMARK VINA RESULT:    -6.564      1.838      2.239
REMARK INTER + INTRA:          -7.389
REMARK INTER:                  -7.161
REMARK INTRA:                  -0.229
REMARK CONF_INDEPENDENT:        0.597
REMARK UNBOUND:                 0.229
REMARK  Name = 2353
REMARK  4 active torsions:
REMARK  status: ('A' for Active; 'I' for Inactive)
REMARK    1  A    between atoms: O_3  and  C_19
REMARK    2  A    between atoms: O_3  and  C_24
REMARK    3  A    between atoms: O_4  and  C_21
REMARK    4  A    between atoms: O_4  and  C_25
REMARK                            x       y       z     vdW  Elec       q    Type
REMARK                         _______ _______ _______ _____ _____    ______ ____
ROOT
ATOM      1  O   UNL     1       6.001  -3.523  -4.716  0.00  0.00    +0.000 OA
ATOM      2  O   UNL     1       6.631  -2.107  -2.872  0.00  0.00    +0.000 OA
ATOM      3  N   UNL     1       2.896  -5.573   0.459  0.00  0.00    +0.000 N 
ATOM      4  C   UNL     1       2.987  -6.664  -0.545  0.00  0.00    +0.000 C 
ATOM      5  C   UNL     1       2.805  -6.095  -1.939  0.00  0.00    +0.000 C 
ATOM      6  C   UNL     1       3.491  -4.364   0.243  0.00  0.00    +0.000 A 
ATOM      7  C   UNL     1       3.826  -5.014  -2.156  0.00  0.00    +0.000 A 
ATOM      8  C   UNL     1       4.163  -4.174  -1.058  0.00  0.00    +0.000 A 
ATOM      9  C   UNL     1       2.250  -5.836   1.617  0.00  0.00    +0.000 A 
ATOM     10  C   UNL     1       3.401  -3.375   1.238  0.00  0.00    +0.000 A 
ATOM     11  C   UNL     1       2.142  -4.888   2.632  0.00  0.00    +0.000 A 
ATOM     12  C   UNL     1       2.728  -3.627   2.439  0.00  0.00    +0.000 A 
ATOM     13  C   UNL     1       4.401  -4.836  -3.424  0.00  0.00    +0.000 A 
ATOM     14  C   UNL     1       5.130  -3.170  -1.265  0.00  0.00    +0.000 A 
ATOM     15  C   UNL     1       5.334  -3.835  -3.571  0.00  0.00    +0.000 A 
ATOM     16  C   UNL     1       5.691  -3.028  -2.520  0.00  0.00    +0.000 A 
ATOM     17  C   UNL     1       1.465  -5.161   3.832  0.00  0.00    +0.000 A 
ATOM     18  C   UNL     1       2.625  -2.658   3.451  0.00  0.00    +0.000 A 
ATOM     19  C   UNL     1       1.371  -4.190   4.830  0.00  0.00    +0.000 A 
ATOM     20  C   UNL     1       6.822  -2.427  -4.264  0.00  0.00    +0.000 C 
ATOM     21  C   UNL     1       1.950  -2.939   4.640  0.00  0.00    +0.000 A 
ENDROOT
BRANCH  17  22
ATOM     22  O   UNL     1       0.886  -6.380   4.047  0.00  0.00    +0.000 OA
ATOM     23  C   UNL     1      -0.479  -6.382   4.452  0.00  0.00    +0.000 C 
ENDBRANCH  17  22
BRANCH  19  24
ATOM     24  O   UNL     1       0.715  -4.452   5.994  0.00  0.00    +0.000 OA
ATOM     25  C   UNL     1       1.501  -4.505   7.184  0.00  0.00    +0.000 C 
ENDBRANCH  19  24
TORSDOF 2
ENDMDL
MODEL 5
REMARK VINA RESULT:    -6.530      1.661      7.794
REMARK INTER + INTRA:          -7.461
REMARK INTER:                  -7.126
REMARK INTRA:                  -0.335
REMARK CONF_INDEPENDENT:        0.597
REMARK UNBOUND:                 0.335
REMARK  Name = 2353
REMARK  4 active torsions:
REMARK  status: ('A' for Active; 'I' for Inactive)
REMARK    1  A    between atoms: O_3  and  C_19
REMARK    2  A    between atoms: O_3  and  C_24
REMARK    3  A    between atoms: O_4  and  C_21
REMARK    4  A    between atoms: O_4  and  C_25
REMARK                            x       y       z     vdW  Elec       q    Type
REMARK                         _______ _______ _______ _____ _____    ______ ____
ROOT
ATOM      1  O   UNL     1      -0.348  -4.992   5.512  0.00  0.00    +0.000 OA
ATOM      2  O   UNL     1       0.537  -2.793   5.089  0.00  0.00    +0.000 OA
ATOM      3  N   UNL     1       2.935  -5.235   0.056  0.00  0.00    +0.000 N 
ATOM      4  C   UNL     1       1.952  -6.347   0.106  0.00  0.00    +0.000 C 
ATOM      5  C   UNL     1       1.875  -6.899   1.517  0.00  0.00    +0.000 C 
ATOM      6  C   UNL     1       2.998  -4.302   1.049  0.00  0.00    +0.000 A 
ATOM      7  C   UNL     1       1.538  -5.776   2.457  0.00  0.00    +0.000 A 
ATOM      8  C   UNL     1       2.094  -4.492   2.201  0.00  0.00    +0.000 A 
ATOM      9  C   UNL     1       3.730  -5.149  -1.035  0.00  0.00    +0.000 A 
ATOM     10  C   UNL     1       3.926  -3.252   0.937  0.00  0.00    +0.000 A 
ATOM     11  C   UNL     1       4.660  -4.122  -1.189  0.00  0.00    +0.000 A 
ATOM     12  C   UNL     1       4.763  -3.152  -0.180  0.00  0.00    +0.000 A 
ATOM     13  C   UNL     1       0.716  -6.015   3.570  0.00  0.00    +0.000 A 
ATOM     14  C   UNL     1       1.764  -3.441   3.079  0.00  0.00    +0.000 A 
ATOM     15  C   UNL     1       0.434  -4.953   4.399  0.00  0.00    +0.000 A 
ATOM     16  C   UNL     1       0.940  -3.701   4.158  0.00  0.00    +0.000 A 
ATOM     17  C   UNL     1       5.489  -4.037  -2.320  0.00  0.00    +0.000 A 
ATOM     18  C   UNL     1       5.697  -2.112  -0.318  0.00  0.00    +0.000 A 
ATOM     19  C   UNL     1       6.412  -2.999  -2.445  0.00  0.00    +0.000 A 
ATOM     20  C   UNL     1      -0.279  -3.618   5.944  0.00  0.00    +0.000 C 
ATOM     21  C   UNL     1       6.517  -2.037  -1.445  0.00  0.00    +0.000 A 
ENDROOT
BRANCH  17  22
ATOM     22  O   UNL     1       5.409  -4.968  -3.317  0.00  0.00    +0.000 OA
ATOM     23  C   UNL     1       4.294  -4.874  -4.198  0.00  0.00    +0.000 C 
ENDBRANCH  17  22
BRANCH  19  24
ATOM     24  O   UNL     1       7.218  -2.915  -3.540  0.00  0.00    +0.000 OA
ATOM     25  C   UNL     1       7.404  -1.620  -4.111  0.00  0.00    +0.000 C 
ENDBRANCH  19  24
TORSDOF 2
ENDMDL
MODEL 6
REMARK VINA RESULT:    -6.222      2.495      4.453
REMARK INTER + INTRA:          -7.156
REMARK INTER:                  -6.819
REMARK INTRA:                  -0.337
REMARK CONF_INDEPENDENT:        0.597
REMARK UNBOUND:                 0.337
REMARK  Name = 2353
REMARK  4 active torsions:
REMARK  status: ('A' for Active; 'I' for Inactive)
REMARK    1  A    between atoms: O_3  and  C_19
REMARK    2  A    between atoms: O_3  and  C_24
REMARK    3  A    between atoms: O_4  and  C_21
REMARK    4  A    between atoms: O_4  and  C_25
REMARK                            x       y       z     vdW  Elec       q    Type
REMARK                         _______ _______ _______ _____ _____    ______ ____
ROOT
ATOM      1  O   UNL     1       7.199  -1.918  -5.274  0.00  0.00    +0.000 OA
ATOM      2  O   UNL     1       5.289  -3.356  -5.559  0.00  0.00    +0.000 OA
ATOM      3  N   UNL     1       4.442  -2.642   0.426  0.00  0.00    +0.000 N 
ATOM      4  C   UNL     1       5.256  -1.400   0.410  0.00  0.00    +0.000 C 
ATOM      5  C   UNL     1       6.533  -1.635  -0.373  0.00  0.00    +0.000 C 
ATOM      6  C   UNL     1       4.305  -3.411  -0.693  0.00  0.00    +0.000 A 
ATOM      7  C   UNL     1       6.173  -2.117  -1.750  0.00  0.00    +0.000 A 
ATOM      8  C   UNL     1       5.056  -2.987  -1.890  0.00  0.00    +0.000 A 
ATOM      9  C   UNL     1       3.798  -2.957   1.573  0.00  0.00    +0.000 A 
ATOM     10  C   UNL     1       3.497  -4.561  -0.632  0.00  0.00    +0.000 A 
ATOM     11  C   UNL     1       2.984  -4.084   1.675  0.00  0.00    +0.000 A 
ATOM     12  C   UNL     1       2.830  -4.906   0.549  0.00  0.00    +0.000 A 
ATOM     13  C   UNL     1       6.949  -1.730  -2.854  0.00  0.00    +0.000 A 
ATOM     14  C   UNL     1       4.718  -3.426  -3.186  0.00  0.00    +0.000 A 
ATOM     15  C   UNL     1       6.577  -2.195  -4.095  0.00  0.00    +0.000 A 
ATOM     16  C   UNL     1       5.489  -3.015  -4.256  0.00  0.00    +0.000 A 
ATOM     17  C   UNL     1       2.320  -4.412   2.869  0.00  0.00    +0.000 A 
ATOM     18  C   UNL     1       2.017  -6.048   0.636  0.00  0.00    +0.000 A 
ATOM     19  C   UNL     1       1.514  -5.548   2.942  0.00  0.00    +0.000 A 
ATOM     20  C   UNL     1       6.375  -2.657  -6.198  0.00  0.00    +0.000 C 
ATOM     21  C   UNL     1       1.362  -6.366   1.827  0.00  0.00    +0.000 A 
ENDROOT
BRANCH  17  22
ATOM     22  O   UNL     1       2.451  -3.628   3.980  0.00  0.00    +0.000 OA
ATOM     23  C   UNL     1       1.301  -2.894   4.391  0.00  0.00    +0.000 C 
ENDBRANCH  17  22
BRANCH  19  24
ATOM     24  O   UNL     1       0.870  -5.869   4.099  0.00  0.00    +0.000 OA
ATOM     25  C   UNL     1      -0.539  -6.085   4.018  0.00  0.00    +0.000 C 
ENDBRANCH  19  24
TORSDOF 2
ENDMDL
MODEL 7
REMARK VINA RESULT:    -5.886      4.834      8.310
REMARK INTER + INTRA:          -6.838
REMARK INTER:                  -6.482
REMARK INTRA:                  -0.356
REMARK CONF_INDEPENDENT:        0.597
REMARK UNBOUND:                 0.356
REMARK  Name = 2353
REMARK  4 active torsions:
REMARK  status: ('A' for Active; 'I' for Inactive)
REMARK    1  A    between atoms: O_3  and  C_19
REMARK    2  A    between atoms: O_3  and  C_24
REMARK    3  A    between atoms: O_4  and  C_21
REMARK    4  A    between atoms: O_4  and  C_25
REMARK                            x       y       z     vdW  Elec       q    Type
REMARK                         _______ _______ _______ _____ _____    ______ ____
ROOT
ATOM      1  O   UNL     1      -3.083   4.487   2.749  0.00  0.00    +0.000 OA
ATOM      2  O   UNL     1      -3.524   2.698   1.199  0.00  0.00    +0.000 OA
ATOM      3  N   UNL     1      -1.165  -0.951   5.461  0.00  0.00    +0.000 N 
ATOM      4  C   UNL     1      -1.424   0.073   6.505  0.00  0.00    +0.000 C 
ATOM      5  C   UNL     1      -0.957   1.431   6.017  0.00  0.00    +0.000 C 
ATOM      6  C   UNL     1      -1.407  -0.693   4.143  0.00  0.00    +0.000 A 
ATOM      7  C   UNL     1      -1.641   1.737   4.714  0.00  0.00    +0.000 A 
ATOM      8  C   UNL     1      -1.868   0.667   3.804  0.00  0.00    +0.000 A 
ATOM      9  C   UNL     1      -0.733  -2.167   5.867  0.00  0.00    +0.000 A 
ATOM     10  C   UNL     1      -1.174  -1.708   3.199  0.00  0.00    +0.000 A 
ATOM     11  C   UNL     1      -0.495  -3.202   4.965  0.00  0.00    +0.000 A 
ATOM     12  C   UNL     1      -0.719  -2.969   3.600  0.00  0.00    +0.000 A 
ATOM     13  C   UNL     1      -2.015   3.056   4.410  0.00  0.00    +0.000 A 
ATOM     14  C   UNL     1      -2.520   0.959   2.589  0.00  0.00    +0.000 A 
ATOM     15  C   UNL     1      -2.642   3.284   3.207  0.00  0.00    +0.000 A 
ATOM     16  C   UNL     1      -2.892   2.264   2.324  0.00  0.00    +0.000 A 
ATOM     17  C   UNL     1      -0.041  -4.463   5.388  0.00  0.00    +0.000 A 
ATOM     18  C   UNL     1      -0.480  -4.001   2.677  0.00  0.00    +0.000 A 
ATOM     19  C   UNL     1       0.191  -5.480   4.461  0.00  0.00    +0.000 A 
ATOM     20  C   UNL     1      -3.642   4.107   1.476  0.00  0.00    +0.000 C 
ATOM     21  C   UNL     1      -0.028  -5.250   3.107  0.00  0.00    +0.000 A 
ENDROOT
BRANCH  17  22
ATOM     22  O   UNL     1       0.184  -4.717   6.712  0.00  0.00    +0.000 OA
ATOM     23  C   UNL     1       1.482  -4.415   7.214  0.00  0.00    +0.000 C 
ENDBRANCH  17  22
BRANCH  19  24
ATOM     24  O   UNL     1       0.633  -6.702   4.868  0.00  0.00    +0.000 OA
ATOM     25  C   UNL     1      -0.270  -7.495   5.639  0.00  0.00    +0.000 C 
ENDBRANCH  19  24
TORSDOF 2
ENDMDL
MODEL 8
REMARK VINA RESULT:    -5.701      3.150      3.478
REMARK INTER + INTRA:          -6.463
REMARK INTER:                  -6.297
REMARK INTRA:                  -0.166
REMARK CONF_INDEPENDENT:        0.597
REMARK UNBOUND:                 0.166
REMARK  Name = 2353
REMARK  4 active torsions:
REMARK  status: ('A' for Active; 'I' for Inactive)
REMARK    1  A    between atoms: O_3  and  C_19
REMARK    2  A    between atoms: O_3  and  C_24
REMARK    3  A    between atoms: O_4  and  C_21
REMARK    4  A    between atoms: O_4  and  C_25
REMARK                            x       y       z     vdW  Elec       q    Type
REMARK                         _______ _______ _______ _____ _____    ______ ____
ROOT
ATOM      1  O   UNL     1       5.422  -5.022  -4.123  0.00  0.00    +0.000 OA
ATOM      2  O   UNL     1       5.666  -5.050  -1.727  0.00  0.00    +0.000 OA
ATOM      3  N   UNL     1      -0.393  -5.608  -1.583  0.00  0.00    +0.000 N 
ATOM      4  C   UNL     1      -0.397  -6.108  -2.982  0.00  0.00    +0.000 C 
ATOM      5  C   UNL     1       0.481  -5.222  -3.845  0.00  0.00    +0.000 C 
ATOM      6  C   UNL     1       0.758  -5.175  -0.991  0.00  0.00    +0.000 A 
ATOM      7  C   UNL     1       1.857  -5.174  -3.244  0.00  0.00    +0.000 A 
ATOM      8  C   UNL     1       1.974  -5.165  -1.827  0.00  0.00    +0.000 A 
ATOM      9  C   UNL     1      -1.559  -5.645  -0.899  0.00  0.00    +0.000 A 
ATOM     10  C   UNL     1       0.712  -4.741   0.345  0.00  0.00    +0.000 A 
ATOM     11  C   UNL     1      -1.648  -5.229   0.428  0.00  0.00    +0.000 A 
ATOM     12  C   UNL     1      -0.488  -4.764   1.065  0.00  0.00    +0.000 A 
ATOM     13  C   UNL     1       2.985  -5.112  -4.078  0.00  0.00    +0.000 A 
ATOM     14  C   UNL     1       3.269  -5.132  -1.270  0.00  0.00    +0.000 A 
ATOM     15  C   UNL     1       4.224  -5.073  -3.480  0.00  0.00    +0.000 A 
ATOM     16  C   UNL     1       4.362  -5.087  -2.115  0.00  0.00    +0.000 A 
ATOM     17  C   UNL     1      -2.861  -5.263   1.135  0.00  0.00    +0.000 A 
ATOM     18  C   UNL     1      -0.561  -4.337   2.402  0.00  0.00    +0.000 A 
ATOM     19  C   UNL     1      -2.920  -4.837   2.462  0.00  0.00    +0.000 A 
ATOM     20  C   UNL     1       6.332  -5.009  -3.005  0.00  0.00    +0.000 C 
ATOM     21  C   UNL     1      -1.771  -4.374   3.096  0.00  0.00    +0.000 A 
ENDROOT
BRANCH  17  22
ATOM     22  O   UNL     1      -4.006  -5.711   0.539  0.00  0.00    +0.000 OA
ATOM     23  C   UNL     1      -4.092  -7.109   0.278  0.00  0.00    +0.000 C 
ENDBRANCH  17  22
BRANCH  19  24
ATOM     24  O   UNL     1      -4.095  -4.868   3.150  0.00  0.00    +0.000 OA
ATOM     25  C   UNL     1      -5.249  -4.354   2.487  0.00  0.00    +0.000 C 
ENDBRANCH  19  24
TORSDOF 2
ENDMDL
MODEL 9
REMARK VINA RESULT:    -5.609      6.178      9.357
REMARK INTER + INTRA:          -6.535
REMARK INTER:                  -6.205
REMARK INTRA:                  -0.330
REMARK CONF_INDEPENDENT:        0.597
REMARK UNBOUND:                 0.330
REMARK  Name = 2353
REMARK  4 active torsions:
REMARK  status: ('A' for Active; 'I' for Inactive)
REMARK    1  A    between atoms: O_3  and  C_19
REMARK    2  A    between atoms: O_3  and  C_24
REMARK    3  A    between atoms: O_4  and  C_21
REMARK    4  A    between atoms: O_4  and  C_25
REMARK                            x       y       z     vdW  Elec       q    Type
REMARK                         _______ _______ _______ _____ _____    ______ ____
ROOT
ATOM      1  O   UNL     1      -4.807   5.660  -0.125  0.00  0.00    +0.000 OA
ATOM      2  O   UNL     1      -3.910   6.346   2.002  0.00  0.00    +0.000 OA
ATOM      3  N   UNL     1      -2.010   0.587   2.531  0.00  0.00    +0.000 N 
ATOM      4  C   UNL     1      -2.102   0.404   1.060  0.00  0.00    +0.000 C 
ATOM      5  C   UNL     1      -3.424   0.953   0.557  0.00  0.00    +0.000 C 
ATOM      6  C   UNL     1      -2.423   1.743   3.126  0.00  0.00    +0.000 A 
ATOM      7  C   UNL     1      -3.540   2.391   0.976  0.00  0.00    +0.000 A 
ATOM      8  C   UNL     1      -3.026   2.767   2.249  0.00  0.00    +0.000 A 
ATOM      9  C   UNL     1      -1.453  -0.410   3.255  0.00  0.00    +0.000 A 
ATOM     10  C   UNL     1      -2.286   1.878   4.518  0.00  0.00    +0.000 A 
ATOM     11  C   UNL     1      -1.293  -0.317   4.636  0.00  0.00    +0.000 A 
ATOM     12  C   UNL     1      -1.720   0.852   5.284  0.00  0.00    +0.000 A 
ATOM     13  C   UNL     1      -4.168   3.320   0.132  0.00  0.00    +0.000 A 
ATOM     14  C   UNL     1      -3.128   4.119   2.630  0.00  0.00    +0.000 A 
ATOM     15  C   UNL     1      -4.247   4.626   0.559  0.00  0.00    +0.000 A 
ATOM     16  C   UNL     1      -3.737   5.015   1.772  0.00  0.00    +0.000 A 
ATOM     17  C   UNL     1      -0.719  -1.356   5.387  0.00  0.00    +0.000 A 
ATOM     18  C   UNL     1      -1.569   0.961   6.677  0.00  0.00    +0.000 A 
ATOM     19  C   UNL     1      -0.575  -1.235   6.769  0.00  0.00    +0.000 A 
ATOM     20  C   UNL     1      -4.589   6.748   0.796  0.00  0.00    +0.000 C 
ATOM     21  C   UNL     1      -0.999  -0.078   7.414  0.00  0.00    +0.000 A 
ENDROOT
BRANCH  17  22
ATOM     22  O   UNL     1      -0.295  -2.505   4.781  0.00  0.00    +0.000 OA
ATOM     23  C   UNL     1      -1.279  -3.503   4.529  0.00  0.00    +0.000 C 
ENDBRANCH  17  22
BRANCH  19  24
ATOM     24  O   UNL     1      -0.020  -2.242   7.500  0.00  0.00    +0.000 OA
ATOM     25  C   UNL     1       1.328  -2.599   7.194  0.00  0.00    +0.000 C 
ENDBRANCH  19  24
TORSDOF 2
ENDMDL
