MODEL 1
REMARK VINA RESULT:    -5.778      0.000      0.000
REMARK INTER + INTRA:          -6.735
REMARK INTER:                  -6.375
REMARK INTRA:                  -0.360
REMARK CONF_INDEPENDENT:        0.597
REMARK UNBOUND:                 0.360
REMARK  Name = 2353
REMARK  4 active torsions:
REMARK  status: ('A' for Active; 'I' for Inactive)
REMARK    1  A    between atoms: O_3  and  C_19
REMARK    2  A    between atoms: O_3  and  C_24
REMARK    3  A    between atoms: O_4  and  C_21
REMARK    4  A    between atoms: O_4  and  C_25
REMARK                            x       y       z     vdW  Elec       q    Type
REMARK                         _______ _______ _______ _____ _____    ______ ____
ROOT
ATOM      1  O   UNL     1       7.149   7.306  -3.784  0.00  0.00    +0.000 OA
ATOM      2  O   UNL     1       6.514   5.092  -4.486  0.00  0.00    +0.000 OA
ATOM      3  N   UNL     1       6.689   3.670   1.429  0.00  0.00    +0.000 N 
ATOM      4  C   UNL     1       6.546   5.103   1.795  0.00  0.00    +0.000 C 
ATOM      5  C   UNL     1       7.499   5.941   0.965  0.00  0.00    +0.000 C 
ATOM      6  C   UNL     1       6.820   3.284   0.127  0.00  0.00    +0.000 A 
ATOM      7  C   UNL     1       7.230   5.679  -0.490  0.00  0.00    +0.000 A 
ATOM      8  C   UNL     1       6.882   4.357  -0.884  0.00  0.00    +0.000 A 
ATOM      9  C   UNL     1       6.632   2.758   2.426  0.00  0.00    +0.000 A 
ATOM     10  C   UNL     1       6.921   1.913  -0.167  0.00  0.00    +0.000 A 
ATOM     11  C   UNL     1       6.723   1.390   2.179  0.00  0.00    +0.000 A 
ATOM     12  C   UNL     1       6.873   0.955   0.853  0.00  0.00    +0.000 A 
ATOM     13  C   UNL     1       7.352   6.719  -1.425  0.00  0.00    +0.000 A 
ATOM     14  C   UNL     1       6.620   4.121  -2.249  0.00  0.00    +0.000 A 
ATOM     15  C   UNL     1       7.093   6.429  -2.745  0.00  0.00    +0.000 A 
ATOM     16  C   UNL     1       6.732   5.167  -3.145  0.00  0.00    +0.000 A 
ATOM     17  C   UNL     1       6.668   0.444   3.216  0.00  0.00    +0.000 A 
ATOM     18  C   UNL     1       6.970  -0.420   0.586  0.00  0.00    +0.000 A 
ATOM     19  C   UNL     1       6.765  -0.919   2.938  0.00  0.00    +0.000 A 
ATOM     20  C   UNL     1       6.780   6.452  -4.885  0.00  0.00    +0.000 C 
ATOM     21  C   UNL     1       6.916  -1.352   1.624  0.00  0.00    +0.000 A 
ENDROOT
BRANCH  17  22
ATOM     22  O   UNL     1       6.522   0.840   4.516  0.00  0.00    +0.000 OA
ATOM     23  C   UNL     1       5.190   0.984   4.999  0.00  0.00    +0.000 C 
ENDBRANCH  17  22
BRANCH  19  24
ATOM     24  O   UNL     1       6.713  -1.838   3.942  0.00  0.00    +0.000 OA
ATOM     25  C   UNL     1       5.856  -2.962   3.749  0.00  0.00    +0.000 C 
ENDBRANCH  19  24
TORSDOF 2
ENDMDL
MODEL 2
REMARK VINA RESULT:    -5.644      1.363      3.162
REMARK INTER + INTRA:          -6.602
REMARK INTER:                  -6.241
REMARK INTRA:                  -0.361
REMARK CONF_INDEPENDENT:        0.597
REMARK UNBOUND:                 0.361
REMARK  Name = 2353
REMARK  4 active torsions:
REMARK  status: ('A' for Active; 'I' for Inactive)
REMARK    1  A    between atoms: O_3  and  C_19
REMARK    2  A    between atoms: O_3  and  C_24
REMARK    3  A    between atoms: O_4  and  C_21
REMARK    4  A    between atoms: O_4  and  C_25
REMARK                            x       y       z     vdW  Elec       q    Type
REMARK                         _______ _______ _______ _____ _____    ______ ____
ROOT
ATOM      1  O   UNL     1       7.129   5.988  -4.993  0.00  0.00    +0.000 OA
ATOM      2  O   UNL     1       7.434   7.370  -3.045  0.00  0.00    +0.000 OA
ATOM      3  N   UNL     1       7.146   2.174   0.112  0.00  0.00    +0.000 N 
ATOM      4  C   UNL     1       7.496   1.396  -1.104  0.00  0.00    +0.000 C 
ATOM      5  C   UNL     1       6.659   1.874  -2.276  0.00  0.00    +0.000 C 
ATOM      6  C   UNL     1       6.942   3.522   0.054  0.00  0.00    +0.000 A 
ATOM      7  C   UNL     1       6.866   3.352  -2.446  0.00  0.00    +0.000 A 
ATOM      8  C   UNL     1       7.018   4.151  -1.279  0.00  0.00    +0.000 A 
ATOM      9  C   UNL     1       7.088   1.509   1.289  0.00  0.00    +0.000 A 
ATOM     10  C   UNL     1       6.643   4.216   1.240  0.00  0.00    +0.000 A 
ATOM     11  C   UNL     1       6.800   2.158   2.488  0.00  0.00    +0.000 A 
ATOM     12  C   UNL     1       6.571   3.542   2.465  0.00  0.00    +0.000 A 
ATOM     13  C   UNL     1       6.879   3.915  -3.732  0.00  0.00    +0.000 A 
ATOM     14  C   UNL     1       7.224   5.535  -1.447  0.00  0.00    +0.000 A 
ATOM     15  C   UNL     1       7.076   5.273  -3.837  0.00  0.00    +0.000 A 
ATOM     16  C   UNL     1       7.248   6.060  -2.726  0.00  0.00    +0.000 A 
ATOM     17  C   UNL     1       6.735   1.465   3.708  0.00  0.00    +0.000 A 
ATOM     18  C   UNL     1       6.275   4.211   3.664  0.00  0.00    +0.000 A 
ATOM     19  C   UNL     1       6.442   2.142   4.892  0.00  0.00    +0.000 A 
ATOM     20  C   UNL     1       7.357   7.317  -4.483  0.00  0.00    +0.000 C 
ATOM     21  C   UNL     1       6.212   3.514   4.871  0.00  0.00    +0.000 A 
ENDROOT
BRANCH  17  22
ATOM     22  O   UNL     1       6.955   0.117   3.759  0.00  0.00    +0.000 OA
ATOM     23  C   UNL     1       5.806  -0.721   3.819  0.00  0.00    +0.000 C 
ENDBRANCH  17  22
BRANCH  19  24
ATOM     24  O   UNL     1       6.378   1.472   6.077  0.00  0.00    +0.000 OA
ATOM     25  C   UNL     1       5.138   1.519   6.782  0.00  0.00    +0.000 C 
ENDBRANCH  19  24
TORSDOF 2
ENDMDL
MODEL 3
REMARK VINA RESULT:    -5.564      4.676     10.522
REMARK INTER + INTRA:          -6.468
REMARK INTER:                  -6.160
REMARK INTRA:                  -0.308
REMARK CONF_INDEPENDENT:        0.597
REMARK UNBOUND:                 0.308
REMARK  Name = 2353
REMARK  4 active torsions:
REMARK  status: ('A' for Active; 'I' for Inactive)
REMARK    1  A    between atoms: O_3  and  C_19
REMARK    2  A    between atoms: O_3  and  C_24
REMARK    3  A    between atoms: O_4  and  C_21
REMARK    4  A    between atoms: O_4  and  C_25
REMARK                            x       y       z     vdW  Elec       q    Type
REMARK                         _______ _______ _______ _____ _____    ______ ____
ROOT
ATOM      1  O   UNL     1      -0.494  -5.473   7.497  0.00  0.00    +0.000 OA
ATOM      2  O   UNL     1      -1.077  -3.375   6.469  0.00  0.00    +0.000 OA
ATOM      3  N   UNL     1       4.217  -3.888   3.509  0.00  0.00    +0.000 N 
ATOM      4  C   UNL     1       4.233  -5.352   3.758  0.00  0.00    +0.000 C 
ATOM      5  C   UNL     1       3.897  -5.629   5.211  0.00  0.00    +0.000 C 
ATOM      6  C   UNL     1       3.246  -3.092   4.043  0.00  0.00    +0.000 A 
ATOM      7  C   UNL     1       2.572  -4.995   5.529  0.00  0.00    +0.000 A 
ATOM      8  C   UNL     1       2.261  -3.743   4.929  0.00  0.00    +0.000 A 
ATOM      9  C   UNL     1       5.167  -3.379   2.692  0.00  0.00    +0.000 A 
ATOM     10  C   UNL     1       3.258  -1.717   3.750  0.00  0.00    +0.000 A 
ATOM     11  C   UNL     1       5.213  -2.024   2.372  0.00  0.00    +0.000 A 
ATOM     12  C   UNL     1       4.239  -1.171   2.914  0.00  0.00    +0.000 A 
ATOM     13  C   UNL     1       1.688  -5.626   6.419  0.00  0.00    +0.000 A 
ATOM     14  C   UNL     1       1.012  -3.161   5.222  0.00  0.00    +0.000 A 
ATOM     15  C   UNL     1       0.486  -5.008   6.676  0.00  0.00    +0.000 A 
ATOM     16  C   UNL     1       0.155  -3.813   6.090  0.00  0.00    +0.000 A 
ATOM     17  C   UNL     1       6.203  -1.495   1.527  0.00  0.00    +0.000 A 
ATOM     18  C   UNL     1       4.273   0.199   2.604  0.00  0.00    +0.000 A 
ATOM     19  C   UNL     1       6.226  -0.133   1.227  0.00  0.00    +0.000 A 
ATOM     20  C   UNL     1      -1.483  -4.432   7.360  0.00  0.00    +0.000 C 
ATOM     21  C   UNL     1       5.262   0.714   1.765  0.00  0.00    +0.000 A 
ENDROOT
BRANCH  17  22
ATOM     22  O   UNL     1       7.163  -2.303   0.985  0.00  0.00    +0.000 OA
ATOM     23  C   UNL     1       6.750  -3.193  -0.047  0.00  0.00    +0.000 C 
ENDBRANCH  17  22
BRANCH  19  24
ATOM     24  O   UNL     1       7.186   0.382   0.409  0.00  0.00    +0.000 OA
ATOM     25  C   UNL     1       7.473   1.773   0.540  0.00  0.00    +0.000 C 
ENDBRANCH  19  24
TORSDOF 2
ENDMDL
MODEL 4
REMARK VINA RESULT:    -5.451      4.381      7.983
REMARK INTER + INTRA:          -6.410
REMARK INTER:                  -6.048
REMARK INTRA:                  -0.362
REMARK CONF_INDEPENDENT:        0.597
REMARK UNBOUND:                 0.362
REMARK  Name = 2353
REMARK  4 active torsions:
REMARK  status: ('A' for Active; 'I' for Inactive)
REMARK    1  A    between atoms: O_3  and  C_19
REMARK    2  A    between atoms: O_3  and  C_24
REMARK    3  A    between atoms: O_4  and  C_21
REMARK    4  A    between atoms: O_4  and  C_25
REMARK                            x       y       z     vdW  Elec       q    Type
REMARK                         _______ _______ _______ _____ _____    ______ ____
ROOT
ATOM      1  O   UNL     1       5.954  -6.932  -1.103  0.00  0.00    +0.000 OA
ATOM      2  O   UNL     1       7.231  -5.129  -2.060  0.00  0.00    +0.000 OA
ATOM      3  N   UNL     1       6.282  -2.268   3.227  0.00  0.00    +0.000 N 
ATOM      4  C   UNL     1       5.999  -3.563   3.897  0.00  0.00    +0.000 C 
ATOM      5  C   UNL     1       5.047  -4.382   3.046  0.00  0.00    +0.000 C 
ATOM      6  C   UNL     1       6.500  -2.201   1.882  0.00  0.00    +0.000 A 
ATOM      7  C   UNL     1       5.644  -4.549   1.677  0.00  0.00    +0.000 A 
ATOM      8  C   UNL     1       6.373  -3.460   1.122  0.00  0.00    +0.000 A 
ATOM      9  C   UNL     1       6.368  -1.164   4.004  0.00  0.00    +0.000 A 
ATOM     10  C   UNL     1       6.794  -0.954   1.303  0.00  0.00    +0.000 A 
ATOM     11  C   UNL     1       6.662   0.090   3.472  0.00  0.00    +0.000 A 
ATOM     12  C   UNL     1       6.879   0.200   2.090  0.00  0.00    +0.000 A 
ATOM     13  C   UNL     1       5.453  -5.746   0.969  0.00  0.00    +0.000 A 
ATOM     14  C   UNL     1       6.940  -3.627  -0.157  0.00  0.00    +0.000 A 
ATOM     15  C   UNL     1       6.023  -5.851  -0.279  0.00  0.00    +0.000 A 
ATOM     16  C   UNL     1       6.750  -4.823  -0.824  0.00  0.00    +0.000 A 
ATOM     17  C   UNL     1       6.746   1.236   4.280  0.00  0.00    +0.000 A 
ATOM     18  C   UNL     1       7.172   1.457   1.537  0.00  0.00    +0.000 A 
ATOM     19  C   UNL     1       7.040   2.479   3.719  0.00  0.00    +0.000 A 
ATOM     20  C   UNL     1       6.724  -6.468  -2.230  0.00  0.00    +0.000 C 
ATOM     21  C   UNL     1       7.252   2.590   2.348  0.00  0.00    +0.000 A 
ENDROOT
BRANCH  17  22
ATOM     22  O   UNL     1       6.541   1.157   5.629  0.00  0.00    +0.000 OA
ATOM     23  C   UNL     1       5.257   1.544   6.109  0.00  0.00    +0.000 C 
ENDBRANCH  17  22
BRANCH  19  24
ATOM     24  O   UNL     1       7.121   3.592   4.500  0.00  0.00    +0.000 OA
ATOM     25  C   UNL     1       6.126   4.596   4.305  0.00  0.00    +0.000 C 
ENDBRANCH  19  24
TORSDOF 2
ENDMDL
MODEL 5
REMARK VINA RESULT:    -5.429      5.813      8.976
REMARK INTER + INTRA:          -6.365
REMARK INTER:                  -6.026
REMARK INTRA:                  -0.339
REMARK CONF_INDEPENDENT:        0.597
REMARK UNBOUND:                 0.339
REMARK  Name = 2353
REMARK  4 active torsions:
REMARK  status: ('A' for Active; 'I' for Inactive)
REMARK    1  A    between atoms: O_3  and  C_19
REMARK    2  A    between atoms: O_3  and  C_24
REMARK    3  A    between atoms: O_4  and  C_21
REMARK    4  A    between atoms: O_4  and  C_25
REMARK                            x       y       z     vdW  Elec       q    Type
REMARK                         _______ _______ _______ _____ _____    ______ ____
ROOT
ATOM      1  O   UNL     1       7.448   0.218   4.482  0.00  0.00    +0.000 OA
ATOM      2  O   UNL     1       6.336   1.048   2.514  0.00  0.00    +0.000 OA
ATOM      3  N   UNL     1       2.412   3.629   6.385  0.00  0.00    +0.000 N 
ATOM      4  C   UNL     1       3.411   3.545   7.480  0.00  0.00    +0.000 C 
ATOM      5  C   UNL     1       4.034   2.162   7.500  0.00  0.00    +0.000 C 
ATOM      6  C   UNL     1       2.661   3.087   5.158  0.00  0.00    +0.000 A 
ATOM      7  C   UNL     1       4.623   1.879   6.147  0.00  0.00    +0.000 A 
ATOM      8  C   UNL     1       3.935   2.357   4.998  0.00  0.00    +0.000 A 
ATOM      9  C   UNL     1       1.268   4.309   6.628  0.00  0.00    +0.000 A 
ATOM     10  C   UNL     1       1.695   3.221   4.146  0.00  0.00    +0.000 A 
ATOM     11  C   UNL     1       0.286   4.471   5.653  0.00  0.00    +0.000 A 
ATOM     12  C   UNL     1       0.501   3.914   4.383  0.00  0.00    +0.000 A 
ATOM     13  C   UNL     1       5.809   1.135   6.040  0.00  0.00    +0.000 A 
ATOM     14  C   UNL     1       4.499   2.098   3.733  0.00  0.00    +0.000 A 
ATOM     15  C   UNL     1       6.311   0.905   4.779  0.00  0.00    +0.000 A 
ATOM     16  C   UNL     1       5.676   1.377   3.658  0.00  0.00    +0.000 A 
ATOM     17  C   UNL     1      -0.904   5.172   5.909  0.00  0.00    +0.000 A 
ATOM     18  C   UNL     1      -0.480   4.064   3.390  0.00  0.00    +0.000 A 
ATOM     19  C   UNL     1      -1.870   5.315   4.914  0.00  0.00    +0.000 A 
ATOM     20  C   UNL     1       7.458   0.314   3.044  0.00  0.00    +0.000 C 
ATOM     21  C   UNL     1      -1.659   4.762   3.655  0.00  0.00    +0.000 A 
ENDROOT
BRANCH  17  22
ATOM     22  O   UNL     1      -1.139   5.725   7.137  0.00  0.00    +0.000 OA
ATOM     23  C   UNL     1      -1.046   7.143   7.233  0.00  0.00    +0.000 C 
ENDBRANCH  17  22
BRANCH  19  24
ATOM     24  O   UNL     1      -3.026   5.995   5.160  0.00  0.00    +0.000 OA
ATOM     25  C   UNL     1      -3.766   6.447   4.028  0.00  0.00    +0.000 C 
ENDBRANCH  19  24
TORSDOF 2
ENDMDL
MODEL 6
REMARK VINA RESULT:    -5.276      6.914      9.195
REMARK INTER + INTRA:          -6.142
REMARK INTER:                  -5.873
REMARK INTRA:                  -0.269
REMARK CONF_INDEPENDENT:        0.597
REMARK UNBOUND:                 0.269
REMARK  Name = 2353
REMARK  4 active torsions:
REMARK  status: ('A' for Active; 'I' for Inactive)
REMARK    1  A    between atoms: O_3  and  C_19
REMARK    2  A    between atoms: O_3  and  C_24
REMARK    3  A    between atoms: O_4  and  C_21
REMARK    4  A    between atoms: O_4  and  C_25
REMARK                            x       y       z     vdW  Elec       q    Type
REMARK                         _______ _______ _______ _____ _____    ______ ____
ROOT
ATOM      1  O   UNL     1      -4.483   7.178   4.964  0.00  0.00    +0.000 OA
ATOM      2  O   UNL     1      -3.357   7.065   7.090  0.00  0.00    +0.000 OA
ATOM      3  N   UNL     1       1.222   4.504   4.004  0.00  0.00    +0.000 N 
ATOM      4  C   UNL     1       0.712   5.083   2.734  0.00  0.00    +0.000 C 
ATOM      5  C   UNL     1      -0.784   4.852   2.631  0.00  0.00    +0.000 C 
ATOM      6  C   UNL     1       0.530   4.643   5.171  0.00  0.00    +0.000 A 
ATOM      7  C   UNL     1      -1.447   5.434   3.847  0.00  0.00    +0.000 A 
ATOM      8  C   UNL     1      -0.774   5.332   5.096  0.00  0.00    +0.000 A 
ATOM      9  C   UNL     1       2.421   3.880   3.973  0.00  0.00    +0.000 A 
ATOM     10  C   UNL     1       1.071   4.103   6.351  0.00  0.00    +0.000 A 
ATOM     11  C   UNL     1       2.997   3.335   5.119  0.00  0.00    +0.000 A 
ATOM     12  C   UNL     1       2.307   3.447   6.336  0.00  0.00    +0.000 A 
ATOM     13  C   UNL     1      -2.712   6.033   3.737  0.00  0.00    +0.000 A 
ATOM     14  C   UNL     1      -1.397   5.889   6.230  0.00  0.00    +0.000 A 
ATOM     15  C   UNL     1      -3.277   6.554   4.879  0.00  0.00    +0.000 A 
ATOM     16  C   UNL     1      -2.635   6.488   6.090  0.00  0.00    +0.000 A 
ATOM     17  C   UNL     1       4.241   2.683   5.084  0.00  0.00    +0.000 A 
ATOM     18  C   UNL     1       2.872   2.899   7.500  0.00  0.00    +0.000 A 
ATOM     19  C   UNL     1       4.791   2.145   6.248  0.00  0.00    +0.000 A 
ATOM     20  C   UNL     1      -4.527   7.500   6.369  0.00  0.00    +0.000 C 
ATOM     21  C   UNL     1       4.108   2.252   7.455  0.00  0.00    +0.000 A 
ENDROOT
BRANCH  17  22
ATOM     22  O   UNL     1       4.934   2.561   3.913  0.00  0.00    +0.000 OA
ATOM     23  C   UNL     1       5.849   3.605   3.594  0.00  0.00    +0.000 C 
ENDBRANCH  17  22
BRANCH  19  24
ATOM     24  O   UNL     1       5.997   1.511   6.217  0.00  0.00    +0.000 OA
ATOM     25  C   UNL     1       6.161   0.475   5.249  0.00  0.00    +0.000 C 
ENDBRANCH  19  24
TORSDOF 2
ENDMDL
MODEL 7
REMARK VINA RESULT:    -5.202      2.697      4.781
REMARK INTER + INTRA:          -6.166
REMARK INTER:                  -5.799
REMARK INTRA:                  -0.367
REMARK CONF_INDEPENDENT:        0.597
REMARK UNBOUND:                 0.367
REMARK  Name = 2353
REMARK  4 active torsions:
REMARK  status: ('A' for Active; 'I' for Inactive)
REMARK    1  A    between atoms: O_3  and  C_19
REMARK    2  A    between atoms: O_3  and  C_24
REMARK    3  A    between atoms: O_4  and  C_21
REMARK    4  A    between atoms: O_4  and  C_25
REMARK                            x       y       z     vdW  Elec       q    Type
REMARK                         _______ _______ _______ _____ _____    ______ ____
ROOT
ATOM      1  O   UNL     1       7.500   5.120   1.307  0.00  0.00    +0.000 OA
ATOM      2  O   UNL     1       6.867   3.771  -0.584  0.00  0.00    +0.000 OA
ATOM      3  N   UNL     1       6.173  -0.732   3.452  0.00  0.00    +0.000 N 
ATOM      4  C   UNL     1       6.046   0.254   4.555  0.00  0.00    +0.000 C 
ATOM      5  C   UNL     1       7.139   1.298   4.437  0.00  0.00    +0.000 C 
ATOM      6  C   UNL     1       6.462  -0.335   2.179  0.00  0.00    +0.000 A 
ATOM      7  C   UNL     1       7.060   1.929   3.076  0.00  0.00    +0.000 A 
ATOM      8  C   UNL     1       6.709   1.106   1.970  0.00  0.00    +0.000 A 
ATOM      9  C   UNL     1       5.940  -2.033   3.741  0.00  0.00    +0.000 A 
ATOM     10  C   UNL     1       6.541  -1.305   1.166  0.00  0.00    +0.000 A 
ATOM     11  C   UNL     1       6.002  -3.027   2.766  0.00  0.00    +0.000 A 
ATOM     12  C   UNL     1       6.311  -2.657   1.448  0.00  0.00    +0.000 A 
ATOM     13  C   UNL     1       7.354   3.293   2.916  0.00  0.00    +0.000 A 
ATOM     14  C   UNL     1       6.625   1.707   0.699  0.00  0.00    +0.000 A 
ATOM     15  C   UNL     1       7.263   3.825   1.650  0.00  0.00    +0.000 A 
ATOM     16  C   UNL     1       6.904   3.055   0.573  0.00  0.00    +0.000 A 
ATOM     17  C   UNL     1       5.765  -4.377   3.069  0.00  0.00    +0.000 A 
ATOM     18  C   UNL     1       6.382  -3.647   0.454  0.00  0.00    +0.000 A 
ATOM     19  C   UNL     1       5.838  -5.351   2.073  0.00  0.00    +0.000 A 
ATOM     20  C   UNL     1       7.245   5.079  -0.111  0.00  0.00    +0.000 C 
ATOM     21  C   UNL     1       6.146  -4.986   0.766  0.00  0.00    +0.000 A 
ENDROOT
BRANCH  17  22
ATOM     22  O   UNL     1       5.461  -4.765   4.344  0.00  0.00    +0.000 OA
ATOM     23  C   UNL     1       4.081  -4.814   4.691  0.00  0.00    +0.000 C 
ENDBRANCH  17  22
BRANCH  19  24
ATOM     24  O   UNL     1       5.609  -6.662   2.364  0.00  0.00    +0.000 OA
ATOM     25  C   UNL     1       6.648  -7.366   3.043  0.00  0.00    +0.000 C 
ENDBRANCH  19  24
TORSDOF 2
ENDMDL
MODEL 8
REMARK VINA RESULT:    -5.115      8.473      9.506
REMARK INTER + INTRA:          -6.049
REMARK INTER:                  -5.711
REMARK INTRA:                  -0.337
REMARK CONF_INDEPENDENT:        0.597
REMARK UNBOUND:                 0.337
REMARK  Name = 2353
REMARK  4 active torsions:
REMARK  status: ('A' for Active; 'I' for Inactive)
REMARK    1  A    between atoms: O_3  and  C_19
REMARK    2  A    between atoms: O_3  and  C_24
REMARK    3  A    between atoms: O_4  and  C_21
REMARK    4  A    between atoms: O_4  and  C_25
REMARK                            x       y       z     vdW  Elec       q    Type
REMARK                         _______ _______ _______ _____ _____    ______ ____
ROOT
ATOM      1  O   UNL     1      -5.417   6.574  -0.472  0.00  0.00    +0.000 OA
ATOM      2  O   UNL     1      -4.841   4.240  -0.609  0.00  0.00    +0.000 OA
ATOM      3  N   UNL     1      -1.731   5.186   4.537  0.00  0.00    +0.000 N 
ATOM      4  C   UNL     1      -2.538   6.400   4.822  0.00  0.00    +0.000 C 
ATOM      5  C   UNL     1      -2.638   7.253   3.572  0.00  0.00    +0.000 C 
ATOM      6  C   UNL     1      -1.883   4.494   3.371  0.00  0.00    +0.000 A 
ATOM      7  C   UNL     1      -3.209   6.417   2.461  0.00  0.00    +0.000 A 
ATOM      8  C   UNL     1      -2.833   5.047   2.386  0.00  0.00    +0.000 A 
ATOM      9  C   UNL     1      -0.877   4.761   5.496  0.00  0.00    +0.000 A 
ATOM     10  C   UNL     1      -1.116   3.334   3.165  0.00  0.00    +0.000 A 
ATOM     11  C   UNL     1      -0.102   3.614   5.334  0.00  0.00    +0.000 A 
ATOM     12  C   UNL     1      -0.221   2.884   4.142  0.00  0.00    +0.000 A 
ATOM     13  C   UNL     1      -4.068   6.999   1.515  0.00  0.00    +0.000 A 
ATOM     14  C   UNL     1      -3.382   4.267   1.349  0.00  0.00    +0.000 A 
ATOM     15  C   UNL     1      -4.568   6.191   0.519  0.00  0.00    +0.000 A 
ATOM     16  C   UNL     1      -4.238   4.862   0.442  0.00  0.00    +0.000 A 
ATOM     17  C   UNL     1       0.789   3.176   6.329  0.00  0.00    +0.000 A 
ATOM     18  C   UNL     1       0.556   1.727   3.962  0.00  0.00    +0.000 A 
ATOM     19  C   UNL     1       1.554   2.025   6.138  0.00  0.00    +0.000 A 
ATOM     20  C   UNL     1      -5.587   5.332  -1.183  0.00  0.00    +0.000 C 
ATOM     21  C   UNL     1       1.438   1.301   4.956  0.00  0.00    +0.000 A 
ENDROOT
BRANCH  17  22
ATOM     22  O   UNL     1       0.924   3.867   7.500  0.00  0.00    +0.000 OA
ATOM     23  C   UNL     1       1.619   5.109   7.438  0.00  0.00    +0.000 C 
ENDBRANCH  17  22
BRANCH  19  24
ATOM     24  O   UNL     1       2.419   1.599   7.101  0.00  0.00    +0.000 OA
ATOM     25  C   UNL     1       3.684   2.254   7.172  0.00  0.00    +0.000 C 
ENDBRANCH  19  24
TORSDOF 2
ENDMDL
MODEL 9
REMARK VINA RESULT:    -5.037     11.374     12.246
REMARK INTER + INTRA:          -5.960
REMARK INTER:                  -5.634
REMARK INTRA:                  -0.327
REMARK CONF_INDEPENDENT:        0.597
REMARK UNBOUND:                 0.327
REMARK  Name = 2353
REMARK  4 active torsions:
REMARK  status: ('A' for Active; 'I' for Inactive)
REMARK    1  A    between atoms: O_3  and  C_19
REMARK    2  A    between atoms: O_3  and  C_24
REMARK    3  A    between atoms: O_4  and  C_21
REMARK    4  A    between atoms: O_4  and  C_25
REMARK                            x       y       z     vdW  Elec       q    Type
REMARK                         _______ _______ _______ _____ _____    ______ ____
ROOT
ATOM      1  O   UNL     1      -6.691   1.752  -4.497  0.00  0.00    +0.000 OA
ATOM      2  O   UNL     1      -5.175   0.438  -3.165  0.00  0.00    +0.000 OA
ATOM      3  N   UNL     1      -5.323   5.090   0.757  0.00  0.00    +0.000 N 
ATOM      4  C   UNL     1      -6.607   5.561   0.176  0.00  0.00    +0.000 C 
ATOM      5  C   UNL     1      -6.514   5.564  -1.338  0.00  0.00    +0.000 C 
ATOM      6  C   UNL     1      -4.646   4.037   0.214  0.00  0.00    +0.000 A 
ATOM      7  C   UNL     1      -6.132   4.186  -1.800  0.00  0.00    +0.000 A 
ATOM      8  C   UNL     1      -5.214   3.439  -1.010  0.00  0.00    +0.000 A 
ATOM      9  C   UNL     1      -4.875   5.708   1.874  0.00  0.00    +0.000 A 
ATOM     10  C   UNL     1      -3.452   3.612   0.820  0.00  0.00    +0.000 A 
ATOM     11  C   UNL     1      -3.699   5.315   2.510  0.00  0.00    +0.000 A 
ATOM     12  C   UNL     1      -2.968   4.245   1.971  0.00  0.00    +0.000 A 
ATOM     13  C   UNL     1      -6.657   3.678  -2.999  0.00  0.00    +0.000 A 
ATOM     14  C   UNL     1      -4.870   2.144  -1.444  0.00  0.00    +0.000 A 
ATOM     15  C   UNL     1      -6.279   2.410  -3.379  0.00  0.00    +0.000 A 
ATOM     16  C   UNL     1      -5.414   1.663  -2.620  0.00  0.00    +0.000 A 
ATOM     17  C   UNL     1      -3.232   5.961   3.667  0.00  0.00    +0.000 A 
ATOM     18  C   UNL     1      -1.778   3.840   2.598  0.00  0.00    +0.000 A 
ATOM     19  C   UNL     1      -2.049   5.548   4.280  0.00  0.00    +0.000 A 
ATOM     20  C   UNL     1      -5.988   0.502  -4.354  0.00  0.00    +0.000 C 
ATOM     21  C   UNL     1      -1.322   4.488   3.747  0.00  0.00    +0.000 A 
ENDROOT
BRANCH  17  22
ATOM     22  O   UNL     1      -3.924   7.006   4.212  0.00  0.00    +0.000 OA
ATOM     23  C   UNL     1      -4.499   6.796   5.498  0.00  0.00    +0.000 C 
ENDBRANCH  17  22
BRANCH  19  24
ATOM     24  O   UNL     1      -1.593   6.173   5.402  0.00  0.00    +0.000 OA
ATOM     25  C   UNL     1      -1.385   5.362   6.557  0.00  0.00    +0.000 C 
ENDBRANCH  19  24
TORSDOF 2
ENDMDL
