MODEL 1
REMARK VINA RESULT:   150.426      0.000      0.000
REMARK INTER + INTRA:         151.588
REMARK INTER:                 149.531
REMARK INTRA:                   2.057
REMARK CONF_INDEPENDENT:        0.895
REMARK UNBOUND:                -2.057
REMARK  Name = 
REMARK  3 active torsions:
REMARK  status: ('A' for Active; 'I' for Inactive)
REMARK    1  A    between atoms: C_5  and  C_6
REMARK    2  A    between atoms: C_9  and  N_10
REMARK    3  A    between atoms: C_21  and  C_22
REMARK                            x       y       z     vdW  Elec       q    Type
REMARK                         _______ _______ _______ _____ _____    ______ ____
ROOT
ATOM      1  C   UNL     1       1.115  -3.317  -4.234  0.00  0.00    +0.000 A 
ATOM      2  N   UNL     1       0.528  -3.173  -3.024  0.00  0.00    +0.000 NA
ATOM      3  N   UNL     1       1.348  -2.467  -2.247  0.00  0.00    +0.000 N 
ATOM      4  C   UNL     1       1.021  -1.689  -1.193  0.00  0.00    +0.000 A 
ATOM      5  C   UNL     1       1.665  -0.490  -0.926  0.00  0.00    +0.000 A 
ATOM      6  C   UNL     1       2.904  -0.284  -1.523  0.00  0.00    +0.000 A 
ATOM      7  N   UNL     1       3.303  -1.220  -2.417  0.00  0.00    +0.000 NA
ATOM      8  C   UNL     1       2.388  -2.032  -2.998  0.00  0.00    +0.000 A 
ATOM      9  C   UNL     1       2.346  -2.675  -4.229  0.00  0.00    +0.000 A 
ENDROOT
BRANCH   9  10
ATOM     10  C   UNL     1       3.517  -3.019  -5.032  0.00  0.00    +0.000 A 
ATOM     11  C   UNL     1       3.468  -2.917  -6.416  0.00  0.00    +0.000 A 
ATOM     12  C   UNL     1       4.608  -2.703  -7.178  0.00  0.00    +0.000 A 
ATOM     13  N   UNL     1       5.786  -3.061  -6.619  0.00  0.00    +0.000 NA
ATOM     14  C   UNL     1       5.841  -3.284  -5.283  0.00  0.00    +0.000 A 
ATOM     15  C   UNL     1       7.089  -3.457  -4.698  0.00  0.00    +0.000 A 
ATOM     16  C   UNL     1       7.168  -3.532  -3.313  0.00  0.00    +0.000 A 
ATOM     17  C   UNL     1       6.219  -2.795  -2.615  0.00  0.00    +0.000 A 
ATOM     18  C   UNL     1       5.004  -2.455  -3.195  0.00  0.00    +0.000 A 
ATOM     19  C   UNL     1       4.769  -2.994  -4.452  0.00  0.00    +0.000 A 
ENDBRANCH   9  10
BRANCH   5  20
ATOM     20  C   UNL     1       1.111   0.469   0.039  0.00  0.00    +0.000 A 
ATOM     21  C   UNL     1      -0.243   0.755   0.072  0.00  0.00    +0.000 A 
ATOM     22  C   UNL     1      -0.725   1.949   0.539  0.00  0.00    +0.000 A 
ATOM     23  C   UNL     1       0.192   2.923   0.908  0.00  0.00    +0.000 A 
ATOM     24  C   UNL     1       1.431   2.469   1.341  0.00  0.00    +0.000 A 
ATOM     25  C   UNL     1       1.952   1.358   0.688  0.00  0.00    +0.000 A 
BRANCH  23  26
ATOM     26  N   UNL     1      -0.258   4.256   1.160  0.00  0.00    +0.000 N 
ATOM     27  C   UNL     1      -0.118   4.727   2.536  0.00  0.00    +0.000 C 
ATOM     28  C   UNL     1      -0.994   5.969   2.643  0.00  0.00    +0.000 C 
ATOM     29  N   UNL     1      -2.382   5.526   2.534  0.00  0.00    +0.000 NA
ATOM     30  C   UNL     1      -2.587   4.715   1.345  0.00  0.00    +0.000 C 
ATOM     31  C   UNL     1      -1.391   4.803   0.421  0.00  0.00    +0.000 C 
ATOM     32  H   UNL     1      -2.989   6.344   2.486  0.00  0.00    +0.000 HD
ENDBRANCH  23  26
ENDBRANCH   5  20
TORSDOF 3
ENDMDL
