MODEL 1
REMARK VINA RESULT:     4.843      0.000      0.000
REMARK INTER + INTRA:           2.446
REMARK INTER:                   2.755
REMARK INTRA:                  -0.309
REMARK CONF_INDEPENDENT:        2.088
REMARK UNBOUND:                 0.309
REMARK  Name = 6322
REMARK  7 active torsions:
REMARK  status: ('A' for Active; 'I' for Inactive)
REMARK    1  A    between atoms: O_1  and  C_11
REMARK    2  A    between atoms: N_3  and  CA_9
REMARK    3  A    between atoms: NE_4  and  CD_10
REMARK    4  A    between atoms: CB_7  and  CG_8
REMARK    5  A    between atoms: CB_7  and  CA_9
REMARK    6  A    between atoms: CG_8  and  CD_10
REMARK    7  A    between atoms: CA_9  and  C_11
REMARK                            x       y       z     vdW  Elec       q    Type
REMARK                         _______ _______ _______ _____ _____    ______ ____
ROOT
ATOM      1  CG  ARG A   1       5.829   1.494   1.901  0.00  0.00    +0.000 C 
ENDROOT
BRANCH   1   2
ATOM      2  CB  ARG A   1       5.595   2.316   0.625  0.00  0.00    +0.000 C 
BRANCH   2   3
ATOM      3  CA  ARG A   1       6.821   2.312  -0.301  0.00  0.00    +0.000 C 
BRANCH   3   4
ATOM      4  N   ARG A   1       7.908   1.556   0.318  0.00  0.00    +0.000 NA
ATOM      5  H1  ARG A   1       7.819   0.569   0.079  0.00  0.00    +0.000 HD
ATOM      6  H2  ARG A   1       7.828   1.610   1.333  0.00  0.00    +0.000 HD
ENDBRANCH   3   4
BRANCH   3   8
ATOM      7  OXT ARG A   1       7.930   4.398   0.297  0.00  0.00    +0.000 OA
ATOM      8  C   ARG A   1       7.367   3.708  -0.543  0.00  0.00    +0.000 C 
BRANCH   8   9
ATOM      9  O   ARG A   1       7.185   4.112  -1.828  0.00  0.00    +0.000 OA
ATOM     10  H   ARG A   1       7.828   4.808  -2.085  0.00  0.00    +0.000 HD
ENDBRANCH   8   9
ENDBRANCH   3   8
ENDBRANCH   2   3
ENDBRANCH   1   2
BRANCH   1  11
ATOM     11  CD  ARG A   1       4.826   1.829   3.001  0.00  0.00    +0.000 C 
BRANCH  11  12
ATOM     12  NE  ARG A   1       3.690   0.908   2.934  0.00  0.00    +0.000 NA
ATOM     13  NH1 ARG A   1       1.566   0.366   3.688  0.00  0.00    +0.000 N 
ATOM     14  NH2 ARG A   1       2.526   2.242   4.559  0.00  0.00    +0.000 N 
ATOM     15  CZ  ARG A   1       2.673   1.182   3.691  0.00  0.00    +0.000 C 
ATOM     16 HH11 ARG A   1       1.525  -0.458   3.098  0.00  0.00    +0.000 HD
ATOM     17 HH12 ARG A   1       0.760   0.563   4.272  0.00  0.00    +0.000 HD
ATOM     18 HH21 ARG A   1       1.679   2.356   5.104  0.00  0.00    +0.000 HD
ATOM     19 HH22 ARG A   1       3.249   2.940   4.688  0.00  0.00    +0.000 HD
ENDBRANCH  11  12
ENDBRANCH   1  11
TORSDOF 7
ENDMDL
MODEL 2
REMARK VINA RESULT:     7.650      3.729      4.745
REMARK INTER + INTRA:           3.501
REMARK INTER:                   5.562
REMARK INTRA:                  -2.061
REMARK CONF_INDEPENDENT:        2.088
REMARK UNBOUND:                 2.061
REMARK  Name = 6322
REMARK  7 active torsions:
REMARK  status: ('A' for Active; 'I' for Inactive)
REMARK    1  A    between atoms: O_1  and  C_11
REMARK    2  A    between atoms: N_3  and  CA_9
REMARK    3  A    between atoms: NE_4  and  CD_10
REMARK    4  A    between atoms: CB_7  and  CG_8
REMARK    5  A    between atoms: CB_7  and  CA_9
REMARK    6  A    between atoms: CG_8  and  CD_10
REMARK    7  A    between atoms: CA_9  and  C_11
REMARK                            x       y       z     vdW  Elec       q    Type
REMARK                         _______ _______ _______ _____ _____    ______ ____
ROOT
ATOM      1  CG  ARG A   1       6.134   1.975   0.451  0.00  0.00    +0.000 C 
ENDROOT
BRANCH   1   2
ATOM      2  CB  ARG A   1       5.679   1.293   1.750  0.00  0.00    +0.000 C 
BRANCH   2   3
ATOM      3  CA  ARG A   1       4.680   2.155   2.538  0.00  0.00    +0.000 C 
BRANCH   3   4
ATOM      4  N   ARG A   1       5.294   2.616   3.780  0.00  0.00    +0.000 NA
ATOM      5  H1  ARG A   1       5.541   1.815   4.360  0.00  0.00    +0.000 HD
ATOM      6  H2  ARG A   1       4.616   3.156   4.317  0.00  0.00    +0.000 HD
ENDBRANCH   3   4
BRANCH   3   8
ATOM      7  OXT ARG A   1       3.030   0.368   2.388  0.00  0.00    +0.000 OA
ATOM      8  C   ARG A   1       3.443   1.376   2.947  0.00  0.00    +0.000 C 
BRANCH   8   9
ATOM      9  O   ARG A   1       2.841   1.910   4.042  0.00  0.00    +0.000 OA
ATOM     10  H   ARG A   1       3.398   2.596   4.467  0.00  0.00    +0.000 HD
ENDBRANCH   8   9
ENDBRANCH   3   8
ENDBRANCH   2   3
ENDBRANCH   1   2
BRANCH   1  11
ATOM     11  CD  ARG A   1       5.118   2.992  -0.059  0.00  0.00    +0.000 C 
BRANCH  11  12
ATOM     12  NE  ARG A   1       3.876   2.312  -0.429  0.00  0.00    +0.000 NA
ATOM     13  NH1 ARG A   1       1.595   2.477  -0.811  0.00  0.00    +0.000 N 
ATOM     14  NH2 ARG A   1       2.685   4.388  -0.213  0.00  0.00    +0.000 N 
ATOM     15  CZ  ARG A   1       2.803   3.041  -0.473  0.00  0.00    +0.000 C 
ATOM     16 HH11 ARG A   1       1.522   1.490  -1.030  0.00  0.00    +0.000 HD
ATOM     17 HH12 ARG A   1       0.745   3.029  -0.851  0.00  0.00    +0.000 HD
ATOM     18 HH21 ARG A   1       1.788   4.856  -0.280  0.00  0.00    +0.000 HD
ATOM     19 HH22 ARG A   1       3.478   4.959   0.054  0.00  0.00    +0.000 HD
ENDBRANCH  11  12
ENDBRANCH   1  11
TORSDOF 7
ENDMDL
MODEL 3
REMARK VINA RESULT:     7.754      2.864      3.141
REMARK INTER + INTRA:           6.302
REMARK INTER:                   5.666
REMARK INTRA:                   0.636
REMARK CONF_INDEPENDENT:        2.088
REMARK UNBOUND:                -0.636
REMARK  Name = 6322
REMARK  7 active torsions:
REMARK  status: ('A' for Active; 'I' for Inactive)
REMARK    1  A    between atoms: O_1  and  C_11
REMARK    2  A    between atoms: N_3  and  CA_9
REMARK    3  A    between atoms: NE_4  and  CD_10
REMARK    4  A    between atoms: CB_7  and  CG_8
REMARK    5  A    between atoms: CB_7  and  CA_9
REMARK    6  A    between atoms: CG_8  and  CD_10
REMARK    7  A    between atoms: CA_9  and  C_11
REMARK                            x       y       z     vdW  Elec       q    Type
REMARK                         _______ _______ _______ _____ _____    ______ ____
ROOT
ATOM      1  CG  ARG A   1       5.143   1.745   1.879  0.00  0.00    +0.000 C 
ENDROOT
BRANCH   1   2
ATOM      2  CB  ARG A   1       3.764   2.240   1.417  0.00  0.00    +0.000 C 
BRANCH   2   3
ATOM      3  CA  ARG A   1       3.753   2.622  -0.071  0.00  0.00    +0.000 C 
BRANCH   3   4
ATOM      4  N   ARG A   1       5.026   3.241  -0.434  0.00  0.00    +0.000 NA
ATOM      5  H1  ARG A   1       5.496   2.672  -1.137  0.00  0.00    +0.000 HD
ATOM      6  H2  ARG A   1       5.643   3.256   0.377  0.00  0.00    +0.000 HD
ENDBRANCH   3   4
BRANCH   3   8
ATOM      7  OXT ARG A   1       2.424   4.633   0.282  0.00  0.00    +0.000 OA
ATOM      8  C   ARG A   1       2.682   3.647  -0.395  0.00  0.00    +0.000 C 
BRANCH   8   9
ATOM      9  O   ARG A   1       2.039   3.364  -1.560  0.00  0.00    +0.000 OA
ATOM     10  H   ARG A   1       1.478   2.563  -1.482  0.00  0.00    +0.000 HD
ENDBRANCH   8   9
ENDBRANCH   3   8
ENDBRANCH   2   3
ENDBRANCH   1   2
BRANCH   1  11
ATOM     11  CD  ARG A   1       5.341   1.894   3.384  0.00  0.00    +0.000 C 
BRANCH  11  12
ATOM     12  NE  ARG A   1       4.119   2.418   3.997  0.00  0.00    +0.000 NA
ATOM     13  NH1 ARG A   1       1.865   2.108   4.440  0.00  0.00    +0.000 N 
ATOM     14  NH2 ARG A   1       2.926   0.463   3.271  0.00  0.00    +0.000 N 
ATOM     15  CZ  ARG A   1       3.054   1.685   3.892  0.00  0.00    +0.000 C 
ATOM     16 HH11 ARG A   1       1.801   2.992   4.932  0.00  0.00    +0.000 HD
ATOM     17 HH12 ARG A   1       1.021   1.549   4.370  0.00  0.00    +0.000 HD
ATOM     18 HH21 ARG A   1       2.036  -0.022   3.252  0.00  0.00    +0.000 HD
ATOM     19 HH22 ARG A   1       3.705   0.005   2.811  0.00  0.00    +0.000 HD
ENDBRANCH  11  12
ENDBRANCH   1  11
TORSDOF 7
ENDMDL
