MODEL 1
REMARK VINA RESULT:    -9.414      0.000      0.000
REMARK INTER + INTRA:         -13.638
REMARK INTER:                 -11.204
REMARK INTRA:                  -2.434
REMARK CONF_INDEPENDENT:        1.790
REMARK UNBOUND:                 2.434
REMARK  Name = 5318517
REMARK  8 active torsions:
REMARK  status: ('A' for Active; 'I' for Inactive)
REMARK    1  A    between atoms: O_1  and  C_11
REMARK    2  A    between atoms: O_2  and  C_17
REMARK    3  A    between atoms: O_4  and  C_23
REMARK    4  A    between atoms: C_6  and  C_14
REMARK    5  A    between atoms: C_8  and  C_17
REMARK    6  A    between atoms: C_8  and  C_18
REMARK    7  A    between atoms: C_9  and  C_19
REMARK    8  A    between atoms: C_19  and  C_21
REMARK                            x       y       z     vdW  Elec       q    Type
REMARK                         _______ _______ _______ _____ _____    ______ ____
ROOT
ATOM      1  C   UNL     1       4.129  -2.743   1.163  0.00  0.00    +0.000 C 
ATOM      2  C   UNL     1       5.274  -2.943   0.088  0.00  0.00    +0.000 C 
ATOM      3  C   UNL     1       4.830  -3.472  -1.328  0.00  0.00    +0.000 C 
ATOM      4  C   UNL     1       4.840  -2.523   2.566  0.00  0.00    +0.000 C 
ATOM      5  C   UNL     1       3.257  -4.024   1.207  0.00  0.00    +0.000 C 
ATOM      6  C   UNL     1       3.908  -4.711  -1.133  0.00  0.00    +0.000 C 
ATOM      7  C   UNL     1       6.221  -1.721   0.048  0.00  0.00    +0.000 C 
ATOM      8  C   UNL     1       2.757  -4.476  -0.160  0.00  0.00    +0.000 C 
ATOM      9  C   UNL     1       3.208  -1.531   0.867  0.00  0.00    +0.000 C 
ATOM     10  C   UNL     1       6.838  -1.438   1.419  0.00  0.00    +0.000 C 
ATOM     11  C   UNL     1       5.785  -1.325   2.491  0.00  0.00    +0.000 C 
ATOM     12  C   UNL     1       6.083  -3.957  -2.113  0.00  0.00    +0.000 C 
ATOM     13  C   UNL     1       5.729  -0.234   3.274  0.00  0.00    +0.000 C 
ENDROOT
BRANCH   6  14
ATOM     14  O   UNL     1       3.378  -5.175  -2.374  0.00  0.00    +0.000 OA
ATOM     15  H   UNL     1       2.814  -4.471  -2.736  0.00  0.00    +0.000 HD
ENDBRANCH   6  14
BRANCH   3  16
ATOM     16  C   UNL     1       4.166  -2.404  -2.223  0.00  0.00    +0.000 C 
BRANCH  16  17
ATOM     17  O   UNL     1       2.768  -2.552  -2.110  0.00  0.00    +0.000 OA
ATOM     18  H   UNL     1       2.496  -3.234  -2.749  0.00  0.00    +0.000 HD
ENDBRANCH  16  17
ENDBRANCH   3  16
BRANCH   4  19
ATOM     19  C   UNL     1       3.882  -2.500   3.769  0.00  0.00    +0.000 C 
BRANCH  19  22
ATOM     20  O   UNL     1       0.518  -5.808   4.376  0.00  0.00    +0.000 OA
ATOM     21  O   UNL     1       2.572  -6.506   5.148  0.00  0.00    +0.000 OA
ATOM     22  C   UNL     1       3.484  -3.885   4.156  0.00  0.00    +0.000 C 
ATOM     23  C   UNL     1       2.216  -4.291   4.257  0.00  0.00    +0.000 C 
ATOM     24  C   UNL     1       0.982  -3.536   3.946  0.00  0.00    +0.000 C 
ATOM     25  C   UNL     1       1.847  -5.663   4.653  0.00  0.00    +0.000 C 
ATOM     26  C   UNL     1       0.035  -4.673   3.633  0.00  0.00    +0.000 C 
BRANCH  24  27
ATOM     27  O   UNL     1       0.526  -2.859   5.110  0.00  0.00    +0.000 OA
ATOM     28  H   UNL     1       0.811  -3.380   5.881  0.00  0.00    +0.000 HD
ENDBRANCH  24  27
ENDBRANCH  19  22
ENDBRANCH   4  19
TORSDOF 6
ENDMDL
MODEL 2
REMARK VINA RESULT:    -9.260      0.852      1.621
REMARK INTER + INTRA:         -12.878
REMARK INTER:                 -11.049
REMARK INTRA:                  -1.829
REMARK CONF_INDEPENDENT:        1.790
REMARK UNBOUND:                 1.829
REMARK  Name = 5318517
REMARK  8 active torsions:
REMARK  status: ('A' for Active; 'I' for Inactive)
REMARK    1  A    between atoms: O_1  and  C_11
REMARK    2  A    between atoms: O_2  and  C_17
REMARK    3  A    between atoms: O_4  and  C_23
REMARK    4  A    between atoms: C_6  and  C_14
REMARK    5  A    between atoms: C_8  and  C_17
REMARK    6  A    between atoms: C_8  and  C_18
REMARK    7  A    between atoms: C_9  and  C_19
REMARK    8  A    between atoms: C_19  and  C_21
REMARK                            x       y       z     vdW  Elec       q    Type
REMARK                         _______ _______ _______ _____ _____    ______ ____
ROOT
ATOM      1  C   UNL     1       4.505  -2.994   1.434  0.00  0.00    +0.000 C 
ATOM      2  C   UNL     1       5.506  -2.762   0.230  0.00  0.00    +0.000 C 
ATOM      3  C   UNL     1       4.996  -3.171  -1.204  0.00  0.00    +0.000 C 
ATOM      4  C   UNL     1       5.337  -2.818   2.774  0.00  0.00    +0.000 C 
ATOM      5  C   UNL     1       3.943  -4.437   1.345  0.00  0.00    +0.000 C 
ATOM      6  C   UNL     1       4.399  -4.607  -1.132  0.00  0.00    +0.000 C 
ATOM      7  C   UNL     1       6.153  -1.359   0.304  0.00  0.00    +0.000 C 
ATOM      8  C   UNL     1       3.370  -4.791  -0.022  0.00  0.00    +0.000 C 
ATOM      9  C   UNL     1       3.312  -2.003   1.445  0.00  0.00    +0.000 C 
ATOM     10  C   UNL     1       6.877  -1.140   1.634  0.00  0.00    +0.000 C 
ATOM     11  C   UNL     1       5.983  -1.433   2.811  0.00  0.00    +0.000 C 
ATOM     12  C   UNL     1       6.203  -3.229  -2.183  0.00  0.00    +0.000 C 
ATOM     13  C   UNL     1       5.801  -0.511   3.771  0.00  0.00    +0.000 C 
ENDROOT
BRANCH   6  14
ATOM     14  O   UNL     1       3.816  -4.998  -2.374  0.00  0.00    +0.000 OA
ATOM     15  H   UNL     1       3.879  -4.241  -2.981  0.00  0.00    +0.000 HD
ENDBRANCH   6  14
BRANCH   3  16
ATOM     16  C   UNL     1       4.001  -2.171  -1.830  0.00  0.00    +0.000 C 
BRANCH  16  17
ATOM     17  O   UNL     1       2.748  -2.812  -1.930  0.00  0.00    +0.000 OA
ATOM     18  H   UNL     1       2.757  -3.338  -2.749  0.00  0.00    +0.000 HD
ENDBRANCH  16  17
ENDBRANCH   3  16
BRANCH   4  19
ATOM     19  C   UNL     1       4.572  -3.194   4.054  0.00  0.00    +0.000 C 
BRANCH  19  22
ATOM     20  O   UNL     1       0.026  -4.559   4.371  0.00  0.00    +0.000 OA
ATOM     21  O   UNL     1       0.244  -2.480   3.404  0.00  0.00    +0.000 OA
ATOM     22  C   UNL     1       3.117  -2.893   3.909  0.00  0.00    +0.000 C 
ATOM     23  C   UNL     1       2.155  -3.807   4.047  0.00  0.00    +0.000 C 
ATOM     24  C   UNL     1       2.286  -5.230   4.435  0.00  0.00    +0.000 C 
ATOM     25  C   UNL     1       0.723  -3.489   3.887  0.00  0.00    +0.000 C 
ATOM     26  C   UNL     1       0.916  -5.481   5.025  0.00  0.00    +0.000 C 
BRANCH  24  27
ATOM     27  O   UNL     1       2.446  -6.032   3.273  0.00  0.00    +0.000 OA
ATOM     28  H   UNL     1       1.558  -6.293   2.973  0.00  0.00    +0.000 HD
ENDBRANCH  24  27
ENDBRANCH  19  22
ENDBRANCH   4  19
TORSDOF 6
ENDMDL
MODEL 3
REMARK VINA RESULT:    -8.713      1.537      2.418
REMARK INTER + INTRA:         -13.121
REMARK INTER:                 -10.503
REMARK INTRA:                  -2.618
REMARK CONF_INDEPENDENT:        1.790
REMARK UNBOUND:                 2.618
REMARK  Name = 5318517
REMARK  8 active torsions:
REMARK  status: ('A' for Active; 'I' for Inactive)
REMARK    1  A    between atoms: O_1  and  C_11
REMARK    2  A    between atoms: O_2  and  C_17
REMARK    3  A    between atoms: O_4  and  C_23
REMARK    4  A    between atoms: C_6  and  C_14
REMARK    5  A    between atoms: C_8  and  C_17
REMARK    6  A    between atoms: C_8  and  C_18
REMARK    7  A    between atoms: C_9  and  C_19
REMARK    8  A    between atoms: C_19  and  C_21
REMARK                            x       y       z     vdW  Elec       q    Type
REMARK                         _______ _______ _______ _____ _____    ______ ____
ROOT
ATOM      1  C   UNL     1       4.161  -2.707   1.650  0.00  0.00    +0.000 C 
ATOM      2  C   UNL     1       4.797  -3.522   0.450  0.00  0.00    +0.000 C 
ATOM      3  C   UNL     1       4.551  -2.953  -0.999  0.00  0.00    +0.000 C 
ATOM      4  C   UNL     1       4.264  -3.624   2.942  0.00  0.00    +0.000 C 
ATOM      5  C   UNL     1       2.674  -2.418   1.324  0.00  0.00    +0.000 C 
ATOM      6  C   UNL     1       3.034  -2.643  -1.165  0.00  0.00    +0.000 C 
ATOM      7  C   UNL     1       6.266  -3.900   0.749  0.00  0.00    +0.000 C 
ATOM      8  C   UNL     1       2.456  -1.784  -0.046  0.00  0.00    +0.000 C 
ATOM      9  C   UNL     1       4.875  -1.359   1.928  0.00  0.00    +0.000 C 
ATOM     10  C   UNL     1       6.391  -4.703   2.046  0.00  0.00    +0.000 C 
ATOM     11  C   UNL     1       5.722  -4.002   3.201  0.00  0.00    +0.000 C 
ATOM     12  C   UNL     1       4.909  -4.045  -2.048  0.00  0.00    +0.000 C 
ATOM     13  C   UNL     1       6.407  -3.750   4.330  0.00  0.00    +0.000 C 
ENDROOT
BRANCH   6  14
ATOM     14  O   UNL     1       2.757  -2.020  -2.418  0.00  0.00    +0.000 OA
ATOM     15  H   UNL     1       3.250  -2.503  -3.103  0.00  0.00    +0.000 HD
ENDBRANCH   6  14
BRANCH   3  16
ATOM     16  C   UNL     1       5.424  -1.731  -1.356  0.00  0.00    +0.000 C 
BRANCH  16  17
ATOM     17  O   UNL     1       5.005  -1.252  -2.614  0.00  0.00    +0.000 OA
ATOM     18  H   UNL     1       4.194  -0.733  -2.472  0.00  0.00    +0.000 HD
ENDBRANCH  16  17
ENDBRANCH   3  16
BRANCH   4  19
ATOM     19  C   UNL     1       3.524  -3.076   4.174  0.00  0.00    +0.000 C 
BRANCH  19  22
ATOM     20  O   UNL     1       0.445  -6.698   4.001  0.00  0.00    +0.000 OA
ATOM     21  O   UNL     1      -0.617  -4.656   4.034  0.00  0.00    +0.000 OA
ATOM     22  C   UNL     1       2.122  -3.587   4.220  0.00  0.00    +0.000 C 
ATOM     23  C   UNL     1       1.787  -4.855   3.973  0.00  0.00    +0.000 C 
ATOM     24  C   UNL     1       2.678  -6.004   3.696  0.00  0.00    +0.000 C 
ATOM     25  C   UNL     1       0.392  -5.333   4.012  0.00  0.00    +0.000 C 
ATOM     26  C   UNL     1       1.803  -7.148   4.159  0.00  0.00    +0.000 C 
BRANCH  24  27
ATOM     27  O   UNL     1       2.893  -6.119   2.295  0.00  0.00    +0.000 OA
ATOM     28  H   UNL     1       2.183  -5.625   1.850  0.00  0.00    +0.000 HD
ENDBRANCH  24  27
ENDBRANCH  19  22
ENDBRANCH   4  19
TORSDOF 6
ENDMDL
MODEL 4
REMARK VINA RESULT:    -8.231      1.532      5.954
REMARK INTER + INTRA:         -11.435
REMARK INTER:                 -10.021
REMARK INTRA:                  -1.414
REMARK CONF_INDEPENDENT:        1.790
REMARK UNBOUND:                 1.414
REMARK  Name = 5318517
REMARK  8 active torsions:
REMARK  status: ('A' for Active; 'I' for Inactive)
REMARK    1  A    between atoms: O_1  and  C_11
REMARK    2  A    between atoms: O_2  and  C_17
REMARK    3  A    between atoms: O_4  and  C_23
REMARK    4  A    between atoms: C_6  and  C_14
REMARK    5  A    between atoms: C_8  and  C_17
REMARK    6  A    between atoms: C_8  and  C_18
REMARK    7  A    between atoms: C_9  and  C_19
REMARK    8  A    between atoms: C_19  and  C_21
REMARK                            x       y       z     vdW  Elec       q    Type
REMARK                         _______ _______ _______ _____ _____    ______ ____
ROOT
ATOM      1  C   UNL     1       3.541  -3.655   2.903  0.00  0.00    +0.000 C 
ATOM      2  C   UNL     1       3.471  -4.496   4.243  0.00  0.00    +0.000 C 
ATOM      3  C   UNL     1       2.171  -5.356   4.471  0.00  0.00    +0.000 C 
ATOM      4  C   UNL     1       4.760  -2.649   3.046  0.00  0.00    +0.000 C 
ATOM      5  C   UNL     1       2.217  -2.864   2.740  0.00  0.00    +0.000 C 
ATOM      6  C   UNL     1       0.925  -4.459   4.209  0.00  0.00    +0.000 C 
ATOM      7  C   UNL     1       4.795  -5.255   4.494  0.00  0.00    +0.000 C 
ATOM      8  C   UNL     1       0.965  -3.724   2.874  0.00  0.00    +0.000 C 
ATOM      9  C   UNL     1       3.750  -4.527   1.637  0.00  0.00    +0.000 C 
ATOM     10  C   UNL     1       5.993  -4.305   4.537  0.00  0.00    +0.000 C 
ATOM     11  C   UNL     1       6.049  -3.423   3.316  0.00  0.00    +0.000 C 
ATOM     12  C   UNL     1       2.104  -5.803   5.960  0.00  0.00    +0.000 C 
ATOM     13  C   UNL     1       7.163  -3.375   2.565  0.00  0.00    +0.000 C 
ENDROOT
BRANCH   6  14
ATOM     14  O   UNL     1      -0.288  -5.206   4.290  0.00  0.00    +0.000 OA
ATOM     15  H   UNL     1      -0.440  -5.617   3.423  0.00  0.00    +0.000 HD
ENDBRANCH   6  14
BRANCH   3  16
ATOM     16  C   UNL     1       2.119  -6.657   3.643  0.00  0.00    +0.000 C 
BRANCH  16  17
ATOM     17  O   UNL     1       0.882  -7.285   3.897  0.00  0.00    +0.000 OA
ATOM     18  H   UNL     1       0.236  -6.916   3.269  0.00  0.00    +0.000 HD
ENDBRANCH  16  17
ENDBRANCH   3  16
BRANCH   4  19
ATOM     19  C   UNL     1       4.869  -1.613   1.914  0.00  0.00    +0.000 C 
BRANCH  19  22
ATOM     20  O   UNL     1       3.856  -2.873  -2.561  0.00  0.00    +0.000 OA
ATOM     21  O   UNL     1       1.982  -2.207  -1.400  0.00  0.00    +0.000 OA
ATOM     22  C   UNL     1       3.868  -1.892   0.843  0.00  0.00    +0.000 C 
ATOM     23  C   UNL     1       4.191  -2.132  -0.430  0.00  0.00    +0.000 C 
ATOM     24  C   UNL     1       5.540  -2.256  -1.028  0.00  0.00    +0.000 C 
ATOM     25  C   UNL     1       3.182  -2.394  -1.474  0.00  0.00    +0.000 C 
ATOM     26  C   UNL     1       5.231  -3.132  -2.222  0.00  0.00    +0.000 C 
BRANCH  24  27
ATOM     27  O   UNL     1       5.980  -0.984  -1.486  0.00  0.00    +0.000 OA
ATOM     28  H   UNL     1       6.622  -0.646  -0.837  0.00  0.00    +0.000 HD
ENDBRANCH  24  27
ENDBRANCH  19  22
ENDBRANCH   4  19
TORSDOF 6
ENDMDL
MODEL 5
REMARK VINA RESULT:    -7.526      1.237      5.996
REMARK INTER + INTRA:         -10.855
REMARK INTER:                  -9.316
REMARK INTRA:                  -1.540
REMARK CONF_INDEPENDENT:        1.790
REMARK UNBOUND:                 1.540
REMARK  Name = 5318517
REMARK  8 active torsions:
REMARK  status: ('A' for Active; 'I' for Inactive)
REMARK    1  A    between atoms: O_1  and  C_11
REMARK    2  A    between atoms: O_2  and  C_17
REMARK    3  A    between atoms: O_4  and  C_23
REMARK    4  A    between atoms: C_6  and  C_14
REMARK    5  A    between atoms: C_8  and  C_17
REMARK    6  A    between atoms: C_8  and  C_18
REMARK    7  A    between atoms: C_9  and  C_19
REMARK    8  A    between atoms: C_19  and  C_21
REMARK                            x       y       z     vdW  Elec       q    Type
REMARK                         _______ _______ _______ _____ _____    ______ ____
ROOT
ATOM      1  C   UNL     1       3.073  -3.054   2.413  0.00  0.00    +0.000 C 
ATOM      2  C   UNL     1       3.669  -2.854   3.866  0.00  0.00    +0.000 C 
ATOM      3  C   UNL     1       3.106  -3.795   4.997  0.00  0.00    +0.000 C 
ATOM      4  C   UNL     1       3.543  -1.813   1.541  0.00  0.00    +0.000 C 
ATOM      5  C   UNL     1       1.526  -3.080   2.507  0.00  0.00    +0.000 C 
ATOM      6  C   UNL     1       1.550  -3.779   4.932  0.00  0.00    +0.000 C 
ATOM      7  C   UNL     1       5.212  -2.752   3.826  0.00  0.00    +0.000 C 
ATOM      8  C   UNL     1       0.989  -4.060   3.543  0.00  0.00    +0.000 C 
ATOM      9  C   UNL     1       3.545  -4.362   1.726  0.00  0.00    +0.000 C 
ATOM     10  C   UNL     1       5.681  -1.619   2.911  0.00  0.00    +0.000 C 
ATOM     11  C   UNL     1       5.068  -1.723   1.538  0.00  0.00    +0.000 C 
ATOM     12  C   UNL     1       3.509  -3.227   6.388  0.00  0.00    +0.000 C 
ATOM     13  C   UNL     1       5.851  -1.740   0.445  0.00  0.00    +0.000 C 
ENDROOT
BRANCH   6  14
ATOM     14  O   UNL     1       0.975  -4.698   5.860  0.00  0.00    +0.000 OA
ATOM     15  H   UNL     1       1.480  -4.636   6.689  0.00  0.00    +0.000 HD
ENDBRANCH   6  14
BRANCH   3  16
ATOM     16  C   UNL     1       3.662  -5.234   4.959  0.00  0.00    +0.000 C 
BRANCH  16  17
ATOM     17  O   UNL     1       3.013  -5.977   5.966  0.00  0.00    +0.000 OA
ATOM     18  H   UNL     1       2.840  -5.371   6.707  0.00  0.00    +0.000 HD
ENDBRANCH  16  17
ENDBRANCH   3  16
BRANCH   4  19
ATOM     19  C   UNL     1       2.902  -1.735   0.145  0.00  0.00    +0.000 C 
BRANCH  19  22
ATOM     20  O   UNL     1       4.450  -5.178  -2.750  0.00  0.00    +0.000 OA
ATOM     21  O   UNL     1       2.385  -5.660  -1.854  0.00  0.00    +0.000 OA
ATOM     22  C   UNL     1       2.747  -3.098  -0.444  0.00  0.00    +0.000 C 
ATOM     23  C   UNL     1       3.519  -3.573  -1.424  0.00  0.00    +0.000 C 
ATOM     24  C   UNL     1       4.692  -2.935  -2.063  0.00  0.00    +0.000 C 
ATOM     25  C   UNL     1       3.339  -4.920  -1.999  0.00  0.00    +0.000 C 
ATOM     26  C   UNL     1       5.444  -4.157  -2.541  0.00  0.00    +0.000 C 
BRANCH  24  27
ATOM     27  O   UNL     1       4.272  -2.176  -3.189  0.00  0.00    +0.000 OA
ATOM     28  H   UNL     1       3.397  -2.507  -3.455  0.00  0.00    +0.000 HD
ENDBRANCH  24  27
ENDBRANCH  19  22
ENDBRANCH   4  19
TORSDOF 6
ENDMDL
MODEL 6
REMARK VINA RESULT:    -7.253      2.873      4.595
REMARK INTER + INTRA:         -11.041
REMARK INTER:                  -9.043
REMARK INTRA:                  -1.999
REMARK CONF_INDEPENDENT:        1.790
REMARK UNBOUND:                 1.999
REMARK  Name = 5318517
REMARK  8 active torsions:
REMARK  status: ('A' for Active; 'I' for Inactive)
REMARK    1  A    between atoms: O_1  and  C_11
REMARK    2  A    between atoms: O_2  and  C_17
REMARK    3  A    between atoms: O_4  and  C_23
REMARK    4  A    between atoms: C_6  and  C_14
REMARK    5  A    between atoms: C_8  and  C_17
REMARK    6  A    between atoms: C_8  and  C_18
REMARK    7  A    between atoms: C_9  and  C_19
REMARK    8  A    between atoms: C_19  and  C_21
REMARK                            x       y       z     vdW  Elec       q    Type
REMARK                         _______ _______ _______ _____ _____    ______ ____
ROOT
ATOM      1  C   UNL     1       4.401  -3.188   0.947  0.00  0.00    +0.000 C 
ATOM      2  C   UNL     1       4.035  -2.346  -0.342  0.00  0.00    +0.000 C 
ATOM      3  C   UNL     1       4.906  -2.606  -1.628  0.00  0.00    +0.000 C 
ATOM      4  C   UNL     1       3.623  -2.536   2.168  0.00  0.00    +0.000 C 
ATOM      5  C   UNL     1       5.930  -3.097   1.186  0.00  0.00    +0.000 C 
ATOM      6  C   UNL     1       6.411  -2.554  -1.232  0.00  0.00    +0.000 C 
ATOM      7  C   UNL     1       2.508  -2.344  -0.591  0.00  0.00    +0.000 C 
ATOM      8  C   UNL     1       6.766  -3.439  -0.043  0.00  0.00    +0.000 C 
ATOM      9  C   UNL     1       4.010  -4.685   0.839  0.00  0.00    +0.000 C 
ATOM     10  C   UNL     1       1.738  -1.807   0.618  0.00  0.00    +0.000 C 
ATOM     11  C   UNL     1       2.121  -2.526   1.886  0.00  0.00    +0.000 C 
ATOM     12  C   UNL     1       4.665  -1.462  -2.654  0.00  0.00    +0.000 C 
ATOM     13  C   UNL     1       1.177  -3.098   2.653  0.00  0.00    +0.000 C 
ENDROOT
BRANCH   6  14
ATOM     14  O   UNL     1       7.257  -2.892  -2.331  0.00  0.00    +0.000 OA
ATOM     15  H   UNL     1       6.698  -2.958  -3.124  0.00  0.00    +0.000 HD
ENDBRANCH   6  14
BRANCH   3  16
ATOM     16  C   UNL     1       4.559  -3.912  -2.374  0.00  0.00    +0.000 C 
BRANCH  16  17
ATOM     17  O   UNL     1       5.382  -3.992  -3.516  0.00  0.00    +0.000 OA
ATOM     18  H   UNL     1       4.956  -4.607  -4.138  0.00  0.00    +0.000 HD
ENDBRANCH  16  17
ENDBRANCH   3  16
BRANCH   4  19
ATOM     19  C   UNL     1       4.004  -3.106   3.545  0.00  0.00    +0.000 C 
BRANCH  19  22
ATOM     20  O   UNL     1       6.075   1.031   4.654  0.00  0.00    +0.000 OA
ATOM     21  O   UNL     1       5.023   0.073   6.464  0.00  0.00    +0.000 OA
ATOM     22  C   UNL     1       4.256  -2.005   4.521  0.00  0.00    +0.000 C 
ATOM     23  C   UNL     1       5.125  -1.014   4.312  0.00  0.00    +0.000 C 
ATOM     24  C   UNL     1       5.933  -0.739   3.102  0.00  0.00    +0.000 C 
ATOM     25  C   UNL     1       5.367   0.057   5.298  0.00  0.00    +0.000 C 
ATOM     26  C   UNL     1       6.140   0.753   3.243  0.00  0.00    +0.000 C 
BRANCH  24  27
ATOM     27  O   UNL     1       7.189  -1.396   3.203  0.00  0.00    +0.000 OA
ATOM     28  H   UNL     1       7.200  -1.877   4.049  0.00  0.00    +0.000 HD
ENDBRANCH  24  27
ENDBRANCH  19  22
ENDBRANCH   4  19
TORSDOF 6
ENDMDL
MODEL 7
REMARK VINA RESULT:    -7.166      2.051      6.286
REMARK INTER + INTRA:         -11.550
REMARK INTER:                  -8.955
REMARK INTRA:                  -2.595
REMARK CONF_INDEPENDENT:        1.790
REMARK UNBOUND:                 2.595
REMARK  Name = 5318517
REMARK  8 active torsions:
REMARK  status: ('A' for Active; 'I' for Inactive)
REMARK    1  A    between atoms: O_1  and  C_11
REMARK    2  A    between atoms: O_2  and  C_17
REMARK    3  A    between atoms: O_4  and  C_23
REMARK    4  A    between atoms: C_6  and  C_14
REMARK    5  A    between atoms: C_8  and  C_17
REMARK    6  A    between atoms: C_8  and  C_18
REMARK    7  A    between atoms: C_9  and  C_19
REMARK    8  A    between atoms: C_19  and  C_21
REMARK                            x       y       z     vdW  Elec       q    Type
REMARK                         _______ _______ _______ _____ _____    ______ ____
ROOT
ATOM      1  C   UNL     1       3.964  -4.850   2.665  0.00  0.00    +0.000 C 
ATOM      2  C   UNL     1       4.288  -4.357   4.134  0.00  0.00    +0.000 C 
ATOM      3  C   UNL     1       3.062  -4.177   5.107  0.00  0.00    +0.000 C 
ATOM      4  C   UNL     1       5.282  -4.648   1.804  0.00  0.00    +0.000 C 
ATOM      5  C   UNL     1       2.817  -3.981   2.089  0.00  0.00    +0.000 C 
ATOM      6  C   UNL     1       1.963  -3.349   4.379  0.00  0.00    +0.000 C 
ATOM      7  C   UNL     1       5.475  -5.144   4.738  0.00  0.00    +0.000 C 
ATOM      8  C   UNL     1       1.598  -3.888   3.000  0.00  0.00    +0.000 C 
ATOM      9  C   UNL     1       3.536  -6.339   2.594  0.00  0.00    +0.000 C 
ATOM     10  C   UNL     1       6.727  -5.038   3.864  0.00  0.00    +0.000 C 
ATOM     11  C   UNL     1       6.442  -5.418   2.434  0.00  0.00    +0.000 C 
ATOM     12  C   UNL     1       3.506  -3.351   6.348  0.00  0.00    +0.000 C 
ATOM     13  C   UNL     1       7.175  -6.366   1.826  0.00  0.00    +0.000 C 
ENDROOT
BRANCH   6  14
ATOM     14  O   UNL     1       0.776  -3.242   5.164  0.00  0.00    +0.000 OA
ATOM     15  H   UNL     1       1.014  -3.436   6.086  0.00  0.00    +0.000 HD
ENDBRANCH   6  14
BRANCH   3  16
ATOM     16  C   UNL     1       2.499  -5.500   5.667  0.00  0.00    +0.000 C 
BRANCH  16  17
ATOM     17  O   UNL     1       1.946  -5.233   6.937  0.00  0.00    +0.000 OA
ATOM     18  H   UNL     1       1.285  -4.528   6.822  0.00  0.00    +0.000 HD
ENDBRANCH  16  17
ENDBRANCH   3  16
BRANCH   4  19
ATOM     19  C   UNL     1       5.103  -4.897   0.296  0.00  0.00    +0.000 C 
BRANCH  19  22
ATOM     20  O   UNL     1       3.077  -1.212  -1.928  0.00  0.00    +0.000 OA
ATOM     21  O   UNL     1       5.363  -1.243  -2.204  0.00  0.00    +0.000 OA
ATOM     22  C   UNL     1       5.224  -3.621  -0.469  0.00  0.00    +0.000 C 
ATOM     23  C   UNL     1       4.186  -2.981  -1.012  0.00  0.00    +0.000 C 
ATOM     24  C   UNL     1       2.747  -3.319  -0.919  0.00  0.00    +0.000 C 
ATOM     25  C   UNL     1       4.332  -1.727  -1.775  0.00  0.00    +0.000 C 
ATOM     26  C   UNL     1       2.131  -1.954  -1.136  0.00  0.00    +0.000 C 
BRANCH  24  27
ATOM     27  O   UNL     1       2.383  -4.170  -1.998  0.00  0.00    +0.000 OA
ATOM     28  H   UNL     1       2.625  -3.716  -2.823  0.00  0.00    +0.000 HD
ENDBRANCH  24  27
ENDBRANCH  19  22
ENDBRANCH   4  19
TORSDOF 6
ENDMDL
MODEL 8
REMARK VINA RESULT:    -6.804      2.170      6.253
REMARK INTER + INTRA:         -10.933
REMARK INTER:                  -8.594
REMARK INTRA:                  -2.340
REMARK CONF_INDEPENDENT:        1.790
REMARK UNBOUND:                 2.340
REMARK  Name = 5318517
REMARK  8 active torsions:
REMARK  status: ('A' for Active; 'I' for Inactive)
REMARK    1  A    between atoms: O_1  and  C_11
REMARK    2  A    between atoms: O_2  and  C_17
REMARK    3  A    between atoms: O_4  and  C_23
REMARK    4  A    between atoms: C_6  and  C_14
REMARK    5  A    between atoms: C_8  and  C_17
REMARK    6  A    between atoms: C_8  and  C_18
REMARK    7  A    between atoms: C_9  and  C_19
REMARK    8  A    between atoms: C_19  and  C_21
REMARK                            x       y       z     vdW  Elec       q    Type
REMARK                         _______ _______ _______ _____ _____    ______ ____
ROOT
ATOM      1  C   UNL     1       5.336  -2.467   3.714  0.00  0.00    +0.000 C 
ATOM      2  C   UNL     1       4.867  -2.320   5.219  0.00  0.00    +0.000 C 
ATOM      3  C   UNL     1       4.702  -3.654   6.042  0.00  0.00    +0.000 C 
ATOM      4  C   UNL     1       5.120  -1.056   3.019  0.00  0.00    +0.000 C 
ATOM      5  C   UNL     1       4.457  -3.539   3.020  0.00  0.00    +0.000 C 
ATOM      6  C   UNL     1       3.862  -4.660   5.202  0.00  0.00    +0.000 C 
ATOM      7  C   UNL     1       5.664  -1.212   5.947  0.00  0.00    +0.000 C 
ATOM      8  C   UNL     1       4.379  -4.858   3.781  0.00  0.00    +0.000 C 
ATOM      9  C   UNL     1       6.823  -2.881   3.569  0.00  0.00    +0.000 C 
ATOM     10  C   UNL     1       5.544   0.135   5.230  0.00  0.00    +0.000 C 
ATOM     11  C   UNL     1       5.900   0.022   3.770  0.00  0.00    +0.000 C 
ATOM     12  C   UNL     1       3.897  -3.362   7.341  0.00  0.00    +0.000 C 
ATOM     13  C   UNL     1       6.838   0.824   3.237  0.00  0.00    +0.000 C 
ENDROOT
BRANCH   6  14
ATOM     14  O   UNL     1       3.768  -5.932   5.842  0.00  0.00    +0.000 OA
ATOM     15  H   UNL     1       4.468  -5.975   6.516  0.00  0.00    +0.000 HD
ENDBRANCH   6  14
BRANCH   3  16
ATOM     16  C   UNL     1       6.035  -4.276   6.510  0.00  0.00    +0.000 C 
BRANCH  16  17
ATOM     17  O   UNL     1       6.330  -5.360   5.657  0.00  0.00    +0.000 OA
ATOM     18  H   UNL     1       5.905  -6.150   6.034  0.00  0.00    +0.000 HD
ENDBRANCH  16  17
ENDBRANCH   3  16
BRANCH   4  19
ATOM     19  C   UNL     1       5.344  -1.054   1.497  0.00  0.00    +0.000 C 
BRANCH  19  22
ATOM     20  O   UNL     1       3.076  -2.764  -2.320  0.00  0.00    +0.000 OA
ATOM     21  O   UNL     1       1.636  -1.755  -0.833  0.00  0.00    +0.000 OA
ATOM     22  C   UNL     1       4.074  -1.359   0.775  0.00  0.00    +0.000 C 
ATOM     23  C   UNL     1       4.024  -1.795  -0.486  0.00  0.00    +0.000 C 
ATOM     24  C   UNL     1       5.150  -2.139  -1.385  0.00  0.00    +0.000 C 
ATOM     25  C   UNL     1       2.755  -2.078  -1.183  0.00  0.00    +0.000 C 
ATOM     26  C   UNL     1       4.470  -3.124  -2.311  0.00  0.00    +0.000 C 
BRANCH  24  27
ATOM     27  O   UNL     1       5.538  -0.992  -2.129  0.00  0.00    +0.000 OA
ATOM     28  H   UNL     1       4.890  -0.875  -2.845  0.00  0.00    +0.000 HD
ENDBRANCH  24  27
ENDBRANCH  19  22
ENDBRANCH   4  19
TORSDOF 6
ENDMDL
MODEL 9
REMARK VINA RESULT:    -6.501      1.557      5.877
REMARK INTER + INTRA:         -11.088
REMARK INTER:                  -8.291
REMARK INTRA:                  -2.797
REMARK CONF_INDEPENDENT:        1.790
REMARK UNBOUND:                 2.797
REMARK  Name = 5318517
REMARK  8 active torsions:
REMARK  status: ('A' for Active; 'I' for Inactive)
REMARK    1  A    between atoms: O_1  and  C_11
REMARK    2  A    between atoms: O_2  and  C_17
REMARK    3  A    between atoms: O_4  and  C_23
REMARK    4  A    between atoms: C_6  and  C_14
REMARK    5  A    between atoms: C_8  and  C_17
REMARK    6  A    between atoms: C_8  and  C_18
REMARK    7  A    between atoms: C_9  and  C_19
REMARK    8  A    between atoms: C_19  and  C_21
REMARK                            x       y       z     vdW  Elec       q    Type
REMARK                         _______ _______ _______ _____ _____    ______ ____
ROOT
ATOM      1  C   UNL     1       4.672  -3.838   2.592  0.00  0.00    +0.000 C 
ATOM      2  C   UNL     1       3.691  -3.280   3.702  0.00  0.00    +0.000 C 
ATOM      3  C   UNL     1       2.831  -4.343   4.486  0.00  0.00    +0.000 C 
ATOM      4  C   UNL     1       5.172  -2.593   1.744  0.00  0.00    +0.000 C 
ATOM      5  C   UNL     1       3.888  -4.818   1.681  0.00  0.00    +0.000 C 
ATOM      6  C   UNL     1       2.159  -5.300   3.457  0.00  0.00    +0.000 C 
ATOM      7  C   UNL     1       4.401  -2.241   4.603  0.00  0.00    +0.000 C 
ATOM      8  C   UNL     1       3.132  -5.898   2.446  0.00  0.00    +0.000 C 
ATOM      9  C   UNL     1       5.902  -4.583   3.172  0.00  0.00    +0.000 C 
ATOM     10  C   UNL     1       4.974  -1.082   3.784  0.00  0.00    +0.000 C 
ATOM     11  C   UNL     1       5.849  -1.574   2.660  0.00  0.00    +0.000 C 
ATOM     12  C   UNL     1       1.685  -3.618   5.248  0.00  0.00    +0.000 C 
ATOM     13  C   UNL     1       7.109  -1.124   2.534  0.00  0.00    +0.000 C 
ENDROOT
BRANCH   6  14
ATOM     14  O   UNL     1       1.453  -6.357   4.103  0.00  0.00    +0.000 OA
ATOM     15  H   UNL     1       2.042  -6.737   4.777  0.00  0.00    +0.000 HD
ENDBRANCH   6  14
BRANCH   3  16
ATOM     16  C   UNL     1       3.616  -5.124   5.560  0.00  0.00    +0.000 C 
BRANCH  16  17
ATOM     17  O   UNL     1       2.690  -5.606   6.509  0.00  0.00    +0.000 OA
ATOM     18  H   UNL     1       1.981  -6.057   6.019  0.00  0.00    +0.000 HD
ENDBRANCH  16  17
ENDBRANCH   3  16
BRANCH   4  19
ATOM     19  C   UNL     1       5.990  -2.960   0.493  0.00  0.00    +0.000 C 
BRANCH  19  22
ATOM     20  O   UNL     1       2.538  -1.381  -2.374  0.00  0.00    +0.000 OA
ATOM     21  O   UNL     1       4.632  -0.797  -3.132  0.00  0.00    +0.000 OA
ATOM     22  C   UNL     1       5.552  -2.150  -0.682  0.00  0.00    +0.000 C 
ATOM     23  C   UNL     1       4.308  -2.159  -1.166  0.00  0.00    +0.000 C 
ATOM     24  C   UNL     1       3.120  -2.865  -0.635  0.00  0.00    +0.000 C 
ATOM     25  C   UNL     1       3.903  -1.359  -2.337  0.00  0.00    +0.000 C 
ATOM     26  C   UNL     1       2.014  -1.986  -1.177  0.00  0.00    +0.000 C 
BRANCH  24  27
ATOM     27  O   UNL     1       3.022  -4.154  -1.227  0.00  0.00    +0.000 OA
ATOM     28  H   UNL     1       3.018  -4.032  -2.192  0.00  0.00    +0.000 HD
ENDBRANCH  24  27
ENDBRANCH  19  22
ENDBRANCH   4  19
TORSDOF 6
ENDMDL
