MODEL 1
REMARK VINA RESULT:    -9.369      0.000      0.000
REMARK INTER + INTRA:         -13.628
REMARK INTER:                 -11.159
REMARK INTRA:                  -2.469
REMARK CONF_INDEPENDENT:        1.790
REMARK UNBOUND:                 2.469
REMARK  Name = 5318517
REMARK  8 active torsions:
REMARK  status: ('A' for Active; 'I' for Inactive)
REMARK    1  A    between atoms: O_1  and  C_11
REMARK    2  A    between atoms: O_2  and  C_17
REMARK    3  A    between atoms: O_4  and  C_23
REMARK    4  A    between atoms: C_6  and  C_14
REMARK    5  A    between atoms: C_8  and  C_17
REMARK    6  A    between atoms: C_8  and  C_18
REMARK    7  A    between atoms: C_9  and  C_19
REMARK    8  A    between atoms: C_19  and  C_21
REMARK                            x       y       z     vdW  Elec       q    Type
REMARK                         _______ _______ _______ _____ _____    ______ ____
ROOT
ATOM      1  C   UNL     1       4.144  -2.700   1.209  0.00  0.00    +0.000 C 
ATOM      2  C   UNL     1       5.294  -2.898   0.140  0.00  0.00    +0.000 C 
ATOM      3  C   UNL     1       4.854  -3.398  -1.288  0.00  0.00    +0.000 C 
ATOM      4  C   UNL     1       4.847  -2.512   2.621  0.00  0.00    +0.000 C 
ATOM      5  C   UNL     1       3.254  -3.969   1.226  0.00  0.00    +0.000 C 
ATOM      6  C   UNL     1       3.914  -4.627  -1.120  0.00  0.00    +0.000 C 
ATOM      7  C   UNL     1       6.258  -1.688   0.126  0.00  0.00    +0.000 C 
ATOM      8  C   UNL     1       2.759  -4.392  -0.152  0.00  0.00    +0.000 C 
ATOM      9  C   UNL     1       3.242  -1.471   0.926  0.00  0.00    +0.000 C 
ATOM     10  C   UNL     1       6.868  -1.436   1.507  0.00  0.00    +0.000 C 
ATOM     11  C   UNL     1       5.809  -1.326   2.573  0.00  0.00    +0.000 C 
ATOM     12  C   UNL     1       6.106  -3.886  -2.071  0.00  0.00    +0.000 C 
ATOM     13  C   UNL     1       5.761  -0.247   3.373  0.00  0.00    +0.000 C 
ENDROOT
BRANCH   6  14
ATOM     14  O   UNL     1       3.388  -5.064  -2.372  0.00  0.00    +0.000 OA
ATOM     15  H   UNL     1       3.560  -4.364  -3.025  0.00  0.00    +0.000 HD
ENDBRANCH   6  14
BRANCH   3  16
ATOM     16  C   UNL     1       4.211  -2.306  -2.170  0.00  0.00    +0.000 C 
BRANCH  16  17
ATOM     17  O   UNL     1       2.817  -2.517  -2.173  0.00  0.00    +0.000 OA
ATOM     18  H   UNL     1       2.635  -3.247  -2.790  0.00  0.00    +0.000 HD
ENDBRANCH  16  17
ENDBRANCH   3  16
BRANCH   4  19
ATOM     19  C   UNL     1       3.880  -2.495   3.817  0.00  0.00    +0.000 C 
BRANCH  19  22
ATOM     20  O   UNL     1       0.508  -5.804   4.376  0.00  0.00    +0.000 OA
ATOM     21  O   UNL     1       2.555  -6.508   5.160  0.00  0.00    +0.000 OA
ATOM     22  C   UNL     1       3.477  -3.883   4.192  0.00  0.00    +0.000 C 
ATOM     23  C   UNL     1       2.209  -4.288   4.280  0.00  0.00    +0.000 C 
ATOM     24  C   UNL     1       0.977  -3.529   3.964  0.00  0.00    +0.000 C 
ATOM     25  C   UNL     1       1.835  -5.662   4.665  0.00  0.00    +0.000 C 
ATOM     26  C   UNL     1       0.032  -4.664   3.635  0.00  0.00    +0.000 C 
BRANCH  24  27
ATOM     27  O   UNL     1       0.513  -2.859   5.128  0.00  0.00    +0.000 OA
ATOM     28  H   UNL     1       0.736  -3.416   5.894  0.00  0.00    +0.000 HD
ENDBRANCH  24  27
ENDBRANCH  19  22
ENDBRANCH   4  19
TORSDOF 6
ENDMDL
MODEL 2
REMARK VINA RESULT:    -8.664      1.523      2.381
REMARK INTER + INTRA:         -13.133
REMARK INTER:                 -10.453
REMARK INTRA:                  -2.679
REMARK CONF_INDEPENDENT:        1.790
REMARK UNBOUND:                 2.679
REMARK  Name = 5318517
REMARK  8 active torsions:
REMARK  status: ('A' for Active; 'I' for Inactive)
REMARK    1  A    between atoms: O_1  and  C_11
REMARK    2  A    between atoms: O_2  and  C_17
REMARK    3  A    between atoms: O_4  and  C_23
REMARK    4  A    between atoms: C_6  and  C_14
REMARK    5  A    between atoms: C_8  and  C_17
REMARK    6  A    between atoms: C_8  and  C_18
REMARK    7  A    between atoms: C_9  and  C_19
REMARK    8  A    between atoms: C_19  and  C_21
REMARK                            x       y       z     vdW  Elec       q    Type
REMARK                         _______ _______ _______ _____ _____    ______ ____
ROOT
ATOM      1  C   UNL     1       4.188  -2.707   1.690  0.00  0.00    +0.000 C 
ATOM      2  C   UNL     1       4.819  -3.533   0.496  0.00  0.00    +0.000 C 
ATOM      3  C   UNL     1       4.568  -2.979  -0.958  0.00  0.00    +0.000 C 
ATOM      4  C   UNL     1       4.296  -3.610   2.991  0.00  0.00    +0.000 C 
ATOM      5  C   UNL     1       2.699  -2.420   1.367  0.00  0.00    +0.000 C 
ATOM      6  C   UNL     1       3.050  -2.671  -1.120  0.00  0.00    +0.000 C 
ATOM      7  C   UNL     1       6.290  -3.908   0.794  0.00  0.00    +0.000 C 
ATOM      8  C   UNL     1       2.476  -1.800  -0.008  0.00  0.00    +0.000 C 
ATOM      9  C   UNL     1       4.902  -1.355   1.952  0.00  0.00    +0.000 C 
ATOM     10  C   UNL     1       6.419  -4.697   2.098  0.00  0.00    +0.000 C 
ATOM     11  C   UNL     1       5.755  -3.985   3.248  0.00  0.00    +0.000 C 
ATOM     12  C   UNL     1       4.922  -4.081  -1.997  0.00  0.00    +0.000 C 
ATOM     13  C   UNL     1       6.444  -3.722   4.372  0.00  0.00    +0.000 C 
ENDROOT
BRANCH   6  14
ATOM     14  O   UNL     1       2.768  -2.060  -2.379  0.00  0.00    +0.000 OA
ATOM     15  H   UNL     1       3.285  -2.529  -3.056  0.00  0.00    +0.000 HD
ENDBRANCH   6  14
BRANCH   3  16
ATOM     16  C   UNL     1       5.439  -1.760  -1.330  0.00  0.00    +0.000 C 
BRANCH  16  17
ATOM     17  O   UNL     1       5.039  -1.315  -2.607  0.00  0.00    +0.000 OA
ATOM     18  H   UNL     1       4.592  -2.060  -3.046  0.00  0.00    +0.000 HD
ENDBRANCH  16  17
ENDBRANCH   3  16
BRANCH   4  19
ATOM     19  C   UNL     1       3.561  -3.050   4.220  0.00  0.00    +0.000 C 
BRANCH  19  22
ATOM     20  O   UNL     1       0.390  -6.594   4.080  0.00  0.00    +0.000 OA
ATOM     21  O   UNL     1      -0.618  -4.524   4.038  0.00  0.00    +0.000 OA
ATOM     22  C   UNL     1       2.145  -3.523   4.251  0.00  0.00    +0.000 C 
ATOM     23  C   UNL     1       1.781  -4.788   4.031  0.00  0.00    +0.000 C 
ATOM     24  C   UNL     1       2.647  -5.967   3.802  0.00  0.00    +0.000 C 
ATOM     25  C   UNL     1       0.374  -5.228   4.055  0.00  0.00    +0.000 C 
ATOM     26  C   UNL     1       1.733  -7.075   4.277  0.00  0.00    +0.000 C 
BRANCH  24  27
ATOM     27  O   UNL     1       2.885  -6.125   2.410  0.00  0.00    +0.000 OA
ATOM     28  H   UNL     1       2.112  -6.577   2.030  0.00  0.00    +0.000 HD
ENDBRANCH  24  27
ENDBRANCH  19  22
ENDBRANCH   4  19
TORSDOF 6
ENDMDL
MODEL 3
REMARK VINA RESULT:    -8.573      1.561      5.977
REMARK INTER + INTRA:         -11.669
REMARK INTER:                 -10.363
REMARK INTRA:                  -1.307
REMARK CONF_INDEPENDENT:        1.790
REMARK UNBOUND:                 1.307
REMARK  Name = 5318517
REMARK  8 active torsions:
REMARK  status: ('A' for Active; 'I' for Inactive)
REMARK    1  A    between atoms: O_1  and  C_11
REMARK    2  A    between atoms: O_2  and  C_17
REMARK    3  A    between atoms: O_4  and  C_23
REMARK    4  A    between atoms: C_6  and  C_14
REMARK    5  A    between atoms: C_8  and  C_17
REMARK    6  A    between atoms: C_8  and  C_18
REMARK    7  A    between atoms: C_9  and  C_19
REMARK    8  A    between atoms: C_19  and  C_21
REMARK                            x       y       z     vdW  Elec       q    Type
REMARK                         _______ _______ _______ _____ _____    ______ ____
ROOT
ATOM      1  C   UNL     1       3.608  -3.718   2.820  0.00  0.00    +0.000 C 
ATOM      2  C   UNL     1       3.479  -4.515   4.182  0.00  0.00    +0.000 C 
ATOM      3  C   UNL     1       2.132  -5.297   4.418  0.00  0.00    +0.000 C 
ATOM      4  C   UNL     1       4.879  -2.775   2.951  0.00  0.00    +0.000 C 
ATOM      5  C   UNL     1       2.331  -2.861   2.621  0.00  0.00    +0.000 C 
ATOM      6  C   UNL     1       0.939  -4.343   4.117  0.00  0.00    +0.000 C 
ATOM      7  C   UNL     1       4.757  -5.338   4.469  0.00  0.00    +0.000 C 
ATOM      8  C   UNL     1       1.033  -3.648   2.763  0.00  0.00    +0.000 C 
ATOM      9  C   UNL     1       3.783  -4.634   1.582  0.00  0.00    +0.000 C 
ATOM     10  C   UNL     1       6.004  -4.453   4.501  0.00  0.00    +0.000 C 
ATOM     11  C   UNL     1       6.121  -3.610   3.257  0.00  0.00    +0.000 C 
ATOM     12  C   UNL     1       2.025  -5.699   5.917  0.00  0.00    +0.000 C 
ATOM     13  C   UNL     1       7.243  -3.643   2.519  0.00  0.00    +0.000 C 
ENDROOT
BRANCH   6  14
ATOM     14  O   UNL     1      -0.314  -5.020   4.204  0.00  0.00    +0.000 OA
ATOM     15  H   UNL     1      -0.224  -5.868   3.737  0.00  0.00    +0.000 HD
ENDBRANCH   6  14
BRANCH   3  16
ATOM     16  C   UNL     1       2.018  -6.617   3.625  0.00  0.00    +0.000 C 
BRANCH  16  17
ATOM     17  O   UNL     1       0.807  -7.240   3.990  0.00  0.00    +0.000 OA
ATOM     18  H   UNL     1       0.139  -6.984   3.330  0.00  0.00    +0.000 HD
ENDBRANCH  16  17
ENDBRANCH   3  16
BRANCH   4  19
ATOM     19  C   UNL     1       5.056  -1.779   1.792  0.00  0.00    +0.000 C 
BRANCH  19  22
ATOM     20  O   UNL     1       3.516  -2.623  -2.629  0.00  0.00    +0.000 OA
ATOM     21  O   UNL     1       1.824  -1.906  -1.242  0.00  0.00    +0.000 OA
ATOM     22  C   UNL     1       3.936  -1.901   0.813  0.00  0.00    +0.000 C 
ATOM     23  C   UNL     1       4.115  -2.070  -0.499  0.00  0.00    +0.000 C 
ATOM     24  C   UNL     1       5.384  -2.249  -1.239  0.00  0.00    +0.000 C 
ATOM     25  C   UNL     1       2.991  -2.176  -1.450  0.00  0.00    +0.000 C 
ATOM     26  C   UNL     1       4.892  -3.009  -2.451  0.00  0.00    +0.000 C 
BRANCH  24  27
ATOM     27  O   UNL     1       5.882  -0.984  -1.654  0.00  0.00    +0.000 OA
ATOM     28  H   UNL     1       5.290  -0.652  -2.351  0.00  0.00    +0.000 HD
ENDBRANCH  24  27
ENDBRANCH  19  22
ENDBRANCH   4  19
TORSDOF 6
ENDMDL
MODEL 4
REMARK VINA RESULT:    -8.375      1.536      2.371
REMARK INTER + INTRA:         -10.584
REMARK INTER:                 -10.165
REMARK INTRA:                  -0.419
REMARK CONF_INDEPENDENT:        1.790
REMARK UNBOUND:                 0.419
REMARK  Name = 5318517
REMARK  8 active torsions:
REMARK  status: ('A' for Active; 'I' for Inactive)
REMARK    1  A    between atoms: O_1  and  C_11
REMARK    2  A    between atoms: O_2  and  C_17
REMARK    3  A    between atoms: O_4  and  C_23
REMARK    4  A    between atoms: C_6  and  C_14
REMARK    5  A    between atoms: C_8  and  C_17
REMARK    6  A    between atoms: C_8  and  C_18
REMARK    7  A    between atoms: C_9  and  C_19
REMARK    8  A    between atoms: C_19  and  C_21
REMARK                            x       y       z     vdW  Elec       q    Type
REMARK                         _______ _______ _______ _____ _____    ______ ____
ROOT
ATOM      1  C   UNL     1       4.348  -3.669   0.050  0.00  0.00    +0.000 C 
ATOM      2  C   UNL     1       5.705  -3.372  -0.710  0.00  0.00    +0.000 C 
ATOM      3  C   UNL     1       5.733  -3.681  -2.255  0.00  0.00    +0.000 C 
ATOM      4  C   UNL     1       4.658  -3.589   1.605  0.00  0.00    +0.000 C 
ATOM      5  C   UNL     1       3.870  -5.096  -0.322  0.00  0.00    +0.000 C 
ATOM      6  C   UNL     1       5.164  -5.112  -2.489  0.00  0.00    +0.000 C 
ATOM      7  C   UNL     1       6.268  -1.984  -0.325  0.00  0.00    +0.000 C 
ATOM      8  C   UNL     1       3.815  -5.355  -1.823  0.00  0.00    +0.000 C 
ATOM      9  C   UNL     1       3.216  -2.667  -0.293  0.00  0.00    +0.000 C 
ATOM     10  C   UNL     1       6.479  -1.859   1.186  0.00  0.00    +0.000 C 
ATOM     11  C   UNL     1       5.233  -2.217   1.954  0.00  0.00    +0.000 C 
ATOM     12  C   UNL     1       7.207  -3.690  -2.752  0.00  0.00    +0.000 C 
ATOM     13  C   UNL     1       4.717  -1.357   2.848  0.00  0.00    +0.000 C 
ENDROOT
BRANCH   6  14
ATOM     14  O   UNL     1       5.057  -5.415  -3.879  0.00  0.00    +0.000 OA
ATOM     15  H   UNL     1       4.112  -5.484  -4.095  0.00  0.00    +0.000 HD
ENDBRANCH   6  14
BRANCH   3  16
ATOM     16  C   UNL     1       5.007  -2.632  -3.124  0.00  0.00    +0.000 C 
BRANCH  16  17
ATOM     17  O   UNL     1       5.160  -1.375  -2.503  0.00  0.00    +0.000 OA
ATOM     18  H   UNL     1       4.486  -1.312  -1.804  0.00  0.00    +0.000 HD
ENDBRANCH  16  17
ENDBRANCH   3  16
BRANCH   4  19
ATOM     19  C   UNL     1       3.498  -4.038   2.510  0.00  0.00    +0.000 C 
BRANCH  19  22
ATOM     20  O   UNL     1      -0.888  -2.683   3.759  0.00  0.00    +0.000 OA
ATOM     21  O   UNL     1      -0.233  -1.764   1.753  0.00  0.00    +0.000 OA
ATOM     22  C   UNL     1       2.289  -3.193   2.280  0.00  0.00    +0.000 C 
ATOM     23  C   UNL     1       1.152  -3.324   2.967  0.00  0.00    +0.000 C 
ATOM     24  C   UNL     1       0.864  -4.224   4.107  0.00  0.00    +0.000 C 
ATOM     25  C   UNL     1      -0.034  -2.484   2.712  0.00  0.00    +0.000 C 
ATOM     26  C   UNL     1      -0.244  -3.454   4.791  0.00  0.00    +0.000 C 
BRANCH  24  27
ATOM     27  O   UNL     1       0.347  -5.457   3.626  0.00  0.00    +0.000 OA
ATOM     28  H   UNL     1       1.075  -5.927   3.184  0.00  0.00    +0.000 HD
ENDBRANCH  24  27
ENDBRANCH  19  22
ENDBRANCH   4  19
TORSDOF 6
ENDMDL
MODEL 5
REMARK VINA RESULT:    -7.457      1.640      2.640
REMARK INTER + INTRA:         -10.222
REMARK INTER:                  -9.247
REMARK INTRA:                  -0.976
REMARK CONF_INDEPENDENT:        1.790
REMARK UNBOUND:                 0.976
REMARK  Name = 5318517
REMARK  8 active torsions:
REMARK  status: ('A' for Active; 'I' for Inactive)
REMARK    1  A    between atoms: O_1  and  C_11
REMARK    2  A    between atoms: O_2  and  C_17
REMARK    3  A    between atoms: O_4  and  C_23
REMARK    4  A    between atoms: C_6  and  C_14
REMARK    5  A    between atoms: C_8  and  C_17
REMARK    6  A    between atoms: C_8  and  C_18
REMARK    7  A    between atoms: C_9  and  C_19
REMARK    8  A    between atoms: C_19  and  C_21
REMARK                            x       y       z     vdW  Elec       q    Type
REMARK                         _______ _______ _______ _____ _____    ______ ____
ROOT
ATOM      1  C   UNL     1       4.101  -3.461   0.664  0.00  0.00    +0.000 C 
ATOM      2  C   UNL     1       4.144  -2.900  -0.816  0.00  0.00    +0.000 C 
ATOM      3  C   UNL     1       5.005  -3.711  -1.856  0.00  0.00    +0.000 C 
ATOM      4  C   UNL     1       3.458  -2.330   1.573  0.00  0.00    +0.000 C 
ATOM      5  C   UNL     1       5.551  -3.753   1.129  0.00  0.00    +0.000 C 
ATOM      6  C   UNL     1       6.405  -3.993  -1.235  0.00  0.00    +0.000 C 
ATOM      7  C   UNL     1       2.727  -2.525  -1.311  0.00  0.00    +0.000 C 
ATOM      8  C   UNL     1       6.347  -4.615   0.156  0.00  0.00    +0.000 C 
ATOM      9  C   UNL     1       3.268  -4.761   0.808  0.00  0.00    +0.000 C 
ATOM     10  C   UNL     1       2.056  -1.506  -0.387  0.00  0.00    +0.000 C 
ATOM     11  C   UNL     1       2.070  -1.963   1.049  0.00  0.00    +0.000 C 
ATOM     12  C   UNL     1       5.237  -2.841  -3.124  0.00  0.00    +0.000 C 
ATOM     13  C   UNL     1       0.926  -2.030   1.750  0.00  0.00    +0.000 C 
ENDROOT
BRANCH   6  14
ATOM     14  O   UNL     1       7.200  -4.822  -2.081  0.00  0.00    +0.000 OA
ATOM     15  H   UNL     1       6.633  -5.544  -2.404  0.00  0.00    +0.000 HD
ENDBRANCH   6  14
BRANCH   3  16
ATOM     16  C   UNL     1       4.334  -5.008  -2.358  0.00  0.00    +0.000 C 
BRANCH  16  17
ATOM     17  O   UNL     1       5.010  -5.421  -3.525  0.00  0.00    +0.000 OA
ATOM     18  H   UNL     1       4.843  -4.750  -4.210  0.00  0.00    +0.000 HD
ENDBRANCH  16  17
ENDBRANCH   3  16
BRANCH   4  19
ATOM     19  C   UNL     1       3.507  -2.620   3.083  0.00  0.00    +0.000 C 
BRANCH  19  22
ATOM     20  O   UNL     1       0.413  -6.014   4.323  0.00  0.00    +0.000 OA
ATOM     21  O   UNL     1       2.566  -6.815   4.170  0.00  0.00    +0.000 OA
ATOM     22  C   UNL     1       3.200  -4.055   3.357  0.00  0.00    +0.000 C 
ATOM     23  C   UNL     1       2.034  -4.484   3.843  0.00  0.00    +0.000 C 
ATOM     24  C   UNL     1       0.813  -3.698   4.130  0.00  0.00    +0.000 C 
ATOM     25  C   UNL     1       1.759  -5.907   4.117  0.00  0.00    +0.000 C 
ATOM     26  C   UNL     1      -0.243  -4.773   4.001  0.00  0.00    +0.000 C 
BRANCH  24  27
ATOM     27  O   UNL     1       0.844  -3.235   5.474  0.00  0.00    +0.000 OA
ATOM     28  H   UNL     1       1.656  -3.579   5.883  0.00  0.00    +0.000 HD
ENDBRANCH  24  27
ENDBRANCH  19  22
ENDBRANCH   4  19
TORSDOF 6
ENDMDL
MODEL 6
REMARK VINA RESULT:    -7.260      2.887      4.634
REMARK INTER + INTRA:         -11.043
REMARK INTER:                  -9.050
REMARK INTRA:                  -1.994
REMARK CONF_INDEPENDENT:        1.790
REMARK UNBOUND:                 1.994
REMARK  Name = 5318517
REMARK  8 active torsions:
REMARK  status: ('A' for Active; 'I' for Inactive)
REMARK    1  A    between atoms: O_1  and  C_11
REMARK    2  A    between atoms: O_2  and  C_17
REMARK    3  A    between atoms: O_4  and  C_23
REMARK    4  A    between atoms: C_6  and  C_14
REMARK    5  A    between atoms: C_8  and  C_17
REMARK    6  A    between atoms: C_8  and  C_18
REMARK    7  A    between atoms: C_9  and  C_19
REMARK    8  A    between atoms: C_19  and  C_21
REMARK                            x       y       z     vdW  Elec       q    Type
REMARK                         _______ _______ _______ _____ _____    ______ ____
ROOT
ATOM      1  C   UNL     1       4.426  -3.198   0.932  0.00  0.00    +0.000 C 
ATOM      2  C   UNL     1       4.025  -2.399  -0.375  0.00  0.00    +0.000 C 
ATOM      3  C   UNL     1       4.900  -2.659  -1.660  0.00  0.00    +0.000 C 
ATOM      4  C   UNL     1       3.630  -2.545   2.140  0.00  0.00    +0.000 C 
ATOM      5  C   UNL     1       5.952  -3.046   1.160  0.00  0.00    +0.000 C 
ATOM      6  C   UNL     1       6.404  -2.544  -1.272  0.00  0.00    +0.000 C 
ATOM      7  C   UNL     1       2.498  -2.457  -0.618  0.00  0.00    +0.000 C 
ATOM      8  C   UNL     1       6.795  -3.387  -0.064  0.00  0.00    +0.000 C 
ATOM      9  C   UNL     1       4.088  -4.709   0.861  0.00  0.00    +0.000 C 
ATOM     10  C   UNL     1       1.715  -1.920   0.582  0.00  0.00    +0.000 C 
ATOM     11  C   UNL     1       2.128  -2.595   1.865  0.00  0.00    +0.000 C 
ATOM     12  C   UNL     1       4.615  -1.548  -2.711  0.00  0.00    +0.000 C 
ATOM     13  C   UNL     1       1.208  -3.181   2.649  0.00  0.00    +0.000 C 
ENDROOT
BRANCH   6  14
ATOM     14  O   UNL     1       7.257  -2.877  -2.366  0.00  0.00    +0.000 OA
ATOM     15  H   UNL     1       6.829  -3.592  -2.867  0.00  0.00    +0.000 HD
ENDBRANCH   6  14
BRANCH   3  16
ATOM     16  C   UNL     1       4.597  -3.994  -2.372  0.00  0.00    +0.000 C 
BRANCH  16  17
ATOM     17  O   UNL     1       5.375  -4.045  -3.547  0.00  0.00    +0.000 OA
ATOM     18  H   UNL     1       4.862  -4.534  -4.214  0.00  0.00    +0.000 HD
ENDBRANCH  16  17
ENDBRANCH   3  16
BRANCH   4  19
ATOM     19  C   UNL     1       4.036  -3.067   3.528  0.00  0.00    +0.000 C 
BRANCH  19  22
ATOM     20  O   UNL     1       6.064   1.116   4.542  0.00  0.00    +0.000 OA
ATOM     21  O   UNL     1       4.987   0.208   6.363  0.00  0.00    +0.000 OA
ATOM     22  C   UNL     1       4.266  -1.935   4.474  0.00  0.00    +0.000 C 
ATOM     23  C   UNL     1       5.132  -0.945   4.248  0.00  0.00    +0.000 C 
ATOM     24  C   UNL     1       5.959  -0.703   3.043  0.00  0.00    +0.000 C 
ATOM     25  C   UNL     1       5.351   0.157   5.204  0.00  0.00    +0.000 C 
ATOM     26  C   UNL     1       6.155   0.793   3.141  0.00  0.00    +0.000 C 
BRANCH  24  27
ATOM     27  O   UNL     1       7.217  -1.348   3.187  0.00  0.00    +0.000 OA
ATOM     28  H   UNL     1       7.257  -1.714   4.087  0.00  0.00    +0.000 HD
ENDBRANCH  24  27
ENDBRANCH  19  22
ENDBRANCH   4  19
TORSDOF 6
ENDMDL
MODEL 7
REMARK VINA RESULT:    -7.183      2.013      6.270
REMARK INTER + INTRA:         -11.588
REMARK INTER:                  -8.973
REMARK INTRA:                  -2.616
REMARK CONF_INDEPENDENT:        1.790
REMARK UNBOUND:                 2.616
REMARK  Name = 5318517
REMARK  8 active torsions:
REMARK  status: ('A' for Active; 'I' for Inactive)
REMARK    1  A    between atoms: O_1  and  C_11
REMARK    2  A    between atoms: O_2  and  C_17
REMARK    3  A    between atoms: O_4  and  C_23
REMARK    4  A    between atoms: C_6  and  C_14
REMARK    5  A    between atoms: C_8  and  C_17
REMARK    6  A    between atoms: C_8  and  C_18
REMARK    7  A    between atoms: C_9  and  C_19
REMARK    8  A    between atoms: C_19  and  C_21
REMARK                            x       y       z     vdW  Elec       q    Type
REMARK                         _______ _______ _______ _____ _____    ______ ____
ROOT
ATOM      1  C   UNL     1       3.989  -4.778   2.606  0.00  0.00    +0.000 C 
ATOM      2  C   UNL     1       4.305  -4.259   4.068  0.00  0.00    +0.000 C 
ATOM      3  C   UNL     1       3.076  -4.085   5.038  0.00  0.00    +0.000 C 
ATOM      4  C   UNL     1       5.304  -4.568   1.742  0.00  0.00    +0.000 C 
ATOM      5  C   UNL     1       2.829  -3.934   2.018  0.00  0.00    +0.000 C 
ATOM      6  C   UNL     1       1.964  -3.283   4.298  0.00  0.00    +0.000 C 
ATOM      7  C   UNL     1       5.503  -5.021   4.683  0.00  0.00    +0.000 C 
ATOM      8  C   UNL     1       1.608  -3.846   2.927  0.00  0.00    +0.000 C 
ATOM      9  C   UNL     1       3.583  -6.273   2.555  0.00  0.00    +0.000 C 
ATOM     10  C   UNL     1       6.754  -4.908   3.809  0.00  0.00    +0.000 C 
ATOM     11  C   UNL     1       6.475  -5.311   2.383  0.00  0.00    +0.000 C 
ATOM     12  C   UNL     1       3.507  -3.236   6.268  0.00  0.00    +0.000 C 
ATOM     13  C   UNL     1       7.222  -6.256   1.788  0.00  0.00    +0.000 C 
ENDROOT
BRANCH   6  14
ATOM     14  O   UNL     1       0.776  -3.184   5.082  0.00  0.00    +0.000 OA
ATOM     15  H   UNL     1       1.015  -3.372   6.005  0.00  0.00    +0.000 HD
ENDBRANCH   6  14
BRANCH   3  16
ATOM     16  C   UNL     1       2.532  -5.409   5.616  0.00  0.00    +0.000 C 
BRANCH  16  17
ATOM     17  O   UNL     1       1.958  -5.130   6.874  0.00  0.00    +0.000 OA
ATOM     18  H   UNL     1       1.249  -4.479   6.731  0.00  0.00    +0.000 HD
ENDBRANCH  16  17
ENDBRANCH   3  16
BRANCH   4  19
ATOM     19  C   UNL     1       5.130  -4.839   0.238  0.00  0.00    +0.000 C 
BRANCH  19  22
ATOM     20  O   UNL     1       3.093  -1.173  -2.007  0.00  0.00    +0.000 OA
ATOM     21  O   UNL     1       5.375  -1.220  -2.313  0.00  0.00    +0.000 OA
ATOM     22  C   UNL     1       5.247  -3.574  -0.545  0.00  0.00    +0.000 C 
ATOM     23  C   UNL     1       4.205  -2.936  -1.083  0.00  0.00    +0.000 C 
ATOM     24  C   UNL     1       2.766  -3.264  -0.966  0.00  0.00    +0.000 C 
ATOM     25  C   UNL     1       4.348  -1.693  -1.864  0.00  0.00    +0.000 C 
ATOM     26  C   UNL     1       2.154  -1.899  -1.192  0.00  0.00    +0.000 C 
BRANCH  24  27
ATOM     27  O   UNL     1       2.383  -4.128  -2.028  0.00  0.00    +0.000 OA
ATOM     28  H   UNL     1       2.443  -3.619  -2.855  0.00  0.00    +0.000 HD
ENDBRANCH  24  27
ENDBRANCH  19  22
ENDBRANCH   4  19
TORSDOF 6
ENDMDL
MODEL 8
REMARK VINA RESULT:    -7.000      1.903      3.241
REMARK INTER + INTRA:         -10.783
REMARK INTER:                  -8.790
REMARK INTRA:                  -1.993
REMARK CONF_INDEPENDENT:        1.790
REMARK UNBOUND:                 1.993
REMARK  Name = 5318517
REMARK  8 active torsions:
REMARK  status: ('A' for Active; 'I' for Inactive)
REMARK    1  A    between atoms: O_1  and  C_11
REMARK    2  A    between atoms: O_2  and  C_17
REMARK    3  A    between atoms: O_4  and  C_23
REMARK    4  A    between atoms: C_6  and  C_14
REMARK    5  A    between atoms: C_8  and  C_17
REMARK    6  A    between atoms: C_8  and  C_18
REMARK    7  A    between atoms: C_9  and  C_19
REMARK    8  A    between atoms: C_19  and  C_21
REMARK                            x       y       z     vdW  Elec       q    Type
REMARK                         _______ _______ _______ _____ _____    ______ ____
ROOT
ATOM      1  C   UNL     1       3.773  -3.440   0.498  0.00  0.00    +0.000 C 
ATOM      2  C   UNL     1       4.457  -4.149  -0.741  0.00  0.00    +0.000 C 
ATOM      3  C   UNL     1       5.103  -3.207  -1.827  0.00  0.00    +0.000 C 
ATOM      4  C   UNL     1       2.935  -4.548   1.265  0.00  0.00    +0.000 C 
ATOM      5  C   UNL     1       2.826  -2.328  -0.023  0.00  0.00    +0.000 C 
ATOM      6  C   UNL     1       4.074  -2.102  -2.206  0.00  0.00    +0.000 C 
ATOM      7  C   UNL     1       5.364  -5.316  -0.284  0.00  0.00    +0.000 C 
ATOM      8  C   UNL     1       3.488  -1.367  -1.006  0.00  0.00    +0.000 C 
ATOM      9  C   UNL     1       4.786  -2.800   1.482  0.00  0.00    +0.000 C 
ATOM     10  C   UNL     1       4.588  -6.345   0.541  0.00  0.00    +0.000 C 
ATOM     11  C   UNL     1       3.849  -5.699   1.684  0.00  0.00    +0.000 C 
ATOM     12  C   UNL     1       5.386  -4.028  -3.117  0.00  0.00    +0.000 C 
ATOM     13  C   UNL     1       4.030  -6.136   2.942  0.00  0.00    +0.000 C 
ENDROOT
BRANCH   6  14
ATOM     14  O   UNL     1       4.634  -1.147  -3.106  0.00  0.00    +0.000 OA
ATOM     15  H   UNL     1       5.280  -0.616  -2.609  0.00  0.00    +0.000 HD
ENDBRANCH   6  14
BRANCH   3  16
ATOM     16  C   UNL     1       6.461  -2.602  -1.412  0.00  0.00    +0.000 C 
BRANCH  16  17
ATOM     17  O   UNL     1       6.218  -1.325  -0.864  0.00  0.00    +0.000 OA
ATOM     18  H   UNL     1       6.162  -0.697  -1.605  0.00  0.00    +0.000 HD
ENDBRANCH  16  17
ENDBRANCH   3  16
BRANCH   4  19
ATOM     19  C   UNL     1       2.042  -4.006   2.395  0.00  0.00    +0.000 C 
BRANCH  19  22
ATOM     20  O   UNL     1       3.248  -4.341   6.985  0.00  0.00    +0.000 OA
ATOM     21  O   UNL     1       4.264  -2.554   5.948  0.00  0.00    +0.000 OA
ATOM     22  C   UNL     1       2.869  -3.554   3.552  0.00  0.00    +0.000 C 
ATOM     23  C   UNL     1       2.686  -3.978   4.805  0.00  0.00    +0.000 C 
ATOM     24  C   UNL     1       1.733  -4.998   5.300  0.00  0.00    +0.000 C 
ATOM     25  C   UNL     1       3.509  -3.507   5.935  0.00  0.00    +0.000 C 
ATOM     26  C   UNL     1       2.449  -5.458   6.551  0.00  0.00    +0.000 C 
BRANCH  24  27
ATOM     27  O   UNL     1       0.510  -4.374   5.666  0.00  0.00    +0.000 OA
ATOM     28  H   UNL     1       0.475  -4.348   6.638  0.00  0.00    +0.000 HD
ENDBRANCH  24  27
ENDBRANCH  19  22
ENDBRANCH   4  19
TORSDOF 6
ENDMDL
MODEL 9
REMARK VINA RESULT:    -6.371      1.546      5.847
REMARK INTER + INTRA:         -10.941
REMARK INTER:                  -8.161
REMARK INTRA:                  -2.780
REMARK CONF_INDEPENDENT:        1.790
REMARK UNBOUND:                 2.780
REMARK  Name = 5318517
REMARK  8 active torsions:
REMARK  status: ('A' for Active; 'I' for Inactive)
REMARK    1  A    between atoms: O_1  and  C_11
REMARK    2  A    between atoms: O_2  and  C_17
REMARK    3  A    between atoms: O_4  and  C_23
REMARK    4  A    between atoms: C_6  and  C_14
REMARK    5  A    between atoms: C_8  and  C_17
REMARK    6  A    between atoms: C_8  and  C_18
REMARK    7  A    between atoms: C_9  and  C_19
REMARK    8  A    between atoms: C_19  and  C_21
REMARK                            x       y       z     vdW  Elec       q    Type
REMARK                         _______ _______ _______ _____ _____    ______ ____
ROOT
ATOM      1  C   UNL     1       4.633  -3.880   2.638  0.00  0.00    +0.000 C 
ATOM      2  C   UNL     1       3.611  -3.304   3.701  0.00  0.00    +0.000 C 
ATOM      3  C   UNL     1       2.750  -4.357   4.498  0.00  0.00    +0.000 C 
ATOM      4  C   UNL     1       5.132  -2.655   1.760  0.00  0.00    +0.000 C 
ATOM      5  C   UNL     1       3.894  -4.907   1.741  0.00  0.00    +0.000 C 
ATOM      6  C   UNL     1       2.127  -5.362   3.485  0.00  0.00    +0.000 C 
ATOM      7  C   UNL     1       4.275  -2.220   4.582  0.00  0.00    +0.000 C 
ATOM      8  C   UNL     1       3.138  -5.975   2.524  0.00  0.00    +0.000 C 
ATOM      9  C   UNL     1       5.861  -4.579   3.276  0.00  0.00    +0.000 C 
ATOM     10  C   UNL     1       4.848  -1.079   3.740  0.00  0.00    +0.000 C 
ATOM     11  C   UNL     1       5.763  -1.591   2.657  0.00  0.00    +0.000 C 
ATOM     12  C   UNL     1       1.570  -3.629   5.203  0.00  0.00    +0.000 C 
ATOM     13  C   UNL     1       7.016  -1.120   2.549  0.00  0.00    +0.000 C 
ENDROOT
BRANCH   6  14
ATOM     14  O   UNL     1       1.423  -6.411   4.150  0.00  0.00    +0.000 OA
ATOM     15  H   UNL     1       0.982  -6.025   4.926  0.00  0.00    +0.000 HD
ENDBRANCH   6  14
BRANCH   3  16
ATOM     16  C   UNL     1       3.521  -5.084   5.620  0.00  0.00    +0.000 C 
BRANCH  16  17
ATOM     17  O   UNL     1       2.590  -5.828   6.374  0.00  0.00    +0.000 OA
ATOM     18  H   UNL     1       2.268  -6.550   5.806  0.00  0.00    +0.000 HD
ENDBRANCH  16  17
ENDBRANCH   3  16
BRANCH   4  19
ATOM     19  C   UNL     1       5.990  -3.049   0.545  0.00  0.00    +0.000 C 
BRANCH  19  22
ATOM     20  O   UNL     1       2.541  -1.359  -2.262  0.00  0.00    +0.000 OA
ATOM     21  O   UNL     1       4.633  -1.059  -3.178  0.00  0.00    +0.000 OA
ATOM     22  C   UNL     1       5.564  -2.296  -0.671  0.00  0.00    +0.000 C 
ATOM     23  C   UNL     1       4.298  -2.215  -1.086  0.00  0.00    +0.000 C 
ATOM     24  C   UNL     1       3.080  -2.748  -0.433  0.00  0.00    +0.000 C 
ATOM     25  C   UNL     1       3.902  -1.475  -2.299  0.00  0.00    +0.000 C 
ATOM     26  C   UNL     1       2.036  -1.806  -0.990  0.00  0.00    +0.000 C 
BRANCH  24  27
ATOM     27  O   UNL     1       2.819  -4.064  -0.904  0.00  0.00    +0.000 OA
ATOM     28  H   UNL     1       2.669  -4.006  -1.864  0.00  0.00    +0.000 HD
ENDBRANCH  24  27
ENDBRANCH  19  22
ENDBRANCH   4  19
TORSDOF 6
ENDMDL
