MODEL 1
REMARK VINA RESULT:   464.724      0.000      0.000
REMARK INTER + INTRA:         631.881
REMARK INTER:                 463.531
REMARK INTRA:                 168.350
REMARK CONF_INDEPENDENT:        1.193
REMARK UNBOUND:              -168.350
REMARK  Name = 
REMARK  6 active torsions:
REMARK  status: ('A' for Active; 'I' for Inactive)
REMARK    1  A    between atoms: C_1  and  C_2
REMARK    2  A    between atoms: C_15  and  C_16
REMARK    3  A    between atoms: C_20  and  C_21
REMARK    4  A    between atoms: C_21  and  C_23
REMARK    5  A    between atoms: C_23  and  N_24
REMARK    6  A    between atoms: N_27  and  C_28
REMARK                            x       y       z     vdW  Elec       q    Type
REMARK                         _______ _______ _______ _____ _____    ______ ____
ROOT
ATOM      1  C   UNL     1       7.388   3.307   0.947  0.00  0.00    +0.000 C 
ENDROOT
BRANCH   1   2
ATOM      2  N   UNL     1       7.385   1.921   1.100  0.00  0.00    +0.000 NA
ATOM      3  C   UNL     1       6.236   1.181   0.775  0.00  0.00    +0.000 C 
ATOM      4  C   UNL     1       6.638   0.097  -0.220  0.00  0.00    +0.000 C 
ATOM      5  N   UNL     1       7.809  -0.585   0.324  0.00  0.00    +0.000 N 
ATOM      6  C   UNL     1       8.981   0.198   0.688  0.00  0.00    +0.000 C 
ATOM      7  C   UNL     1       8.495   1.266   1.652  0.00  0.00    +0.000 C 
BRANCH   5   8
ATOM      8  C   UNL     1       7.601  -1.800   1.044  0.00  0.00    +0.000 A 
ATOM      9  C   UNL     1       7.742  -1.714   2.421  0.00  0.00    +0.000 A 
ATOM     10  C   UNL     1       8.064  -2.840   3.154  0.00  0.00    +0.000 A 
ATOM     11  N   UNL     1       7.768  -2.868   4.559  0.00  0.00    +0.000 N 
ATOM     12  C   UNL     1       6.434  -3.273   5.004  0.00  0.00    +0.000 C 
ATOM     13  C   UNL     1       6.601  -4.768   5.249  0.00  0.00    +0.000 C 
ATOM     14  C   UNL     1       8.106  -5.010   5.274  0.00  0.00    +0.000 C 
ATOM     15  C   UNL     1       8.651  -3.599   5.467  0.00  0.00    +0.000 C 
ATOM     16  N   UNL     1       8.208  -3.985   2.443  0.00  0.00    +0.000 NA
ATOM     17  C   UNL     1       7.809  -4.122   1.168  0.00  0.00    +0.000 A 
ATOM     18  N   UNL     1       7.216  -5.331   0.679  0.00  0.00    +0.000 N 
ATOM     19  C   UNL     1       5.974  -5.881   1.216  0.00  0.00    +0.000 C 
ATOM     20  C   UNL     1       5.920  -7.289   0.700  0.00  0.00    +0.000 C 
ATOM     21  C   UNL     1       6.597  -7.163  -0.642  0.00  0.00    +0.000 C 
ATOM     22  C   UNL     1       7.428  -5.915  -0.617  0.00  0.00    +0.000 C 
ATOM     23  N   UNL     1       7.770  -2.987   0.429  0.00  0.00    +0.000 NA
ENDBRANCH   5   8
ENDBRANCH   1   2
BRANCH   1  24
ATOM     24  C   UNL     1       6.085   3.912   0.514  0.00  0.00    +0.000 C 
ATOM     25  O   UNL     1       6.099   4.785  -0.352  0.00  0.00    +0.000 OA
BRANCH  24  45
ATOM     26  C   UNL     1       5.680   1.972   2.121  0.00  0.00    +0.000 C 
ATOM     27  C   UNL     1       5.936   3.197   2.750  0.00  0.00    +0.000 C 
ATOM     28  C   UNL     1       7.243   3.559   3.274  0.00  0.00    +0.000 C 
ATOM     29  C   UNL     1       7.432   2.673   4.475  0.00  0.00    +0.000 C 
ATOM     30  C   UNL     1       6.411   2.523   5.292  0.00  0.00    +0.000 C 
ATOM     31  C   UNL     1       5.026   2.048   4.656  0.00  0.00    +0.000 C 
ATOM     32  C   UNL     1       4.092   2.541   5.897  0.00  0.00    +0.000 C 
ATOM     33  C   UNL     1       4.613   3.869   6.359  0.00  0.00    +0.000 C 
ATOM     34  C   UNL     1       5.877   3.723   7.168  0.00  0.00    +0.000 C 
ATOM     35  C   UNL     1       6.655   4.808   7.159  0.00  0.00    +0.000 C 
ATOM     36  C   UNL     1       8.097   4.778   7.079  0.00  0.00    +0.000 C 
ATOM     37  O   UNL     1       8.824   5.766   6.793  0.00  0.00    +0.000 OA
ATOM     38  C   UNL     1       8.778   3.478   7.134  0.00  0.00    +0.000 C 
ATOM     39  C   UNL     1       7.991   2.428   7.091  0.00  0.00    +0.000 C 
ATOM     40  C   UNL     1       6.573   2.454   6.762  0.00  0.00    +0.000 C 
ATOM     41  C   UNL     1       5.940   1.241   7.382  0.00  0.00    +0.000 C 
ATOM     42  C   UNL     1       4.798   3.530   3.851  0.00  0.00    +0.000 C 
ATOM     43  C   UNL     1       3.664   2.928   2.867  0.00  0.00    +0.000 C 
ATOM     44  C   UNL     1       3.997   3.507   1.537  0.00  0.00    +0.000 C 
ATOM     45  C   UNL     1       5.324   4.415   1.848  0.00  0.00    +0.000 C 
ENDBRANCH  24  45
ENDBRANCH   1  24
TORSDOF 4
ENDMDL
