MODEL 1
REMARK VINA RESULT:   596.212      0.000      0.000
REMARK INTER + INTRA:         706.694
REMARK INTER:                 591.737
REMARK INTRA:                 114.957
REMARK CONF_INDEPENDENT:        4.474
REMARK UNBOUND:              -114.957
REMARK  Name = 60823
REMARK  17 active torsions:
REMARK  status: ('A' for Active; 'I' for Inactive)
REMARK    1  A    between atoms: O_2  and  C_16
REMARK    2  A    between atoms: O_3  and  C_22
REMARK    3  A    between atoms: O_5  and  C_35
REMARK    4  A    between atoms: N_7  and  C_10
REMARK    5  A    between atoms: N_8  and  C_34
REMARK    6  A    between atoms: C_9  and  C_12
REMARK    7  A    between atoms: C_10  and  C_13
REMARK    8  A    between atoms: C_11  and  C_18
REMARK    9  A    between atoms: C_12  and  C_19
REMARK   10  A    between atoms: C_12  and  C_20
REMARK   11  A    between atoms: C_13  and  C_16
REMARK   12  A    between atoms: C_14  and  C_23
REMARK   13  A    between atoms: C_15  and  C_21
REMARK   14  A    between atoms: C_16  and  C_17
REMARK   15  A    between atoms: C_17  and  C_22
REMARK   16  A    between atoms: C_22  and  C_24
REMARK   17  A    between atoms: C_24  and  C_35
REMARK                            x       y       z     vdW  Elec       q    Type
REMARK                         _______ _______ _______ _____ _____    ______ ____
ROOT
ATOM      1  N   UNL     1       6.325   3.724   1.683  0.00  0.00    +0.000 N 
ATOM      2  C   UNL     1       6.419   2.664   0.819  0.00  0.00    +0.000 A 
ATOM      3  C   UNL     1       6.466   3.280   2.972  0.00  0.00    +0.000 A 
ATOM      4  C   UNL     1       6.625   1.526   1.568  0.00  0.00    +0.000 A 
ATOM      5  C   UNL     1       6.654   1.916   2.930  0.00  0.00    +0.000 A 
ENDROOT
BRANCH   3   7
ATOM      6  F   UNL     1       6.258   6.727   7.352  0.00  0.00    +0.000 F 
ATOM      7  C   UNL     1       6.411   4.176   4.110  0.00  0.00    +0.000 A 
ATOM      8  C   UNL     1       6.075   3.682   5.371  0.00  0.00    +0.000 A 
ATOM      9  C   UNL     1       6.695   5.532   3.945  0.00  0.00    +0.000 A 
ATOM     10  C   UNL     1       6.024   4.544   6.466  0.00  0.00    +0.000 A 
ATOM     11  C   UNL     1       6.644   6.393   5.041  0.00  0.00    +0.000 A 
ATOM     12  C   UNL     1       6.308   5.900   6.301  0.00  0.00    +0.000 A 
ENDBRANCH   3   7
BRANCH   5  13
ATOM     13  C   UNL     1       6.841   1.104   4.102  0.00  0.00    +0.000 A 
ATOM     14  C   UNL     1       7.150   1.703   5.323  0.00  0.00    +0.000 A 
ATOM     15  C   UNL     1       6.714  -0.282   4.018  0.00  0.00    +0.000 A 
ATOM     16  C   UNL     1       7.332   0.916   6.461  0.00  0.00    +0.000 A 
ATOM     17  C   UNL     1       6.896  -1.069   5.155  0.00  0.00    +0.000 A 
ATOM     18  C   UNL     1       7.205  -0.470   6.376  0.00  0.00    +0.000 A 
ENDBRANCH   5  13
BRANCH   4  21
ATOM     19  O   UNL     1       6.798   0.013  -0.210  0.00  0.00    +0.000 OA
ATOM     20  N   UNL     1       6.856  -0.836   1.962  0.00  0.00    +0.000 N 
ATOM     21  C   UNL     1       6.776   0.207   1.020  0.00  0.00    +0.000 C 
ATOM     22  H   UNL     1       6.823  -0.567   2.943  0.00  0.00    +0.000 HD
BRANCH  20  23
ATOM     23  C   UNL     1       6.970  -2.231   1.736  0.00  0.00    +0.000 A 
ATOM     24  C   UNL     1       6.529  -2.781   0.533  0.00  0.00    +0.000 A 
ATOM     25  C   UNL     1       7.525  -3.054   2.717  0.00  0.00    +0.000 A 
ATOM     26  C   UNL     1       6.643  -4.154   0.311  0.00  0.00    +0.000 A 
ATOM     27  C   UNL     1       7.638  -4.426   2.495  0.00  0.00    +0.000 A 
ATOM     28  C   UNL     1       7.197  -4.976   1.291  0.00  0.00    +0.000 A 
ENDBRANCH  20  23
ENDBRANCH   4  21
BRANCH   2  29
ATOM     29  C   UNL     1       6.303   2.836  -0.645  0.00  0.00    +0.000 C 
ATOM     30  C   UNL     1       4.842   2.763  -1.150  0.00  0.00    +0.000 C 
ATOM     31  C   UNL     1       7.172   1.837  -1.444  0.00  0.00    +0.000 C 
ENDBRANCH   2  29
BRANCH   1  32
ATOM     32  C   UNL     1       6.103   5.108   1.282  0.00  0.00    +0.000 C 
BRANCH  32  33
ATOM     33  C   UNL     1       4.790   5.700   1.814  0.00  0.00    +0.000 C 
BRANCH  33  34
ATOM     34  C   UNL     1       3.556   4.826   1.550  0.00  0.00    +0.000 C 
BRANCH  34  35
ATOM     35  O   UNL     1       2.512   5.255   2.429  0.00  0.00    +0.000 OA
ATOM     36  H   UNL     1       2.921   5.476   3.283  0.00  0.00    +0.000 HD
ENDBRANCH  34  35
BRANCH  34  37
ATOM     37  C   UNL     1       3.020   4.917   0.109  0.00  0.00    +0.000 C 
BRANCH  37  38
ATOM     38  C   UNL     1       1.998   3.858  -0.327  0.00  0.00    +0.000 C 
BRANCH  38  39
ATOM     39  O   UNL     1       2.438   2.576   0.112  0.00  0.00    +0.000 OA
ATOM     40  H   UNL     1       1.892   1.906  -0.330  0.00  0.00    +0.000 HD
ENDBRANCH  38  39
BRANCH  38  41
ATOM     41  C   UNL     1       0.587   4.133   0.194  0.00  0.00    +0.000 C 
BRANCH  41  43
ATOM     42  O   UNL     1      -0.012   1.801   0.404  0.00  0.00    +0.000 OA
ATOM     43  C   UNL     1       0.018   2.923   0.894  0.00  0.00    +0.000 C 
BRANCH  43  44
ATOM     44  O   UNL     1      -0.474   3.215   2.123  0.00  0.00    +0.000 OA
ATOM     45  H   UNL     1      -1.454   3.265   2.123  0.00  0.00    +0.000 HD
ENDBRANCH  43  44
ENDBRANCH  41  43
ENDBRANCH  38  41
ENDBRANCH  37  38
ENDBRANCH  34  37
ENDBRANCH  33  34
ENDBRANCH  32  33
ENDBRANCH   1  32
TORSDOF 15
ENDMDL
