MODEL 1
REMARK VINA RESULT:    -7.926      0.000      0.000
REMARK INTER + INTRA:          -8.978
REMARK INTER:                  -8.224
REMARK INTRA:                  -0.753
REMARK CONF_INDEPENDENT:        0.298
REMARK UNBOUND:                 0.753
REMARK  Name = 4091
REMARK  3 active torsions:
REMARK  status: ('A' for Active; 'I' for Inactive)
REMARK    1  A    between atoms: N_1  and  C_6
REMARK    2  A    between atoms: N_1  and  C_7
REMARK    3  A    between atoms: N_2  and  C_8
REMARK                            x       y       z     vdW  Elec       q    Type
REMARK                         _______ _______ _______ _____ _____    ______ ____
ROOT
ATOM      1  N   UNL     1      -0.941  -2.693   4.624  0.00  0.00    +0.000 NA
ATOM      2  N   UNL     1      -0.552  -1.149   6.329  0.00  0.00    +0.000 N 
ATOM      3  N   UNL     1      -2.729  -1.648   5.848  0.00  0.00    +0.000 N 
ATOM      4  C   UNL     1      -1.406  -1.883   5.541  0.00  0.00    +0.000 C 
ATOM      5  H   UNL     1      -0.900  -0.519   7.043  0.00  0.00    +0.000 HD
ATOM      6  H   UNL     1       0.453  -1.218   6.217  0.00  0.00    +0.000 HD
ATOM      7  H   UNL     1      -3.483  -2.115   5.358  0.00  0.00    +0.000 HD
ATOM      8  H   UNL     1      -2.989  -0.998   6.582  0.00  0.00    +0.000 HD
ENDROOT
BRANCH   1  13
ATOM      9  N   UNL     1      -1.761  -4.788   3.729  0.00  0.00    +0.000 N 
ATOM     10  N   UNL     1      -2.793  -2.663   3.340  0.00  0.00    +0.000 NA
ATOM     11  C   UNL     1      -0.684  -5.552   4.349  0.00  0.00    +0.000 C 
ATOM     12  C   UNL     1      -2.795  -5.564   3.053  0.00  0.00    +0.000 C 
ATOM     13  C   UNL     1      -1.858  -3.399   3.868  0.00  0.00    +0.000 C 
ATOM     14  H   UNL     1      -3.441  -3.241   2.798  0.00  0.00    +0.000 HD
ENDBRANCH   1  13
TORSDOF 1
ENDMDL
MODEL 2
REMARK VINA RESULT:    -7.030      1.326      2.352
REMARK INTER + INTRA:          -8.072
REMARK INTER:                  -7.329
REMARK INTRA:                  -0.743
REMARK CONF_INDEPENDENT:        0.298
REMARK UNBOUND:                 0.743
REMARK  Name = 4091
REMARK  3 active torsions:
REMARK  status: ('A' for Active; 'I' for Inactive)
REMARK    1  A    between atoms: N_1  and  C_6
REMARK    2  A    between atoms: N_1  and  C_7
REMARK    3  A    between atoms: N_2  and  C_8
REMARK                            x       y       z     vdW  Elec       q    Type
REMARK                         _______ _______ _______ _____ _____    ______ ____
ROOT
ATOM      1  N   UNL     1      -2.285  -3.028   4.437  0.00  0.00    +0.000 NA
ATOM      2  N   UNL     1      -4.164  -1.812   5.095  0.00  0.00    +0.000 N 
ATOM      3  N   UNL     1      -2.371  -1.813   6.511  0.00  0.00    +0.000 N 
ATOM      4  C   UNL     1      -2.883  -2.263   5.314  0.00  0.00    +0.000 C 
ATOM      5  H   UNL     1      -4.638  -1.218   5.766  0.00  0.00    +0.000 HD
ATOM      6  H   UNL     1      -4.670  -2.062   4.253  0.00  0.00    +0.000 HD
ATOM      7  H   UNL     1      -1.436  -2.056   6.819  0.00  0.00    +0.000 HD
ATOM      8  H   UNL     1      -2.918  -1.219   7.125  0.00  0.00    +0.000 HD
ENDROOT
BRANCH   1  13
ATOM      9  N   UNL     1      -0.620  -4.783   4.561  0.00  0.00    +0.000 N 
ATOM     10  N   UNL     1      -0.206  -2.493   5.124  0.00  0.00    +0.000 NA
ATOM     11  C   UNL     1      -1.561  -5.800   4.108  0.00  0.00    +0.000 C 
ATOM     12  C   UNL     1       0.764  -5.212   4.724  0.00  0.00    +0.000 C 
ATOM     13  C   UNL     1      -0.998  -3.445   4.724  0.00  0.00    +0.000 C 
ATOM     14  H   UNL     1       0.729  -2.861   5.316  0.00  0.00    +0.000 HD
ENDBRANCH   1  13
TORSDOF 1
ENDMDL
MODEL 3
REMARK VINA RESULT:    -6.938      1.452      3.661
REMARK INTER + INTRA:          -7.959
REMARK INTER:                  -7.237
REMARK INTRA:                  -0.723
REMARK CONF_INDEPENDENT:        0.298
REMARK UNBOUND:                 0.723
REMARK  Name = 4091
REMARK  3 active torsions:
REMARK  status: ('A' for Active; 'I' for Inactive)
REMARK    1  A    between atoms: N_1  and  C_6
REMARK    2  A    between atoms: N_1  and  C_7
REMARK    3  A    between atoms: N_2  and  C_8
REMARK                            x       y       z     vdW  Elec       q    Type
REMARK                         _______ _______ _______ _____ _____    ______ ____
ROOT
ATOM      1  N   UNL     1      -2.092  -4.123   4.082  0.00  0.00    +0.000 NA
ATOM      2  N   UNL     1      -2.707  -5.187   2.100  0.00  0.00    +0.000 N 
ATOM      3  N   UNL     1      -2.526  -2.911   2.051  0.00  0.00    +0.000 N 
ATOM      4  C   UNL     1      -2.421  -4.051   2.818  0.00  0.00    +0.000 C 
ATOM      5  H   UNL     1      -2.963  -5.145   1.120  0.00  0.00    +0.000 HD
ATOM      6  H   UNL     1      -2.671  -6.103   2.534  0.00  0.00    +0.000 HD
ATOM      7  H   UNL     1      -2.344  -1.989   2.432  0.00  0.00    +0.000 HD
ATOM      8  H   UNL     1      -2.789  -2.960   1.072  0.00  0.00    +0.000 HD
ENDROOT
BRANCH   1  13
ATOM      9  N   UNL     1      -0.605  -2.753   5.415  0.00  0.00    +0.000 N 
ATOM     10  N   UNL     1      -2.761  -2.047   4.652  0.00  0.00    +0.000 NA
ATOM     11  C   UNL     1       0.412  -3.797   5.476  0.00  0.00    +0.000 C 
ATOM     12  C   UNL     1      -0.241  -1.465   5.995  0.00  0.00    +0.000 C 
ATOM     13  C   UNL     1      -1.817  -2.938   4.741  0.00  0.00    +0.000 C 
ATOM     14  H   UNL     1      -2.499  -1.195   5.153  0.00  0.00    +0.000 HD
ENDBRANCH   1  13
TORSDOF 1
ENDMDL
MODEL 4
REMARK VINA RESULT:    -6.802      6.786      7.887
REMARK INTER + INTRA:          -7.801
REMARK INTER:                  -7.100
REMARK INTRA:                  -0.701
REMARK CONF_INDEPENDENT:        0.298
REMARK UNBOUND:                 0.701
REMARK  Name = 4091
REMARK  3 active torsions:
REMARK  status: ('A' for Active; 'I' for Inactive)
REMARK    1  A    between atoms: N_1  and  C_6
REMARK    2  A    between atoms: N_1  and  C_7
REMARK    3  A    between atoms: N_2  and  C_8
REMARK                            x       y       z     vdW  Elec       q    Type
REMARK                         _______ _______ _______ _____ _____    ______ ____
ROOT
ATOM      1  N   UNL     1       6.075  -4.593   2.670  0.00  0.00    +0.000 NA
ATOM      2  N   UNL     1       7.220  -3.303   1.099  0.00  0.00    +0.000 N 
ATOM      3  N   UNL     1       5.455  -4.543   0.346  0.00  0.00    +0.000 N 
ATOM      4  C   UNL     1       6.220  -4.185   1.435  0.00  0.00    +0.000 C 
ATOM      5  H   UNL     1       7.343  -2.979   0.146  0.00  0.00    +0.000 HD
ATOM      6  H   UNL     1       7.864  -2.952   1.798  0.00  0.00    +0.000 HD
ATOM      7  H   UNL     1       4.675  -5.185   0.427  0.00  0.00    +0.000 HD
ATOM      8  H   UNL     1       5.649  -4.168  -0.577  0.00  0.00    +0.000 HD
ENDROOT
BRANCH   1  13
ATOM      9  N   UNL     1       4.071  -5.188   3.893  0.00  0.00    +0.000 N 
ATOM     10  N   UNL     1       5.078  -6.562   2.210  0.00  0.00    +0.000 NA
ATOM     11  C   UNL     1       4.099  -3.955   4.671  0.00  0.00    +0.000 C 
ATOM     12  C   UNL     1       2.907  -6.046   4.086  0.00  0.00    +0.000 C 
ATOM     13  C   UNL     1       5.048  -5.481   2.934  0.00  0.00    +0.000 C 
ATOM     14  H   UNL     1       4.294  -7.174   2.447  0.00  0.00    +0.000 HD
ENDBRANCH   1  13
TORSDOF 1
ENDMDL
MODEL 5
REMARK VINA RESULT:    -6.652      1.784      3.697
REMARK INTER + INTRA:          -7.632
REMARK INTER:                  -6.951
REMARK INTRA:                  -0.681
REMARK CONF_INDEPENDENT:        0.298
REMARK UNBOUND:                 0.681
REMARK  Name = 4091
REMARK  3 active torsions:
REMARK  status: ('A' for Active; 'I' for Inactive)
REMARK    1  A    between atoms: N_1  and  C_6
REMARK    2  A    between atoms: N_1  and  C_7
REMARK    3  A    between atoms: N_2  and  C_8
REMARK                            x       y       z     vdW  Elec       q    Type
REMARK                         _______ _______ _______ _____ _____    ______ ____
ROOT
ATOM      1  N   UNL     1      -1.929  -5.050   3.622  0.00  0.00    +0.000 NA
ATOM      2  N   UNL     1      -3.309  -5.186   1.746  0.00  0.00    +0.000 N 
ATOM      3  N   UNL     1      -2.124  -3.254   2.034  0.00  0.00    +0.000 N 
ATOM      4  C   UNL     1      -2.412  -4.505   2.535  0.00  0.00    +0.000 C 
ATOM      5  H   UNL     1      -3.690  -4.776   0.901  0.00  0.00    +0.000 HD
ATOM      6  H   UNL     1      -3.615  -6.121   1.991  0.00  0.00    +0.000 HD
ATOM      7  H   UNL     1      -1.478  -2.627   2.498  0.00  0.00    +0.000 HD
ATOM      8  H   UNL     1      -2.553  -2.921   1.177  0.00  0.00    +0.000 HD
ENDROOT
BRANCH   1  13
ATOM      9  N   UNL     1       0.120  -4.893   4.903  0.00  0.00    +0.000 N 
ATOM     10  N   UNL     1      -1.352  -3.051   4.490  0.00  0.00    +0.000 NA
ATOM     11  C   UNL     1       0.419  -6.310   4.727  0.00  0.00    +0.000 C 
ATOM     12  C   UNL     1       1.145  -4.097   5.570  0.00  0.00    +0.000 C 
ATOM     13  C   UNL     1      -1.031  -4.306   4.367  0.00  0.00    +0.000 C 
ATOM     14  H   UNL     1      -0.650  -2.555   5.045  0.00  0.00    +0.000 HD
ENDBRANCH   1  13
TORSDOF 1
ENDMDL
MODEL 6
REMARK VINA RESULT:    -6.228      1.838      3.412
REMARK INTER + INTRA:          -7.252
REMARK INTER:                  -6.527
REMARK INTRA:                  -0.726
REMARK CONF_INDEPENDENT:        0.298
REMARK UNBOUND:                 0.726
REMARK  Name = 4091
REMARK  3 active torsions:
REMARK  status: ('A' for Active; 'I' for Inactive)
REMARK    1  A    between atoms: N_1  and  C_6
REMARK    2  A    between atoms: N_1  and  C_7
REMARK    3  A    between atoms: N_2  and  C_8
REMARK                            x       y       z     vdW  Elec       q    Type
REMARK                         _______ _______ _______ _____ _____    ______ ____
ROOT
ATOM      1  N   UNL     1      -2.016  -3.252   4.311  0.00  0.00    +0.000 NA
ATOM      2  N   UNL     1      -3.545  -2.189   2.906  0.00  0.00    +0.000 N 
ATOM      3  N   UNL     1      -2.060  -3.628   1.936  0.00  0.00    +0.000 N 
ATOM      4  C   UNL     1      -2.495  -3.052   3.110  0.00  0.00    +0.000 C 
ATOM      5  H   UNL     1      -3.925  -2.025   1.981  0.00  0.00    +0.000 HD
ATOM      6  H   UNL     1      -3.970  -1.690   3.680  0.00  0.00    +0.000 HD
ATOM      7  H   UNL     1      -1.293  -4.290   1.916  0.00  0.00    +0.000 HD
ATOM      8  H   UNL     1      -2.500  -3.407   1.049  0.00  0.00    +0.000 HD
ENDROOT
BRANCH   1  13
ATOM      9  N   UNL     1       0.150  -3.816   5.234  0.00  0.00    +0.000 N 
ATOM     10  N   UNL     1      -1.110  -5.248   3.789  0.00  0.00    +0.000 NA
ATOM     11  C   UNL     1       0.256  -2.544   5.940  0.00  0.00    +0.000 C 
ATOM     12  C   UNL     1       1.208  -4.787   5.494  0.00  0.00    +0.000 C 
ATOM     13  C   UNL     1      -0.958  -4.133   4.441  0.00  0.00    +0.000 C 
ATOM     14  H   UNL     1      -0.301  -5.858   3.926  0.00  0.00    +0.000 HD
ENDBRANCH   1  13
TORSDOF 1
ENDMDL
MODEL 7
REMARK VINA RESULT:    -6.211      7.790      8.639
REMARK INTER + INTRA:          -7.257
REMARK INTER:                  -6.510
REMARK INTRA:                  -0.748
REMARK CONF_INDEPENDENT:        0.298
REMARK UNBOUND:                 0.748
REMARK  Name = 4091
REMARK  3 active torsions:
REMARK  status: ('A' for Active; 'I' for Inactive)
REMARK    1  A    between atoms: N_1  and  C_6
REMARK    2  A    between atoms: N_1  and  C_7
REMARK    3  A    between atoms: N_2  and  C_8
REMARK                            x       y       z     vdW  Elec       q    Type
REMARK                         _______ _______ _______ _____ _____    ______ ____
ROOT
ATOM      1  N   UNL     1       5.348  -4.437   2.682  0.00  0.00    +0.000 NA
ATOM      2  N   UNL     1       5.415  -4.487   0.351  0.00  0.00    +0.000 N 
ATOM      3  N   UNL     1       6.958  -3.180   1.413  0.00  0.00    +0.000 N 
ATOM      4  C   UNL     1       5.894  -4.042   1.561  0.00  0.00    +0.000 C 
ATOM      5  H   UNL     1       5.830  -4.189  -0.525  0.00  0.00    +0.000 HD
ATOM      6  H   UNL     1       4.632  -5.128   0.302  0.00  0.00    +0.000 HD
ATOM      7  H   UNL     1       7.426  -2.764   2.211  0.00  0.00    +0.000 HD
ATOM      8  H   UNL     1       7.311  -2.934   0.494  0.00  0.00    +0.000 HD
ENDROOT
BRANCH   1  13
ATOM      9  N   UNL     1       6.196  -4.806   4.921  0.00  0.00    +0.000 N 
ATOM     10  N   UNL     1       6.067  -2.660   3.868  0.00  0.00    +0.000 NA
ATOM     11  C   UNL     1       5.959  -6.243   4.846  0.00  0.00    +0.000 C 
ATOM     12  C   UNL     1       6.885  -4.328   6.114  0.00  0.00    +0.000 C 
ATOM     13  C   UNL     1       5.880  -3.947   3.861  0.00  0.00    +0.000 C 
ATOM     14  H   UNL     1       6.465  -2.360   4.761  0.00  0.00    +0.000 HD
ENDBRANCH   1  13
TORSDOF 1
ENDMDL
MODEL 8
REMARK VINA RESULT:    -6.084      2.337      3.152
REMARK INTER + INTRA:          -7.126
REMARK INTER:                  -6.382
REMARK INTRA:                  -0.743
REMARK CONF_INDEPENDENT:        0.298
REMARK UNBOUND:                 0.743
REMARK  Name = 4091
REMARK  3 active torsions:
REMARK  status: ('A' for Active; 'I' for Inactive)
REMARK    1  A    between atoms: N_1  and  C_6
REMARK    2  A    between atoms: N_1  and  C_7
REMARK    3  A    between atoms: N_2  and  C_8
REMARK                            x       y       z     vdW  Elec       q    Type
REMARK                         _______ _______ _______ _____ _____    ______ ____
ROOT
ATOM      1  N   UNL     1       0.113  -3.184   5.920  0.00  0.00    +0.000 NA
ATOM      2  N   UNL     1      -1.280  -1.330   6.175  0.00  0.00    +0.000 N 
ATOM      3  N   UNL     1      -1.491  -2.538   4.248  0.00  0.00    +0.000 N 
ATOM      4  C   UNL     1      -0.833  -2.410   5.452  0.00  0.00    +0.000 C 
ATOM      5  H   UNL     1      -2.013  -0.724   5.824  0.00  0.00    +0.000 HD
ATOM      6  H   UNL     1      -0.887  -1.110   7.083  0.00  0.00    +0.000 HD
ATOM      7  H   UNL     1      -1.279  -3.287   3.598  0.00  0.00    +0.000 HD
ATOM      8  H   UNL     1      -2.216  -1.883   3.974  0.00  0.00    +0.000 HD
ENDROOT
BRANCH   1  13
ATOM      9  N   UNL     1       1.870  -4.518   4.920  0.00  0.00    +0.000 N 
ATOM     10  N   UNL     1      -0.468  -4.962   4.662  0.00  0.00    +0.000 NA
ATOM     11  C   UNL     1       2.920  -3.678   5.484  0.00  0.00    +0.000 C 
ATOM     12  C   UNL     1       2.311  -5.716   4.216  0.00  0.00    +0.000 C 
ATOM     13  C   UNL     1       0.513  -4.252   5.137  0.00  0.00    +0.000 C 
ATOM     14  H   UNL     1      -0.111  -5.736   4.098  0.00  0.00    +0.000 HD
ENDBRANCH   1  13
TORSDOF 1
ENDMDL
MODEL 9
REMARK VINA RESULT:    -6.044      7.039      7.433
REMARK INTER + INTRA:          -7.098
REMARK INTER:                  -6.342
REMARK INTRA:                  -0.756
REMARK CONF_INDEPENDENT:        0.298
REMARK UNBOUND:                 0.756
REMARK  Name = 4091
REMARK  3 active torsions:
REMARK  status: ('A' for Active; 'I' for Inactive)
REMARK    1  A    between atoms: N_1  and  C_6
REMARK    2  A    between atoms: N_1  and  C_7
REMARK    3  A    between atoms: N_2  and  C_8
REMARK                            x       y       z     vdW  Elec       q    Type
REMARK                         _______ _______ _______ _____ _____    ______ ____
ROOT
ATOM      1  N   UNL     1       4.888  -3.005   4.035  0.00  0.00    +0.000 NA
ATOM      2  N   UNL     1       5.176  -1.156   5.427  0.00  0.00    +0.000 N 
ATOM      3  N   UNL     1       6.536  -1.309   3.598  0.00  0.00    +0.000 N 
ATOM      4  C   UNL     1       5.513  -1.890   4.315  0.00  0.00    +0.000 C 
ATOM      5  H   UNL     1       5.651  -0.290   5.654  0.00  0.00    +0.000 HD
ATOM      6  H   UNL     1       4.438  -1.462   6.052  0.00  0.00    +0.000 HD
ATOM      7  H   UNL     1       6.899  -1.726   2.749  0.00  0.00    +0.000 HD
ATOM      8  H   UNL     1       6.957  -0.436   3.899  0.00  0.00    +0.000 HD
ENDROOT
BRANCH   1  13
ATOM      9  N   UNL     1       5.551  -5.065   2.947  0.00  0.00    +0.000 N 
ATOM     10  N   UNL     1       5.348  -2.958   1.829  0.00  0.00    +0.000 NA
ATOM     11  C   UNL     1       5.456  -5.829   4.186  0.00  0.00    +0.000 C 
ATOM     12  C   UNL     1       5.830  -5.831   1.738  0.00  0.00    +0.000 C 
ATOM     13  C   UNL     1       5.281  -3.692   2.901  0.00  0.00    +0.000 C 
ATOM     14  H   UNL     1       5.639  -3.521   1.026  0.00  0.00    +0.000 HD
ENDBRANCH   1  13
TORSDOF 1
ENDMDL
