MODEL 1
REMARK VINA RESULT:   122.428      0.000      0.000
REMARK INTER + INTRA:         122.412
REMARK INTER:                 121.831
REMARK INTRA:                   0.580
REMARK CONF_INDEPENDENT:        0.597
REMARK UNBOUND:                -0.580
REMARK  Name = 2353
REMARK  4 active torsions:
REMARK  status: ('A' for Active; 'I' for Inactive)
REMARK    1  A    between atoms: O_3  and  C_19
REMARK    2  A    between atoms: O_3  and  C_24
REMARK    3  A    between atoms: O_4  and  C_21
REMARK    4  A    between atoms: O_4  and  C_25
REMARK                            x       y       z     vdW  Elec       q    Type
REMARK                         _______ _______ _______ _____ _____    ______ ____
ROOT
ATOM      1  O   UNL     1      -3.687  -3.391  -5.756  0.00  0.00    +0.000 OA
ATOM      2  O   UNL     1      -2.255  -1.612  -4.993  0.00  0.00    +0.000 OA
ATOM      3  N   UNL     1       0.314  -5.835  -1.440  0.00  0.00    +0.000 N 
ATOM      4  C   UNL     1      -0.208  -6.914  -2.317  0.00  0.00    +0.000 C 
ATOM      5  C   UNL     1      -1.671  -6.659  -2.627  0.00  0.00    +0.000 C 
ATOM      6  C   UNL     1      -0.015  -4.528  -1.656  0.00  0.00    +0.000 A 
ATOM      7  C   UNL     1      -1.803  -5.293  -3.239  0.00  0.00    +0.000 A 
ATOM      8  C   UNL     1      -0.964  -4.252  -2.753  0.00  0.00    +0.000 A 
ATOM      9  C   UNL     1       1.170  -6.186  -0.453  0.00  0.00    +0.000 A 
ATOM     10  C   UNL     1       0.531  -3.543  -0.816  0.00  0.00    +0.000 A 
ATOM     11  C   UNL     1       1.738  -5.241   0.399  0.00  0.00    +0.000 A 
ATOM     12  C   UNL     1       1.411  -3.888   0.216  0.00  0.00    +0.000 A 
ATOM     13  C   UNL     1      -2.756  -5.063  -4.243  0.00  0.00    +0.000 A 
ATOM     14  C   UNL     1      -1.086  -2.976  -3.338  0.00  0.00    +0.000 A 
ATOM     15  C   UNL     1      -2.837  -3.796  -4.774  0.00  0.00    +0.000 A 
ATOM     16  C   UNL     1      -2.021  -2.783  -4.337  0.00  0.00    +0.000 A 
ATOM     17  C   UNL     1       2.622  -5.607   1.427  0.00  0.00    +0.000 A 
ATOM     18  C   UNL     1       1.972  -2.923   1.069  0.00  0.00    +0.000 A 
ATOM     19  C   UNL     1       3.173  -4.639   2.266  0.00  0.00    +0.000 A 
ATOM     20  C   UNL     1      -3.312  -2.006  -5.890  0.00  0.00    +0.000 C 
ATOM     21  C   UNL     1       2.849  -3.297   2.088  0.00  0.00    +0.000 A 
ENDROOT
BRANCH  17  22
ATOM     22  O   UNL     1       2.958  -6.917   1.627  0.00  0.00    +0.000 OA
ATOM     23  C   UNL     1       2.649  -7.474   2.900  0.00  0.00    +0.000 C 
ENDBRANCH  17  22
BRANCH  19  24
ATOM     24  O   UNL     1       4.031  -4.992   3.265  0.00  0.00    +0.000 OA
ATOM     25  C   UNL     1       4.964  -6.032   2.980  0.00  0.00    +0.000 C 
ENDBRANCH  19  24
TORSDOF 2
ENDMDL
