MODEL 1
REMARK VINA RESULT:   833.093      0.000      0.000
REMARK INTER + INTRA:         829.742
REMARK INTER:                 831.303
REMARK INTRA:                  -1.561
REMARK CONF_INDEPENDENT:        1.790
REMARK UNBOUND:                 1.561
REMARK  Name = 5318517
REMARK  8 active torsions:
REMARK  status: ('A' for Active; 'I' for Inactive)
REMARK    1  A    between atoms: O_1  and  C_11
REMARK    2  A    between atoms: O_2  and  C_17
REMARK    3  A    between atoms: O_4  and  C_23
REMARK    4  A    between atoms: C_6  and  C_14
REMARK    5  A    between atoms: C_8  and  C_17
REMARK    6  A    between atoms: C_8  and  C_18
REMARK    7  A    between atoms: C_9  and  C_19
REMARK    8  A    between atoms: C_19  and  C_21
REMARK                            x       y       z     vdW  Elec       q    Type
REMARK                         _______ _______ _______ _____ _____    ______ ____
ROOT
ATOM      1  C   UNL     1      -2.707   3.734   2.708  0.00  0.00    +0.000 C 
ATOM      2  C   UNL     1      -3.635   2.772   3.556  0.00  0.00    +0.000 C 
ATOM      3  C   UNL     1      -4.952   3.402   4.150  0.00  0.00    +0.000 C 
ATOM      4  C   UNL     1      -1.324   2.983   2.497  0.00  0.00    +0.000 C 
ATOM      5  C   UNL     1      -2.481   5.043   3.508  0.00  0.00    +0.000 C 
ATOM      6  C   UNL     1      -4.590   4.739   4.862  0.00  0.00    +0.000 C 
ATOM      7  C   UNL     1      -3.840   1.418   2.836  0.00  0.00    +0.000 C 
ATOM      8  C   UNL     1      -3.769   5.693   4.001  0.00  0.00    +0.000 C 
ATOM      9  C   UNL     1      -3.299   4.101   1.322  0.00  0.00    +0.000 C 
ATOM     10  C   UNL     1      -2.507   0.728   2.540  0.00  0.00    +0.000 C 
ATOM     11  C   UNL     1      -1.558   1.640   1.806  0.00  0.00    +0.000 C 
ATOM     12  C   UNL     1      -5.533   2.451   5.235  0.00  0.00    +0.000 C 
ATOM     13  C   UNL     1      -1.007   1.252   0.644  0.00  0.00    +0.000 C 
ENDROOT
BRANCH   6  14
ATOM     14  O   UNL     1      -5.754   5.419   5.328  0.00  0.00    +0.000 OA
ATOM     15  H   UNL     1      -5.738   6.319   4.958  0.00  0.00    +0.000 HD
ENDBRANCH   6  14
BRANCH   3  16
ATOM     16  C   UNL     1      -6.082   3.596   3.117  0.00  0.00    +0.000 C 
BRANCH  16  17
ATOM     17  O   UNL     1      -6.728   4.816   3.405  0.00  0.00    +0.000 OA
ATOM     18  H   UNL     1      -6.036   5.474   3.589  0.00  0.00    +0.000 HD
ENDBRANCH  16  17
ENDBRANCH   3  16
BRANCH   4  19
ATOM     19  C   UNL     1      -0.222   3.842   1.854  0.00  0.00    +0.000 C 
BRANCH  19  22
ATOM     20  O   UNL     1       3.575   6.393   3.161  0.00  0.00    +0.000 OA
ATOM     21  O   UNL     1       3.165   4.645   4.602  0.00  0.00    +0.000 OA
ATOM     22  C   UNL     1       0.855   4.147   2.842  0.00  0.00    +0.000 C 
ATOM     23  C   UNL     1       1.850   5.006   2.611  0.00  0.00    +0.000 C 
ATOM     24  C   UNL     1       2.063   5.871   1.428  0.00  0.00    +0.000 C 
ATOM     25  C   UNL     1       2.910   5.283   3.599  0.00  0.00    +0.000 C 
ATOM     26  C   UNL     1       2.884   6.982   2.044  0.00  0.00    +0.000 C 
BRANCH  24  27
ATOM     27  O   UNL     1       2.854   5.184   0.467  0.00  0.00    +0.000 OA
ATOM     28  H   UNL     1       3.342   4.485   0.936  0.00  0.00    +0.000 HD
ENDBRANCH  24  27
ENDBRANCH  19  22
ENDBRANCH   4  19
TORSDOF 6
ENDMDL
