MODEL 1
REMARK VINA RESULT:  3149.254      0.000      0.000
REMARK INTER + INTRA:        3147.803
REMARK INTER:                3148.359
REMARK INTRA:                  -0.556
REMARK CONF_INDEPENDENT:        0.895
REMARK UNBOUND:                 0.556
REMARK  Name = 
REMARK  9 active torsions:
REMARK  status: ('A' for Active; 'I' for Inactive)
REMARK    1  A    between atoms: C_1  and  C_2
REMARK    2  A    between atoms: C_3  and  O_4
REMARK    3  A    between atoms: C_13  and  C_14
REMARK    4  A    between atoms: C_17  and  C_18
REMARK    5  A    between atoms: C_21  and  C_22
REMARK    6  A    between atoms: C_21  and  C_23
REMARK    7  A    between atoms: C_23  and  O_25
REMARK    8  A    between atoms: C_28  and  C_29
REMARK    9  A    between atoms: C_32  and  C_33
REMARK                            x       y       z     vdW  Elec       q    Type
REMARK                         _______ _______ _______ _____ _____    ______ ____
ROOT
ATOM      1  C   UNL     1       2.498  -7.275  -0.617  0.00  0.00    +0.000 C 
ATOM      2  C   UNL     1       2.998  -5.965  -0.956  0.00  0.00    +0.000 C 
ATOM      3  C   UNL     1       4.048  -5.842  -1.769  0.00  0.00    +0.000 C 
ATOM      4  C   UNL     1       4.375  -4.482  -2.216  0.00  0.00    +0.000 C 
ATOM      5  O   UNL     1       4.975  -4.339  -3.310  0.00  0.00    +0.000 OA
ATOM      6  C   UNL     1       3.876  -3.362  -1.420  0.00  0.00    +0.000 C 
ATOM      7  C   UNL     1       2.862  -3.479  -0.561  0.00  0.00    +0.000 C 
ATOM      8  C   UNL     1       2.222  -4.802  -0.506  0.00  0.00    +0.000 C 
ATOM      9  C   UNL     1       0.899  -4.941  -0.405  0.00  0.00    +0.000 C 
ATOM     10  C   UNL     1       0.077  -3.727  -0.497  0.00  0.00    +0.000 C 
ATOM     11  C   UNL     1       0.609  -2.503  -0.491  0.00  0.00    +0.000 C 
ATOM     12  C   UNL     1       2.055  -2.284  -0.164  0.00  0.00    +0.000 C 
ATOM     13  C   UNL     1       2.542  -1.108  -1.003  0.00  0.00    +0.000 C 
ATOM     14  C   UNL     1       2.285  -1.946   1.273  0.00  0.00    +0.000 C 
ATOM     15  C   UNL     1       1.267  -1.050   1.892  0.00  0.00    +0.000 C 
ATOM     16  C   UNL     1      -0.085  -1.680   1.598  0.00  0.00    +0.000 C 
ATOM     17  C   UNL     1      -0.204  -3.043   2.127  0.00  0.00    +0.000 C 
ATOM     18  C   UNL     1      -1.191  -0.731   2.360  0.00  0.00    +0.000 C 
ATOM     19  C   UNL     1      -0.745  -1.317   3.842  0.00  0.00    +0.000 C 
ATOM     20  C   UNL     1      -1.875  -0.899   4.735  0.00  0.00    +0.000 C 
ATOM     21  C   UNL     1      -2.130   0.574   4.747  0.00  0.00    +0.000 C 
ATOM     22  C   UNL     1      -3.118  -1.718   4.400  0.00  0.00    +0.000 C 
ATOM     23  C   UNL     1      -2.648  -2.639   3.273  0.00  0.00    +0.000 C 
ATOM     24  C   UNL     1      -2.438  -1.778   2.123  0.00  0.00    +0.000 C 
ATOM     25  C   UNL     1      -3.588  -0.764   2.121  0.00  0.00    +0.000 C 
ATOM     26  C   UNL     1      -2.401  -2.346   0.786  0.00  0.00    +0.000 C 
ATOM     27  C   UNL     1      -1.708  -1.592  -0.285  0.00  0.00    +0.000 C 
ATOM     28  C   UNL     1      -0.281  -1.474   0.135  0.00  0.00    +0.000 C 
ATOM     29  C   UNL     1       0.163  -0.066  -0.208  0.00  0.00    +0.000 C 
ENDROOT
BRANCH   3  30
ATOM     30  O   UNL     1       4.708  -6.964  -2.276  0.00  0.00    +0.000 OA
ATOM     31  H   UNL     1       5.009  -6.970  -3.163  0.00  0.00    +0.000 HD
ENDBRANCH   3  30
BRANCH  20  32
ATOM     32  C   UNL     1      -1.520  -1.325   6.123  0.00  0.00    +0.000 C 
ATOM     33  O   UNL     1      -1.761  -2.551   6.356  0.00  0.00    +0.000 OA
BRANCH  32  34
ATOM     34  O   UNL     1      -0.260  -0.915   6.573  0.00  0.00    +0.000 OA
ATOM     35  H   UNL     1       0.505  -1.391   6.320  0.00  0.00    +0.000 HD
ENDBRANCH  32  34
ENDBRANCH  20  32
TORSDOF 3
ENDMDL
