MODEL 1
REMARK VINA RESULT:  3311.447      0.000      0.000
REMARK INTER + INTRA:        3310.186
REMARK INTER:                3310.552
REMARK INTRA:                  -0.365
REMARK CONF_INDEPENDENT:        0.895
REMARK UNBOUND:                 0.365
REMARK  Name = 
REMARK  9 active torsions:
REMARK  status: ('A' for Active; 'I' for Inactive)
REMARK    1  A    between atoms: C_1  and  C_2
REMARK    2  A    between atoms: C_3  and  O_4
REMARK    3  A    between atoms: C_13  and  C_14
REMARK    4  A    between atoms: C_17  and  C_18
REMARK    5  A    between atoms: C_21  and  C_22
REMARK    6  A    between atoms: C_21  and  C_23
REMARK    7  A    between atoms: C_23  and  O_25
REMARK    8  A    between atoms: C_28  and  C_29
REMARK    9  A    between atoms: C_32  and  C_33
REMARK                            x       y       z     vdW  Elec       q    Type
REMARK                         _______ _______ _______ _____ _____    ______ ____
ROOT
ATOM      1  C   UNL     1      -5.286  -1.715  -0.400  0.00  0.00    +0.000 C 
ATOM      2  C   UNL     1      -4.743  -0.482  -0.918  0.00  0.00    +0.000 C 
ATOM      3  C   UNL     1      -5.176  -0.001  -2.084  0.00  0.00    +0.000 C 
ATOM      4  C   UNL     1      -4.717   1.346  -2.448  0.00  0.00    +0.000 C 
ATOM      5  O   UNL     1      -5.433   2.036  -3.215  0.00  0.00    +0.000 OA
ATOM      6  C   UNL     1      -3.511   1.856  -1.799  0.00  0.00    +0.000 C 
ATOM      7  C   UNL     1      -3.031   1.350  -0.661  0.00  0.00    +0.000 C 
ATOM      8  C   UNL     1      -3.833   0.279  -0.052  0.00  0.00    +0.000 C 
ATOM      9  C   UNL     1      -4.025   0.205   1.267  0.00  0.00    +0.000 C 
ATOM     10  C   UNL     1      -3.532   1.316   2.090  0.00  0.00    +0.000 C 
ATOM     11  C   UNL     1      -2.754   2.281   1.595  0.00  0.00    +0.000 C 
ATOM     12  C   UNL     1      -2.151   2.170   0.228  0.00  0.00    +0.000 C 
ATOM     13  C   UNL     1      -2.091   3.574  -0.362  0.00  0.00    +0.000 C 
ATOM     14  C   UNL     1      -0.761   1.622   0.244  0.00  0.00    +0.000 C 
ATOM     15  C   UNL     1       0.098   2.086   1.370  0.00  0.00    +0.000 C 
ATOM     16  C   UNL     1      -0.697   1.832   2.641  0.00  0.00    +0.000 C 
ATOM     17  C   UNL     1      -1.060   0.421   2.813  0.00  0.00    +0.000 C 
ATOM     18  C   UNL     1       0.295   2.266   3.879  0.00  0.00    +0.000 C 
ATOM     19  C   UNL     1       1.229   0.915   3.667  0.00  0.00    +0.000 C 
ATOM     20  C   UNL     1       2.021   0.840   4.938  0.00  0.00    +0.000 C 
ATOM     21  C   UNL     1       2.830   2.064   5.226  0.00  0.00    +0.000 C 
ATOM     22  C   UNL     1       1.102   0.446   6.090  0.00  0.00    +0.000 C 
ATOM     23  C   UNL     1      -0.264   0.289   5.421  0.00  0.00    +0.000 C 
ATOM     24  C   UNL     1      -0.676   1.629   5.045  0.00  0.00    +0.000 C 
ATOM     25  C   UNL     1      -0.272   2.550   6.203  0.00  0.00    +0.000 C 
ATOM     26  C   UNL     1      -2.076   1.913   4.777  0.00  0.00    +0.000 C 
ATOM     27  C   UNL     1      -2.413   3.086   3.935  0.00  0.00    +0.000 C 
ATOM     28  C   UNL     1      -1.794   2.840   2.599  0.00  0.00    +0.000 C 
ATOM     29  C   UNL     1      -1.207   4.160   2.139  0.00  0.00    +0.000 C 
ENDROOT
BRANCH   3  30
ATOM     30  O   UNL     1      -6.126  -0.687  -2.844  0.00  0.00    +0.000 OA
ATOM     31  H   UNL     1      -6.439  -1.523  -2.560  0.00  0.00    +0.000 HD
ENDBRANCH   3  30
BRANCH  20  32
ATOM     32  C   UNL     1       2.956  -0.319   4.806  0.00  0.00    +0.000 C 
ATOM     33  O   UNL     1       3.652  -0.533   5.848  0.00  0.00    +0.000 OA
BRANCH  32  34
ATOM     34  O   UNL     1       2.396  -1.484   4.268  0.00  0.00    +0.000 OA
ATOM     35  H   UNL     1       2.947  -2.125   3.865  0.00  0.00    +0.000 HD
ENDBRANCH  32  34
ENDBRANCH  20  32
TORSDOF 3
ENDMDL
