MODEL 1
REMARK VINA RESULT:   280.664      0.000      0.000
REMARK INTER + INTRA:         279.233
REMARK INTER:                 279.769
REMARK INTRA:                  -0.536
REMARK CONF_INDEPENDENT:        0.895
REMARK UNBOUND:                 0.536
REMARK  Name = 
REMARK  9 active torsions:
REMARK  status: ('A' for Active; 'I' for Inactive)
REMARK    1  A    between atoms: C_1  and  C_2
REMARK    2  A    between atoms: C_3  and  O_4
REMARK    3  A    between atoms: C_13  and  C_14
REMARK    4  A    between atoms: C_17  and  C_18
REMARK    5  A    between atoms: C_21  and  C_22
REMARK    6  A    between atoms: C_21  and  C_23
REMARK    7  A    between atoms: C_23  and  O_25
REMARK    8  A    between atoms: C_28  and  C_29
REMARK    9  A    between atoms: C_32  and  C_33
REMARK                            x       y       z     vdW  Elec       q    Type
REMARK                         _______ _______ _______ _____ _____    ______ ____
ROOT
ATOM      1  C   UNL     1      -2.437  -0.776   3.915  0.00  0.00    +0.000 C 
ATOM      2  C   UNL     1      -1.314  -0.152   4.574  0.00  0.00    +0.000 C 
ATOM      3  C   UNL     1      -1.428   1.084   5.059  0.00  0.00    +0.000 C 
ATOM      4  C   UNL     1      -0.311   1.572   5.879  0.00  0.00    +0.000 C 
ATOM      5  O   UNL     1      -0.542   2.454   6.742  0.00  0.00    +0.000 OA
ATOM      6  C   UNL     1       0.986   0.916   5.725  0.00  0.00    +0.000 C 
ATOM      7  C   UNL     1       1.125  -0.298   5.191  0.00  0.00    +0.000 C 
ATOM      8  C   UNL     1      -0.124  -0.978   4.818  0.00  0.00    +0.000 C 
ATOM      9  C   UNL     1      -0.307  -2.283   5.031  0.00  0.00    +0.000 C 
ATOM     10  C   UNL     1       0.726  -3.001   5.788  0.00  0.00    +0.000 C 
ATOM     11  C   UNL     1       1.899  -2.446   6.099  0.00  0.00    +0.000 C 
ATOM     12  C   UNL     1       2.324  -1.137   5.503  0.00  0.00    +0.000 C 
ATOM     13  C   UNL     1       3.136  -0.395   6.558  0.00  0.00    +0.000 C 
ATOM     14  C   UNL     1       3.184  -1.298   4.293  0.00  0.00    +0.000 C 
ATOM     15  C   UNL     1       4.173  -2.412   4.352  0.00  0.00    +0.000 C 
ATOM     16  C   UNL     1       3.387  -3.654   4.739  0.00  0.00    +0.000 C 
ATOM     17  C   UNL     1       2.312  -3.965   3.791  0.00  0.00    +0.000 C 
ATOM     18  C   UNL     1       4.471  -4.891   4.715  0.00  0.00    +0.000 C 
ATOM     19  C   UNL     1       4.508  -4.890   3.060  0.00  0.00    +0.000 C 
ATOM     20  C   UNL     1       5.147  -6.205   2.728  0.00  0.00    +0.000 C 
ATOM     21  C   UNL     1       6.499  -6.399   3.337  0.00  0.00    +0.000 C 
ATOM     22  C   UNL     1       4.179  -7.339   3.051  0.00  0.00    +0.000 C 
ATOM     23  C   UNL     1       2.941  -6.613   3.580  0.00  0.00    +0.000 C 
ATOM     24  C   UNL     1       3.327  -6.063   4.867  0.00  0.00    +0.000 C 
ATOM     25  C   UNL     1       4.186  -7.129   5.558  0.00  0.00    +0.000 C 
ATOM     26  C   UNL     1       2.308  -5.682   5.831  0.00  0.00    +0.000 C 
ATOM     27  C   UNL     1       2.659  -4.694   6.879  0.00  0.00    +0.000 C 
ATOM     28  C   UNL     1       3.022  -3.433   6.167  0.00  0.00    +0.000 C 
ATOM     29  C   UNL     1       4.230  -2.860   6.881  0.00  0.00    +0.000 C 
ENDROOT
BRANCH   3  30
ATOM     30  O   UNL     1      -2.610   1.815   4.912  0.00  0.00    +0.000 OA
ATOM     31  H   UNL     1      -2.741   2.599   5.408  0.00  0.00    +0.000 HD
ENDBRANCH   3  30
BRANCH  20  32
ATOM     32  C   UNL     1       5.291  -6.262   1.241  0.00  0.00    +0.000 C 
ATOM     33  O   UNL     1       5.589  -5.143   0.716  0.00  0.00    +0.000 OA
BRANCH  32  34
ATOM     34  O   UNL     1       6.063  -7.323   0.753  0.00  0.00    +0.000 OA
ATOM     35  H   UNL     1       6.316  -7.342  -0.149  0.00  0.00    +0.000 HD
ENDBRANCH  32  34
ENDBRANCH  20  32
TORSDOF 3
ENDMDL
