MODEL 1
REMARK VINA RESULT:    13.519      0.000      0.000
REMARK INTER + INTRA:          12.207
REMARK INTER:                  12.624
REMARK INTRA:                  -0.417
REMARK CONF_INDEPENDENT:        0.895
REMARK UNBOUND:                 0.417
REMARK  Name = 
REMARK  9 active torsions:
REMARK  status: ('A' for Active; 'I' for Inactive)
REMARK    1  A    between atoms: C_1  and  C_2
REMARK    2  A    between atoms: C_3  and  O_4
REMARK    3  A    between atoms: C_13  and  C_14
REMARK    4  A    between atoms: C_17  and  C_18
REMARK    5  A    between atoms: C_21  and  C_22
REMARK    6  A    between atoms: C_21  and  C_23
REMARK    7  A    between atoms: C_23  and  O_25
REMARK    8  A    between atoms: C_28  and  C_29
REMARK    9  A    between atoms: C_32  and  C_33
REMARK                            x       y       z     vdW  Elec       q    Type
REMARK                         _______ _______ _______ _____ _____    ______ ____
ROOT
ATOM      1  C   UNL     1       1.864   5.033   3.422  0.00  0.00    +0.000 C 
ATOM      2  C   UNL     1       3.285   4.870   3.225  0.00  0.00    +0.000 C 
ATOM      3  C   UNL     1       4.014   5.885   2.759  0.00  0.00    +0.000 C 
ATOM      4  C   UNL     1       5.471   5.704   2.768  0.00  0.00    +0.000 C 
ATOM      5  O   UNL     1       6.202   6.722   2.833  0.00  0.00    +0.000 OA
ATOM      6  C   UNL     1       5.989   4.337   2.821  0.00  0.00    +0.000 C 
ATOM      7  C   UNL     1       5.256   3.300   3.231  0.00  0.00    +0.000 C 
ATOM      8  C   UNL     1       3.900   3.623   3.696  0.00  0.00    +0.000 C 
ATOM      9  C   UNL     1       3.362   3.031   4.765  0.00  0.00    +0.000 C 
ATOM     10  C   UNL     1       4.224   2.148   5.560  0.00  0.00    +0.000 C 
ATOM     11  C   UNL     1       5.440   1.780   5.152  0.00  0.00    +0.000 C 
ATOM     12  C   UNL     1       5.912   2.063   3.758  0.00  0.00    +0.000 C 
ATOM     13  C   UNL     1       7.410   2.338   3.827  0.00  0.00    +0.000 C 
ATOM     14  C   UNL     1       5.700   0.916   2.825  0.00  0.00    +0.000 C 
ATOM     15  C   UNL     1       5.946  -0.435   3.404  0.00  0.00    +0.000 C 
ATOM     16  C   UNL     1       5.129  -0.502   4.684  0.00  0.00    +0.000 C 
ATOM     17  C   UNL     1       3.696  -0.288   4.456  0.00  0.00    +0.000 C 
ATOM     18  C   UNL     1       5.340  -2.026   5.266  0.00  0.00    +0.000 C 
ATOM     19  C   UNL     1       4.365  -2.661   4.088  0.00  0.00    +0.000 C 
ATOM     20  C   UNL     1       4.053  -4.035   4.601  0.00  0.00    +0.000 C 
ATOM     21  C   UNL     1       5.261  -4.875   4.870  0.00  0.00    +0.000 C 
ATOM     22  C   UNL     1       3.119  -3.931   5.803  0.00  0.00    +0.000 C 
ATOM     23  C   UNL     1       2.897  -2.425   5.955  0.00  0.00    +0.000 C 
ATOM     24  C   UNL     1       4.166  -1.885   6.411  0.00  0.00    +0.000 C 
ATOM     25  C   UNL     1       4.725  -2.883   7.431  0.00  0.00    +0.000 C 
ATOM     26  C   UNL     1       4.214  -0.583   7.056  0.00  0.00    +0.000 C 
ATOM     27  C   UNL     1       5.495   0.162   7.054  0.00  0.00    +0.000 C 
ATOM     28  C   UNL     1       5.836   0.415   5.623  0.00  0.00    +0.000 C 
ATOM     29  C   UNL     1       7.327   0.183   5.479  0.00  0.00    +0.000 C 
ENDROOT
BRANCH   3  30
ATOM     30  O   UNL     1       3.424   7.105   2.418  0.00  0.00    +0.000 OA
ATOM     31  H   UNL     1       3.067   7.656   3.086  0.00  0.00    +0.000 HD
ENDBRANCH   3  30
BRANCH  20  32
ATOM     32  C   UNL     1       3.230  -4.719   3.557  0.00  0.00    +0.000 C 
ATOM     33  O   UNL     1       1.981  -4.679   3.789  0.00  0.00    +0.000 OA
BRANCH  32  34
ATOM     34  O   UNL     1       3.555  -4.402   2.233  0.00  0.00    +0.000 OA
ATOM     35  H   UNL     1       3.262  -3.595   1.859  0.00  0.00    +0.000 HD
ENDBRANCH  32  34
ENDBRANCH  20  32
TORSDOF 3
ENDMDL
