MODEL 1
REMARK VINA RESULT:  3409.747      0.000      0.000
REMARK INTER + INTRA:        3408.489
REMARK INTER:                3408.852
REMARK INTRA:                  -0.363
REMARK CONF_INDEPENDENT:        0.895
REMARK UNBOUND:                 0.363
REMARK  Name = 
REMARK  9 active torsions:
REMARK  status: ('A' for Active; 'I' for Inactive)
REMARK    1  A    between atoms: C_1  and  C_2
REMARK    2  A    between atoms: C_3  and  O_4
REMARK    3  A    between atoms: C_13  and  C_14
REMARK    4  A    between atoms: C_17  and  C_18
REMARK    5  A    between atoms: C_21  and  C_22
REMARK    6  A    between atoms: C_21  and  C_23
REMARK    7  A    between atoms: C_23  and  O_25
REMARK    8  A    between atoms: C_28  and  C_29
REMARK    9  A    between atoms: C_32  and  C_33
REMARK                            x       y       z     vdW  Elec       q    Type
REMARK                         _______ _______ _______ _____ _____    ______ ____
ROOT
ATOM      1  C   UNL     1      -3.153  -3.734   3.258  0.00  0.00    +0.000 C 
ATOM      2  C   UNL     1      -4.147  -3.005   2.506  0.00  0.00    +0.000 C 
ATOM      3  C   UNL     1      -5.379  -3.498   2.378  0.00  0.00    +0.000 C 
ATOM      4  C   UNL     1      -6.379  -2.613   1.766  0.00  0.00    +0.000 C 
ATOM      5  O   UNL     1      -7.588  -2.782   2.058  0.00  0.00    +0.000 OA
ATOM      6  C   UNL     1      -5.897  -1.504   0.943  0.00  0.00    +0.000 C 
ATOM      7  C   UNL     1      -4.651  -1.034   1.019  0.00  0.00    +0.000 C 
ATOM      8  C   UNL     1      -3.795  -1.659   2.037  0.00  0.00    +0.000 C 
ATOM      9  C   UNL     1      -2.950  -0.944   2.783  0.00  0.00    +0.000 C 
ATOM     10  C   UNL     1      -3.003   0.518   2.660  0.00  0.00    +0.000 C 
ATOM     11  C   UNL     1      -3.720   1.130   1.715  0.00  0.00    +0.000 C 
ATOM     12  C   UNL     1      -4.334   0.361   0.584  0.00  0.00    +0.000 C 
ATOM     13  C   UNL     1      -5.653   1.038   0.231  0.00  0.00    +0.000 C 
ATOM     14  C   UNL     1      -3.483   0.350  -0.644  0.00  0.00    +0.000 C 
ATOM     15  C   UNL     1      -2.776   1.627  -0.947  0.00  0.00    +0.000 C 
ATOM     16  C   UNL     1      -2.043   2.016   0.327  0.00  0.00    +0.000 C 
ATOM     17  C   UNL     1      -1.094   0.990   0.773  0.00  0.00    +0.000 C 
ATOM     18  C   UNL     1      -1.198   3.377  -0.045  0.00  0.00    +0.000 C 
ATOM     19  C   UNL     1      -0.104   2.512  -0.936  0.00  0.00    +0.000 C 
ATOM     20  C   UNL     1       1.042   3.465  -1.099  0.00  0.00    +0.000 C 
ATOM     21  C   UNL     1       0.669   4.763  -1.741  0.00  0.00    +0.000 C 
ATOM     22  C   UNL     1       1.751   3.643   0.239  0.00  0.00    +0.000 C 
ATOM     23  C   UNL     1       0.964   2.737   1.186  0.00  0.00    +0.000 C 
ATOM     24  C   UNL     1      -0.331   3.372   1.354  0.00  0.00    +0.000 C 
ATOM     25  C   UNL     1      -0.068   4.879   1.462  0.00  0.00    +0.000 C 
ATOM     26  C   UNL     1      -1.170   3.029   2.491  0.00  0.00    +0.000 C 
ATOM     27  C   UNL     1      -2.629   3.271   2.394  0.00  0.00    +0.000 C 
ATOM     28  C   UNL     1      -3.124   2.428   1.267  0.00  0.00    +0.000 C 
ATOM     29  C   UNL     1      -4.125   3.268   0.498  0.00  0.00    +0.000 C 
ENDROOT
BRANCH   3  30
ATOM     30  O   UNL     1      -5.727  -4.735   2.927  0.00  0.00    +0.000 OA
ATOM     31  H   UNL     1      -5.058  -5.338   3.185  0.00  0.00    +0.000 HD
ENDBRANCH   3  30
BRANCH  20  32
ATOM     32  C   UNL     1       2.058   2.790  -1.963  0.00  0.00    +0.000 C 
ATOM     33  O   UNL     1       3.128   2.488  -1.348  0.00  0.00    +0.000 OA
BRANCH  32  34
ATOM     34  O   UNL     1       1.569   1.750  -2.763  0.00  0.00    +0.000 OA
ATOM     35  H   UNL     1       0.656   1.544  -2.757  0.00  0.00    +0.000 HD
ENDBRANCH  32  34
ENDBRANCH  20  32
TORSDOF 3
ENDMDL
