MODEL 1
REMARK VINA RESULT:  3113.391      0.000      0.000
REMARK INTER + INTRA:        3112.106
REMARK INTER:                3112.496
REMARK INTRA:                  -0.390
REMARK CONF_INDEPENDENT:        0.895
REMARK UNBOUND:                 0.390
REMARK  Name = 
REMARK  9 active torsions:
REMARK  status: ('A' for Active; 'I' for Inactive)
REMARK    1  A    between atoms: C_1  and  C_2
REMARK    2  A    between atoms: C_3  and  O_4
REMARK    3  A    between atoms: C_13  and  C_14
REMARK    4  A    between atoms: C_17  and  C_18
REMARK    5  A    between atoms: C_21  and  C_22
REMARK    6  A    between atoms: C_21  and  C_23
REMARK    7  A    between atoms: C_23  and  O_25
REMARK    8  A    between atoms: C_28  and  C_29
REMARK    9  A    between atoms: C_32  and  C_33
REMARK                            x       y       z     vdW  Elec       q    Type
REMARK                         _______ _______ _______ _____ _____    ______ ____
ROOT
ATOM      1  C   UNL     1       0.347   1.795  -2.639  0.00  0.00    +0.000 C 
ATOM      2  C   UNL     1       0.269   1.357  -4.012  0.00  0.00    +0.000 C 
ATOM      3  C   UNL     1       0.873   2.058  -4.972  0.00  0.00    +0.000 C 
ATOM      4  C   UNL     1       0.909   1.447  -6.307  0.00  0.00    +0.000 C 
ATOM      5  O   UNL     1       1.838   1.767  -7.088  0.00  0.00    +0.000 OA
ATOM      6  C   UNL     1      -0.073   0.407  -6.608  0.00  0.00    +0.000 C 
ATOM      7  C   UNL     1      -0.729  -0.267  -5.662  0.00  0.00    +0.000 C 
ATOM      8  C   UNL     1      -0.356   0.054  -4.277  0.00  0.00    +0.000 C 
ATOM      9  C   UNL     1      -0.240  -0.891  -3.341  0.00  0.00    +0.000 C 
ATOM     10  C   UNL     1      -0.352  -2.291  -3.770  0.00  0.00    +0.000 C 
ATOM     11  C   UNL     1      -0.744  -2.632  -5.000  0.00  0.00    +0.000 C 
ATOM     12  C   UNL     1      -1.307  -1.617  -5.947  0.00  0.00    +0.000 C 
ATOM     13  C   UNL     1      -0.871  -2.010  -7.354  0.00  0.00    +0.000 C 
ATOM     14  C   UNL     1      -2.800  -1.565  -5.929  0.00  0.00    +0.000 C 
ATOM     15  C   UNL     1      -3.485  -2.883  -5.801  0.00  0.00    +0.000 C 
ATOM     16  C   UNL     1      -2.861  -3.568  -4.596  0.00  0.00    +0.000 C 
ATOM     17  C   UNL     1      -3.002  -2.788  -3.362  0.00  0.00    +0.000 C 
ATOM     18  C   UNL     1      -3.684  -4.980  -4.413  0.00  0.00    +0.000 C 
ATOM     19  C   UNL     1      -5.013  -4.185  -3.827  0.00  0.00    +0.000 C 
ATOM     20  C   UNL     1      -5.822  -5.279  -3.198  0.00  0.00    +0.000 C 
ATOM     21  C   UNL     1      -6.178  -6.390  -4.133  0.00  0.00    +0.000 C 
ATOM     22  C   UNL     1      -5.125  -5.764  -1.931  0.00  0.00    +0.000 C 
ATOM     23  C   UNL     1      -3.873  -4.889  -1.852  0.00  0.00    +0.000 C 
ATOM     24  C   UNL     1      -3.021  -5.322  -2.946  0.00  0.00    +0.000 C 
ATOM     25  C   UNL     1      -3.125  -6.850  -3.002  0.00  0.00    +0.000 C 
ATOM     26  C   UNL     1      -1.601  -5.016  -2.927  0.00  0.00    +0.000 C 
ATOM     27  C   UNL     1      -0.862  -4.999  -4.212  0.00  0.00    +0.000 C 
ATOM     28  C   UNL     1      -1.487  -3.931  -5.046  0.00  0.00    +0.000 C 
ATOM     29  C   UNL     1      -1.579  -4.474  -6.458  0.00  0.00    +0.000 C 
ENDROOT
BRANCH   3  30
ATOM     30  O   UNL     1       1.558   3.241  -4.683  0.00  0.00    +0.000 OA
ATOM     31  H   UNL     1       1.381   3.703  -3.888  0.00  0.00    +0.000 HD
ENDBRANCH   3  30
BRANCH  20  32
ATOM     32  C   UNL     1      -7.090  -4.660  -2.702  0.00  0.00    +0.000 C 
ATOM     33  O   UNL     1      -7.587  -5.256  -1.696  0.00  0.00    +0.000 OA
BRANCH  32  34
ATOM     34  O   UNL     1      -7.063  -3.268  -2.561  0.00  0.00    +0.000 OA
ATOM     35  H   UNL     1      -7.584  -2.854  -1.903  0.00  0.00    +0.000 HD
ENDBRANCH  32  34
ENDBRANCH  20  32
TORSDOF 3
ENDMDL
