MODEL 1
REMARK VINA RESULT:     1.532      0.000      0.000
REMARK INTER + INTRA:          -0.837
REMARK INTER:                  -0.258
REMARK INTRA:                  -0.579
REMARK CONF_INDEPENDENT:        1.790
REMARK UNBOUND:                 0.579
REMARK  Name = 5282379
REMARK  11 active torsions:
REMARK  status: ('A' for Active; 'I' for Inactive)
REMARK    1  A    between atoms: O_1  and  C_22
REMARK    2  A    between atoms: C_3  and  C_9
REMARK    3  A    between atoms: C_3  and  C_10
REMARK    4  A    between atoms: C_6  and  C_11
REMARK    5  A    between atoms: C_8  and  C_12
REMARK    6  A    between atoms: C_13  and  C_14
REMARK    7  A    between atoms: C_14  and  C_15
REMARK    8  A    between atoms: C_16  and  C_17
REMARK    9  A    between atoms: C_18  and  C_19
REMARK   10  A    between atoms: C_19  and  C_20
REMARK   11  A    between atoms: C_21  and  C_22
REMARK                            x       y       z     vdW  Elec       q    Type
REMARK                         _______ _______ _______ _____ _____    ______ ____
ROOT
ATOM      1  C   UNL     1      -4.365   1.407  -5.064  0.00  0.00    +0.000 C 
ATOM      2  C   UNL     1      -3.943   2.390  -6.132  0.00  0.00    +0.000 C 
ATOM      3  C   UNL     1      -4.214   1.760  -3.768  0.00  0.00    +0.000 C 
ENDROOT
BRANCH   1   5
ATOM      4  C   UNL     1      -4.243  -1.033  -5.613  0.00  0.00    +0.000 C 
ATOM      5  C   UNL     1      -4.914   0.126  -5.507  0.00  0.00    +0.000 C 
BRANCH   4   9
ATOM      6  C   UNL     1      -6.332  -2.476  -5.644  0.00  0.00    +0.000 C 
ATOM      7  C   UNL     1      -6.806  -3.931  -5.912  0.00  0.00    +0.000 C 
ATOM      8  C   UNL     1      -6.364  -4.438  -7.273  0.00  0.00    +0.000 C 
ATOM      9  C   UNL     1      -4.858  -2.271  -6.063  0.00  0.00    +0.000 C 
ATOM     10  C   UNL     1      -4.845  -4.428  -7.364  0.00  0.00    +0.000 C 
ATOM     11  C   UNL     1      -4.188  -3.176  -6.821  0.00  0.00    +0.000 C 
ATOM     12  C   UNL     1      -6.548  -2.228  -4.132  0.00  0.00    +0.000 C 
ATOM     13  C   UNL     1      -7.235  -1.501  -6.436  0.00  0.00    +0.000 C 
ATOM     14  C   UNL     1      -2.735  -3.083  -7.229  0.00  0.00    +0.000 C 
ENDBRANCH   4   9
ENDBRANCH   1   5
BRANCH   3  15
ATOM     15  C   UNL     1      -3.684   2.997  -3.225  0.00  0.00    +0.000 C 
ATOM     16  C   UNL     1      -3.083   3.061  -2.023  0.00  0.00    +0.000 C 
BRANCH  16  17
ATOM     17  C   UNL     1      -2.521   4.254  -1.382  0.00  0.00    +0.000 C 
ATOM     18  C   UNL     1      -1.469   4.041  -0.325  0.00  0.00    +0.000 C 
ATOM     19  C   UNL     1      -2.997   5.458  -1.764  0.00  0.00    +0.000 C 
BRANCH  19  21
ATOM     20  O   UNL     1      -3.888   6.049  -3.933  0.00  0.00    +0.000 OA
ATOM     21  C   UNL     1      -4.047   5.694  -2.780  0.00  0.00    +0.000 C 
BRANCH  21  22
ATOM     22  O   UNL     1      -5.251   5.423  -2.218  0.00  0.00    +0.000 OA
ATOM     23  H   UNL     1      -5.493   6.083  -1.534  0.00  0.00    +0.000 HD
ENDBRANCH  21  22
ENDBRANCH  19  21
ENDBRANCH  16  17
ENDBRANCH   3  15
TORSDOF 6
ENDMDL
