MODEL 1
REMARK VINA RESULT:     4.463      0.000      0.000
REMARK INTER + INTRA:           2.023
REMARK INTER:                   2.673
REMARK INTRA:                  -0.650
REMARK CONF_INDEPENDENT:        1.790
REMARK UNBOUND:                 0.650
REMARK  Name = 444795
REMARK  11 active torsions:
REMARK  status: ('A' for Active; 'I' for Inactive)
REMARK    1  A    between atoms: O_1  and  C_22
REMARK    2  A    between atoms: C_3  and  C_9
REMARK    3  A    between atoms: C_3  and  C_10
REMARK    4  A    between atoms: C_6  and  C_11
REMARK    5  A    between atoms: C_8  and  C_12
REMARK    6  A    between atoms: C_13  and  C_14
REMARK    7  A    between atoms: C_14  and  C_15
REMARK    8  A    between atoms: C_16  and  C_17
REMARK    9  A    between atoms: C_18  and  C_19
REMARK   10  A    between atoms: C_19  and  C_20
REMARK   11  A    between atoms: C_21  and  C_22
REMARK                            x       y       z     vdW  Elec       q    Type
REMARK                         _______ _______ _______ _____ _____    ______ ____
ROOT
ATOM      1  C   UNL     1      -4.818  -1.216  -3.886  0.00  0.00    +0.000 C 
ATOM      2  C   UNL     1      -5.151  -1.197  -2.412  0.00  0.00    +0.000 C 
ATOM      3  C   UNL     1      -4.510  -0.049  -4.493  0.00  0.00    +0.000 C 
ENDROOT
BRANCH   1   5
ATOM      4  C   UNL     1      -5.857  -3.402  -4.531  0.00  0.00    +0.000 C 
ATOM      5  C   UNL     1      -4.851  -2.512  -4.566  0.00  0.00    +0.000 C 
BRANCH   4   9
ATOM      6  C   UNL     1      -5.723  -4.582  -6.776  0.00  0.00    +0.000 C 
ATOM      7  C   UNL     1      -5.984  -5.959  -7.446  0.00  0.00    +0.000 C 
ATOM      8  C   UNL     1      -5.253  -7.088  -6.743  0.00  0.00    +0.000 C 
ATOM      9  C   UNL     1      -5.818  -4.673  -5.234  0.00  0.00    +0.000 C 
ATOM     10  C   UNL     1      -5.717  -7.190  -5.297  0.00  0.00    +0.000 C 
ATOM     11  C   UNL     1      -5.841  -5.861  -4.579  0.00  0.00    +0.000 C 
ATOM     12  C   UNL     1      -6.777  -3.614  -7.368  0.00  0.00    +0.000 C 
ATOM     13  C   UNL     1      -4.317  -4.085  -7.179  0.00  0.00    +0.000 C 
ATOM     14  C   UNL     1      -5.985  -6.044  -3.086  0.00  0.00    +0.000 C 
ENDBRANCH   4   9
ENDBRANCH   1   5
BRANCH   3  15
ATOM     15  C   UNL     1      -4.448   1.281  -3.915  0.00  0.00    +0.000 C 
ATOM     16  C   UNL     1      -4.327   1.490  -2.592  0.00  0.00    +0.000 C 
BRANCH  16  17
ATOM     17  C   UNL     1      -4.261   2.787  -1.908  0.00  0.00    +0.000 C 
ATOM     18  C   UNL     1      -5.548   3.342  -1.355  0.00  0.00    +0.000 C 
ATOM     19  C   UNL     1      -3.063   3.403  -1.840  0.00  0.00    +0.000 C 
BRANCH  19  21
ATOM     20  O   UNL     1      -2.239   4.903  -0.131  0.00  0.00    +0.000 OA
ATOM     21  C   UNL     1      -2.795   4.709  -1.197  0.00  0.00    +0.000 C 
BRANCH  21  22
ATOM     22  O   UNL     1      -3.256   5.688  -2.012  0.00  0.00    +0.000 OA
ATOM     23  H   UNL     1      -3.750   5.327  -2.778  0.00  0.00    +0.000 HD
ENDBRANCH  21  22
ENDBRANCH  19  21
ENDBRANCH  16  17
ENDBRANCH   3  15
TORSDOF 6
ENDMDL
MODEL 2
REMARK VINA RESULT:     6.362      3.647      6.166
REMARK INTER + INTRA:           4.083
REMARK INTER:                   4.572
REMARK INTRA:                  -0.489
REMARK CONF_INDEPENDENT:        1.790
REMARK UNBOUND:                 0.489
REMARK  Name = 444795
REMARK  11 active torsions:
REMARK  status: ('A' for Active; 'I' for Inactive)
REMARK    1  A    between atoms: O_1  and  C_22
REMARK    2  A    between atoms: C_3  and  C_9
REMARK    3  A    between atoms: C_3  and  C_10
REMARK    4  A    between atoms: C_6  and  C_11
REMARK    5  A    between atoms: C_8  and  C_12
REMARK    6  A    between atoms: C_13  and  C_14
REMARK    7  A    between atoms: C_14  and  C_15
REMARK    8  A    between atoms: C_16  and  C_17
REMARK    9  A    between atoms: C_18  and  C_19
REMARK   10  A    between atoms: C_19  and  C_20
REMARK   11  A    between atoms: C_21  and  C_22
REMARK                            x       y       z     vdW  Elec       q    Type
REMARK                         _______ _______ _______ _____ _____    ______ ____
ROOT
ATOM      1  C   UNL     1      -3.696   3.513  -1.688  0.00  0.00    +0.000 C 
ATOM      2  C   UNL     1      -4.780   3.880  -0.700  0.00  0.00    +0.000 C 
ATOM      3  C   UNL     1      -2.415   3.802  -1.374  0.00  0.00    +0.000 C 
ENDROOT
BRANCH   1   5
ATOM      4  C   UNL     1      -4.379   1.557  -3.094  0.00  0.00    +0.000 C 
ATOM      5  C   UNL     1      -4.111   2.863  -2.932  0.00  0.00    +0.000 C 
BRANCH   4   9
ATOM      6  C   UNL     1      -5.549  -0.363  -4.276  0.00  0.00    +0.000 C 
ATOM      7  C   UNL     1      -5.680  -1.039  -5.668  0.00  0.00    +0.000 C 
ATOM      8  C   UNL     1      -6.078  -0.052  -6.751  0.00  0.00    +0.000 C 
ATOM      9  C   UNL     1      -4.787   0.981  -4.365  0.00  0.00    +0.000 C 
ATOM     10  C   UNL     1      -5.028   1.042  -6.872  0.00  0.00    +0.000 C 
ATOM     11  C   UNL     1      -4.534   1.592  -5.549  0.00  0.00    +0.000 C 
ATOM     12  C   UNL     1      -4.821  -1.387  -3.372  0.00  0.00    +0.000 C 
ATOM     13  C   UNL     1      -6.963  -0.118  -3.701  0.00  0.00    +0.000 C 
ATOM     14  C   UNL     1      -3.753   2.874  -5.733  0.00  0.00    +0.000 C 
ENDBRANCH   4   9
ENDBRANCH   1   5
BRANCH   3  15
ATOM     15  C   UNL     1      -1.899   4.440  -0.176  0.00  0.00    +0.000 C 
ATOM     16  C   UNL     1      -1.859   3.817   1.015  0.00  0.00    +0.000 C 
BRANCH  16  17
ATOM     17  C   UNL     1      -1.365   4.371   2.281  0.00  0.00    +0.000 C 
ATOM     18  C   UNL     1       0.078   4.114   2.631  0.00  0.00    +0.000 C 
ATOM     19  C   UNL     1      -2.236   5.051   3.054  0.00  0.00    +0.000 C 
BRANCH  19  21
ATOM     20  O   UNL     1      -2.499   6.626   4.871  0.00  0.00    +0.000 OA
ATOM     21  C   UNL     1      -1.930   5.679   4.358  0.00  0.00    +0.000 C 
BRANCH  21  22
ATOM     22  O   UNL     1      -0.902   5.004   4.926  0.00  0.00    +0.000 OA
ATOM     23  H   UNL     1      -1.213   4.349   5.587  0.00  0.00    +0.000 HD
ENDBRANCH  21  22
ENDBRANCH  19  21
ENDBRANCH  16  17
ENDBRANCH   3  15
TORSDOF 6
ENDMDL
