MODEL 1
REMARK VINA RESULT:     7.897      0.000      0.000
REMARK INTER + INTRA:           4.689
REMARK INTER:                   6.108
REMARK INTRA:                  -1.419
REMARK CONF_INDEPENDENT:        1.790
REMARK UNBOUND:                 1.419
REMARK  Name = 449171
REMARK  11 active torsions:
REMARK  status: ('A' for Active; 'I' for Inactive)
REMARK    1  A    between atoms: O_1  and  C_22
REMARK    2  A    between atoms: C_3  and  C_9
REMARK    3  A    between atoms: C_3  and  C_10
REMARK    4  A    between atoms: C_6  and  C_11
REMARK    5  A    between atoms: C_8  and  C_12
REMARK    6  A    between atoms: C_13  and  C_14
REMARK    7  A    between atoms: C_14  and  C_15
REMARK    8  A    between atoms: C_16  and  C_17
REMARK    9  A    between atoms: C_18  and  C_19
REMARK   10  A    between atoms: C_19  and  C_20
REMARK   11  A    between atoms: C_21  and  C_22
REMARK                            x       y       z     vdW  Elec       q    Type
REMARK                         _______ _______ _______ _____ _____    ______ ____
ROOT
ATOM      1  C   UNL     1      -0.907   6.832  -3.813  0.00  0.00    +0.000 C 
ATOM      2  C   UNL     1       0.458   7.460  -3.649  0.00  0.00    +0.000 C 
ATOM      3  C   UNL     1      -1.388   6.657  -5.063  0.00  0.00    +0.000 C 
ENDROOT
BRANCH   1   5
ATOM      4  C   UNL     1      -2.369   5.346  -2.426  0.00  0.00    +0.000 C 
ATOM      5  C   UNL     1      -1.622   6.449  -2.595  0.00  0.00    +0.000 C 
BRANCH   4   9
ATOM      6  C   UNL     1      -3.014   3.545  -0.755  0.00  0.00    +0.000 C 
ATOM      7  C   UNL     1      -3.508   3.357   0.706  0.00  0.00    +0.000 C 
ATOM      8  C   UNL     1      -4.763   4.160   0.996  0.00  0.00    +0.000 C 
ATOM      9  C   UNL     1      -3.053   5.031  -1.183  0.00  0.00    +0.000 C 
ATOM     10  C   UNL     1      -4.492   5.643   0.793  0.00  0.00    +0.000 C 
ATOM     11  C   UNL     1      -3.704   5.975  -0.458  0.00  0.00    +0.000 C 
ATOM     12  C   UNL     1      -3.911   2.712  -1.700  0.00  0.00    +0.000 C 
ATOM     13  C   UNL     1      -1.579   2.963  -0.799  0.00  0.00    +0.000 C 
ATOM     14  C   UNL     1      -3.749   7.454  -0.772  0.00  0.00    +0.000 C 
ENDBRANCH   4   9
ENDBRANCH   1   5
BRANCH   3  15
ATOM     15  C   UNL     1      -2.659   6.084  -5.471  0.00  0.00    +0.000 C 
ATOM     16  C   UNL     1      -2.838   4.760  -5.625  0.00  0.00    +0.000 C 
BRANCH  16  17
ATOM     17  C   UNL     1      -4.072   4.080  -6.037  0.00  0.00    +0.000 C 
ATOM     18  C   UNL     1      -4.780   4.616  -7.255  0.00  0.00    +0.000 C 
ATOM     19  C   UNL     1      -4.499   3.042  -5.290  0.00  0.00    +0.000 C 
BRANCH  19  21
ATOM     20  O   UNL     1      -5.841   1.033  -5.402  0.00  0.00    +0.000 OA
ATOM     21  C   UNL     1      -5.714   2.236  -5.542  0.00  0.00    +0.000 C 
BRANCH  21  22
ATOM     22  O   UNL     1      -6.703   3.070  -5.943  0.00  0.00    +0.000 OA
ATOM     23  H   UNL     1      -7.273   2.662  -6.629  0.00  0.00    +0.000 HD
ENDBRANCH  21  22
ENDBRANCH  19  21
ENDBRANCH  16  17
ENDBRANCH   3  15
TORSDOF 6
ENDMDL
MODEL 2
REMARK VINA RESULT:     9.801      3.038      5.891
REMARK INTER + INTRA:           6.964
REMARK INTER:                   8.011
REMARK INTRA:                  -1.047
REMARK CONF_INDEPENDENT:        1.790
REMARK UNBOUND:                 1.047
REMARK  Name = 449171
REMARK  11 active torsions:
REMARK  status: ('A' for Active; 'I' for Inactive)
REMARK    1  A    between atoms: O_1  and  C_22
REMARK    2  A    between atoms: C_3  and  C_9
REMARK    3  A    between atoms: C_3  and  C_10
REMARK    4  A    between atoms: C_6  and  C_11
REMARK    5  A    between atoms: C_8  and  C_12
REMARK    6  A    between atoms: C_13  and  C_14
REMARK    7  A    between atoms: C_14  and  C_15
REMARK    8  A    between atoms: C_16  and  C_17
REMARK    9  A    between atoms: C_18  and  C_19
REMARK   10  A    between atoms: C_19  and  C_20
REMARK   11  A    between atoms: C_21  and  C_22
REMARK                            x       y       z     vdW  Elec       q    Type
REMARK                         _______ _______ _______ _____ _____    ______ ____
ROOT
ATOM      1  C   UNL     1      -2.328   6.475  -4.014  0.00  0.00    +0.000 C 
ATOM      2  C   UNL     1      -2.107   7.417  -5.174  0.00  0.00    +0.000 C 
ATOM      3  C   UNL     1      -1.564   6.624  -2.910  0.00  0.00    +0.000 C 
ENDROOT
BRANCH   1   5
ATOM      4  C   UNL     1      -3.246   4.289  -4.820  0.00  0.00    +0.000 C 
ATOM      5  C   UNL     1      -3.366   5.455  -4.163  0.00  0.00    +0.000 C 
BRANCH   4   9
ATOM      6  C   UNL     1      -4.988   3.211  -6.321  0.00  0.00    +0.000 C 
ATOM      7  C   UNL     1      -5.915   1.968  -6.416  0.00  0.00    +0.000 C 
ATOM      8  C   UNL     1      -6.789   1.807  -5.185  0.00  0.00    +0.000 C 
ATOM      9  C   UNL     1      -4.326   3.322  -4.927  0.00  0.00    +0.000 C 
ATOM     10  C   UNL     1      -5.921   1.635  -3.947  0.00  0.00    +0.000 C 
ATOM     11  C   UNL     1      -4.741   2.583  -3.868  0.00  0.00    +0.000 C 
ATOM     12  C   UNL     1      -5.823   4.483  -6.598  0.00  0.00    +0.000 C 
ATOM     13  C   UNL     1      -3.943   3.051  -7.452  0.00  0.00    +0.000 C 
ATOM     14  C   UNL     1      -4.120   2.589  -2.489  0.00  0.00    +0.000 C 
ENDBRANCH   4   9
ENDBRANCH   1   5
BRANCH   3  15
ATOM     15  C   UNL     1      -1.589   5.849  -1.681  0.00  0.00    +0.000 C 
ATOM     16  C   UNL     1      -2.179   4.643  -1.600  0.00  0.00    +0.000 C 
BRANCH  16  17
ATOM     17  C   UNL     1      -2.267   3.784  -0.413  0.00  0.00    +0.000 C 
ATOM     18  C   UNL     1      -3.594   3.724   0.298  0.00  0.00    +0.000 C 
ATOM     19  C   UNL     1      -1.154   3.128  -0.026  0.00  0.00    +0.000 C 
BRANCH  19  21
ATOM     20  O   UNL     1      -1.812   2.132   2.077  0.00  0.00    +0.000 OA
ATOM     21  C   UNL     1      -1.043   2.222   1.138  0.00  0.00    +0.000 C 
BRANCH  21  22
ATOM     22  O   UNL     1       0.069   1.463   0.982  0.00  0.00    +0.000 OA
ATOM     23  H   UNL     1       0.174   0.811   1.708  0.00  0.00    +0.000 HD
ENDBRANCH  21  22
ENDBRANCH  19  21
ENDBRANCH  16  17
ENDBRANCH   3  15
TORSDOF 6
ENDMDL
