MODEL 1
REMARK VINA RESULT:    14.870      0.000      0.000
REMARK INTER + INTRA:          12.141
REMARK INTER:                  13.080
REMARK INTRA:                  -0.939
REMARK CONF_INDEPENDENT:        1.790
REMARK UNBOUND:                 0.939
REMARK  Name = 444795
REMARK  11 active torsions:
REMARK  status: ('A' for Active; 'I' for Inactive)
REMARK    1  A    between atoms: O_1  and  C_22
REMARK    2  A    between atoms: C_3  and  C_9
REMARK    3  A    between atoms: C_3  and  C_10
REMARK    4  A    between atoms: C_6  and  C_11
REMARK    5  A    between atoms: C_8  and  C_12
REMARK    6  A    between atoms: C_13  and  C_14
REMARK    7  A    between atoms: C_14  and  C_15
REMARK    8  A    between atoms: C_16  and  C_17
REMARK    9  A    between atoms: C_18  and  C_19
REMARK   10  A    between atoms: C_19  and  C_20
REMARK   11  A    between atoms: C_21  and  C_22
REMARK                            x       y       z     vdW  Elec       q    Type
REMARK                         _______ _______ _______ _____ _____    ______ ____
ROOT
ATOM      1  C   UNL     1      -3.111   3.187  -0.846  0.00  0.00    +0.000 C 
ATOM      2  C   UNL     1      -3.952   3.413   0.390  0.00  0.00    +0.000 C 
ATOM      3  C   UNL     1      -1.833   2.778  -0.689  0.00  0.00    +0.000 C 
ENDROOT
BRANCH   1   5
ATOM      4  C   UNL     1      -4.047   2.501  -3.064  0.00  0.00    +0.000 C 
ATOM      5  C   UNL     1      -3.742   3.430  -2.143  0.00  0.00    +0.000 C 
BRANCH   4   9
ATOM      6  C   UNL     1      -5.960   2.021  -4.665  0.00  0.00    +0.000 C 
ATOM      7  C   UNL     1      -6.386   2.209  -6.146  0.00  0.00    +0.000 C 
ATOM      8  C   UNL     1      -6.304   3.660  -6.587  0.00  0.00    +0.000 C 
ATOM      9  C   UNL     1      -4.675   2.819  -4.336  0.00  0.00    +0.000 C 
ATOM     10  C   UNL     1      -4.874   4.165  -6.456  0.00  0.00    +0.000 C 
ATOM     11  C   UNL     1      -4.180   3.768  -5.169  0.00  0.00    +0.000 C 
ATOM     12  C   UNL     1      -5.765   0.498  -4.468  0.00  0.00    +0.000 C 
ATOM     13  C   UNL     1      -7.111   2.492  -3.747  0.00  0.00    +0.000 C 
ATOM     14  C   UNL     1      -2.908   4.555  -4.954  0.00  0.00    +0.000 C 
ENDBRANCH   4   9
ENDBRANCH   1   5
BRANCH   3  15
ATOM     15  C   UNL     1      -1.114   2.509   0.543  0.00  0.00    +0.000 C 
ATOM     16  C   UNL     1      -1.559   1.637   1.465  0.00  0.00    +0.000 C 
BRANCH  16  17
ATOM     17  C   UNL     1      -0.915   1.299   2.739  0.00  0.00    +0.000 C 
ATOM     18  C   UNL     1       0.305   0.416   2.683  0.00  0.00    +0.000 C 
ATOM     19  C   UNL     1      -1.467   1.779   3.872  0.00  0.00    +0.000 C 
BRANCH  19  21
ATOM     20  O   UNL     1      -0.424   0.546   5.672  0.00  0.00    +0.000 OA
ATOM     21  C   UNL     1      -0.968   1.549   5.245  0.00  0.00    +0.000 C 
BRANCH  21  22
ATOM     22  O   UNL     1      -1.192   2.669   5.974  0.00  0.00    +0.000 OA
ATOM     23  H   UNL     1      -1.211   3.474   5.415  0.00  0.00    +0.000 HD
ENDBRANCH  21  22
ENDBRANCH  19  21
ENDBRANCH  16  17
ENDBRANCH   3  15
TORSDOF 6
ENDMDL
