MODEL 1
REMARK VINA RESULT:    24.494      0.000      0.000
REMARK INTER + INTRA:          22.694
REMARK INTER:                  22.704
REMARK INTRA:                  -0.010
REMARK CONF_INDEPENDENT:        1.790
REMARK UNBOUND:                 0.010
REMARK  Name = 5282379
REMARK  11 active torsions:
REMARK  status: ('A' for Active; 'I' for Inactive)
REMARK    1  A    between atoms: O_1  and  C_22
REMARK    2  A    between atoms: C_3  and  C_9
REMARK    3  A    between atoms: C_3  and  C_10
REMARK    4  A    between atoms: C_6  and  C_11
REMARK    5  A    between atoms: C_8  and  C_12
REMARK    6  A    between atoms: C_13  and  C_14
REMARK    7  A    between atoms: C_14  and  C_15
REMARK    8  A    between atoms: C_16  and  C_17
REMARK    9  A    between atoms: C_18  and  C_19
REMARK   10  A    between atoms: C_19  and  C_20
REMARK   11  A    between atoms: C_21  and  C_22
REMARK                            x       y       z     vdW  Elec       q    Type
REMARK                         _______ _______ _______ _____ _____    ______ ____
ROOT
ATOM      1  C   UNL     1      -2.549   3.514  -0.923  0.00  0.00    +0.000 C 
ATOM      2  C   UNL     1      -1.656   4.728  -0.797  0.00  0.00    +0.000 C 
ATOM      3  C   UNL     1      -2.462   2.550   0.021  0.00  0.00    +0.000 C 
ENDROOT
BRANCH   1   5
ATOM      4  C   UNL     1      -4.061   2.365  -2.555  0.00  0.00    +0.000 C 
ATOM      5  C   UNL     1      -3.457   3.462  -2.069  0.00  0.00    +0.000 C 
BRANCH   4   9
ATOM      6  C   UNL     1      -6.207   1.491  -3.593  0.00  0.00    +0.000 C 
ATOM      7  C   UNL     1      -6.934   1.356  -4.960  0.00  0.00    +0.000 C 
ATOM      8  C   UNL     1      -7.060   2.689  -5.677  0.00  0.00    +0.000 C 
ATOM      9  C   UNL     1      -4.954   2.390  -3.702  0.00  0.00    +0.000 C 
ATOM     10  C   UNL     1      -5.679   3.266  -5.950  0.00  0.00    +0.000 C 
ATOM     11  C   UNL     1      -4.714   3.170  -4.787  0.00  0.00    +0.000 C 
ATOM     12  C   UNL     1      -5.853   0.049  -3.154  0.00  0.00    +0.000 C 
ATOM     13  C   UNL     1      -7.187   2.092  -2.560  0.00  0.00    +0.000 C 
ATOM     14  C   UNL     1      -3.492   4.035  -4.999  0.00  0.00    +0.000 C 
ENDBRANCH   4   9
ENDBRANCH   1   5
BRANCH   3  15
ATOM     15  C   UNL     1      -1.601   2.505   1.189  0.00  0.00    +0.000 C 
ATOM     16  C   UNL     1      -1.944   1.852   2.314  0.00  0.00    +0.000 C 
BRANCH  16  17
ATOM     17  C   UNL     1      -1.154   1.749   3.546  0.00  0.00    +0.000 C 
ATOM     18  C   UNL     1      -1.646   2.514   4.748  0.00  0.00    +0.000 C 
ATOM     19  C   UNL     1      -0.034   0.999   3.516  0.00  0.00    +0.000 C 
BRANCH  19  21
ATOM     20  O   UNL     1       0.993  -0.846   2.336  0.00  0.00    +0.000 OA
ATOM     21  C   UNL     1       0.485   0.260   2.343  0.00  0.00    +0.000 C 
BRANCH  21  22
ATOM     22  O   UNL     1       0.280   1.018   1.238  0.00  0.00    +0.000 OA
ATOM     23  H   UNL     1       1.019   0.938   0.597  0.00  0.00    +0.000 HD
ENDBRANCH  21  22
ENDBRANCH  19  21
ENDBRANCH  16  17
ENDBRANCH   3  15
TORSDOF 6
ENDMDL
