MODEL 1
REMARK VINA RESULT:    74.481      0.000      0.000
REMARK INTER + INTRA:          71.106
REMARK INTER:                  71.498
REMARK INTRA:                  -0.391
REMARK CONF_INDEPENDENT:        2.983
REMARK UNBOUND:                 0.391
REMARK  Name = 6437836
REMARK  15 active torsions:
REMARK  status: ('A' for Active; 'I' for Inactive)
REMARK    1  A    between atoms: O_1  and  C_22
REMARK    2  A    between atoms: C_3  and  C_4
REMARK    3  A    between atoms: C_3  and  C_7
REMARK    4  A    between atoms: C_4  and  C_10
REMARK    5  A    between atoms: C_5  and  C_6
REMARK    6  A    between atoms: C_5  and  C_8
REMARK    7  A    between atoms: C_6  and  C_9
REMARK    8  A    between atoms: C_7  and  C_11
REMARK    9  A    between atoms: C_9  and  C_13
REMARK   10  A    between atoms: C_12  and  C_15
REMARK   11  A    between atoms: C_12  and  C_16
REMARK   12  A    between atoms: C_14  and  C_17
REMARK   13  A    between atoms: C_18  and  C_19
REMARK   14  A    between atoms: C_19  and  C_20
REMARK   15  A    between atoms: C_21  and  C_22
REMARK                            x       y       z     vdW  Elec       q    Type
REMARK                         _______ _______ _______ _____ _____    ______ ____
ROOT
ATOM      1  C   UNL     1       1.549  -0.136   1.501  0.00  0.00    +0.000 C 
ATOM      2  C   UNL     1       2.622   0.172   2.516  0.00  0.00    +0.000 C 
ATOM      3  C   UNL     1       1.135   0.827   0.653  0.00  0.00    +0.000 C 
ENDROOT
BRANCH   3   4
ATOM      4  C   UNL     1       1.611   2.194   0.584  0.00  0.00    +0.000 C 
ATOM      5  C   UNL     1       2.877   2.537   0.876  0.00  0.00    +0.000 C 
BRANCH   5   6
ATOM      6  C   UNL     1       3.463   3.881   0.805  0.00  0.00    +0.000 C 
ATOM      7  C   UNL     1       4.967   3.977   0.809  0.00  0.00    +0.000 C 
ATOM      8  C   UNL     1       2.622   4.933   0.771  0.00  0.00    +0.000 C 
BRANCH   8  10
ATOM      9  O   UNL     1       2.895   7.107  -0.253  0.00  0.00    +0.000 OA
ATOM     10  C   UNL     1       3.017   6.358   0.699  0.00  0.00    +0.000 C 
BRANCH  10  11
ATOM     11  O   UNL     1       3.529   6.718   1.900  0.00  0.00    +0.000 OA
ATOM     12  H   UNL     1       3.017   7.445   2.315  0.00  0.00    +0.000 HD
ENDBRANCH  10  11
ENDBRANCH   8  10
ENDBRANCH   5   6
ENDBRANCH   3   4
BRANCH   1  13
ATOM     13  C   UNL     1       0.995  -1.546   1.564  0.00  0.00    +0.000 C 
BRANCH  13  14
ATOM     14  C   UNL     1      -0.533  -1.617   1.708  0.00  0.00    +0.000 C 
BRANCH  14  16
ATOM     15  C   UNL     1      -0.380  -4.163   1.472  0.00  0.00    +0.000 C 
ATOM     16  C   UNL     1      -1.049  -3.029   1.761  0.00  0.00    +0.000 C 
ATOM     17  C   UNL     1       1.058  -4.210   1.033  0.00  0.00    +0.000 C 
BRANCH  15  18
ATOM     18  C   UNL     1      -1.062  -5.510   1.638  0.00  0.00    +0.000 C 
BRANCH  18  19
ATOM     19  C   UNL     1      -1.791  -6.028   0.391  0.00  0.00    +0.000 C 
BRANCH  19  20
ATOM     20  C   UNL     1      -2.791  -5.056  -0.172  0.00  0.00    +0.000 C 
ATOM     21  C   UNL     1      -3.167  -4.920  -1.457  0.00  0.00    +0.000 C 
ATOM     22  C   UNL     1      -2.639  -5.735  -2.603  0.00  0.00    +0.000 C 
ATOM     23  C   UNL     1      -4.189  -3.887  -1.850  0.00  0.00    +0.000 C 
ENDBRANCH  19  20
ENDBRANCH  18  19
ENDBRANCH  15  18
ENDBRANCH  14  16
ENDBRANCH  13  14
ENDBRANCH   1  13
TORSDOF 10
ENDMDL
MODEL 2
REMARK VINA RESULT:    76.937      2.282      4.744
REMARK INTER + INTRA:          73.273
REMARK INTER:                  73.954
REMARK INTRA:                  -0.681
REMARK CONF_INDEPENDENT:        2.983
REMARK UNBOUND:                 0.681
REMARK  Name = 6437836
REMARK  15 active torsions:
REMARK  status: ('A' for Active; 'I' for Inactive)
REMARK    1  A    between atoms: O_1  and  C_22
REMARK    2  A    between atoms: C_3  and  C_4
REMARK    3  A    between atoms: C_3  and  C_7
REMARK    4  A    between atoms: C_4  and  C_10
REMARK    5  A    between atoms: C_5  and  C_6
REMARK    6  A    between atoms: C_5  and  C_8
REMARK    7  A    between atoms: C_6  and  C_9
REMARK    8  A    between atoms: C_7  and  C_11
REMARK    9  A    between atoms: C_9  and  C_13
REMARK   10  A    between atoms: C_12  and  C_15
REMARK   11  A    between atoms: C_12  and  C_16
REMARK   12  A    between atoms: C_14  and  C_17
REMARK   13  A    between atoms: C_18  and  C_19
REMARK   14  A    between atoms: C_19  and  C_20
REMARK   15  A    between atoms: C_21  and  C_22
REMARK                            x       y       z     vdW  Elec       q    Type
REMARK                         _______ _______ _______ _____ _____    ______ ____
ROOT
ATOM      1  C   UNL     1      -1.155  -4.333   1.557  0.00  0.00    +0.000 C 
ATOM      2  C   UNL     1      -2.196  -3.481   2.238  0.00  0.00    +0.000 C 
ATOM      3  C   UNL     1      -0.026  -3.762   1.090  0.00  0.00    +0.000 C 
ENDROOT
BRANCH   3   4
ATOM      4  C   UNL     1       0.339  -2.362   1.160  0.00  0.00    +0.000 C 
ATOM      5  C   UNL     1       1.376  -1.917   1.891  0.00  0.00    +0.000 C 
BRANCH   5   6
ATOM      6  C   UNL     1       1.845  -0.532   2.001  0.00  0.00    +0.000 C 
ATOM      7  C   UNL     1       2.296  -0.063   3.361  0.00  0.00    +0.000 C 
ATOM      8  C   UNL     1       1.812   0.234   0.892  0.00  0.00    +0.000 C 
BRANCH   8  10
ATOM      9  O   UNL     1       1.790   2.506   0.064  0.00  0.00    +0.000 OA
ATOM     10  C   UNL     1       2.240   1.648   0.801  0.00  0.00    +0.000 C 
BRANCH  10  11
ATOM     11  O   UNL     1       3.223   1.854   1.710  0.00  0.00    +0.000 OA
ATOM     12  H   UNL     1       3.684   2.708   1.564  0.00  0.00    +0.000 HD
ENDBRANCH  10  11
ENDBRANCH   8  10
ENDBRANCH   5   6
ENDBRANCH   3   4
BRANCH   1  13
ATOM     13  C   UNL     1      -1.513  -5.801   1.428  0.00  0.00    +0.000 C 
BRANCH  13  14
ATOM     14  C   UNL     1      -2.641  -6.088   0.425  0.00  0.00    +0.000 C 
BRANCH  14  16
ATOM     15  C   UNL     1      -3.425  -4.568  -1.481  0.00  0.00    +0.000 C 
ATOM     16  C   UNL     1      -2.493  -5.316  -0.857  0.00  0.00    +0.000 C 
ATOM     17  C   UNL     1      -4.828  -4.369  -0.977  0.00  0.00    +0.000 C 
BRANCH  15  18
ATOM     18  C   UNL     1      -3.068  -3.813  -2.749  0.00  0.00    +0.000 C 
BRANCH  18  19
ATOM     19  C   UNL     1      -1.578  -3.824  -3.115  0.00  0.00    +0.000 C 
BRANCH  19  20
ATOM     20  C   UNL     1      -1.077  -5.168  -3.569  0.00  0.00    +0.000 C 
ATOM     21  C   UNL     1      -1.811  -6.250  -3.890  0.00  0.00    +0.000 C 
ATOM     22  C   UNL     1      -3.311  -6.321  -3.848  0.00  0.00    +0.000 C 
ATOM     23  C   UNL     1      -1.142  -7.525  -4.328  0.00  0.00    +0.000 C 
ENDBRANCH  19  20
ENDBRANCH  18  19
ENDBRANCH  15  18
ENDBRANCH  14  16
ENDBRANCH  13  14
ENDBRANCH   1  13
TORSDOF 10
ENDMDL
