MODEL 1
REMARK VINA RESULT:    56.939      0.000      0.000
REMARK INTER + INTRA:          53.249
REMARK INTER:                  53.956
REMARK INTRA:                  -0.708
REMARK CONF_INDEPENDENT:        2.983
REMARK UNBOUND:                 0.708
REMARK  Name = 6437836
REMARK  15 active torsions:
REMARK  status: ('A' for Active; 'I' for Inactive)
REMARK    1  A    between atoms: O_1  and  C_22
REMARK    2  A    between atoms: C_3  and  C_4
REMARK    3  A    between atoms: C_3  and  C_7
REMARK    4  A    between atoms: C_4  and  C_10
REMARK    5  A    between atoms: C_5  and  C_6
REMARK    6  A    between atoms: C_5  and  C_8
REMARK    7  A    between atoms: C_6  and  C_9
REMARK    8  A    between atoms: C_7  and  C_11
REMARK    9  A    between atoms: C_9  and  C_13
REMARK   10  A    between atoms: C_12  and  C_15
REMARK   11  A    between atoms: C_12  and  C_16
REMARK   12  A    between atoms: C_14  and  C_17
REMARK   13  A    between atoms: C_18  and  C_19
REMARK   14  A    between atoms: C_19  and  C_20
REMARK   15  A    between atoms: C_21  and  C_22
REMARK                            x       y       z     vdW  Elec       q    Type
REMARK                         _______ _______ _______ _____ _____    ______ ____
ROOT
ATOM      1  C   UNL     1      -1.786  -0.138  -1.070  0.00  0.00    +0.000 C 
ATOM      2  C   UNL     1      -1.720  -0.662   0.343  0.00  0.00    +0.000 C 
ATOM      3  C   UNL     1      -1.084  -0.753  -2.044  0.00  0.00    +0.000 C 
ENDROOT
BRANCH   3   4
ATOM      4  C   UNL     1      -0.229  -1.915  -1.904  0.00  0.00    +0.000 C 
ATOM      5  C   UNL     1       1.113  -1.832  -1.904  0.00  0.00    +0.000 C 
BRANCH   5   6
ATOM      6  C   UNL     1       2.062  -2.939  -1.736  0.00  0.00    +0.000 C 
ATOM      7  C   UNL     1       1.569  -4.164  -1.010  0.00  0.00    +0.000 C 
ATOM      8  C   UNL     1       3.311  -2.774  -2.214  0.00  0.00    +0.000 C 
BRANCH   8  10
ATOM      9  O   UNL     1       4.456  -4.847  -2.703  0.00  0.00    +0.000 OA
ATOM     10  C   UNL     1       4.406  -3.768  -2.142  0.00  0.00    +0.000 C 
BRANCH  10  11
ATOM     11  O   UNL     1       5.384  -3.267  -1.351  0.00  0.00    +0.000 OA
ATOM     12  H   UNL     1       6.035  -3.954  -1.091  0.00  0.00    +0.000 HD
ENDBRANCH  10  11
ENDBRANCH   8  10
ENDBRANCH   5   6
ENDBRANCH   3   4
BRANCH   1  13
ATOM     13  C   UNL     1      -2.640   1.101  -1.254  0.00  0.00    +0.000 C 
BRANCH  13  14
ATOM     14  C   UNL     1      -2.946   1.855   0.048  0.00  0.00    +0.000 C 
BRANCH  14  16
ATOM     15  C   UNL     1      -1.502   3.017   1.816  0.00  0.00    +0.000 C 
ATOM     16  C   UNL     1      -1.731   2.041   0.915  0.00  0.00    +0.000 C 
ATOM     17  C   UNL     1      -2.465   4.131   2.122  0.00  0.00    +0.000 C 
BRANCH  15  18
ATOM     18  C   UNL     1      -0.227   3.005   2.641  0.00  0.00    +0.000 C 
BRANCH  18  19
ATOM     19  C   UNL     1       0.904   3.891   2.104  0.00  0.00    +0.000 C 
BRANCH  19  20
ATOM     20  C   UNL     1       2.012   4.124   3.093  0.00  0.00    +0.000 C 
ATOM     21  C   UNL     1       2.958   3.250   3.484  0.00  0.00    +0.000 C 
ATOM     22  C   UNL     1       3.084   1.835   2.993  0.00  0.00    +0.000 C 
ATOM     23  C   UNL     1       4.001   3.652   4.493  0.00  0.00    +0.000 C 
ENDBRANCH  19  20
ENDBRANCH  18  19
ENDBRANCH  15  18
ENDBRANCH  14  16
ENDBRANCH  13  14
ENDBRANCH   1  13
TORSDOF 10
ENDMDL
