MODEL 1
REMARK VINA RESULT:    74.328      0.000      0.000
REMARK INTER + INTRA:          71.518
REMARK INTER:                  72.538
REMARK INTRA:                  -1.020
REMARK CONF_INDEPENDENT:        1.790
REMARK UNBOUND:                 1.020
REMARK  Name = 449171
REMARK  11 active torsions:
REMARK  status: ('A' for Active; 'I' for Inactive)
REMARK    1  A    between atoms: O_1  and  C_22
REMARK    2  A    between atoms: C_3  and  C_9
REMARK    3  A    between atoms: C_3  and  C_10
REMARK    4  A    between atoms: C_6  and  C_11
REMARK    5  A    between atoms: C_8  and  C_12
REMARK    6  A    between atoms: C_13  and  C_14
REMARK    7  A    between atoms: C_14  and  C_15
REMARK    8  A    between atoms: C_16  and  C_17
REMARK    9  A    between atoms: C_18  and  C_19
REMARK   10  A    between atoms: C_19  and  C_20
REMARK   11  A    between atoms: C_21  and  C_22
REMARK                            x       y       z     vdW  Elec       q    Type
REMARK                         _______ _______ _______ _____ _____    ______ ____
ROOT
ATOM      1  C   UNL     1       5.040   0.675   1.271  0.00  0.00    +0.000 C 
ATOM      2  C   UNL     1       6.490   1.062   1.446  0.00  0.00    +0.000 C 
ATOM      3  C   UNL     1       4.730  -0.248   0.334  0.00  0.00    +0.000 C 
ENDROOT
BRANCH   1   5
ATOM      4  C   UNL     1       3.660   2.609   2.058  0.00  0.00    +0.000 C 
ATOM      5  C   UNL     1       4.058   1.330   2.136  0.00  0.00    +0.000 C 
BRANCH   4   9
ATOM      6  C   UNL     1       3.060   3.194   4.456  0.00  0.00    +0.000 C 
ATOM      7  C   UNL     1       2.098   4.085   5.290  0.00  0.00    +0.000 C 
ATOM      8  C   UNL     1       0.643   3.868   4.916  0.00  0.00    +0.000 C 
ATOM      9  C   UNL     1       2.677   3.192   2.957  0.00  0.00    +0.000 C 
ATOM     10  C   UNL     1       0.425   4.210   3.449  0.00  0.00    +0.000 C 
ATOM     11  C   UNL     1       1.491   3.680   2.512  0.00  0.00    +0.000 C 
ATOM     12  C   UNL     1       3.008   1.749   5.004  0.00  0.00    +0.000 C 
ATOM     13  C   UNL     1       4.481   3.761   4.694  0.00  0.00    +0.000 C 
ATOM     14  C   UNL     1       1.059   3.766   1.066  0.00  0.00    +0.000 C 
ENDBRANCH   4   9
ENDBRANCH   1   5
BRANCH   3  15
ATOM     15  C   UNL     1       3.423  -0.775  -0.018  0.00  0.00    +0.000 C 
ATOM     16  C   UNL     1       3.202  -1.462  -1.153  0.00  0.00    +0.000 C 
BRANCH  16  17
ATOM     17  C   UNL     1       1.926  -2.030  -1.605  0.00  0.00    +0.000 C 
ATOM     18  C   UNL     1       1.873  -3.520  -1.821  0.00  0.00    +0.000 C 
ATOM     19  C   UNL     1       0.899  -1.182  -1.817  0.00  0.00    +0.000 C 
BRANCH  19  21
ATOM     20  O   UNL     1      -1.519  -1.161  -1.830  0.00  0.00    +0.000 OA
ATOM     21  C   UNL     1      -0.457  -1.561  -2.271  0.00  0.00    +0.000 C 
BRANCH  21  22
ATOM     22  O   UNL     1      -0.333  -2.431  -3.302  0.00  0.00    +0.000 OA
ATOM     23  H   UNL     1       0.024  -3.297  -3.012  0.00  0.00    +0.000 HD
ENDBRANCH  21  22
ENDBRANCH  19  21
ENDBRANCH  16  17
ENDBRANCH   3  15
TORSDOF 6
ENDMDL
MODEL 2
REMARK VINA RESULT:    76.592      3.106      5.167
REMARK INTER + INTRA:          74.045
REMARK INTER:                  74.802
REMARK INTRA:                  -0.757
REMARK CONF_INDEPENDENT:        1.790
REMARK UNBOUND:                 0.757
REMARK  Name = 449171
REMARK  11 active torsions:
REMARK  status: ('A' for Active; 'I' for Inactive)
REMARK    1  A    between atoms: O_1  and  C_22
REMARK    2  A    between atoms: C_3  and  C_9
REMARK    3  A    between atoms: C_3  and  C_10
REMARK    4  A    between atoms: C_6  and  C_11
REMARK    5  A    between atoms: C_8  and  C_12
REMARK    6  A    between atoms: C_13  and  C_14
REMARK    7  A    between atoms: C_14  and  C_15
REMARK    8  A    between atoms: C_16  and  C_17
REMARK    9  A    between atoms: C_18  and  C_19
REMARK   10  A    between atoms: C_19  and  C_20
REMARK   11  A    between atoms: C_21  and  C_22
REMARK                            x       y       z     vdW  Elec       q    Type
REMARK                         _______ _______ _______ _____ _____    ______ ____
ROOT
ATOM      1  C   UNL     1      -2.964   0.450  -0.956  0.00  0.00    +0.000 C 
ATOM      2  C   UNL     1      -4.325   0.983  -1.342  0.00  0.00    +0.000 C 
ATOM      3  C   UNL     1      -2.538  -0.698  -1.526  0.00  0.00    +0.000 C 
ENDROOT
BRANCH   1   5
ATOM      4  C   UNL     1      -1.107   1.970  -0.243  0.00  0.00    +0.000 C 
ATOM      5  C   UNL     1      -2.191   1.222   0.018  0.00  0.00    +0.000 C 
BRANCH   4   9
ATOM      6  C   UNL     1      -1.053   2.740   2.177  0.00  0.00    +0.000 C 
ATOM      7  C   UNL     1      -0.087   3.294   3.260  0.00  0.00    +0.000 C 
ATOM      8  C   UNL     1       0.657   4.531   2.787  0.00  0.00    +0.000 C 
ATOM      9  C   UNL     1      -0.388   2.711   0.781  0.00  0.00    +0.000 C 
ATOM     10  C   UNL     1       1.489   4.201   1.558  0.00  0.00    +0.000 C 
ATOM     11  C   UNL     1       0.777   3.356   0.521  0.00  0.00    +0.000 C 
ATOM     12  C   UNL     1      -2.317   3.630   2.129  0.00  0.00    +0.000 C 
ATOM     13  C   UNL     1      -1.464   1.326   2.657  0.00  0.00    +0.000 C 
ATOM     14  C   UNL     1       1.522   3.337  -0.794  0.00  0.00    +0.000 C 
ENDBRANCH   4   9
ENDBRANCH   1   5
BRANCH   3  15
ATOM     15  C   UNL     1      -1.284  -1.400  -1.316  0.00  0.00    +0.000 C 
ATOM     16  C   UNL     1      -0.472  -1.747  -2.331  0.00  0.00    +0.000 C 
BRANCH  16  17
ATOM     17  C   UNL     1       0.807  -2.459  -2.230  0.00  0.00    +0.000 C 
ATOM     18  C   UNL     1       0.765  -3.965  -2.294  0.00  0.00    +0.000 C 
ATOM     19  C   UNL     1       1.926  -1.726  -2.065  0.00  0.00    +0.000 C 
BRANCH  19  21
ATOM     20  O   UNL     1       3.675  -3.392  -2.178  0.00  0.00    +0.000 OA
ATOM     21  C   UNL     1       3.302  -2.258  -1.943  0.00  0.00    +0.000 C 
BRANCH  21  22
ATOM     22  O   UNL     1       4.113  -1.251  -1.539  0.00  0.00    +0.000 OA
ATOM     23  H   UNL     1       4.229  -0.569  -2.236  0.00  0.00    +0.000 HD
ENDBRANCH  21  22
ENDBRANCH  19  21
ENDBRANCH  16  17
ENDBRANCH   3  15
TORSDOF 6
ENDMDL
