MODEL 1
REMARK VINA RESULT:   116.383      0.000      0.000
REMARK INTER + INTRA:         113.821
REMARK INTER:                 114.593
REMARK INTRA:                  -0.771
REMARK CONF_INDEPENDENT:        1.790
REMARK UNBOUND:                 0.771
REMARK  Name = 444795
REMARK  11 active torsions:
REMARK  status: ('A' for Active; 'I' for Inactive)
REMARK    1  A    between atoms: O_1  and  C_22
REMARK    2  A    between atoms: C_3  and  C_9
REMARK    3  A    between atoms: C_3  and  C_10
REMARK    4  A    between atoms: C_6  and  C_11
REMARK    5  A    between atoms: C_8  and  C_12
REMARK    6  A    between atoms: C_13  and  C_14
REMARK    7  A    between atoms: C_14  and  C_15
REMARK    8  A    between atoms: C_16  and  C_17
REMARK    9  A    between atoms: C_18  and  C_19
REMARK   10  A    between atoms: C_19  and  C_20
REMARK   11  A    between atoms: C_21  and  C_22
REMARK                            x       y       z     vdW  Elec       q    Type
REMARK                         _______ _______ _______ _____ _____    ______ ____
ROOT
ATOM      1  C   UNL     1       0.524   3.046   1.975  0.00  0.00    +0.000 C 
ATOM      2  C   UNL     1      -0.442   3.707   2.933  0.00  0.00    +0.000 C 
ATOM      3  C   UNL     1       0.022   2.313   0.958  0.00  0.00    +0.000 C 
ENDROOT
BRANCH   1   5
ATOM      4  C   UNL     1       2.777   2.398   2.853  0.00  0.00    +0.000 C 
ATOM      5  C   UNL     1       1.953   3.246   2.217  0.00  0.00    +0.000 C 
BRANCH   4   9
ATOM      6  C   UNL     1       4.528   3.627   4.223  0.00  0.00    +0.000 C 
ATOM      7  C   UNL     1       6.013   4.080   4.178  0.00  0.00    +0.000 C 
ATOM      8  C   UNL     1       6.958   2.925   3.897  0.00  0.00    +0.000 C 
ATOM      9  C   UNL     1       4.191   2.666   3.057  0.00  0.00    +0.000 C 
ATOM     10  C   UNL     1       6.631   2.299   2.549  0.00  0.00    +0.000 C 
ATOM     11  C   UNL     1       5.153   2.093   2.291  0.00  0.00    +0.000 C 
ATOM     12  C   UNL     1       3.685   4.924   4.170  0.00  0.00    +0.000 C 
ATOM     13  C   UNL     1       4.259   2.920   5.571  0.00  0.00    +0.000 C 
ATOM     14  C   UNL     1       4.914   1.188   1.104  0.00  0.00    +0.000 C 
ENDBRANCH   4   9
ENDBRANCH   1   5
BRANCH   3  15
ATOM     15  C   UNL     1      -1.369   2.053   0.631  0.00  0.00    +0.000 C 
ATOM     16  C   UNL     1      -1.747   1.035  -0.163  0.00  0.00    +0.000 C 
BRANCH  16  17
ATOM     17  C   UNL     1      -3.117   0.690  -0.558  0.00  0.00    +0.000 C 
ATOM     18  C   UNL     1      -3.418  -0.766  -0.808  0.00  0.00    +0.000 C 
ATOM     19  C   UNL     1      -4.007   1.694  -0.692  0.00  0.00    +0.000 C 
BRANCH  19  21
ATOM     20  O   UNL     1      -6.352   2.280  -0.777  0.00  0.00    +0.000 OA
ATOM     21  C   UNL     1      -5.427   1.549  -1.081  0.00  0.00    +0.000 C 
BRANCH  21  22
ATOM     22  O   UNL     1      -5.542   0.456  -1.874  0.00  0.00    +0.000 OA
ATOM     23  H   UNL     1      -6.468   0.304  -2.159  0.00  0.00    +0.000 HD
ENDBRANCH  21  22
ENDBRANCH  19  21
ENDBRANCH  16  17
ENDBRANCH   3  15
TORSDOF 6
ENDMDL
