MODEL 1
REMARK VINA RESULT:    -8.081      0.000      0.000
REMARK INTER + INTRA:         -11.668
REMARK INTER:                  -9.871
REMARK INTRA:                  -1.797
REMARK CONF_INDEPENDENT:        1.790
REMARK UNBOUND:                 1.797
REMARK  Name = 449171
REMARK  11 active torsions:
REMARK  status: ('A' for Active; 'I' for Inactive)
REMARK    1  A    between atoms: O_1  and  C_22
REMARK    2  A    between atoms: C_3  and  C_9
REMARK    3  A    between atoms: C_3  and  C_10
REMARK    4  A    between atoms: C_6  and  C_11
REMARK    5  A    between atoms: C_8  and  C_12
REMARK    6  A    between atoms: C_13  and  C_14
REMARK    7  A    between atoms: C_14  and  C_15
REMARK    8  A    between atoms: C_16  and  C_17
REMARK    9  A    between atoms: C_18  and  C_19
REMARK   10  A    between atoms: C_19  and  C_20
REMARK   11  A    between atoms: C_21  and  C_22
REMARK                            x       y       z     vdW  Elec       q    Type
REMARK                         _______ _______ _______ _____ _____    ______ ____
ROOT
ATOM      1  C   UNL     1      -1.019  -4.296  -1.606  0.00  0.00    +0.000 C 
ATOM      2  C   UNL     1      -1.424  -4.473  -3.052  0.00  0.00    +0.000 C 
ATOM      3  C   UNL     1      -0.346  -5.297  -1.000  0.00  0.00    +0.000 C 
ENDROOT
BRANCH   1   5
ATOM      4  C   UNL     1      -1.912  -2.905   0.275  0.00  0.00    +0.000 C 
ATOM      5  C   UNL     1      -1.387  -3.039  -0.954  0.00  0.00    +0.000 C 
BRANCH   4   9
ATOM      6  C   UNL     1      -1.174  -0.991   1.773  0.00  0.00    +0.000 C 
ATOM      7  C   UNL     1      -1.499   0.490   2.109  0.00  0.00    +0.000 C 
ATOM      8  C   UNL     1      -2.960   0.690   2.472  0.00  0.00    +0.000 C 
ATOM      9  C   UNL     1      -2.253  -1.618   0.858  0.00  0.00    +0.000 C 
ATOM     10  C   UNL     1      -3.848   0.280   1.307  0.00  0.00    +0.000 C 
ATOM     11  C   UNL     1      -3.449  -1.018   0.635  0.00  0.00    +0.000 C 
ATOM     12  C   UNL     1      -1.082  -1.797   3.090  0.00  0.00    +0.000 C 
ATOM     13  C   UNL     1       0.223  -0.980   1.104  0.00  0.00    +0.000 C 
ATOM     14  C   UNL     1      -4.536  -1.531  -0.282  0.00  0.00    +0.000 C 
ENDBRANCH   4   9
ENDBRANCH   1   5
BRANCH   3  15
ATOM     15  C   UNL     1       0.143  -5.360   0.367  0.00  0.00    +0.000 C 
ATOM     16  C   UNL     1      -0.636  -5.738   1.396  0.00  0.00    +0.000 C 
BRANCH  16  17
ATOM     17  C   UNL     1      -0.246  -5.830   2.808  0.00  0.00    +0.000 C 
ATOM     18  C   UNL     1      -0.301  -7.191   3.451  0.00  0.00    +0.000 C 
ATOM     19  C   UNL     1       0.110  -4.692   3.438  0.00  0.00    +0.000 C 
BRANCH  19  21
ATOM     20  O   UNL     1       1.602  -4.913   5.330  0.00  0.00    +0.000 OA
ATOM     21  C   UNL     1       0.532  -4.581   4.852  0.00  0.00    +0.000 C 
BRANCH  21  22
ATOM     22  O   UNL     1      -0.478  -4.012   5.554  0.00  0.00    +0.000 OA
ATOM     23  H   UNL     1      -0.367  -3.041   5.636  0.00  0.00    +0.000 HD
ENDBRANCH  21  22
ENDBRANCH  19  21
ENDBRANCH  16  17
ENDBRANCH   3  15
TORSDOF 6
ENDMDL
MODEL 2
REMARK VINA RESULT:    -7.965      1.160      2.562
REMARK INTER + INTRA:         -11.380
REMARK INTER:                  -9.755
REMARK INTRA:                  -1.625
REMARK CONF_INDEPENDENT:        1.790
REMARK UNBOUND:                 1.625
REMARK  Name = 449171
REMARK  11 active torsions:
REMARK  status: ('A' for Active; 'I' for Inactive)
REMARK    1  A    between atoms: O_1  and  C_22
REMARK    2  A    between atoms: C_3  and  C_9
REMARK    3  A    between atoms: C_3  and  C_10
REMARK    4  A    between atoms: C_6  and  C_11
REMARK    5  A    between atoms: C_8  and  C_12
REMARK    6  A    between atoms: C_13  and  C_14
REMARK    7  A    between atoms: C_14  and  C_15
REMARK    8  A    between atoms: C_16  and  C_17
REMARK    9  A    between atoms: C_18  and  C_19
REMARK   10  A    between atoms: C_19  and  C_20
REMARK   11  A    between atoms: C_21  and  C_22
REMARK                            x       y       z     vdW  Elec       q    Type
REMARK                         _______ _______ _______ _____ _____    ______ ____
ROOT
ATOM      1  C   UNL     1      -0.733  -4.462  -1.618  0.00  0.00    +0.000 C 
ATOM      2  C   UNL     1      -1.324  -4.537  -3.007  0.00  0.00    +0.000 C 
ATOM      3  C   UNL     1      -0.544  -5.614  -0.938  0.00  0.00    +0.000 C 
ENDROOT
BRANCH   1   5
ATOM      4  C   UNL     1      -0.043  -2.843   0.162  0.00  0.00    +0.000 C 
ATOM      5  C   UNL     1      -0.401  -3.135  -1.098  0.00  0.00    +0.000 C 
BRANCH   4   9
ATOM      6  C   UNL     1      -0.752  -0.852   1.571  0.00  0.00    +0.000 C 
ATOM      7  C   UNL     1      -0.195   0.448   2.213  0.00  0.00    +0.000 C 
ATOM      8  C   UNL     1       0.502   1.338   1.199  0.00  0.00    +0.000 C 
ATOM      9  C   UNL     1       0.273  -1.496   0.607  0.00  0.00    +0.000 C 
ATOM     10  C   UNL     1       1.675   0.598   0.576  0.00  0.00    +0.000 C 
ATOM     11  C   UNL     1       1.382  -0.837   0.186  0.00  0.00    +0.000 C 
ATOM     12  C   UNL     1      -2.047  -0.515   0.796  0.00  0.00    +0.000 C 
ATOM     13  C   UNL     1      -1.114  -1.790   2.749  0.00  0.00    +0.000 C 
ATOM     14  C   UNL     1       2.460  -1.406  -0.709  0.00  0.00    +0.000 C 
ENDBRANCH   4   9
ENDBRANCH   1   5
BRANCH   3  15
ATOM     15  C   UNL     1       0.001  -5.796   0.397  0.00  0.00    +0.000 C 
ATOM     16  C   UNL     1      -0.741  -5.636   1.508  0.00  0.00    +0.000 C 
BRANCH  16  17
ATOM     17  C   UNL     1      -0.290  -5.789   2.896  0.00  0.00    +0.000 C 
ATOM     18  C   UNL     1      -0.372  -7.168   3.499  0.00  0.00    +0.000 C 
ATOM     19  C   UNL     1       0.142  -4.688   3.543  0.00  0.00    +0.000 C 
BRANCH  19  21
ATOM     20  O   UNL     1       1.741  -4.945   5.340  0.00  0.00    +0.000 OA
ATOM     21  C   UNL     1       0.633  -4.640   4.938  0.00  0.00    +0.000 C 
BRANCH  21  22
ATOM     22  O   UNL     1      -0.364  -4.165   5.724  0.00  0.00    +0.000 OA
ATOM     23  H   UNL     1      -0.129  -3.309   6.140  0.00  0.00    +0.000 HD
ENDBRANCH  21  22
ENDBRANCH  19  21
ENDBRANCH  16  17
ENDBRANCH   3  15
TORSDOF 6
ENDMDL
MODEL 3
REMARK VINA RESULT:    -7.794      1.528      2.367
REMARK INTER + INTRA:         -11.247
REMARK INTER:                  -9.583
REMARK INTRA:                  -1.663
REMARK CONF_INDEPENDENT:        1.790
REMARK UNBOUND:                 1.663
REMARK  Name = 449171
REMARK  11 active torsions:
REMARK  status: ('A' for Active; 'I' for Inactive)
REMARK    1  A    between atoms: O_1  and  C_22
REMARK    2  A    between atoms: C_3  and  C_9
REMARK    3  A    between atoms: C_3  and  C_10
REMARK    4  A    between atoms: C_6  and  C_11
REMARK    5  A    between atoms: C_8  and  C_12
REMARK    6  A    between atoms: C_13  and  C_14
REMARK    7  A    between atoms: C_14  and  C_15
REMARK    8  A    between atoms: C_16  and  C_17
REMARK    9  A    between atoms: C_18  and  C_19
REMARK   10  A    between atoms: C_19  and  C_20
REMARK   11  A    between atoms: C_21  and  C_22
REMARK                            x       y       z     vdW  Elec       q    Type
REMARK                         _______ _______ _______ _____ _____    ______ ____
ROOT
ATOM      1  C   UNL     1      -0.902  -4.150  -1.748  0.00  0.00    +0.000 C 
ATOM      2  C   UNL     1      -1.492  -4.164  -3.139  0.00  0.00    +0.000 C 
ATOM      3  C   UNL     1      -0.577  -5.330  -1.176  0.00  0.00    +0.000 C 
ENDROOT
BRANCH   1   5
ATOM      4  C   UNL     1       0.136  -2.565  -0.111  0.00  0.00    +0.000 C 
ATOM      5  C   UNL     1      -0.719  -2.847  -1.107  0.00  0.00    +0.000 C 
BRANCH   4   9
ATOM      6  C   UNL     1       1.277  -0.298  -0.211  0.00  0.00    +0.000 C 
ATOM      7  C   UNL     1       1.132   1.164   0.295  0.00  0.00    +0.000 C 
ATOM      8  C   UNL     1       0.984   1.238   1.804  0.00  0.00    +0.000 C 
ATOM      9  C   UNL     1       0.262  -1.242   0.477  0.00  0.00    +0.000 C 
ATOM     10  C   UNL     1      -0.258   0.477   2.245  0.00  0.00    +0.000 C 
ATOM     11  C   UNL     1      -0.445  -0.868   1.573  0.00  0.00    +0.000 C 
ATOM     12  C   UNL     1       2.715  -0.789   0.075  0.00  0.00    +0.000 C 
ATOM     13  C   UNL     1       1.072  -0.240  -1.745  0.00  0.00    +0.000 C 
ATOM     14  C   UNL     1      -1.492  -1.703   2.275  0.00  0.00    +0.000 C 
ENDBRANCH   4   9
ENDBRANCH   1   5
BRANCH   3  15
ATOM     15  C   UNL     1      -0.005  -5.570   0.137  0.00  0.00    +0.000 C 
ATOM     16  C   UNL     1      -0.709  -5.413   1.272  0.00  0.00    +0.000 C 
BRANCH  16  17
ATOM     17  C   UNL     1      -0.227  -5.622   2.643  0.00  0.00    +0.000 C 
ATOM     18  C   UNL     1      -0.054  -7.047   3.103  0.00  0.00    +0.000 C 
ATOM     19  C   UNL     1       0.005  -4.533   3.403  0.00  0.00    +0.000 C 
BRANCH  19  21
ATOM     20  O   UNL     1       1.562  -4.947   5.206  0.00  0.00    +0.000 OA
ATOM     21  C   UNL     1       0.489  -4.538   4.800  0.00  0.00    +0.000 C 
BRANCH  21  22
ATOM     22  O   UNL     1      -0.464  -3.978   5.584  0.00  0.00    +0.000 OA
ATOM     23  H   UNL     1      -0.367  -3.004   5.642  0.00  0.00    +0.000 HD
ENDBRANCH  21  22
ENDBRANCH  19  21
ENDBRANCH  16  17
ENDBRANCH   3  15
TORSDOF 6
ENDMDL
MODEL 4
REMARK VINA RESULT:    -7.592      3.372      6.568
REMARK INTER + INTRA:         -11.001
REMARK INTER:                  -9.382
REMARK INTRA:                  -1.619
REMARK CONF_INDEPENDENT:        1.790
REMARK UNBOUND:                 1.619
REMARK  Name = 449171
REMARK  11 active torsions:
REMARK  status: ('A' for Active; 'I' for Inactive)
REMARK    1  A    between atoms: O_1  and  C_22
REMARK    2  A    between atoms: C_3  and  C_9
REMARK    3  A    between atoms: C_3  and  C_10
REMARK    4  A    between atoms: C_6  and  C_11
REMARK    5  A    between atoms: C_8  and  C_12
REMARK    6  A    between atoms: C_13  and  C_14
REMARK    7  A    between atoms: C_14  and  C_15
REMARK    8  A    between atoms: C_16  and  C_17
REMARK    9  A    between atoms: C_18  and  C_19
REMARK   10  A    between atoms: C_19  and  C_20
REMARK   11  A    between atoms: C_21  and  C_22
REMARK                            x       y       z     vdW  Elec       q    Type
REMARK                         _______ _______ _______ _____ _____    ______ ____
ROOT
ATOM      1  C   UNL     1      -1.421  -0.292   2.708  0.00  0.00    +0.000 C 
ATOM      2  C   UNL     1      -2.671   0.166   3.424  0.00  0.00    +0.000 C 
ATOM      3  C   UNL     1      -0.498   0.635   2.368  0.00  0.00    +0.000 C 
ENDROOT
BRANCH   1   5
ATOM      4  C   UNL     1      -0.178  -2.460   2.564  0.00  0.00    +0.000 C 
ATOM      5  C   UNL     1      -1.291  -1.722   2.429  0.00  0.00    +0.000 C 
BRANCH   4   9
ATOM      6  C   UNL     1       0.010  -4.247   0.768  0.00  0.00    +0.000 C 
ATOM      7  C   UNL     1       0.350  -5.750   0.574  0.00  0.00    +0.000 C 
ATOM      8  C   UNL     1      -0.490  -6.649   1.464  0.00  0.00    +0.000 C 
ATOM      9  C   UNL     1      -0.125  -3.882   2.266  0.00  0.00    +0.000 C 
ATOM     10  C   UNL     1      -0.245  -6.311   2.927  0.00  0.00    +0.000 C 
ATOM     11  C   UNL     1      -0.212  -4.827   3.235  0.00  0.00    +0.000 C 
ATOM     12  C   UNL     1      -1.317  -3.933   0.039  0.00  0.00    +0.000 C 
ATOM     13  C   UNL     1       1.150  -3.459   0.076  0.00  0.00    +0.000 C 
ATOM     14  C   UNL     1      -0.292  -4.562   4.721  0.00  0.00    +0.000 C 
ENDBRANCH   4   9
ENDBRANCH   1   5
BRANCH   3  15
ATOM     15  C   UNL     1       0.767   0.441   1.682  0.00  0.00    +0.000 C 
ATOM     16  C   UNL     1       0.863  -0.224   0.517  0.00  0.00    +0.000 C 
BRANCH  16  17
ATOM     17  C   UNL     1       2.086  -0.481  -0.252  0.00  0.00    +0.000 C 
ATOM     18  C   UNL     1       3.381  -0.555   0.516  0.00  0.00    +0.000 C 
ATOM     19  C   UNL     1       1.974  -0.610  -1.590  0.00  0.00    +0.000 C 
BRANCH  19  21
ATOM     20  O   UNL     1       4.082  -1.538  -2.327  0.00  0.00    +0.000 OA
ATOM     21  C   UNL     1       3.086  -0.869  -2.531  0.00  0.00    +0.000 C 
BRANCH  21  22
ATOM     22  O   UNL     1       2.806  -0.247  -3.702  0.00  0.00    +0.000 OA
ATOM     23  H   UNL     1       1.884  -0.414  -3.995  0.00  0.00    +0.000 HD
ENDBRANCH  21  22
ENDBRANCH  19  21
ENDBRANCH  16  17
ENDBRANCH   3  15
TORSDOF 6
ENDMDL
MODEL 5
REMARK VINA RESULT:    -7.588      2.513      5.881
REMARK INTER + INTRA:         -10.746
REMARK INTER:                  -9.378
REMARK INTRA:                  -1.369
REMARK CONF_INDEPENDENT:        1.790
REMARK UNBOUND:                 1.369
REMARK  Name = 449171
REMARK  11 active torsions:
REMARK  status: ('A' for Active; 'I' for Inactive)
REMARK    1  A    between atoms: O_1  and  C_22
REMARK    2  A    between atoms: C_3  and  C_9
REMARK    3  A    between atoms: C_3  and  C_10
REMARK    4  A    between atoms: C_6  and  C_11
REMARK    5  A    between atoms: C_8  and  C_12
REMARK    6  A    between atoms: C_13  and  C_14
REMARK    7  A    between atoms: C_14  and  C_15
REMARK    8  A    between atoms: C_16  and  C_17
REMARK    9  A    between atoms: C_18  and  C_19
REMARK   10  A    between atoms: C_19  and  C_20
REMARK   11  A    between atoms: C_21  and  C_22
REMARK                            x       y       z     vdW  Elec       q    Type
REMARK                         _______ _______ _______ _____ _____    ______ ____
ROOT
ATOM      1  C   UNL     1       0.911  -0.980   1.078  0.00  0.00    +0.000 C 
ATOM      2  C   UNL     1       1.907  -0.514   0.042  0.00  0.00    +0.000 C 
ATOM      3  C   UNL     1       0.217  -0.048   1.768  0.00  0.00    +0.000 C 
ENDROOT
BRANCH   1   5
ATOM      4  C   UNL     1       0.062  -3.029   2.240  0.00  0.00    +0.000 C 
ATOM      5  C   UNL     1       0.760  -2.423   1.266  0.00  0.00    +0.000 C 
BRANCH   4   9
ATOM      6  C   UNL     1       0.341  -5.056   3.744  0.00  0.00    +0.000 C 
ATOM      7  C   UNL     1      -0.075  -6.547   3.871  0.00  0.00    +0.000 C 
ATOM      8  C   UNL     1       0.270  -7.348   2.628  0.00  0.00    +0.000 C 
ATOM      9  C   UNL     1      -0.042  -4.474   2.363  0.00  0.00    +0.000 C 
ATOM     10  C   UNL     1      -0.454  -6.774   1.420  0.00  0.00    +0.000 C 
ATOM     11  C   UNL     1      -0.426  -5.261   1.327  0.00  0.00    +0.000 C 
ATOM     12  C   UNL     1       1.869  -4.942   3.947  0.00  0.00    +0.000 C 
ATOM     13  C   UNL     1      -0.367  -4.316   4.906  0.00  0.00    +0.000 C 
ATOM     14  C   UNL     1      -0.867  -4.775  -0.035  0.00  0.00    +0.000 C 
ENDBRANCH   4   9
ENDBRANCH   1   5
BRANCH   3  15
ATOM     15  C   UNL     1      -0.782  -0.248   2.803  0.00  0.00    +0.000 C 
ATOM     16  C   UNL     1      -2.076   0.075   2.631  0.00  0.00    +0.000 C 
BRANCH  16  17
ATOM     17  C   UNL     1      -3.160  -0.079   3.608  0.00  0.00    +0.000 C 
ATOM     18  C   UNL     1      -4.325   0.871   3.500  0.00  0.00    +0.000 C 
ATOM     19  C   UNL     1      -3.031  -1.038   4.547  0.00  0.00    +0.000 C 
BRANCH  19  21
ATOM     20  O   UNL     1      -4.788  -2.281   5.649  0.00  0.00    +0.000 OA
ATOM     21  C   UNL     1      -4.010  -1.345   5.612  0.00  0.00    +0.000 C 
BRANCH  21  22
ATOM     22  O   UNL     1      -3.890  -0.408   6.584  0.00  0.00    +0.000 OA
ATOM     23  H   UNL     1      -2.998  -0.415   6.992  0.00  0.00    +0.000 HD
ENDBRANCH  21  22
ENDBRANCH  19  21
ENDBRANCH  16  17
ENDBRANCH   3  15
TORSDOF 6
ENDMDL
MODEL 6
REMARK VINA RESULT:    -7.549      2.957      6.192
REMARK INTER + INTRA:         -10.744
REMARK INTER:                  -9.339
REMARK INTRA:                  -1.405
REMARK CONF_INDEPENDENT:        1.790
REMARK UNBOUND:                 1.405
REMARK  Name = 449171
REMARK  11 active torsions:
REMARK  status: ('A' for Active; 'I' for Inactive)
REMARK    1  A    between atoms: O_1  and  C_22
REMARK    2  A    between atoms: C_3  and  C_9
REMARK    3  A    between atoms: C_3  and  C_10
REMARK    4  A    between atoms: C_6  and  C_11
REMARK    5  A    between atoms: C_8  and  C_12
REMARK    6  A    between atoms: C_13  and  C_14
REMARK    7  A    between atoms: C_14  and  C_15
REMARK    8  A    between atoms: C_16  and  C_17
REMARK    9  A    between atoms: C_18  and  C_19
REMARK   10  A    between atoms: C_19  and  C_20
REMARK   11  A    between atoms: C_21  and  C_22
REMARK                            x       y       z     vdW  Elec       q    Type
REMARK                         _______ _______ _______ _____ _____    ______ ____
ROOT
ATOM      1  C   UNL     1      -0.484  -0.069   1.905  0.00  0.00    +0.000 C 
ATOM      2  C   UNL     1       0.802   0.534   1.389  0.00  0.00    +0.000 C 
ATOM      3  C   UNL     1      -1.396   0.751   2.472  0.00  0.00    +0.000 C 
ENDROOT
BRANCH   1   5
ATOM      4  C   UNL     1       0.286  -2.451   1.938  0.00  0.00    +0.000 C 
ATOM      5  C   UNL     1      -0.658  -1.514   1.754  0.00  0.00    +0.000 C 
BRANCH   4   9
ATOM      6  C   UNL     1       0.115  -4.723   3.060  0.00  0.00    +0.000 C 
ATOM      7  C   UNL     1      -0.443  -6.156   2.835  0.00  0.00    +0.000 C 
ATOM      8  C   UNL     1       0.050  -6.767   1.535  0.00  0.00    +0.000 C 
ATOM      9  C   UNL     1       0.038  -3.873   1.769  0.00  0.00    +0.000 C 
ATOM     10  C   UNL     1      -0.394  -5.915   0.356  0.00  0.00    +0.000 C 
ATOM     11  C   UNL     1      -0.219  -4.422   0.556  0.00  0.00    +0.000 C 
ATOM     12  C   UNL     1       1.587  -4.825   3.524  0.00  0.00    +0.000 C 
ATOM     13  C   UNL     1      -0.723  -4.114   4.210  0.00  0.00    +0.000 C 
ATOM     14  C   UNL     1      -0.365  -3.663  -0.744  0.00  0.00    +0.000 C 
ENDBRANCH   4   9
ENDBRANCH   1   5
BRANCH   3  15
ATOM     15  C   UNL     1      -2.691   0.409   3.036  0.00  0.00    +0.000 C 
ATOM     16  C   UNL     1      -2.866  -0.637   3.862  0.00  0.00    +0.000 C 
BRANCH  16  17
ATOM     17  C   UNL     1      -4.125  -1.071   4.479  0.00  0.00    +0.000 C 
ATOM     18  C   UNL     1      -4.084  -1.445   5.938  0.00  0.00    +0.000 C 
ATOM     19  C   UNL     1      -5.223  -1.127   3.698  0.00  0.00    +0.000 C 
BRANCH  19  21
ATOM     20  O   UNL     1      -7.235  -1.058   5.037  0.00  0.00    +0.000 OA
ATOM     21  C   UNL     1      -6.576  -1.538   4.134  0.00  0.00    +0.000 C 
BRANCH  21  22
ATOM     22  O   UNL     1      -6.992  -2.548   3.332  0.00  0.00    +0.000 OA
ATOM     23  H   UNL     1      -6.356  -3.294   3.320  0.00  0.00    +0.000 HD
ENDBRANCH  21  22
ENDBRANCH  19  21
ENDBRANCH  16  17
ENDBRANCH   3  15
TORSDOF 6
ENDMDL
MODEL 7
REMARK VINA RESULT:    -7.449      2.258      5.881
REMARK INTER + INTRA:         -10.882
REMARK INTER:                  -9.239
REMARK INTRA:                  -1.643
REMARK CONF_INDEPENDENT:        1.790
REMARK UNBOUND:                 1.643
REMARK  Name = 449171
REMARK  11 active torsions:
REMARK  status: ('A' for Active; 'I' for Inactive)
REMARK    1  A    between atoms: O_1  and  C_22
REMARK    2  A    between atoms: C_3  and  C_9
REMARK    3  A    between atoms: C_3  and  C_10
REMARK    4  A    between atoms: C_6  and  C_11
REMARK    5  A    between atoms: C_8  and  C_12
REMARK    6  A    between atoms: C_13  and  C_14
REMARK    7  A    between atoms: C_14  and  C_15
REMARK    8  A    between atoms: C_16  and  C_17
REMARK    9  A    between atoms: C_18  and  C_19
REMARK   10  A    between atoms: C_19  and  C_20
REMARK   11  A    between atoms: C_21  and  C_22
REMARK                            x       y       z     vdW  Elec       q    Type
REMARK                         _______ _______ _______ _____ _____    ______ ____
ROOT
ATOM      1  C   UNL     1       0.374   0.014   1.493  0.00  0.00    +0.000 C 
ATOM      2  C   UNL     1       1.408   0.696   0.628  0.00  0.00    +0.000 C 
ATOM      3  C   UNL     1      -0.570   0.776   2.089  0.00  0.00    +0.000 C 
ENDROOT
BRANCH   1   5
ATOM      4  C   UNL     1      -0.451  -2.333   1.215  0.00  0.00    +0.000 C 
ATOM      5  C   UNL     1       0.462  -1.440   1.629  0.00  0.00    +0.000 C 
BRANCH   4   9
ATOM      6  C   UNL     1      -0.062  -4.574   0.085  0.00  0.00    +0.000 C 
ATOM      7  C   UNL     1       0.381  -6.033   0.387  0.00  0.00    +0.000 C 
ATOM      8  C   UNL     1      -0.443  -6.666   1.494  0.00  0.00    +0.000 C 
ATOM      9  C   UNL     1      -0.293  -3.769   1.385  0.00  0.00    +0.000 C 
ATOM     10  C   UNL     1      -0.291  -5.867   2.780  0.00  0.00    +0.000 C 
ATOM     11  C   UNL     1      -0.368  -4.364   2.601  0.00  0.00    +0.000 C 
ATOM     12  C   UNL     1      -1.370  -4.608  -0.741  0.00  0.00    +0.000 C 
ATOM     13  C   UNL     1       1.058  -3.961  -0.791  0.00  0.00    +0.000 C 
ATOM     14  C   UNL     1      -0.537  -3.651   3.924  0.00  0.00    +0.000 C 
ENDBRANCH   4   9
ENDBRANCH   1   5
BRANCH   3  15
ATOM     15  C   UNL     1      -1.656   0.356   2.957  0.00  0.00    +0.000 C 
ATOM     16  C   UNL     1      -2.723  -0.323   2.502  0.00  0.00    +0.000 C 
BRANCH  16  17
ATOM     17  C   UNL     1      -3.872  -0.788   3.289  0.00  0.00    +0.000 C 
ATOM     18  C   UNL     1      -5.196  -0.897   2.577  0.00  0.00    +0.000 C 
ATOM     19  C   UNL     1      -3.673  -1.061   4.594  0.00  0.00    +0.000 C 
BRANCH  19  21
ATOM     20  O   UNL     1      -5.874  -1.216   5.584  0.00  0.00    +0.000 OA
ATOM     21  C   UNL     1      -4.701  -1.538   5.546  0.00  0.00    +0.000 C 
BRANCH  21  22
ATOM     22  O   UNL     1      -4.123  -2.434   6.382  0.00  0.00    +0.000 OA
ATOM     23  H   UNL     1      -3.166  -2.258   6.506  0.00  0.00    +0.000 HD
ENDBRANCH  21  22
ENDBRANCH  19  21
ENDBRANCH  16  17
ENDBRANCH   3  15
TORSDOF 6
ENDMDL
MODEL 8
REMARK VINA RESULT:    -7.067      4.557      6.891
REMARK INTER + INTRA:         -10.291
REMARK INTER:                  -8.857
REMARK INTRA:                  -1.433
REMARK CONF_INDEPENDENT:        1.790
REMARK UNBOUND:                 1.433
REMARK  Name = 449171
REMARK  11 active torsions:
REMARK  status: ('A' for Active; 'I' for Inactive)
REMARK    1  A    between atoms: O_1  and  C_22
REMARK    2  A    between atoms: C_3  and  C_9
REMARK    3  A    between atoms: C_3  and  C_10
REMARK    4  A    between atoms: C_6  and  C_11
REMARK    5  A    between atoms: C_8  and  C_12
REMARK    6  A    between atoms: C_13  and  C_14
REMARK    7  A    between atoms: C_14  and  C_15
REMARK    8  A    between atoms: C_16  and  C_17
REMARK    9  A    between atoms: C_18  and  C_19
REMARK   10  A    between atoms: C_19  and  C_20
REMARK   11  A    between atoms: C_21  and  C_22
REMARK                            x       y       z     vdW  Elec       q    Type
REMARK                         _______ _______ _______ _____ _____    ______ ____
ROOT
ATOM      1  C   UNL     1       1.203   0.920   1.154  0.00  0.00    +0.000 C 
ATOM      2  C   UNL     1       1.082   2.254   1.853  0.00  0.00    +0.000 C 
ATOM      3  C   UNL     1       0.180   0.044   1.259  0.00  0.00    +0.000 C 
ENDROOT
BRANCH   1   5
ATOM      4  C   UNL     1       3.373  -0.247   0.706  0.00  0.00    +0.000 C 
ATOM      5  C   UNL     1       2.432   0.662   0.403  0.00  0.00    +0.000 C 
BRANCH   4   9
ATOM      6  C   UNL     1       5.888   0.069   0.541  0.00  0.00    +0.000 C 
ATOM      7  C   UNL     1       7.133  -0.441  -0.236  0.00  0.00    +0.000 C 
ATOM      8  C   UNL     1       6.959  -0.327  -1.740  0.00  0.00    +0.000 C 
ATOM      9  C   UNL     1       4.572  -0.446  -0.091  0.00  0.00    +0.000 C 
ATOM     10  C   UNL     1       5.768  -1.157  -2.193  0.00  0.00    +0.000 C 
ATOM     11  C   UNL     1       4.537  -1.023  -1.318  0.00  0.00    +0.000 C 
ATOM     12  C   UNL     1       5.892   1.615   0.536  0.00  0.00    +0.000 C 
ATOM     13  C   UNL     1       6.064  -0.420   1.999  0.00  0.00    +0.000 C 
ATOM     14  C   UNL     1       3.310  -1.600  -1.987  0.00  0.00    +0.000 C 
ENDBRANCH   4   9
ENDBRANCH   1   5
BRANCH   3  15
ATOM     15  C   UNL     1       0.066  -1.286   0.685  0.00  0.00    +0.000 C 
ATOM     16  C   UNL     1       0.253  -2.404   1.409  0.00  0.00    +0.000 C 
BRANCH  16  17
ATOM     17  C   UNL     1       0.169  -3.788   0.929  0.00  0.00    +0.000 C 
ATOM     18  C   UNL     1       0.797  -4.855   1.788  0.00  0.00    +0.000 C 
ATOM     19  C   UNL     1      -0.441  -4.009  -0.253  0.00  0.00    +0.000 C 
BRANCH  19  21
ATOM     20  O   UNL     1      -0.361  -5.624  -2.051  0.00  0.00    +0.000 OA
ATOM     21  C   UNL     1      -0.624  -5.327  -0.901  0.00  0.00    +0.000 C 
BRANCH  21  22
ATOM     22  O   UNL     1      -1.124  -6.187   0.019  0.00  0.00    +0.000 OA
ATOM     23  H   UNL     1      -0.636  -7.038   0.030  0.00  0.00    +0.000 HD
ENDBRANCH  21  22
ENDBRANCH  19  21
ENDBRANCH  16  17
ENDBRANCH   3  15
TORSDOF 6
ENDMDL
MODEL 9
REMARK VINA RESULT:    -6.816      2.586      5.341
REMARK INTER + INTRA:         -10.147
REMARK INTER:                  -8.606
REMARK INTRA:                  -1.541
REMARK CONF_INDEPENDENT:        1.790
REMARK UNBOUND:                 1.541
REMARK  Name = 449171
REMARK  11 active torsions:
REMARK  status: ('A' for Active; 'I' for Inactive)
REMARK    1  A    between atoms: O_1  and  C_22
REMARK    2  A    between atoms: C_3  and  C_9
REMARK    3  A    between atoms: C_3  and  C_10
REMARK    4  A    between atoms: C_6  and  C_11
REMARK    5  A    between atoms: C_8  and  C_12
REMARK    6  A    between atoms: C_13  and  C_14
REMARK    7  A    between atoms: C_14  and  C_15
REMARK    8  A    between atoms: C_16  and  C_17
REMARK    9  A    between atoms: C_18  and  C_19
REMARK   10  A    between atoms: C_19  and  C_20
REMARK   11  A    between atoms: C_21  and  C_22
REMARK                            x       y       z     vdW  Elec       q    Type
REMARK                         _______ _______ _______ _____ _____    ______ ____
ROOT
ATOM      1  C   UNL     1      -0.040   0.701   0.241  0.00  0.00    +0.000 C 
ATOM      2  C   UNL     1       0.278   1.759  -0.790  0.00  0.00    +0.000 C 
ATOM      3  C   UNL     1      -0.360   1.097   1.492  0.00  0.00    +0.000 C 
ENDROOT
BRANCH   1   5
ATOM      4  C   UNL     1      -0.882  -1.653   0.090  0.00  0.00    +0.000 C 
ATOM      5  C   UNL     1       0.019  -0.697  -0.189  0.00  0.00    +0.000 C 
BRANCH   4   9
ATOM      6  C   UNL     1      -0.094  -4.008   0.622  0.00  0.00    +0.000 C 
ATOM      7  C   UNL     1      -0.265  -5.484   0.167  0.00  0.00    +0.000 C 
ATOM      8  C   UNL     1       0.008  -5.663  -1.316  0.00  0.00    +0.000 C 
ATOM      9  C   UNL     1      -0.755  -3.025  -0.373  0.00  0.00    +0.000 C 
ATOM     10  C   UNL     1      -0.960  -4.819  -2.131  0.00  0.00    +0.000 C 
ATOM     11  C   UNL     1      -1.166  -3.412  -1.606  0.00  0.00    +0.000 C 
ATOM     12  C   UNL     1       1.415  -3.690   0.738  0.00  0.00    +0.000 C 
ATOM     13  C   UNL     1      -0.725  -3.922   2.033  0.00  0.00    +0.000 C 
ATOM     14  C   UNL     1      -1.867  -2.534  -2.619  0.00  0.00    +0.000 C 
ENDBRANCH   4   9
ENDBRANCH   1   5
BRANCH   3  15
ATOM     15  C   UNL     1      -0.699   0.276   2.642  0.00  0.00    +0.000 C 
ATOM     16  C   UNL     1      -1.957  -0.123   2.899  0.00  0.00    +0.000 C 
BRANCH  16  17
ATOM     17  C   UNL     1      -2.407  -0.944   4.030  0.00  0.00    +0.000 C 
ATOM     18  C   UNL     1      -1.517  -2.086   4.449  0.00  0.00    +0.000 C 
ATOM     19  C   UNL     1      -3.589  -0.638   4.600  0.00  0.00    +0.000 C 
BRANCH  19  21
ATOM     20  O   UNL     1      -4.975  -2.288   5.698  0.00  0.00    +0.000 OA
ATOM     21  C   UNL     1      -4.208  -1.344   5.744  0.00  0.00    +0.000 C 
BRANCH  21  22
ATOM     22  O   UNL     1      -3.758  -0.775   6.889  0.00  0.00    +0.000 OA
ATOM     23  H   UNL     1      -2.849  -0.421   6.790  0.00  0.00    +0.000 HD
ENDBRANCH  21  22
ENDBRANCH  19  21
ENDBRANCH  16  17
ENDBRANCH   3  15
TORSDOF 6
ENDMDL
