MODEL 1
REMARK VINA RESULT:    -5.771      0.000      0.000
REMARK INTER + INTRA:          -8.806
REMARK INTER:                  -7.561
REMARK INTRA:                  -1.245
REMARK CONF_INDEPENDENT:        1.790
REMARK UNBOUND:                 1.245
REMARK  Name = 449171
REMARK  11 active torsions:
REMARK  status: ('A' for Active; 'I' for Inactive)
REMARK    1  A    between atoms: O_1  and  C_22
REMARK    2  A    between atoms: C_3  and  C_9
REMARK    3  A    between atoms: C_3  and  C_10
REMARK    4  A    between atoms: C_6  and  C_11
REMARK    5  A    between atoms: C_8  and  C_12
REMARK    6  A    between atoms: C_13  and  C_14
REMARK    7  A    between atoms: C_14  and  C_15
REMARK    8  A    between atoms: C_16  and  C_17
REMARK    9  A    between atoms: C_18  and  C_19
REMARK   10  A    between atoms: C_19  and  C_20
REMARK   11  A    between atoms: C_21  and  C_22
REMARK                            x       y       z     vdW  Elec       q    Type
REMARK                         _______ _______ _______ _____ _____    ______ ____
ROOT
ATOM      1  C   UNL     1      -4.734   0.480  -5.331  0.00  0.00    +0.000 C 
ATOM      2  C   UNL     1      -5.130  -0.716  -6.166  0.00  0.00    +0.000 C 
ATOM      3  C   UNL     1      -5.405   0.712  -4.181  0.00  0.00    +0.000 C 
ENDROOT
BRANCH   1   5
ATOM      4  C   UNL     1      -2.398   1.380  -5.321  0.00  0.00    +0.000 C 
ATOM      5  C   UNL     1      -3.640   1.315  -5.827  0.00  0.00    +0.000 C 
BRANCH   4   9
ATOM      6  C   UNL     1      -1.557   3.755  -5.643  0.00  0.00    +0.000 C 
ATOM      7  C   UNL     1      -0.275   4.557  -5.999  0.00  0.00    +0.000 C 
ATOM      8  C   UNL     1       0.349   4.095  -7.304  0.00  0.00    +0.000 C 
ATOM      9  C   UNL     1      -1.360   2.237  -5.869  0.00  0.00    +0.000 C 
ATOM     10  C   UNL     1       0.741   2.629  -7.204  0.00  0.00    +0.000 C 
ATOM     11  C   UNL     1      -0.300   1.740  -6.555  0.00  0.00    +0.000 C 
ATOM     12  C   UNL     1      -2.725   4.260  -6.521  0.00  0.00    +0.000 C 
ATOM     13  C   UNL     1      -1.872   4.088  -4.164  0.00  0.00    +0.000 C 
ATOM     14  C   UNL     1      -0.002   0.274  -6.777  0.00  0.00    +0.000 C 
ENDBRANCH   4   9
ENDBRANCH   1   5
BRANCH   3  15
ATOM     15  C   UNL     1      -5.211   1.785  -3.222  0.00  0.00    +0.000 C 
ATOM     16  C   UNL     1      -5.700   1.733  -1.970  0.00  0.00    +0.000 C 
BRANCH  16  17
ATOM     17  C   UNL     1      -5.567   2.759  -0.930  0.00  0.00    +0.000 C 
ATOM     18  C   UNL     1      -5.782   4.193  -1.344  0.00  0.00    +0.000 C 
ATOM     19  C   UNL     1      -5.241   2.357   0.315  0.00  0.00    +0.000 C 
BRANCH  19  21
ATOM     20  O   UNL     1      -5.832   4.087   1.898  0.00  0.00    +0.000 OA
ATOM     21  C   UNL     1      -5.063   3.236   1.491  0.00  0.00    +0.000 C 
BRANCH  21  22
ATOM     22  O   UNL     1      -3.883   2.924   2.081  0.00  0.00    +0.000 OA
ATOM     23  H   UNL     1      -3.154   3.506   1.775  0.00  0.00    +0.000 HD
ENDBRANCH  21  22
ENDBRANCH  19  21
ENDBRANCH  16  17
ENDBRANCH   3  15
TORSDOF 6
ENDMDL
MODEL 2
REMARK VINA RESULT:    -5.243      1.456      3.750
REMARK INTER + INTRA:          -8.249
REMARK INTER:                  -7.033
REMARK INTRA:                  -1.216
REMARK CONF_INDEPENDENT:        1.790
REMARK UNBOUND:                 1.216
REMARK  Name = 449171
REMARK  11 active torsions:
REMARK  status: ('A' for Active; 'I' for Inactive)
REMARK    1  A    between atoms: O_1  and  C_22
REMARK    2  A    between atoms: C_3  and  C_9
REMARK    3  A    between atoms: C_3  and  C_10
REMARK    4  A    between atoms: C_6  and  C_11
REMARK    5  A    between atoms: C_8  and  C_12
REMARK    6  A    between atoms: C_13  and  C_14
REMARK    7  A    between atoms: C_14  and  C_15
REMARK    8  A    between atoms: C_16  and  C_17
REMARK    9  A    between atoms: C_18  and  C_19
REMARK   10  A    between atoms: C_19  and  C_20
REMARK   11  A    between atoms: C_21  and  C_22
REMARK                            x       y       z     vdW  Elec       q    Type
REMARK                         _______ _______ _______ _____ _____    ______ ____
ROOT
ATOM      1  C   UNL     1      -1.991   6.021  -4.308  0.00  0.00    +0.000 C 
ATOM      2  C   UNL     1      -1.326   7.253  -4.879  0.00  0.00    +0.000 C 
ATOM      3  C   UNL     1      -2.967   6.185  -3.388  0.00  0.00    +0.000 C 
ENDROOT
BRANCH   1   5
ATOM      4  C   UNL     1      -2.028   4.042  -5.841  0.00  0.00    +0.000 C 
ATOM      5  C   UNL     1      -1.530   4.721  -4.795  0.00  0.00    +0.000 C 
BRANCH   4   9
ATOM      6  C   UNL     1      -2.472   1.551  -6.058  0.00  0.00    +0.000 C 
ATOM      7  C   UNL     1      -1.967   0.282  -6.799  0.00  0.00    +0.000 C 
ATOM      8  C   UNL     1      -0.476   0.061  -6.611  0.00  0.00    +0.000 C 
ATOM      9  C   UNL     1      -1.517   2.750  -6.268  0.00  0.00    +0.000 C 
ATOM     10  C   UNL     1       0.300   1.249  -7.159  0.00  0.00    +0.000 C 
ATOM     11  C   UNL     1      -0.274   2.602  -6.792  0.00  0.00    +0.000 C 
ATOM     12  C   UNL     1      -2.585   1.239  -4.548  0.00  0.00    +0.000 C 
ATOM     13  C   UNL     1      -3.890   1.831  -6.611  0.00  0.00    +0.000 C 
ATOM     14  C   UNL     1       0.701   3.721  -7.080  0.00  0.00    +0.000 C 
ENDBRANCH   4   9
ENDBRANCH   1   5
BRANCH   3  15
ATOM     15  C   UNL     1      -3.743   5.166  -2.703  0.00  0.00    +0.000 C 
ATOM     16  C   UNL     1      -4.155   5.306  -1.430  0.00  0.00    +0.000 C 
BRANCH  16  17
ATOM     17  C   UNL     1      -4.933   4.341  -0.646  0.00  0.00    +0.000 C 
ATOM     18  C   UNL     1      -5.771   3.348  -1.410  0.00  0.00    +0.000 C 
ATOM     19  C   UNL     1      -4.867   4.421   0.699  0.00  0.00    +0.000 C 
BRANCH  19  21
ATOM     20  O   UNL     1      -6.773   3.337   1.718  0.00  0.00    +0.000 OA
ATOM     21  C   UNL     1      -5.575   3.542   1.655  0.00  0.00    +0.000 C 
BRANCH  21  22
ATOM     22  O   UNL     1      -4.654   2.962   2.463  0.00  0.00    +0.000 OA
ATOM     23  H   UNL     1      -5.064   2.559   3.258  0.00  0.00    +0.000 HD
ENDBRANCH  21  22
ENDBRANCH  19  21
ENDBRANCH  16  17
ENDBRANCH   3  15
TORSDOF 6
ENDMDL
MODEL 3
REMARK VINA RESULT:    -5.149      1.249      2.581
REMARK INTER + INTRA:          -8.257
REMARK INTER:                  -6.938
REMARK INTRA:                  -1.319
REMARK CONF_INDEPENDENT:        1.790
REMARK UNBOUND:                 1.319
REMARK  Name = 449171
REMARK  11 active torsions:
REMARK  status: ('A' for Active; 'I' for Inactive)
REMARK    1  A    between atoms: O_1  and  C_22
REMARK    2  A    between atoms: C_3  and  C_9
REMARK    3  A    between atoms: C_3  and  C_10
REMARK    4  A    between atoms: C_6  and  C_11
REMARK    5  A    between atoms: C_8  and  C_12
REMARK    6  A    between atoms: C_13  and  C_14
REMARK    7  A    between atoms: C_14  and  C_15
REMARK    8  A    between atoms: C_16  and  C_17
REMARK    9  A    between atoms: C_18  and  C_19
REMARK   10  A    between atoms: C_19  and  C_20
REMARK   11  A    between atoms: C_21  and  C_22
REMARK                            x       y       z     vdW  Elec       q    Type
REMARK                         _______ _______ _______ _____ _____    ______ ____
ROOT
ATOM      1  C   UNL     1      -6.033   0.823  -4.593  0.00  0.00    +0.000 C 
ATOM      2  C   UNL     1      -6.314  -0.285  -5.582  0.00  0.00    +0.000 C 
ATOM      3  C   UNL     1      -6.701   0.822  -3.419  0.00  0.00    +0.000 C 
ENDROOT
BRANCH   1   5
ATOM      4  C   UNL     1      -3.720   1.763  -4.774  0.00  0.00    +0.000 C 
ATOM      5  C   UNL     1      -5.045   1.832  -4.976  0.00  0.00    +0.000 C 
BRANCH   4   9
ATOM      6  C   UNL     1      -1.773   2.409  -6.272  0.00  0.00    +0.000 C 
ATOM      7  C   UNL     1      -1.035   3.650  -6.848  0.00  0.00    +0.000 C 
ATOM      8  C   UNL     1      -0.596   4.613  -5.760  0.00  0.00    +0.000 C 
ATOM      9  C   UNL     1      -2.797   2.810  -5.184  0.00  0.00    +0.000 C 
ATOM     10  C   UNL     1      -1.806   5.118  -4.989  0.00  0.00    +0.000 C 
ATOM     11  C   UNL     1      -2.817   4.048  -4.631  0.00  0.00    +0.000 C 
ATOM     12  C   UNL     1      -0.730   1.441  -5.668  0.00  0.00    +0.000 C 
ATOM     13  C   UNL     1      -2.447   1.715  -7.481  0.00  0.00    +0.000 C 
ATOM     14  C   UNL     1      -3.813   4.540  -3.605  0.00  0.00    +0.000 C 
ENDBRANCH   4   9
ENDBRANCH   1   5
BRANCH   3  15
ATOM     15  C   UNL     1      -6.604   1.771  -2.323  0.00  0.00    +0.000 C 
ATOM     16  C   UNL     1      -5.785   1.581  -1.273  0.00  0.00    +0.000 C 
BRANCH  16  17
ATOM     17  C   UNL     1      -5.616   2.469  -0.117  0.00  0.00    +0.000 C 
ATOM     18  C   UNL     1      -6.348   3.786  -0.146  0.00  0.00    +0.000 C 
ATOM     19  C   UNL     1      -4.804   2.059   0.879  0.00  0.00    +0.000 C 
BRANCH  19  21
ATOM     20  O   UNL     1      -3.421   2.963   2.645  0.00  0.00    +0.000 OA
ATOM     21  C   UNL     1      -4.508   2.809   2.119  0.00  0.00    +0.000 C 
BRANCH  21  22
ATOM     22  O   UNL     1      -5.667   3.337   2.584  0.00  0.00    +0.000 OA
ATOM     23  H   UNL     1      -6.442   3.041   2.060  0.00  0.00    +0.000 HD
ENDBRANCH  21  22
ENDBRANCH  19  21
ENDBRANCH  16  17
ENDBRANCH   3  15
TORSDOF 6
ENDMDL
MODEL 4
REMARK VINA RESULT:    -4.895      1.772      3.636
REMARK INTER + INTRA:          -8.176
REMARK INTER:                  -6.685
REMARK INTRA:                  -1.492
REMARK CONF_INDEPENDENT:        1.790
REMARK UNBOUND:                 1.492
REMARK  Name = 449171
REMARK  11 active torsions:
REMARK  status: ('A' for Active; 'I' for Inactive)
REMARK    1  A    between atoms: O_1  and  C_22
REMARK    2  A    between atoms: C_3  and  C_9
REMARK    3  A    between atoms: C_3  and  C_10
REMARK    4  A    between atoms: C_6  and  C_11
REMARK    5  A    between atoms: C_8  and  C_12
REMARK    6  A    between atoms: C_13  and  C_14
REMARK    7  A    between atoms: C_14  and  C_15
REMARK    8  A    between atoms: C_16  and  C_17
REMARK    9  A    between atoms: C_18  and  C_19
REMARK   10  A    between atoms: C_19  and  C_20
REMARK   11  A    between atoms: C_21  and  C_22
REMARK                            x       y       z     vdW  Elec       q    Type
REMARK                         _______ _______ _______ _____ _____    ______ ____
ROOT
ATOM      1  C   UNL     1      -5.770   5.758  -4.296  0.00  0.00    +0.000 C 
ATOM      2  C   UNL     1      -6.408   6.672  -5.317  0.00  0.00    +0.000 C 
ATOM      3  C   UNL     1      -5.943   6.038  -2.986  0.00  0.00    +0.000 C 
ENDROOT
BRANCH   1   5
ATOM      4  C   UNL     1      -4.073   3.926  -4.120  0.00  0.00    +0.000 C 
ATOM      5  C   UNL     1      -5.000   4.620  -4.799  0.00  0.00    +0.000 C 
BRANCH   4   9
ATOM      6  C   UNL     1      -2.026   3.159  -5.414  0.00  0.00    +0.000 C 
ATOM      7  C   UNL     1      -1.186   1.890  -5.727  0.00  0.00    +0.000 C 
ATOM      8  C   UNL     1      -2.034   0.760  -6.282  0.00  0.00    +0.000 C 
ATOM      9  C   UNL     1      -3.346   2.802  -4.689  0.00  0.00    +0.000 C 
ATOM     10  C   UNL     1      -3.101   0.363  -5.273  0.00  0.00    +0.000 C 
ATOM     11  C   UNL     1      -3.807   1.529  -4.610  0.00  0.00    +0.000 C 
ATOM     12  C   UNL     1      -2.346   3.888  -6.739  0.00  0.00    +0.000 C 
ATOM     13  C   UNL     1      -1.117   4.072  -4.555  0.00  0.00    +0.000 C 
ATOM     14  C   UNL     1      -5.053   1.086  -3.878  0.00  0.00    +0.000 C 
ENDBRANCH   4   9
ENDBRANCH   1   5
BRANCH   3  15
ATOM     15  C   UNL     1      -5.432   5.317  -1.832  0.00  0.00    +0.000 C 
ATOM     16  C   UNL     1      -5.859   4.085  -1.504  0.00  0.00    +0.000 C 
BRANCH  16  17
ATOM     17  C   UNL     1      -5.416   3.276  -0.362  0.00  0.00    +0.000 C 
ATOM     18  C   UNL     1      -5.636   1.787  -0.447  0.00  0.00    +0.000 C 
ATOM     19  C   UNL     1      -4.867   3.916   0.690  0.00  0.00    +0.000 C 
BRANCH  19  21
ATOM     20  O   UNL     1      -3.202   3.078   2.230  0.00  0.00    +0.000 OA
ATOM     21  C   UNL     1      -4.363   3.278   1.926  0.00  0.00    +0.000 C 
BRANCH  21  22
ATOM     22  O   UNL     1      -5.426   2.962   2.705  0.00  0.00    +0.000 OA
ATOM     23  H   UNL     1      -5.167   2.413   3.476  0.00  0.00    +0.000 HD
ENDBRANCH  21  22
ENDBRANCH  19  21
ENDBRANCH  16  17
ENDBRANCH   3  15
TORSDOF 6
ENDMDL
MODEL 5
REMARK VINA RESULT:    -4.827      3.438      6.991
REMARK INTER + INTRA:          -8.061
REMARK INTER:                  -6.617
REMARK INTRA:                  -1.444
REMARK CONF_INDEPENDENT:        1.790
REMARK UNBOUND:                 1.444
REMARK  Name = 449171
REMARK  11 active torsions:
REMARK  status: ('A' for Active; 'I' for Inactive)
REMARK    1  A    between atoms: O_1  and  C_22
REMARK    2  A    between atoms: C_3  and  C_9
REMARK    3  A    between atoms: C_3  and  C_10
REMARK    4  A    between atoms: C_6  and  C_11
REMARK    5  A    between atoms: C_8  and  C_12
REMARK    6  A    between atoms: C_13  and  C_14
REMARK    7  A    between atoms: C_14  and  C_15
REMARK    8  A    between atoms: C_16  and  C_17
REMARK    9  A    between atoms: C_18  and  C_19
REMARK   10  A    between atoms: C_19  and  C_20
REMARK   11  A    between atoms: C_21  and  C_22
REMARK                            x       y       z     vdW  Elec       q    Type
REMARK                         _______ _______ _______ _____ _____    ______ ____
ROOT
ATOM      1  C   UNL     1      -6.651   0.706  -3.891  0.00  0.00    +0.000 C 
ATOM      2  C   UNL     1      -7.845  -0.181  -3.624  0.00  0.00    +0.000 C 
ATOM      3  C   UNL     1      -5.831   0.389  -4.917  0.00  0.00    +0.000 C 
ENDROOT
BRANCH   1   5
ATOM      4  C   UNL     1      -5.379   2.116  -2.259  0.00  0.00    +0.000 C 
ATOM      5  C   UNL     1      -6.461   1.861  -3.013  0.00  0.00    +0.000 C 
BRANCH   4   9
ATOM      6  C   UNL     1      -5.671   3.085   0.071  0.00  0.00    +0.000 C 
ATOM      7  C   UNL     1      -5.241   4.289   0.954  0.00  0.00    +0.000 C 
ATOM      8  C   UNL     1      -5.547   5.623   0.295  0.00  0.00    +0.000 C 
ATOM      9  C   UNL     1      -5.262   3.288  -1.407  0.00  0.00    +0.000 C 
ATOM     10  C   UNL     1      -4.800   5.736  -1.025  0.00  0.00    +0.000 C 
ATOM     11  C   UNL     1      -4.844   4.488  -1.884  0.00  0.00    +0.000 C 
ATOM     12  C   UNL     1      -7.205   2.917   0.163  0.00  0.00    +0.000 C 
ATOM     13  C   UNL     1      -5.000   1.837   0.695  0.00  0.00    +0.000 C 
ATOM     14  C   UNL     1      -4.376   4.762  -3.295  0.00  0.00    +0.000 C 
ENDBRANCH   4   9
ENDBRANCH   1   5
BRANCH   3  15
ATOM     15  C   UNL     1      -4.633   1.079  -5.363  0.00  0.00    +0.000 C 
ATOM     16  C   UNL     1      -3.396   0.658  -5.046  0.00  0.00    +0.000 C 
BRANCH  16  17
ATOM     17  C   UNL     1      -2.127   1.282  -5.437  0.00  0.00    +0.000 C 
ATOM     18  C   UNL     1      -1.844   2.663  -4.904  0.00  0.00    +0.000 C 
ATOM     19  C   UNL     1      -1.312   0.591  -6.261  0.00  0.00    +0.000 C 
BRANCH  19  21
ATOM     20  O   UNL     1       0.417   2.192  -6.804  0.00  0.00    +0.000 OA
ATOM     21  C   UNL     1       0.001   1.049  -6.764  0.00  0.00    +0.000 C 
BRANCH  21  22
ATOM     22  O   UNL     1       0.705  -0.038  -7.166  0.00  0.00    +0.000 OA
ATOM     23  H   UNL     1       1.672   0.124  -7.148  0.00  0.00    +0.000 HD
ENDBRANCH  21  22
ENDBRANCH  19  21
ENDBRANCH  16  17
ENDBRANCH   3  15
TORSDOF 6
ENDMDL
MODEL 6
REMARK VINA RESULT:    -4.767      3.178      7.531
REMARK INTER + INTRA:          -7.983
REMARK INTER:                  -6.557
REMARK INTRA:                  -1.426
REMARK CONF_INDEPENDENT:        1.790
REMARK UNBOUND:                 1.426
REMARK  Name = 449171
REMARK  11 active torsions:
REMARK  status: ('A' for Active; 'I' for Inactive)
REMARK    1  A    between atoms: O_1  and  C_22
REMARK    2  A    between atoms: C_3  and  C_9
REMARK    3  A    between atoms: C_3  and  C_10
REMARK    4  A    between atoms: C_6  and  C_11
REMARK    5  A    between atoms: C_8  and  C_12
REMARK    6  A    between atoms: C_13  and  C_14
REMARK    7  A    between atoms: C_14  and  C_15
REMARK    8  A    between atoms: C_16  and  C_17
REMARK    9  A    between atoms: C_18  and  C_19
REMARK   10  A    between atoms: C_19  and  C_20
REMARK   11  A    between atoms: C_21  and  C_22
REMARK                            x       y       z     vdW  Elec       q    Type
REMARK                         _______ _______ _______ _____ _____    ______ ____
ROOT
ATOM      1  C   UNL     1      -3.680   6.180  -3.000  0.00  0.00    +0.000 C 
ATOM      2  C   UNL     1      -3.770   7.462  -2.206  0.00  0.00    +0.000 C 
ATOM      3  C   UNL     1      -2.742   6.088  -3.968  0.00  0.00    +0.000 C 
ENDROOT
BRANCH   1   5
ATOM      4  C   UNL     1      -4.628   4.382  -1.539  0.00  0.00    +0.000 C 
ATOM      5  C   UNL     1      -4.623   5.112  -2.665  0.00  0.00    +0.000 C 
BRANCH   4   9
ATOM      6  C   UNL     1      -6.274   3.381   0.117  0.00  0.00    +0.000 C 
ATOM      7  C   UNL     1      -7.489   2.416   0.197  0.00  0.00    +0.000 C 
ATOM      8  C   UNL     1      -7.188   1.060  -0.415  0.00  0.00    +0.000 C 
ATOM      9  C   UNL     1      -5.601   3.333  -1.276  0.00  0.00    +0.000 C 
ATOM     10  C   UNL     1      -6.828   1.218  -1.884  0.00  0.00    +0.000 C 
ATOM     11  C   UNL     1      -5.881   2.363  -2.182  0.00  0.00    +0.000 C 
ATOM     12  C   UNL     1      -5.246   2.985   1.201  0.00  0.00    +0.000 C 
ATOM     13  C   UNL     1      -6.825   4.789   0.451  0.00  0.00    +0.000 C 
ATOM     14  C   UNL     1      -5.312   2.271  -3.580  0.00  0.00    +0.000 C 
ENDBRANCH   4   9
ENDBRANCH   1   5
BRANCH   3  15
ATOM     15  C   UNL     1      -2.465   4.972  -4.856  0.00  0.00    +0.000 C 
ATOM     16  C   UNL     1      -1.710   3.923  -4.485  0.00  0.00    +0.000 C 
BRANCH  16  17
ATOM     17  C   UNL     1      -1.365   2.753  -5.301  0.00  0.00    +0.000 C 
ATOM     18  C   UNL     1      -0.272   2.925  -6.325  0.00  0.00    +0.000 C 
ATOM     19  C   UNL     1      -2.061   1.616  -5.099  0.00  0.00    +0.000 C 
BRANCH  19  21
ATOM     20  O   UNL     1      -0.869  -0.017  -6.427  0.00  0.00    +0.000 OA
ATOM     21  C   UNL     1      -1.862   0.339  -5.819  0.00  0.00    +0.000 C 
BRANCH  21  22
ATOM     22  O   UNL     1      -2.982  -0.410  -5.674  0.00  0.00    +0.000 OA
ATOM     23  H   UNL     1      -2.801  -1.368  -5.784  0.00  0.00    +0.000 HD
ENDBRANCH  21  22
ENDBRANCH  19  21
ENDBRANCH  16  17
ENDBRANCH   3  15
TORSDOF 6
ENDMDL
MODEL 7
REMARK VINA RESULT:    -4.381      3.251      7.040
REMARK INTER + INTRA:          -7.371
REMARK INTER:                  -6.171
REMARK INTRA:                  -1.200
REMARK CONF_INDEPENDENT:        1.790
REMARK UNBOUND:                 1.200
REMARK  Name = 449171
REMARK  11 active torsions:
REMARK  status: ('A' for Active; 'I' for Inactive)
REMARK    1  A    between atoms: O_1  and  C_22
REMARK    2  A    between atoms: C_3  and  C_9
REMARK    3  A    between atoms: C_3  and  C_10
REMARK    4  A    between atoms: C_6  and  C_11
REMARK    5  A    between atoms: C_8  and  C_12
REMARK    6  A    between atoms: C_13  and  C_14
REMARK    7  A    between atoms: C_14  and  C_15
REMARK    8  A    between atoms: C_16  and  C_17
REMARK    9  A    between atoms: C_18  and  C_19
REMARK   10  A    between atoms: C_19  and  C_20
REMARK   11  A    between atoms: C_21  and  C_22
REMARK                            x       y       z     vdW  Elec       q    Type
REMARK                         _______ _______ _______ _____ _____    ______ ____
ROOT
ATOM      1  C   UNL     1      -5.101   0.696  -4.762  0.00  0.00    +0.000 C 
ATOM      2  C   UNL     1      -6.500   0.136  -4.865  0.00  0.00    +0.000 C 
ATOM      3  C   UNL     1      -4.163   0.247  -5.624  0.00  0.00    +0.000 C 
ENDROOT
BRANCH   1   5
ATOM      4  C   UNL     1      -5.768   2.241  -2.908  0.00  0.00    +0.000 C 
ATOM      5  C   UNL     1      -4.851   1.698  -3.724  0.00  0.00    +0.000 C 
BRANCH   4   9
ATOM      6  C   UNL     1      -5.881   2.887  -0.454  0.00  0.00    +0.000 C 
ATOM      7  C   UNL     1      -5.244   3.853   0.584  0.00  0.00    +0.000 C 
ATOM      8  C   UNL     1      -5.311   5.302   0.137  0.00  0.00    +0.000 C 
ATOM      9  C   UNL     1      -5.445   3.235  -1.897  0.00  0.00    +0.000 C 
ATOM     10  C   UNL     1      -4.558   5.479  -1.173  0.00  0.00    +0.000 C 
ATOM     11  C   UNL     1      -4.823   4.400  -2.204  0.00  0.00    +0.000 C 
ATOM     12  C   UNL     1      -7.421   2.977  -0.344  0.00  0.00    +0.000 C 
ATOM     13  C   UNL     1      -5.440   1.462  -0.038  0.00  0.00    +0.000 C 
ATOM     14  C   UNL     1      -4.316   4.797  -3.572  0.00  0.00    +0.000 C 
ENDBRANCH   4   9
ENDBRANCH   1   5
BRANCH   3  15
ATOM     15  C   UNL     1      -2.765   0.629  -5.719  0.00  0.00    +0.000 C 
ATOM     16  C   UNL     1      -2.360   1.737  -6.365  0.00  0.00    +0.000 C 
BRANCH  16  17
ATOM     17  C   UNL     1      -0.979   2.208  -6.525  0.00  0.00    +0.000 C 
ATOM     18  C   UNL     1       0.061   1.183  -6.895  0.00  0.00    +0.000 C 
ATOM     19  C   UNL     1      -0.731   3.516  -6.308  0.00  0.00    +0.000 C 
BRANCH  19  21
ATOM     20  O   UNL     1       1.606   3.714  -6.899  0.00  0.00    +0.000 OA
ATOM     21  C   UNL     1       0.588   4.177  -6.418  0.00  0.00    +0.000 C 
BRANCH  21  22
ATOM     22  O   UNL     1       0.482   5.427  -5.906  0.00  0.00    +0.000 OA
ATOM     23  H   UNL     1       0.490   5.425  -4.925  0.00  0.00    +0.000 HD
ENDBRANCH  21  22
ENDBRANCH  19  21
ENDBRANCH  16  17
ENDBRANCH   3  15
TORSDOF 6
ENDMDL
MODEL 8
REMARK VINA RESULT:    -4.111      3.398      6.828
REMARK INTER + INTRA:          -7.253
REMARK INTER:                  -5.901
REMARK INTRA:                  -1.352
REMARK CONF_INDEPENDENT:        1.790
REMARK UNBOUND:                 1.352
REMARK  Name = 449171
REMARK  11 active torsions:
REMARK  status: ('A' for Active; 'I' for Inactive)
REMARK    1  A    between atoms: O_1  and  C_22
REMARK    2  A    between atoms: C_3  and  C_9
REMARK    3  A    between atoms: C_3  and  C_10
REMARK    4  A    between atoms: C_6  and  C_11
REMARK    5  A    between atoms: C_8  and  C_12
REMARK    6  A    between atoms: C_13  and  C_14
REMARK    7  A    between atoms: C_14  and  C_15
REMARK    8  A    between atoms: C_16  and  C_17
REMARK    9  A    between atoms: C_18  and  C_19
REMARK   10  A    between atoms: C_19  and  C_20
REMARK   11  A    between atoms: C_21  and  C_22
REMARK                            x       y       z     vdW  Elec       q    Type
REMARK                         _______ _______ _______ _____ _____    ______ ____
ROOT
ATOM      1  C   UNL     1      -4.732   0.834  -4.766  0.00  0.00    +0.000 C 
ATOM      2  C   UNL     1      -6.114   0.225  -4.824  0.00  0.00    +0.000 C 
ATOM      3  C   UNL     1      -3.772   0.326  -5.570  0.00  0.00    +0.000 C 
ENDROOT
BRANCH   1   5
ATOM      4  C   UNL     1      -5.477   2.732  -3.313  0.00  0.00    +0.000 C 
ATOM      5  C   UNL     1      -4.524   1.944  -3.836  0.00  0.00    +0.000 C 
BRANCH   4   9
ATOM      6  C   UNL     1      -4.613   5.103  -3.032  0.00  0.00    +0.000 C 
ATOM      7  C   UNL     1      -4.617   6.292  -2.032  0.00  0.00    +0.000 C 
ATOM      8  C   UNL     1      -4.127   5.886  -0.653  0.00  0.00    +0.000 C 
ATOM      9  C   UNL     1      -5.193   3.819  -2.392  0.00  0.00    +0.000 C 
ATOM     10  C   UNL     1      -5.026   4.803  -0.078  0.00  0.00    +0.000 C 
ATOM     11  C   UNL     1      -5.399   3.707  -1.056  0.00  0.00    +0.000 C 
ATOM     12  C   UNL     1      -3.161   4.840  -3.493  0.00  0.00    +0.000 C 
ATOM     13  C   UNL     1      -5.441   5.571  -4.254  0.00  0.00    +0.000 C 
ATOM     14  C   UNL     1      -6.009   2.514  -0.354  0.00  0.00    +0.000 C 
ENDBRANCH   4   9
ENDBRANCH   1   5
BRANCH   3  15
ATOM     15  C   UNL     1      -2.385   0.738  -5.692  0.00  0.00    +0.000 C 
ATOM     16  C   UNL     1      -2.000   1.760  -6.477  0.00  0.00    +0.000 C 
BRANCH  16  17
ATOM     17  C   UNL     1      -0.631   2.251  -6.675  0.00  0.00    +0.000 C 
ATOM     18  C   UNL     1       0.379   1.274  -7.219  0.00  0.00    +0.000 C 
ATOM     19  C   UNL     1      -0.365   3.529  -6.338  0.00  0.00    +0.000 C 
BRANCH  19  21
ATOM     20  O   UNL     1       1.882   3.868  -7.166  0.00  0.00    +0.000 OA
ATOM     21  C   UNL     1       0.946   4.203  -6.463  0.00  0.00    +0.000 C 
BRANCH  21  22
ATOM     22  O   UNL     1       0.938   5.301  -5.669  0.00  0.00    +0.000 OA
ATOM     23  H   UNL     1       1.839   5.537  -5.359  0.00  0.00    +0.000 HD
ENDBRANCH  21  22
ENDBRANCH  19  21
ENDBRANCH  16  17
ENDBRANCH   3  15
TORSDOF 6
ENDMDL
MODEL 9
REMARK VINA RESULT:    -3.741      3.206      7.316
REMARK INTER + INTRA:          -7.199
REMARK INTER:                  -5.531
REMARK INTRA:                  -1.668
REMARK CONF_INDEPENDENT:        1.790
REMARK UNBOUND:                 1.668
REMARK  Name = 449171
REMARK  11 active torsions:
REMARK  status: ('A' for Active; 'I' for Inactive)
REMARK    1  A    between atoms: O_1  and  C_22
REMARK    2  A    between atoms: C_3  and  C_9
REMARK    3  A    between atoms: C_3  and  C_10
REMARK    4  A    between atoms: C_6  and  C_11
REMARK    5  A    between atoms: C_8  and  C_12
REMARK    6  A    between atoms: C_13  and  C_14
REMARK    7  A    between atoms: C_14  and  C_15
REMARK    8  A    between atoms: C_16  and  C_17
REMARK    9  A    between atoms: C_18  and  C_19
REMARK   10  A    between atoms: C_19  and  C_20
REMARK   11  A    between atoms: C_21  and  C_22
REMARK                            x       y       z     vdW  Elec       q    Type
REMARK                         _______ _______ _______ _____ _____    ______ ____
ROOT
ATOM      1  C   UNL     1      -2.736   5.568  -4.098  0.00  0.00    +0.000 C 
ATOM      2  C   UNL     1      -2.280   6.981  -3.814  0.00  0.00    +0.000 C 
ATOM      3  C   UNL     1      -2.520   5.059  -5.331  0.00  0.00    +0.000 C 
ENDROOT
BRANCH   1   5
ATOM      4  C   UNL     1      -4.669   4.447  -2.969  0.00  0.00    +0.000 C 
ATOM      5  C   UNL     1      -3.385   4.838  -3.009  0.00  0.00    +0.000 C 
BRANCH   4   9
ATOM      6  C   UNL     1      -5.846   2.338  -2.185  0.00  0.00    +0.000 C 
ATOM      7  C   UNL     1      -6.168   1.526  -0.900  0.00  0.00    +0.000 C 
ATOM      8  C   UNL     1      -6.852   2.373   0.159  0.00  0.00    +0.000 C 
ATOM      9  C   UNL     1      -5.245   3.723  -1.848  0.00  0.00    +0.000 C 
ATOM     10  C   UNL     1      -5.951   3.530   0.563  0.00  0.00    +0.000 C 
ATOM     11  C   UNL     1      -5.276   4.239  -0.594  0.00  0.00    +0.000 C 
ATOM     12  C   UNL     1      -7.147   2.523  -3.001  0.00  0.00    +0.000 C 
ATOM     13  C   UNL     1      -4.869   1.463  -3.008  0.00  0.00    +0.000 C 
ATOM     14  C   UNL     1      -4.668   5.556  -0.167  0.00  0.00    +0.000 C 
ENDBRANCH   4   9
ENDBRANCH   1   5
BRANCH   3  15
ATOM     15  C   UNL     1      -2.866   3.742  -5.838  0.00  0.00    +0.000 C 
ATOM     16  C   UNL     1      -2.303   2.615  -5.366  0.00  0.00    +0.000 C 
BRANCH  16  17
ATOM     17  C   UNL     1      -2.574   1.243  -5.809  0.00  0.00    +0.000 C 
ATOM     18  C   UNL     1      -1.385   0.347  -6.045  0.00  0.00    +0.000 C 
ATOM     19  C   UNL     1      -3.860   0.884  -5.998  0.00  0.00    +0.000 C 
BRANCH  19  21
ATOM     20  O   UNL     1      -5.101  -0.689  -7.353  0.00  0.00    +0.000 OA
ATOM     21  C   UNL     1      -4.332  -0.447  -6.441  0.00  0.00    +0.000 C 
BRANCH  21  22
ATOM     22  O   UNL     1      -3.740  -1.388  -5.666  0.00  0.00    +0.000 OA
ATOM     23  H   UNL     1      -2.804  -1.538  -5.920  0.00  0.00    +0.000 HD
ENDBRANCH  21  22
ENDBRANCH  19  21
ENDBRANCH  16  17
ENDBRANCH   3  15
TORSDOF 6
ENDMDL
