MODEL 1
REMARK VINA RESULT:  4444.613      0.000      0.000
REMARK INTER + INTRA:        4443.748
REMARK INTER:                4443.420
REMARK INTRA:                   0.328
REMARK CONF_INDEPENDENT:        1.193
REMARK UNBOUND:                -0.328
REMARK  Name = 
REMARK  6 active torsions:
REMARK  status: ('A' for Active; 'I' for Inactive)
REMARK    1  A    between atoms: C_1  and  C_2
REMARK    2  A    between atoms: C_15  and  C_16
REMARK    3  A    between atoms: C_20  and  C_21
REMARK    4  A    between atoms: C_21  and  C_23
REMARK    5  A    between atoms: C_23  and  N_24
REMARK    6  A    between atoms: N_27  and  C_28
REMARK                            x       y       z     vdW  Elec       q    Type
REMARK                         _______ _______ _______ _____ _____    ______ ____
ROOT
ATOM      1  C   UNL     1       0.333   4.043   0.709  0.00  0.00    +0.000 C 
ENDROOT
BRANCH   1   2
ATOM      2  N   UNL     1      -0.717   3.746  -0.160  0.00  0.00    +0.000 NA
ATOM      3  C   UNL     1      -0.593   2.687  -1.074  0.00  0.00    +0.000 C 
ATOM      4  C   UNL     1      -1.780   1.749  -0.874  0.00  0.00    +0.000 C 
ATOM      5  N   UNL     1      -2.989   2.568  -0.873  0.00  0.00    +0.000 N 
ATOM      6  C   UNL     1      -3.090   3.684   0.056  0.00  0.00    +0.000 C 
ATOM      7  C   UNL     1      -1.866   4.549  -0.185  0.00  0.00    +0.000 C 
BRANCH   5   8
ATOM      8  C   UNL     1      -3.721   2.681  -2.094  0.00  0.00    +0.000 A 
ATOM      9  C   UNL     1      -4.677   3.686  -2.129  0.00  0.00    +0.000 A 
ATOM     10  C   UNL     1      -5.750   3.586  -2.994  0.00  0.00    +0.000 A 
ATOM     11  N   UNL     1      -6.462   4.778  -3.363  0.00  0.00    +0.000 N 
ATOM     12  C   UNL     1      -5.971   5.593  -4.475  0.00  0.00    +0.000 C 
ATOM     13  C   UNL     1      -6.748   5.042  -5.664  0.00  0.00    +0.000 C 
ATOM     14  C   UNL     1      -7.878   4.214  -5.063  0.00  0.00    +0.000 C 
ATOM     15  C   UNL     1      -7.900   4.707  -3.619  0.00  0.00    +0.000 C 
ATOM     16  N   UNL     1      -5.777   2.480  -3.776  0.00  0.00    +0.000 NA
ATOM     17  C   UNL     1      -4.728   1.657  -3.935  0.00  0.00    +0.000 A 
ATOM     18  N   UNL     1      -4.414   1.053  -5.195  0.00  0.00    +0.000 N 
ATOM     19  C   UNL     1      -4.094   1.829  -6.390  0.00  0.00    +0.000 C 
ATOM     20  C   UNL     1      -4.201   0.852  -7.525  0.00  0.00    +0.000 C 
ATOM     21  C   UNL     1      -3.757  -0.436  -6.878  0.00  0.00    +0.000 C 
ATOM     22  C   UNL     1      -3.922  -0.282  -5.396  0.00  0.00    +0.000 C 
ATOM     23  N   UNL     1      -3.841   1.616  -2.910  0.00  0.00    +0.000 NA
ENDBRANCH   5   8
ENDBRANCH   1   2
BRANCH   1  24
ATOM     24  C   UNL     1      -0.001   4.991   1.823  0.00  0.00    +0.000 C 
ATOM     25  O   UNL     1      -1.086   5.569   1.802  0.00  0.00    +0.000 OA
BRANCH  24  45
ATOM     26  C   UNL     1       1.770   4.143   3.453  0.00  0.00    +0.000 C 
ATOM     27  C   UNL     1       2.284   4.870   2.371  0.00  0.00    +0.000 C 
ATOM     28  C   UNL     1       2.848   4.237   1.190  0.00  0.00    +0.000 C 
ATOM     29  C   UNL     1       4.143   3.635   1.661  0.00  0.00    +0.000 C 
ATOM     30  C   UNL     1       4.906   4.363   2.448  0.00  0.00    +0.000 C 
ATOM     31  C   UNL     1       4.237   4.962   3.769  0.00  0.00    +0.000 C 
ATOM     32  C   UNL     1       5.360   6.116   4.018  0.00  0.00    +0.000 C 
ATOM     33  C   UNL     1       5.714   6.703   2.684  0.00  0.00    +0.000 C 
ATOM     34  C   UNL     1       6.611   5.787   1.890  0.00  0.00    +0.000 C 
ATOM     35  C   UNL     1       6.538   5.967   0.570  0.00  0.00    +0.000 C 
ATOM     36  C   UNL     1       6.551   4.899  -0.402  0.00  0.00    +0.000 C 
ATOM     37  O   UNL     1       6.210   5.017  -1.609  0.00  0.00    +0.000 OA
ATOM     38  C   UNL     1       6.783   3.526   0.065  0.00  0.00    +0.000 C 
ATOM     39  C   UNL     1       6.800   3.370   1.368  0.00  0.00    +0.000 C 
ATOM     40  C   UNL     1       6.383   4.370   2.339  0.00  0.00    +0.000 C 
ATOM     41  C   UNL     1       7.084   4.069   3.633  0.00  0.00    +0.000 C 
ATOM     42  C   UNL     1       3.271   6.046   2.881  0.00  0.00    +0.000 C 
ATOM     43  C   UNL     1       2.286   6.336   4.131  0.00  0.00    +0.000 C 
ATOM     44  C   UNL     1       0.927   6.337   3.525  0.00  0.00    +0.000 C 
ATOM     45  C   UNL     1       1.224   6.038   1.943  0.00  0.00    +0.000 C 
ENDBRANCH  24  45
ENDBRANCH   1  24
TORSDOF 4
ENDMDL
