REMARK  Name = 
REMARK  39 active torsions:
REMARK  status: ('A' for Active; 'I' for Inactive)
REMARK    1  A    between atoms: CA_2  and  C_3
REMARK    2  A    between atoms: N_5  and  CA_6
REMARK    3  A    between atoms: CA_6  and  C_7
REMARK    4  A    between atoms: CA_6  and  CB_78
REMARK    5  A    between atoms: N_8  and  CA_9
REMARK    6  A    between atoms: CA_9  and  C_10
REMARK    7  A    between atoms: CA_9  and  CB_67
REMARK    8  A    between atoms: N_11  and  C_12
REMARK    9  A    between atoms: C_12  and  C_13
REMARK   10  A    between atoms: C_12  and  C_64
REMARK   11  A    between atoms: N_14  and  C_15
REMARK   12  A    between atoms: C_15  and  C_16
REMARK   13  A    between atoms: C_15  and  C_55
REMARK   14  A    between atoms: N_17  and  C_18
REMARK   15  A    between atoms: C_18  and  C_19
REMARK   16  A    between atoms: C_18  and  C_50
REMARK   17  A    between atoms: N_21  and  C_22
REMARK   18  A    between atoms: C_22  and  C_23
REMARK   19  A    between atoms: C_22  and  C_46
REMARK   20  A    between atoms: N_24  and  C_25
REMARK   21  A    between atoms: C_25  and  C_26
REMARK   22  A    between atoms: C_25  and  C_38
REMARK   23  A    between atoms: C_28  and  C_32
REMARK   24  A    between atoms: N_34  and  C_35
REMARK   25  A    between atoms: C_35  and  C_36
REMARK   26  A    between atoms: C_38  and  C_39
REMARK   27  A    between atoms: C_39  and  C_40
REMARK   28  A    between atoms: C_40  and  N_41
REMARK   29  A    between atoms: C_46  and  C_47
REMARK   30  A    between atoms: C_47  and  C_48
REMARK   31  A    between atoms: C_47  and  C_49
REMARK   32  A    between atoms: C_50  and  C_51
REMARK   33  A    between atoms: C_51  and  C_52
REMARK   34  A    between atoms: C_51  and  C_53
REMARK   35  A    between atoms: C_55  and  C_56
REMARK   36  A    between atoms: C_59  and  O_62
REMARK   37  A    between atoms: C_64  and  O_65
REMARK   38  A    between atoms: CB_67  and  CG_68
REMARK   39  A    between atoms: CB_78  and  CG_79
REMARK                            x       y       z     vdW  Elec       q    Type
REMARK                         _______ _______ _______ _____ _____    ______ ____
ROOT
ATOM      1  C   UNK A   4      -0.679  -0.573   0.000  0.00  0.00    +0.000 C 
ENDROOT
BRANCH   1   3
ATOM      2  C   UNK A   4      -2.105  -0.573   0.000  0.00  0.00    +0.000 C 
ATOM      3  N   UNK A   4      -1.392  -0.158   0.000  0.00  0.00    +0.000 N 
ATOM      4  O   UNK A   4      -2.105  -1.398   0.000  0.00  0.00    +0.000 OA
ATOM      5  H   UNK A   4      -1.392   0.826   0.000  0.00  0.00    +0.000 HD
BRANCH   2   6
ATOM      6  C   UNK A   4      -2.823  -0.158   0.000  0.00  0.00    +0.000 C 
BRANCH   6   8
ATOM      7  C   TRP A   3      -4.250  -0.158   0.000  0.00  0.00    +0.000 C 
ATOM      8  N   UNK A   4      -3.537  -0.573   0.000  0.00  0.00    +0.000 N 
ATOM      9  O   TRP A   3      -4.250   0.666   0.000  0.00  0.00    +0.000 OA
ATOM     10  H   UNK A   4      -3.537  -1.558   0.000  0.00  0.00    +0.000 HD
BRANCH   7  11
ATOM     11  CA  TRP A   3      -4.963  -0.573   0.000  0.00  0.00    +0.000 C 
BRANCH  11  13
ATOM     12  C   HIS A   2      -6.390  -0.573   0.000  0.00  0.00    +0.000 C 
ATOM     13  N   TRP A   3      -5.677  -0.158   0.000  0.00  0.00    +0.000 N 
ATOM     14  O   HIS A   2      -6.390  -1.398   0.000  0.00  0.00    +0.000 OA
ATOM     15  H   TRP A   3      -5.677   0.826   0.000  0.00  0.00    +0.000 HD
BRANCH  12  16
ATOM     16  CA  HIS A   2      -7.104  -0.158   0.000  0.00  0.00    +0.000 C 
BRANCH  16  19
ATOM     17  C   GLN A   1      -7.822  -1.398   0.000  0.00  0.00    +0.000 C 
ATOM     18  O   GLN A   1      -7.104  -1.808   0.000  0.00  0.00    +0.000 OA
ATOM     19  N   HIS A   2      -7.822  -0.573   0.000  0.00  0.00    +0.000 N 
ATOM     20  H   HIS A   2      -8.674  -0.081   0.000  0.00  0.00    +0.000 HD
BRANCH  17  22
ATOM     21  N   GLN A   1      -8.622  -2.628   0.000  0.00  0.00    +0.000 N 
ATOM     22  CA  GLN A   1      -8.535  -1.808   0.000  0.00  0.00    +0.000 C 
ATOM     23  CB  GLN A   1      -9.287  -1.473   0.000  0.00  0.00    +0.000 C 
ATOM     24  CG  GLN A   1      -9.839  -2.086   0.000  0.00  0.00    +0.000 C 
ATOM     25  CD  GLN A   1      -9.425  -2.800   0.000  0.00  0.00    +0.000 C 
ATOM     26  OE1 GLN A   1      -9.764  -3.552   0.000  0.00  0.00    +0.000 OA
ATOM     27  H   GLN A   1      -7.890  -3.286   0.000  0.00  0.00    +0.000 HD
ENDBRANCH  17  22
ENDBRANCH  16  19
BRANCH  16  28
ATOM     28  CB  HIS A   2      -7.104   0.666   0.000  0.00  0.00    +0.000 C 
BRANCH  28  29
ATOM     29  CG  HIS A   2      -7.822   1.077   0.000  0.00  0.00    +0.000 A 
ATOM     30  CD2 HIS A   2      -7.908   1.896   0.000  0.00  0.00    +0.000 A 
ATOM     31  NE2 HIS A   2      -8.711   2.068   0.000  0.00  0.00    +0.000 N 
ATOM     32  CE1 HIS A   2      -9.126   1.355   0.000  0.00  0.00    +0.000 A 
ATOM     33  ND1 HIS A   2      -8.573   0.742   0.000  0.00  0.00    +0.000 NA
ATOM     34  HE2 HIS A   2      -9.109   2.968   0.000  0.00  0.00    +0.000 HD
ENDBRANCH  28  29
ENDBRANCH  16  28
ENDBRANCH  12  16
ENDBRANCH  11  13
BRANCH  11  35
ATOM     35  CB  TRP A   3      -4.963  -1.398   0.000  0.00  0.00    +0.000 C 
BRANCH  35  36
ATOM     36  CG  TRP A   3      -4.472  -2.077   0.000  0.00  0.00    +0.000 A 
ATOM     37  CD1 TRP A   3      -4.893  -2.786   0.000  0.00  0.00    +0.000 A 
ATOM     38  NE1 TRP A   3      -4.348  -3.403   0.000  0.00  0.00    +0.000 N 
ATOM     39  CE2 TRP A   3      -3.591  -3.076   0.000  0.00  0.00    +0.000 A 
ATOM     40  CD2 TRP A   3      -3.666  -2.257   0.000  0.00  0.00    +0.000 A 
ATOM     41  CE3 TRP A   3      -2.996  -1.779   0.000  0.00  0.00    +0.000 A 
ATOM     42  CZ3 TRP A   3      -2.246  -2.123   0.000  0.00  0.00    +0.000 A 
ATOM     43  CH2 TRP A   3      -2.167  -2.945   0.000  0.00  0.00    +0.000 A 
ATOM     44  CZ2 TRP A   3      -2.841  -3.420   0.000  0.00  0.00    +0.000 A 
ATOM     45  HE1 TRP A   3      -4.564  -4.364   0.000  0.00  0.00    +0.000 HD
ENDBRANCH  35  36
ENDBRANCH  11  35
ENDBRANCH   7  11
ENDBRANCH   6   8
BRANCH   6  46
ATOM     46  C   UNK A   4      -2.823   0.666   0.000  0.00  0.00    +0.000 C 
BRANCH  46  47
ATOM     47  O   UNK A   4      -2.105   1.077   0.000  0.00  0.00    +0.000 OA
ATOM     48  H   UNK A   4      -1.267   0.588   0.000  0.00  0.00    +0.000 HD
ENDBRANCH  46  47
ENDBRANCH   6  46
ENDBRANCH   2   6
ENDBRANCH   1   3
BRANCH   1  49
ATOM     49  C   UNK A   4       0.035  -0.158   0.000  0.00  0.00    +0.000 C 
ATOM     50  N   UNK A   4       0.748  -0.573   0.000  0.00  0.00    +0.000 N 
ATOM     51  O   UNK A   4       0.035   0.666   0.000  0.00  0.00    +0.000 OA
ATOM     52  H   UNK A   4       0.748  -1.558   0.000  0.00  0.00    +0.000 HD
BRANCH  50  53
ATOM     53  C   UNK A   4       1.462  -0.158   0.000  0.00  0.00    +0.000 C 
BRANCH  53  54
ATOM     54  C   UNK A   4       2.175  -0.573   0.000  0.00  0.00    +0.000 C 
ATOM     55  O   UNK A   4       2.175  -1.398   0.000  0.00  0.00    +0.000 OA
ATOM     56  N   UNK A   4       2.893  -0.158   0.000  0.00  0.00    +0.000 N 
ATOM     57  H   UNK A   4       2.894   0.826   0.000  0.00  0.00    +0.000 HD
BRANCH  56  58
ATOM     58  C   UNK A   4       3.606  -0.573   0.000  0.00  0.00    +0.000 C 
BRANCH  58  59
ATOM     59  C   UNK A   4       4.320  -0.158   0.000  0.00  0.00    +0.000 C 
ATOM     60  N   UNK A   4       5.033  -0.573   0.000  0.00  0.00    +0.000 N 
ATOM     61  O   UNK A   4       4.320   0.667   0.000  0.00  0.00    +0.000 OA
ATOM     62  H   UNK A   4       5.033  -1.558   0.000  0.00  0.00    +0.000 HD
BRANCH  60  63
ATOM     63  C   UNK A   4       5.746  -0.158   0.000  0.00  0.00    +0.000 C 
BRANCH  63  64
ATOM     64  C   UNK A   4       6.460  -0.573   0.000  0.00  0.00    +0.000 C 
ATOM     65  N   UNK A   4       7.178  -0.158   0.000  0.00  0.00    +0.000 N 
ATOM     66  C   UNK A   4       7.930  -0.493   0.000  0.00  0.00    +0.000 C 
ATOM     67  C   UNK A   4       8.482   0.120   0.000  0.00  0.00    +0.000 C 
ATOM     68  C   UNK A   4       8.068   0.833   0.000  0.00  0.00    +0.000 C 
ATOM     69  C   UNK A   4       7.260   0.661   0.000  0.00  0.00    +0.000 C 
ATOM     70  O   UNK A   4       6.460  -1.398   0.000  0.00  0.00    +0.000 OA
BRANCH  66  71
ATOM     71  C   UNK A   4       8.102  -1.301   0.000  0.00  0.00    +0.000 C 
ATOM     72  O   UNK A   4       7.489  -1.853   0.000  0.00  0.00    +0.000 OA
ATOM     73  N   UNK A   4       8.887  -1.556   0.000  0.00  0.00    +0.000 N 
ATOM     74  H   UNK A   4       9.620  -0.899   0.000  0.00  0.00    +0.000 HD
BRANCH  73  75
ATOM     75  C   UNK A   4       9.054  -2.364   0.000  0.00  0.00    +0.000 C 
ATOM     76  C   UNK A   4       9.839  -2.619   0.000  0.00  0.00    +0.000 C 
ENDBRANCH  73  75
ENDBRANCH  66  71
ENDBRANCH  63  64
BRANCH  63  77
ATOM     77  C   UNK A   4       5.746   0.667   0.000  0.00  0.00    +0.000 C 
BRANCH  77  78
ATOM     78  C   UNK A   4       6.460   1.077   0.000  0.00  0.00    +0.000 C 
BRANCH  78  79
ATOM     79  C   UNK A   4       6.460   1.902   0.000  0.00  0.00    +0.000 C 
BRANCH  79  80
ATOM     80  N   UNK A   4       7.178   2.317   0.000  0.00  0.00    +0.000 N 
ATOM     81  C   UNK A   4       7.178   3.141   0.000  0.00  0.00    +0.000 C 
ATOM     82  N   UNK A   4       6.460   3.552   0.000  0.00  0.00    +0.000 NA
ATOM     83  N   UNK A   4       7.891   3.552   0.000  0.00  0.00    +0.000 N 
ATOM     84  H   UNK A   4       8.030   1.824   0.000  0.00  0.00    +0.000 HD
ATOM     85  H   UNK A   4       6.456   4.536   0.000  0.00  0.00    +0.000 HD
ATOM     86  H   UNK A   4       8.743   3.058   0.000  0.00  0.00    +0.000 HD
ATOM     87  H   UNK A   4       7.893   4.536   0.000  0.00  0.00    +0.000 HD
ENDBRANCH  79  80
ENDBRANCH  78  79
ENDBRANCH  77  78
ENDBRANCH  63  77
ENDBRANCH  60  63
ENDBRANCH  58  59
BRANCH  58  88
ATOM     88  C   UNK A   4       3.606  -1.398   0.000  0.00  0.00    +0.000 C 
BRANCH  88  89
ATOM     89  C   UNK A   4       4.320  -1.808   0.000  0.00  0.00    +0.000 C 
ATOM     90  C   UNK A   4       4.320  -2.633   0.000  0.00  0.00    +0.000 C 
ATOM     91  C   UNK A   4       5.033  -1.398   0.000  0.00  0.00    +0.000 C 
ENDBRANCH  88  89
ENDBRANCH  58  88
ENDBRANCH  56  58
ENDBRANCH  53  54
BRANCH  53  92
ATOM     92  C   UNK A   4       1.462   0.666   0.000  0.00  0.00    +0.000 C 
BRANCH  92  93
ATOM     93  C   UNK A   4       2.175   1.077   0.000  0.00  0.00    +0.000 C 
ATOM     94  C   UNK A   4       2.175   1.902   0.000  0.00  0.00    +0.000 C 
ATOM     95  C   UNK A   4       2.893   0.667   0.000  0.00  0.00    +0.000 C 
ENDBRANCH  92  93
ENDBRANCH  53  92
ENDBRANCH  50  53
ENDBRANCH   1  49
BRANCH   1  96
ATOM     96  C   UNK A   4      -0.679  -1.398   0.000  0.00  0.00    +0.000 C 
BRANCH  96  97
ATOM     97  C   UNK A   4       0.035  -1.808   0.000  0.00  0.00    +0.000 A 
ATOM     98  C   UNK A   4       0.035  -2.633   0.000  0.00  0.00    +0.000 A 
ATOM     99  C   UNK A   4       0.748  -3.043   0.000  0.00  0.00    +0.000 A 
ATOM    100  C   UNK A   4       1.462  -2.633   0.000  0.00  0.00    +0.000 A 
ATOM    101  C   UNK A   4       1.462  -1.808   0.000  0.00  0.00    +0.000 A 
ATOM    102  C   UNK A   4       0.748  -1.398   0.000  0.00  0.00    +0.000 A 
BRANCH 100 103
ATOM    103  O   UNK A   4       2.175  -3.043   0.000  0.00  0.00    +0.000 OA
ATOM    104  H   UNK A   4       2.177  -3.980   0.000  0.00  0.00    +0.000 HD
ENDBRANCH 100 103
ENDBRANCH  96  97
ENDBRANCH   1  96
TORSDOF 34
