REMARK  Name = 644
REMARK  35 active torsions:
REMARK  status: ('A' for Active; 'I' for Inactive)
REMARK    1  A    between atoms: O_12  and  C_73
REMARK    2  A    between atoms: O_13  and  C_85
REMARK    3  A    between atoms: N_15  and  C_36
REMARK    4  A    between atoms: N_16  and  C_44
REMARK    5  A    between atoms: N_17  and  C_40
REMARK    6  A    between atoms: N_18  and  C_43
REMARK    7  A    between atoms: N_21  and  CA_54
REMARK    8  A    between atoms: N_22  and  C_52
REMARK    9  A    between atoms: N_23  and  CA_55
REMARK   10  A    between atoms: N_24  and  C_67
REMARK   11  A    between atoms: N_25  and  C_63
REMARK   12  A    between atoms: C_31  and  C_37
REMARK   13  A    between atoms: C_35  and  C_36
REMARK   14  A    between atoms: C_36  and  C_38
REMARK   15  A    between atoms: C_38  and  C_39
REMARK   16  A    between atoms: C_39  and  C_43
REMARK   17  A    between atoms: C_40  and  C_41
REMARK   18  A    between atoms: C_40  and  C_42
REMARK   19  A    between atoms: C_42  and  C_45
REMARK   20  A    between atoms: C_44  and  C_48
REMARK   21  A    between atoms: C_45  and  C_46
REMARK   22  A    between atoms: C_45  and  C_47
REMARK   23  A    between atoms: C_49  and  C_52
REMARK   24  A    between atoms: C_50  and  C_57
REMARK   25  A    between atoms: CA_54  and  CB_60
REMARK   26  A    between atoms: CA_54  and  C_61
REMARK   27  A    between atoms: CA_55  and  CB_58
REMARK   28  A    between atoms: CA_55  and  C_64
REMARK   29  A    between atoms: CB_58  and  CG_62
REMARK   30  A    between atoms: CB_60  and  CG_68
REMARK   31  A    between atoms: C_63  and  C_65
REMARK   32  A    between atoms: C_63  and  C_69
REMARK   33  A    between atoms: C_67  and  C_72
REMARK   34  A    between atoms: C_67  and  C_73
REMARK   35  A    between atoms: C_69  and  C_75
REMARK                            x       y       z     vdW  Elec       q    Type
REMARK                         _______ _______ _______ _____ _____    ______ ____
ROOT
ATOM      1  C   UNK A   4       8.998   1.660   0.000  0.00  0.00    +0.000 C 
ENDROOT
BRANCH   1   4
ATOM      2  O   UNK A   4      10.356   1.216   0.000  0.00  0.00    +0.000 OA
ATOM      3  N   UNK A   4       9.293   0.262   0.000  0.00  0.00    +0.000 N 
ATOM      4  C   UNK A   4       9.549   1.046   0.000  0.00  0.00    +0.000 C 
ATOM      5  H   UNK A   4       8.329   0.059   0.000  0.00  0.00    +0.000 HD
BRANCH   3   6
ATOM      6  C   UNK A   4       9.844  -0.352   0.000  0.00  0.00    +0.000 C 
BRANCH   6   9
ATOM      7  O   UNK A   4       8.780  -1.306   0.000  0.00  0.00    +0.000 OA
ATOM      8  N   UNK A   4      10.138  -1.750   0.000  0.00  0.00    +0.000 N 
ATOM      9  C   UNK A   4       9.587  -1.136   0.000  0.00  0.00    +0.000 C 
ATOM     10  H   UNK A   4      11.102  -1.547   0.000  0.00  0.00    +0.000 HD
BRANCH   8  11
ATOM     11  C   UNK A   4       9.882  -2.534   0.000  0.00  0.00    +0.000 C 
BRANCH  11  14
ATOM     12  O   UNK A   4      10.177  -3.933   0.000  0.00  0.00    +0.000 OA
ATOM     13  N   UNK A   4      11.240  -2.978   0.000  0.00  0.00    +0.000 N 
ATOM     14  C   UNK A   4      10.433  -3.149   0.000  0.00  0.00    +0.000 C 
ATOM     15  H   UNK A   4      11.546  -2.043   0.000  0.00  0.00    +0.000 HD
BRANCH  13  16
ATOM     16  C   UNK A   4      11.791  -3.592   0.000  0.00  0.00    +0.000 C 
BRANCH  16  23
ATOM     17  O   UNK A   4      12.855  -2.638   0.000  0.00  0.00    +0.000 OA
ATOM     18  N   UNK A   4      13.149  -4.037   0.000  0.00  0.00    +0.000 N 
ATOM     19  C   UNK A   4      13.970  -3.952   0.000  0.00  0.00    +0.000 C 
ATOM     20  C   UNK A   4      14.304  -4.706   0.000  0.00  0.00    +0.000 C 
ATOM     21  C   UNK A   4      13.690  -5.257   0.000  0.00  0.00    +0.000 C 
ATOM     22  C   UNK A   4      12.977  -4.843   0.000  0.00  0.00    +0.000 C 
ATOM     23  C   UNK A   4      12.598  -3.422   0.000  0.00  0.00    +0.000 C 
BRANCH  19  26
ATOM     24  O   UNK A   4      13.973  -2.523   0.000  0.00  0.00    +0.000 OA
ATOM     25  N   UNK A   4      15.209  -3.239   0.000  0.00  0.00    +0.000 N 
ATOM     26  C   UNK A   4      14.384  -3.238   0.000  0.00  0.00    +0.000 C 
ATOM     27  H   UNK A   4      15.700  -4.093   0.000  0.00  0.00    +0.000 HD
BRANCH  25  28
ATOM     28  C   UNK A   4      15.623  -2.526   0.000  0.00  0.00    +0.000 C 
BRANCH  28  31
ATOM     29  O   UNK A   4      16.859  -3.242   0.000  0.00  0.00    +0.000 OA
ATOM     30  N   UNK A   4      16.861  -1.813   0.000  0.00  0.00    +0.000 N 
ATOM     31  C   UNK A   4      16.448  -2.527   0.000  0.00  0.00    +0.000 C 
ATOM     32  H   UNK A   4      17.846  -1.815   0.000  0.00  0.00    +0.000 HD
ATOM     33  H   UNK A   4      16.371  -0.960   0.000  0.00  0.00    +0.000 HD
ENDBRANCH  28  31
ENDBRANCH  25  28
ENDBRANCH  19  26
ENDBRANCH  16  23
BRANCH  16  34
ATOM     34  C   UNK A   4      11.535  -4.377   0.000  0.00  0.00    +0.000 C 
BRANCH  34  35
ATOM     35  C   UNK A   4      12.086  -4.991   0.000  0.00  0.00    +0.000 C 
BRANCH  35  36
ATOM     36  C   UNK A   4      11.830  -5.775   0.000  0.00  0.00    +0.000 C 
BRANCH  36  37
ATOM     37  N   UNK A   4      12.381  -6.389   0.000  0.00  0.00    +0.000 NA
ATOM     38  N   UNK A   4      12.675  -7.787   0.000  0.00  0.00    +0.000 N 
ATOM     39  N   UNK A   4      11.317  -7.343   0.000  0.00  0.00    +0.000 N 
ATOM     40  C   UNK A   4      12.124  -7.173   0.000  0.00  0.00    +0.000 C 
ATOM     41  H   UNK A   4      12.369  -8.723   0.000  0.00  0.00    +0.000 HD
ATOM     42  H   UNK A   4      13.639  -7.584   0.000  0.00  0.00    +0.000 HD
ATOM     43  H   UNK A   4      10.659  -6.611   0.000  0.00  0.00    +0.000 HD
ATOM     44  H   UNK A   4      11.011  -8.279   0.000  0.00  0.00    +0.000 HD
ENDBRANCH  36  37
ENDBRANCH  35  36
ENDBRANCH  34  35
ENDBRANCH  16  34
ENDBRANCH  13  16
ENDBRANCH  11  14
BRANCH  11  45
ATOM     45  C   UNK A   4       9.075  -2.705   0.000  0.00  0.00    +0.000 C 
BRANCH  45  46
ATOM     46  C   UNK A   4       8.819  -3.489   0.000  0.00  0.00    +0.000 C 
ATOM     47  C   UNK A   4       8.011  -3.659   0.000  0.00  0.00    +0.000 C 
ATOM     48  C   UNK A   4       9.369  -4.103   0.000  0.00  0.00    +0.000 C 
ENDBRANCH  45  46
ENDBRANCH  11  45
ENDBRANCH   8  11
ENDBRANCH   6   9
ENDBRANCH   3   6
ENDBRANCH   1   4
BRANCH   1  50
ATOM     49  O   UNK A   4       7.896   2.888   0.000  0.00  0.00    +0.000 OA
ATOM     50  N   UNK A   4       8.191   1.490   0.000  0.00  0.00    +0.000 N 
ATOM     51  C   UNK A   4       7.640   2.104   0.000  0.00  0.00    +0.000 C 
ATOM     52  H   UNK A   4       7.885   0.554   0.000  0.00  0.00    +0.000 HD
BRANCH  51  53
ATOM     53  C   UNK A   4       6.832   1.934   0.000  0.00  0.00    +0.000 C 
BRANCH  53  55
ATOM     54  O   TRP A   3       5.218   1.594   0.000  0.00  0.00    +0.000 OA
ATOM     55  N   UNK A   4       6.282   2.548   0.000  0.00  0.00    +0.000 N 
ATOM     56  C   TRP A   3       5.474   2.378   0.000  0.00  0.00    +0.000 C 
ATOM     57  H   UNK A   4       6.587   3.484   0.000  0.00  0.00    +0.000 HD
BRANCH  56  58
ATOM     58  CA  TRP A   3       4.923   2.992   0.000  0.00  0.00    +0.000 C 
BRANCH  58  60
ATOM     59  O   HIS A   2       3.821   4.220   0.000  0.00  0.00    +0.000 OA
ATOM     60  N   TRP A   3       5.179   3.776   0.000  0.00  0.00    +0.000 N 
ATOM     61  C   HIS A   2       4.629   4.390   0.000  0.00  0.00    +0.000 C 
ATOM     62  H   TRP A   3       6.143   3.979   0.000  0.00  0.00    +0.000 HD
BRANCH  61  63
ATOM     63  CA  HIS A   2       4.885   5.174   0.000  0.00  0.00    +0.000 C 
BRANCH  63  65
ATOM     64  O   UNK A   1       3.270   4.834   0.000  0.00  0.00    +0.000 OA
ATOM     65  N   HIS A   2       4.334   5.788   0.000  0.00  0.00    +0.000 N 
ATOM     66  C   UNK A   1       3.527   5.618   0.000  0.00  0.00    +0.000 C 
ATOM     67  H   HIS A   2       4.640   6.724   0.000  0.00  0.00    +0.000 HD
BRANCH  66  70
ATOM     68  O   UNK A   1       2.350   8.274   0.000  0.00  0.00    +0.000 OA
ATOM     69  N   UNK A   1       3.148   7.039   0.000  0.00  0.00    +0.000 N 
ATOM     70  C   UNK A   1       2.976   6.232   0.000  0.00  0.00    +0.000 C 
ATOM     71  C   UNK A   1       2.155   6.148   0.000  0.00  0.00    +0.000 C 
ATOM     72  C   UNK A   1       1.821   6.902   0.000  0.00  0.00    +0.000 C 
ATOM     73  C   UNK A   1       2.435   7.453   0.000  0.00  0.00    +0.000 C 
ATOM     74  H   UNK A   1       4.049   7.438   0.000  0.00  0.00    +0.000 HD
ENDBRANCH  66  70
ENDBRANCH  63  65
BRANCH  63  75
ATOM     75  CB  HIS A   2       5.692   5.345   0.000  0.00  0.00    +0.000 C 
BRANCH  75  78
ATOM     76  ND1 HIS A   2       6.734   6.382   0.000  0.00  0.00    +0.000 N 
ATOM     77  NE2 HIS A   2       5.951   7.464   0.000  0.00  0.00    +0.000 NA
ATOM     78  CG  HIS A   2       5.948   6.129   0.000  0.00  0.00    +0.000 A 
ATOM     79  CD2 HIS A   2       5.465   6.797   0.000  0.00  0.00    +0.000 A 
ATOM     80  CE1 HIS A   2       6.735   7.207   0.000  0.00  0.00    +0.000 A 
ATOM     81  HD1 HIS A   2       7.529   5.802   0.000  0.00  0.00    +0.000 HD
ENDBRANCH  75  78
ENDBRANCH  63  75
ENDBRANCH  61  63
ENDBRANCH  58  60
BRANCH  58  82
ATOM     82  CB  TRP A   3       4.116   2.822   0.000  0.00  0.00    +0.000 C 
BRANCH  82  84
ATOM     83  NE1 TRP A   3       3.860   0.710   0.000  0.00  0.00    +0.000 N 
ATOM     84  CG  TRP A   3       3.860   2.038   0.000  0.00  0.00    +0.000 A 
ATOM     85  CD2 TRP A   3       3.079   1.786   0.000  0.00  0.00    +0.000 A 
ATOM     86  CE2 TRP A   3       3.079   0.961   0.000  0.00  0.00    +0.000 A 
ATOM     87  CD1 TRP A   3       4.341   1.374   0.000  0.00  0.00    +0.000 A 
ATOM     88  CE3 TRP A   3       2.365   2.199   0.000  0.00  0.00    +0.000 A 
ATOM     89  CZ2 TRP A   3       2.365   0.549   0.000  0.00  0.00    +0.000 A 
ATOM     90  CZ3 TRP A   3       1.650   1.786   0.000  0.00  0.00    +0.000 A 
ATOM     91  CH2 TRP A   3       1.650   0.961   0.000  0.00  0.00    +0.000 A 
ATOM     92  HE1 TRP A   3       4.166  -0.226   0.000  0.00  0.00    +0.000 HD
ENDBRANCH  82  84
ENDBRANCH  58  82
ENDBRANCH  56  58
ENDBRANCH  53  55
BRANCH  53  93
ATOM     93  C   UNK A   4       6.576   1.150   0.000  0.00  0.00    +0.000 C 
BRANCH  93  94
ATOM     94  O   UNK A   4       7.127   0.536   0.000  0.00  0.00    +0.000 OA
ATOM     95  H   UNK A   4       6.826  -0.386   0.000  0.00  0.00    +0.000 HD
ENDBRANCH  93  94
ENDBRANCH  53  93
ENDBRANCH  51  53
ENDBRANCH   1  50
BRANCH   1  96
ATOM     96  C   UNK A   4       9.254   2.444   0.000  0.00  0.00    +0.000 C 
BRANCH  96  97
ATOM     97  C   UNK A   4      10.062   2.615   0.000  0.00  0.00    +0.000 A 
ATOM     98  C   UNK A   4      10.318   3.399   0.000  0.00  0.00    +0.000 A 
ATOM     99  C   UNK A   4      10.613   2.001   0.000  0.00  0.00    +0.000 A 
ATOM    100  C   UNK A   4      11.125   3.569   0.000  0.00  0.00    +0.000 A 
ATOM    101  C   UNK A   4      11.420   2.171   0.000  0.00  0.00    +0.000 A 
ATOM    102  C   UNK A   4      11.676   2.955   0.000  0.00  0.00    +0.000 A 
BRANCH 102 103
ATOM    103  O   UNK A   4      12.483   3.125   0.000  0.00  0.00    +0.000 OA
ATOM    104  H   UNK A   4      13.109   2.427   0.000  0.00  0.00    +0.000 HD
ENDBRANCH 102 103
ENDBRANCH  96  97
ENDBRANCH   1  96
TORSDOF 33
