REMARK  Name = 
REMARK  20 active torsions:
REMARK  status: ('A' for Active; 'I' for Inactive)
REMARK    1  A    between atoms: C_1  and  C_2
REMARK    2  A    between atoms: C_6  and  C_7
REMARK    3  A    between atoms: C_8  and  O_9
REMARK    4  A    between atoms: O_9  and  C_10
REMARK    5  A    between atoms: C_10  and  C_11
REMARK    6  A    between atoms: N_13  and  C_14
REMARK    7  A    between atoms: C_14  and  C_15
REMARK    8  A    between atoms: C_14  and  C_22
REMARK    9  A    between atoms: C_15  and  C_16
REMARK   10  A    between atoms: C_22  and  O_23
REMARK   11  A    between atoms: C_22  and  C_24
REMARK   12  A    between atoms: C_24  and  C_25
REMARK   13  A    between atoms: C_25  and  C_26
REMARK   14  A    between atoms: C_25  and  N_33
REMARK   15  A    between atoms: C_26  and  C_27
REMARK   16  A    between atoms: C_34  and  C_36
REMARK   17  A    between atoms: C_36  and  C_37
REMARK   18  A    between atoms: C_36  and  N_40
REMARK   19  A    between atoms: C_37  and  C_38
REMARK   20  A    between atoms: C_37  and  C_39
REMARK                            x       y       z     vdW  Elec       q    Type
REMARK                         _______ _______ _______ _____ _____    ______ ____
ROOT
ATOM      1  C   UNL     1      -0.191   0.896  -1.532  0.00  0.00    +0.000 C 
ENDROOT
BRANCH   1   2
ATOM      2  O   UNL     1       0.694   0.616  -2.718  0.00  0.00    +0.000 OA
ATOM      3  H   UNL     1       1.521   0.211  -2.415  0.00  0.00    +0.000 HD
ENDBRANCH   1   2
BRANCH   1   4
ATOM      4  C   UNL     1       0.979   1.692  -0.538  0.00  0.00    +0.000 C 
BRANCH   4   7
ATOM      5  C   UNL     1       3.055   0.383   0.184  0.00  0.00    +0.000 C 
ATOM      6  O   UNL     1       3.719   0.880  -0.776  0.00  0.00    +0.000 OA
ATOM      7  N   UNL     1       1.672   0.425   0.045  0.00  0.00    +0.000 N 
ATOM      8  H   UNL     1       1.129  -0.350   0.316  0.00  0.00    +0.000 HD
BRANCH   5   9
ATOM      9  C   UNL     1       3.680  -0.307   1.342  0.00  0.00    +0.000 C 
BRANCH   9  10
ATOM     10  O   UNL     1       5.035   0.055   1.242  0.00  0.00    +0.000 OA
BRANCH  10  18
ATOM     11  C   UNL     1       5.674   0.799   3.505  0.00  0.00    +0.000 C 
ATOM     12  C   UNL     1       6.162   0.050   3.240  0.00  0.00    +0.000 A 
ATOM     13  C   UNL     1       6.979  -0.651   4.117  0.00  0.00    +0.000 A 
ATOM     14  C   UNL     1       7.726  -1.750   3.708  0.00  0.00    +0.000 A 
ATOM     15  C   UNL     1       7.478  -2.347   2.492  0.00  0.00    +0.000 A 
ATOM     16  C   UNL     1       6.458  -1.830   1.715  0.00  0.00    +0.000 A 
ATOM     17  C   UNL     1       5.916  -2.581   0.537  0.00  0.00    +0.000 C 
ATOM     18  C   UNL     1       6.051  -0.527   1.981  0.00  0.00    +0.000 A 
ENDBRANCH  10  18
ENDBRANCH   9  10
ENDBRANCH   5   9
ENDBRANCH   4   7
BRANCH   4  19
ATOM     19  C   UNL     1       2.126   1.923  -1.668  0.00  0.00    +0.000 C 
BRANCH  19  20
ATOM     20  C   UNL     1       2.005   3.285  -2.162  0.00  0.00    +0.000 A 
ATOM     21  C   UNL     1       2.845   3.626  -3.183  0.00  0.00    +0.000 A 
ATOM     22  C   UNL     1       2.737   4.872  -3.773  0.00  0.00    +0.000 A 
ATOM     23  C   UNL     1       1.925   5.793  -3.124  0.00  0.00    +0.000 A 
ATOM     24  C   UNL     1       1.243   5.483  -1.958  0.00  0.00    +0.000 A 
ATOM     25  C   UNL     1       1.159   4.170  -1.561  0.00  0.00    +0.000 A 
ENDBRANCH  19  20
ENDBRANCH   4  19
ENDBRANCH   1   4
BRANCH   1  26
ATOM     26  C   UNL     1       0.041  -0.613  -0.952  0.00  0.00    +0.000 C 
BRANCH  26  27
ATOM     27  C   UNL     1      -1.454  -1.263  -0.976  0.00  0.00    +0.000 C 
BRANCH  27  28
ATOM     28  N   UNL     1      -2.199   0.061  -0.558  0.00  0.00    +0.000 N 
ATOM     29  C   UNL     1      -3.337  -0.330   0.207  0.00  0.00    +0.000 C 
ATOM     30  O   UNL     1      -4.233  -0.870  -0.356  0.00  0.00    +0.000 OA
ATOM     31  H   UNL     1      -1.930   0.981  -0.783  0.00  0.00    +0.000 HD
BRANCH  29  32
ATOM     32  C   UNL     1      -3.406   0.190   1.726  0.00  0.00    +0.000 C 
BRANCH  32  33
ATOM     33  N   UNL     1      -4.983   0.202   1.813  0.00  0.00    +0.000 N 
ATOM     34  C   UNL     1      -5.345   0.302   3.235  0.00  0.00    +0.000 C 
ATOM     35  C   UNL     1      -6.787  -0.046   3.428  0.00  0.00    +0.000 C 
ATOM     36  C   UNL     1      -7.543   0.313   2.175  0.00  0.00    +0.000 C 
ATOM     37  N   UNL     1      -6.953   1.465   1.493  0.00  0.00    +0.000 N 
ATOM     38  C   UNL     1      -5.608   1.244   1.046  0.00  0.00    +0.000 C 
ATOM     39  O   UNL     1      -5.023   1.952   0.206  0.00  0.00    +0.000 OA
ATOM     40  H   UNL     1      -7.434   2.312   1.354  0.00  0.00    +0.000 HD
ENDBRANCH  32  33
BRANCH  32  41
ATOM     41  C   UNL     1      -3.305  -1.323   2.359  0.00  0.00    +0.000 C 
ATOM     42  C   UNL     1      -3.213  -1.209   3.825  0.00  0.00    +0.000 C 
ATOM     43  C   UNL     1      -4.329  -2.174   1.776  0.00  0.00    +0.000 C 
ENDBRANCH  32  41
ENDBRANCH  29  32
ENDBRANCH  27  28
BRANCH  27  44
ATOM     44  C   UNL     1      -1.638  -1.028  -2.589  0.00  0.00    +0.000 C 
BRANCH  44  45
ATOM     45  C   UNL     1      -1.927  -2.439  -3.009  0.00  0.00    +0.000 A 
ATOM     46  C   UNL     1      -1.697  -3.545  -2.215  0.00  0.00    +0.000 A 
ATOM     47  C   UNL     1      -2.382  -4.745  -2.382  0.00  0.00    +0.000 A 
ATOM     48  C   UNL     1      -3.570  -4.668  -3.090  0.00  0.00    +0.000 A 
ATOM     49  C   UNL     1      -3.594  -3.721  -4.108  0.00  0.00    +0.000 A 
ATOM     50  C   UNL     1      -2.642  -2.710  -4.169  0.00  0.00    +0.000 A 
ENDBRANCH  44  45
ENDBRANCH  27  44
ENDBRANCH  26  27
ENDBRANCH   1  26
TORSDOF 16
