REMARK  Name = 
REMARK  28 active torsions:
REMARK  status: ('A' for Active; 'I' for Inactive)
REMARK    1  A    between atoms: C_1  and  C_2
REMARK    2  A    between atoms: C_2  and  C_3
REMARK    3  A    between atoms: C_2  and  C_4
REMARK    4  A    between atoms: C_4  and  C_5
REMARK    5  A    between atoms: C_5  and  C_6
REMARK    6  A    between atoms: C_6  and  C_7
REMARK    7  A    between atoms: C_7  and  C_8
REMARK    8  A    between atoms: C_8  and  C_9
REMARK    9  A    between atoms: C_9  and  C_10
REMARK   10  A    between atoms: C_10  and  C_11
REMARK   11  A    between atoms: C_11  and  C_12
REMARK   12  A    between atoms: N_14  and  C_15
REMARK   13  A    between atoms: N_14  and  C_16
REMARK   14  A    between atoms: C_16  and  C_17
REMARK   15  A    between atoms: C_16  and  C_19
REMARK   16  A    between atoms: C_17  and  O_18
REMARK   17  A    between atoms: N_21  and  CA_22
REMARK   18  A    between atoms: CA_22  and  CB_23
REMARK   19  A    between atoms: CA_22  and  C_24
REMARK   20  A    between atoms: N_26  and  CA_27
REMARK   21  A    between atoms: CA_27  and  C_28
REMARK   22  A    between atoms: N_30  and  C_31
REMARK   23  A    between atoms: N_30  and  C_32
REMARK   24  A    between atoms: C_36  and  O_37
REMARK   25  A    between atoms: C_45  and  O_46
REMARK   26  A    between atoms: C_48  and  C_49
REMARK   27  A    between atoms: C_49  and  O_51
REMARK   28  A    between atoms: CA_55  and  CB_56
REMARK                            x       y       z     vdW  Elec       q    Type
REMARK                         _______ _______ _______ _____ _____    ______ ____
ROOT
ATOM      1  C   GLY A   2      -1.341  -0.778  -0.057  0.00  0.00    +0.000 C 
ATOM      2  O   GLY A   2      -0.817  -0.479  -1.178  0.00  0.00    +0.000 OA
ATOM      3  N   UNK A   3      -2.321  -1.713   0.194  0.00  0.00    +0.000 N 
ATOM      4  C   UNK A   3      -2.165  -2.590   1.359  0.00  0.00    +0.000 C 
ENDROOT
BRANCH   3   5
ATOM      5  C   UNK A   3      -3.873  -1.392   0.146  0.00  0.00    +0.000 C 
ATOM      6  C   UNK A   3      -3.652   0.206   0.173  0.00  0.00    +0.000 A 
ATOM      7  C   UNK A   3      -3.430   0.928  -0.906  0.00  0.00    +0.000 A 
ATOM      8  C   UNK A   3      -3.640   2.306  -0.846  0.00  0.00    +0.000 A 
ATOM      9  C   UNK A   3      -4.526   2.882   0.073  0.00  0.00    +0.000 A 
ATOM     10  C   UNK A   3      -4.785   2.000   1.121  0.00  0.00    +0.000 A 
ATOM     11  C   UNK A   3      -4.066   0.843   1.340  0.00  0.00    +0.000 A 
ATOM     12  C   UNK A   3      -5.976   2.192   1.920  0.00  0.00    +0.000 A 
ATOM     13  C   UNK A   3      -6.821   1.143   2.294  0.00  0.00    +0.000 A 
ATOM     14  C   UNK A   3      -7.962   1.187   1.470  0.00  0.00    +0.000 A 
ATOM     15  C   UNK A   3      -8.591   2.431   1.606  0.00  0.00    +0.000 A 
ATOM     16  C   UNK A   3      -7.899   3.564   2.050  0.00  0.00    +0.000 A 
ATOM     17  C   UNK A   3      -6.540   3.460   1.777  0.00  0.00    +0.000 A 
ATOM     18  C   UNK A   3      -7.579   0.693   0.106  0.00  0.00    +0.000 C 
ATOM     19  C   UNK A   3      -8.542  -0.588  -0.243  0.00  0.00    +0.000 C 
ATOM     20  N   UNK A   3      -7.954  -0.728  -1.698  0.00  0.00    +0.000 N 
ATOM     21  C   ALA A   4      -6.548  -1.014  -1.705  0.00  0.00    +0.000 C 
ATOM     22  O   ALA A   4      -6.124  -0.935  -2.908  0.00  0.00    +0.000 OA
ATOM     23  CA  ALA A   4      -6.399  -2.517  -1.116  0.00  0.00    +0.000 C 
ATOM     24  CB  ALA A   4      -5.957  -2.088   0.405  0.00  0.00    +0.000 C 
ATOM     25  N   ALA A   4      -4.906  -2.695  -1.580  0.00  0.00    +0.000 N 
ATOM     26  C   UNK A   3      -4.031  -1.563  -1.456  0.00  0.00    +0.000 C 
ATOM     27  O   UNK A   3      -3.026  -1.743  -2.156  0.00  0.00    +0.000 OA
ATOM     28  H   UNK A   3      -8.494  -0.630  -2.515  0.00  0.00    +0.000 HD
ATOM     29  H   ALA A   4      -4.584  -3.552  -1.943  0.00  0.00    +0.000 HD
BRANCH   9  30
ATOM     30  O   UNK A   3      -5.572   3.553  -0.595  0.00  0.00    +0.000 OA
ATOM     31  H   UNK A   3      -5.379   4.142  -1.297  0.00  0.00    +0.000 HD
ENDBRANCH   9  30
BRANCH  17  32
ATOM     32  O   UNK A   3      -5.602   4.461   1.846  0.00  0.00    +0.000 OA
ATOM     33  H   UNK A   3      -5.865   5.356   1.763  0.00  0.00    +0.000 HD
ENDBRANCH  17  32
BRANCH  19  34
ATOM     34  C   UNK A   3      -9.752   0.346  -0.776  0.00  0.00    +0.000 C 
ATOM     35  O   UNK A   5     -10.686  -0.355  -1.280  0.00  0.00    +0.000 OA
BRANCH  34  36
ATOM     36  O   UNK A   5      -9.418   1.431  -1.565  0.00  0.00    +0.000 OA
ATOM     37  H   UNK A   5      -8.741   2.018  -1.291  0.00  0.00    +0.000 HD
ENDBRANCH  34  36
ENDBRANCH  19  34
ENDBRANCH   3   5
BRANCH   1  38
ATOM     38  CA  GLY A   2      -0.372  -0.402   1.029  0.00  0.00    +0.000 C 
BRANCH  38  41
ATOM     39  C   ALA A   1       1.739  -1.430   0.019  0.00  0.00    +0.000 C 
ATOM     40  O   ALA A   1       1.054  -2.433  -0.354  0.00  0.00    +0.000 OA
ATOM     41  N   GLY A   2       0.989  -0.373   0.599  0.00  0.00    +0.000 N 
ATOM     42  H   GLY A   2       1.464   0.481   0.720  0.00  0.00    +0.000 HD
BRANCH  39  43
ATOM     43  CA  ALA A   1       2.903  -2.031   0.975  0.00  0.00    +0.000 C 
ATOM     44  CB  ALA A   1       3.619  -2.852  -0.262  0.00  0.00    +0.000 C 
BRANCH  43  47
ATOM     45  C   UNK A   0       4.193  -0.367  -0.438  0.00  0.00    +0.000 C 
ATOM     46  O   UNK A   0       3.740  -0.863  -1.480  0.00  0.00    +0.000 OA
ATOM     47  N   ALA A   1       3.806  -0.758   0.816  0.00  0.00    +0.000 N 
ATOM     48  H   ALA A   1       4.090  -0.247   1.608  0.00  0.00    +0.000 HD
BRANCH  45  49
ATOM     49  C   UNK A   0       5.151   0.910  -0.606  0.00  0.00    +0.000 C 
BRANCH  49  52
ATOM     50  C   UNK A   0       6.787  -0.744   0.381  0.00  0.00    +0.000 C 
ATOM     51  O   UNK A   0       6.759  -1.541   1.367  0.00  0.00    +0.000 OA
ATOM     52  N   UNK A   0       6.096   0.495   0.590  0.00  0.00    +0.000 N 
ATOM     53  C   UNK A   0       6.983   1.606   0.935  0.00  0.00    +0.000 C 
BRANCH  50  54
ATOM     54  C   UNK A   0       7.139  -1.251  -0.957  0.00  0.00    +0.000 C 
BRANCH  54  55
ATOM     55  C   UNK A   0       8.406  -2.055  -0.987  0.00  0.00    +0.000 C 
BRANCH  55  56
ATOM     56  C   UNK A   0       8.627  -2.883   0.246  0.00  0.00    +0.000 C 
BRANCH  56  57
ATOM     57  C   UNK A   0       9.911  -3.649   0.090  0.00  0.00    +0.000 C 
BRANCH  57  58
ATOM     58  C   UNK A   0      11.139  -2.786   0.228  0.00  0.00    +0.000 C 
BRANCH  58  59
ATOM     59  C   UNK A   0      10.787  -1.338   0.452  0.00  0.00    +0.000 C 
BRANCH  59  60
ATOM     60  C   UNK A   0      12.022  -0.482   0.266  0.00  0.00    +0.000 C 
BRANCH  60  61
ATOM     61  C   UNK A   0      11.753   0.934   0.726  0.00  0.00    +0.000 C 
BRANCH  61  63
ATOM     62  C   UNK A   0      13.037   1.765  -0.681  0.00  0.00    +0.000 C 
ATOM     63  C   UNK A   0      12.619   1.912  -0.044  0.00  0.00    +0.000 C 
ATOM     64  C   UNK A   0      12.618   3.217   0.724  0.00  0.00    +0.000 C 
ENDBRANCH  61  63
ENDBRANCH  60  61
ENDBRANCH  59  60
ENDBRANCH  58  59
ENDBRANCH  57  58
ENDBRANCH  56  57
ENDBRANCH  55  56
ENDBRANCH  54  55
ENDBRANCH  50  54
ENDBRANCH  49  52
BRANCH  49  65
ATOM     65  C   UNK A   0       4.210   1.846   0.372  0.00  0.00    +0.000 C 
BRANCH  65  66
ATOM     66  O   UNK A   0       4.787   3.103   0.131  0.00  0.00    +0.000 OA
ATOM     67  H   UNK A   0       5.735   3.068   0.330  0.00  0.00    +0.000 HD
ENDBRANCH  65  66
ENDBRANCH  49  65
ENDBRANCH  45  49
ENDBRANCH  43  47
ENDBRANCH  39  43
ENDBRANCH  38  41
ENDBRANCH   1  38
TORSDOF 22
