REMARK  Name = 2638
REMARK  28 active torsions:
REMARK  status: ('A' for Active; 'I' for Inactive)
REMARK    1  A    between atoms: O_15  and  C_81
REMARK    2  A    between atoms: N_19  and  C_41
REMARK    3  A    between atoms: N_21  and  C_52
REMARK    4  A    between atoms: N_23  and  C_50
REMARK    5  A    between atoms: N_27  and  C_57
REMARK    6  A    between atoms: N_31  and  C_73
REMARK    7  A    between atoms: N_32  and  C_83
REMARK    8  A    between atoms: N_33  and  C_85
REMARK    9  A    between atoms: C_34  and  C_38
REMARK   10  A    between atoms: C_39  and  C_40
REMARK   11  A    between atoms: C_41  and  C_43
REMARK   12  A    between atoms: C_41  and  C_45
REMARK   13  A    between atoms: C_43  and  C_44
REMARK   14  A    between atoms: C_44  and  C_48
REMARK   15  A    between atoms: C_47  and  C_49
REMARK   16  A    between atoms: C_48  and  C_50
REMARK   17  A    between atoms: C_49  and  C_56
REMARK   18  A    between atoms: C_51  and  C_55
REMARK   19  A    between atoms: C_52  and  C_61
REMARK   20  A    between atoms: C_55  and  C_62
REMARK   21  A    between atoms: C_58  and  C_64
REMARK   22  A    between atoms: C_60  and  C_66
REMARK   23  A    between atoms: C_62  and  C_68
REMARK   24  A    between atoms: C_64  and  C_67
REMARK   25  A    between atoms: C_66  and  C_69
REMARK   26  A    between atoms: C_70  and  C_73
REMARK   27  A    between atoms: C_82  and  C_83
REMARK   28  A    between atoms: C_84  and  C_85
REMARK                            x       y       z     vdW  Elec       q    Type
REMARK                         _______ _______ _______ _____ _____    ______ ____
ROOT
ATOM      1  S   UNL     1       7.670  -0.825   0.000  0.00  0.00    +0.000 S 
ATOM      2  S   UNL     1       8.384  -0.412   0.000  0.00  0.00    +0.000 S 
ATOM      3  O   UNL     1       4.812  -1.650   0.000  0.00  0.00    +0.000 OA
ATOM      4  O   UNL     1       7.368  -2.173   0.000  0.00  0.00    +0.000 OA
ATOM      5  O   UNL     1       9.099  -4.125   0.000  0.00  0.00    +0.000 OA
ATOM      6  O   UNL     1      11.242  -0.412   0.000  0.00  0.00    +0.000 OA
ATOM      7  O   UNL     1      11.957  -3.300   0.000  0.00  0.00    +0.000 OA
ATOM      8  N   UNL     1       6.241  -1.650   0.000  0.00  0.00    +0.000 N 
ATOM      9  N   UNL     1       6.241  -3.300   0.000  0.00  0.00    +0.000 N 
ATOM     10  N   UNL     1       8.384  -2.888   0.000  0.00  0.00    +0.000 N 
ATOM     11  N   UNL     1      10.528  -3.300   0.000  0.00  0.00    +0.000 N 
ATOM     12  N   UNL     1      10.528  -1.650   0.000  0.00  0.00    +0.000 N 
ATOM     13  C   UNL     1       6.241  -0.825   0.000  0.00  0.00    +0.000 C 
ATOM     14  C   UNL     1       6.955  -0.412   0.000  0.00  0.00    +0.000 C 
ATOM     15  C   UNL     1       5.527  -2.062   0.000  0.00  0.00    +0.000 C 
ATOM     16  C   UNL     1       5.527  -2.888   0.000  0.00  0.00    +0.000 C 
ATOM     17  C   UNL     1       7.670  -3.300   0.000  0.00  0.00    +0.000 C 
ATOM     18  C   UNL     1       6.955  -2.888   0.000  0.00  0.00    +0.000 C 
ATOM     19  C   UNL     1       9.099  -0.825   0.000  0.00  0.00    +0.000 C 
ATOM     20  C   UNL     1       9.813  -0.412   0.000  0.00  0.00    +0.000 C 
ATOM     21  C   UNL     1       9.813  -2.888   0.000  0.00  0.00    +0.000 C 
ATOM     22  C   UNL     1       9.099  -3.300   0.000  0.00  0.00    +0.000 C 
ATOM     23  C   UNL     1      11.242  -2.062   0.000  0.00  0.00    +0.000 C 
ATOM     24  C   UNL     1      10.528  -0.825   0.000  0.00  0.00    +0.000 C 
ATOM     25  C   UNL     1      11.242  -2.888   0.000  0.00  0.00    +0.000 C 
ATOM     26  H   UNL     1       7.094  -2.142   0.000  0.00  0.00    +0.000 HD
ATOM     27  H   UNL     1       6.241  -4.285   0.000  0.00  0.00    +0.000 HD
ATOM     28  H   UNL     1       8.384  -1.903   0.000  0.00  0.00    +0.000 HD
ATOM     29  H   UNL     1      10.528  -4.285   0.000  0.00  0.00    +0.000 HD
ATOM     30  H   UNL     1       9.675  -2.142   0.000  0.00  0.00    +0.000 HD
ENDROOT
BRANCH  13  37
ATOM     31  O   UNL     1       4.812  -0.825   0.000  0.00  0.00    +0.000 OA
ATOM     32  N   UNL     1       5.527   0.412   0.000  0.00  0.00    +0.000 N 
ATOM     33  C   UNL     1       4.859   0.897   0.000  0.00  0.00    +0.000 C 
ATOM     34  C   UNL     1       5.114   1.682   0.000  0.00  0.00    +0.000 C 
ATOM     35  C   UNL     1       5.939   1.682   0.000  0.00  0.00    +0.000 C 
ATOM     36  C   UNL     1       6.194   0.897   0.000  0.00  0.00    +0.000 C 
ATOM     37  C   UNL     1       5.527  -0.412   0.000  0.00  0.00    +0.000 C 
BRANCH  33  40
ATOM     38  O   UNL     1       3.903  -0.165   0.000  0.00  0.00    +0.000 OA
ATOM     39  N   UNL     1       3.461   1.194   0.000  0.00  0.00    +0.000 N 
ATOM     40  C   UNL     1       4.074   0.642   0.000  0.00  0.00    +0.000 C 
ATOM     41  H   UNL     1       2.525   0.890   0.000  0.00  0.00    +0.000 HD
BRANCH  39  42
ATOM     42  C   UNL     1       3.633   2.002   0.000  0.00  0.00    +0.000 C 
BRANCH  42  45
ATOM     43  O   UNL     1       2.235   2.299   0.000  0.00  0.00    +0.000 OA
ATOM     44  N   UNL     1       3.191   3.361   0.000  0.00  0.00    +0.000 N 
ATOM     45  C   UNL     1       3.020   2.554   0.000  0.00  0.00    +0.000 C 
ATOM     46  H   UNL     1       4.128   3.665   0.000  0.00  0.00    +0.000 HD
BRANCH  44  47
ATOM     47  C   UNL     1       2.578   3.913   0.000  0.00  0.00    +0.000 C 
BRANCH  47  50
ATOM     48  O   UNL     1       3.534   4.974   0.000  0.00  0.00    +0.000 OA
ATOM     49  N   UNL     1       2.136   5.272   0.000  0.00  0.00    +0.000 N 
ATOM     50  C   UNL     1       2.750   4.720   0.000  0.00  0.00    +0.000 C 
ATOM     51  H   UNL     1       2.341   6.235   0.000  0.00  0.00    +0.000 HD
ATOM     52  H   UNL     1       1.200   4.967   0.000  0.00  0.00    +0.000 HD
ENDBRANCH  47  50
ENDBRANCH  44  47
ENDBRANCH  42  45
BRANCH  42  53
ATOM     53  C   UNL     1       4.417   2.256   0.000  0.00  0.00    +0.000 C 
BRANCH  53  54
ATOM     54  C   UNL     1       4.589   3.063   0.000  0.00  0.00    +0.000 C 
BRANCH  54  55
ATOM     55  C   UNL     1       5.374   3.318   0.000  0.00  0.00    +0.000 C 
BRANCH  55  56
ATOM     56  C   UNL     1       5.545   4.125   0.000  0.00  0.00    +0.000 C 
BRANCH  56  57
ATOM     57  N   UNL     1       6.330   4.380   0.000  0.00  0.00    +0.000 NA
ATOM     58  H   UNL     1       7.088   3.698   0.000  0.00  0.00    +0.000 HD
ATOM     59  H   UNL     1       6.542   5.378   0.000  0.00  0.00    +0.000 HD
ENDBRANCH  56  57
ENDBRANCH  55  56
ENDBRANCH  54  55
ENDBRANCH  53  54
ENDBRANCH  42  53
ENDBRANCH  39  42
ENDBRANCH  33  40
ENDBRANCH  13  37
BRANCH  20  61
ATOM     60  O   UNL     1      11.242   0.412   0.000  0.00  0.00    +0.000 OA
ATOM     61  N   UNL     1       9.813   0.412   0.000  0.00  0.00    +0.000 N 
ATOM     62  C   UNL     1      10.528   0.825   0.000  0.00  0.00    +0.000 C 
ATOM     63  H   UNL     1       8.961   0.905   0.000  0.00  0.00    +0.000 HD
BRANCH  62  64
ATOM     64  C   UNL     1      10.528   1.650   0.000  0.00  0.00    +0.000 C 
BRANCH  64  66
ATOM     65  O   UNL     1      10.528   3.300   0.000  0.00  0.00    +0.000 OA
ATOM     66  N   UNL     1      11.242   2.062   0.000  0.00  0.00    +0.000 N 
ATOM     67  C   UNL     1      11.242   2.888   0.000  0.00  0.00    +0.000 C 
ATOM     68  H   UNL     1      12.095   1.570   0.000  0.00  0.00    +0.000 HD
BRANCH  67  69
ATOM     69  C   UNL     1      11.957   3.300   0.000  0.00  0.00    +0.000 C 
BRANCH  69  71
ATOM     70  O   UNL     1      13.386   4.125   0.000  0.00  0.00    +0.000 OA
ATOM     71  N   UNL     1      11.957   4.125   0.000  0.00  0.00    +0.000 N 
ATOM     72  C   UNL     1      12.671   4.538   0.000  0.00  0.00    +0.000 C 
ATOM     73  H   UNL     1      11.104   4.617   0.000  0.00  0.00    +0.000 HD
BRANCH  72  74
ATOM     74  C   UNL     1      12.671   5.363   0.000  0.00  0.00    +0.000 C 
BRANCH  74  75
ATOM     75  N   UNL     1      13.386   5.775   0.000  0.00  0.00    +0.000 NA
ATOM     76  H   UNL     1      14.269   5.265   0.000  0.00  0.00    +0.000 HD
ATOM     77  H   UNL     1      13.386   6.795   0.000  0.00  0.00    +0.000 HD
ENDBRANCH  74  75
ENDBRANCH  72  74
ENDBRANCH  69  71
ENDBRANCH  67  69
ENDBRANCH  64  66
ENDBRANCH  62  64
ENDBRANCH  20  61
BRANCH  16  78
ATOM     78  C   UNL     1       4.812  -3.300   0.000  0.00  0.00    +0.000 C 
BRANCH  78  81
ATOM     79  O   UNL     1       5.527  -4.538   0.000  0.00  0.00    +0.000 OA
ATOM     80  N   UNL     1       4.098  -4.538   0.000  0.00  0.00    +0.000 N 
ATOM     81  C   UNL     1       4.812  -4.125   0.000  0.00  0.00    +0.000 C 
ATOM     82  H   UNL     1       3.245  -4.045   0.000  0.00  0.00    +0.000 HD
ATOM     83  H   UNL     1       4.098  -5.522   0.000  0.00  0.00    +0.000 HD
ENDBRANCH  78  81
ENDBRANCH  16  78
BRANCH  17  84
ATOM     84  C   UNL     1       7.670  -4.125   0.000  0.00  0.00    +0.000 C 
BRANCH  84  85
ATOM     85  C   UNL     1       6.955  -4.538   0.000  0.00  0.00    +0.000 C 
BRANCH  85  88
ATOM     86  O   UNL     1       6.241  -5.775   0.000  0.00  0.00    +0.000 OA
ATOM     87  N   UNL     1       7.670  -5.775   0.000  0.00  0.00    +0.000 N 
ATOM     88  C   UNL     1       6.955  -5.363   0.000  0.00  0.00    +0.000 C 
ATOM     89  H   UNL     1       7.670  -6.760   0.000  0.00  0.00    +0.000 HD
ATOM     90  H   UNL     1       8.522  -5.283   0.000  0.00  0.00    +0.000 HD
ENDBRANCH  85  88
ENDBRANCH  84  85
ENDBRANCH  17  84
BRANCH  21  91
ATOM     91  C   UNL     1       9.813  -2.062   0.000  0.00  0.00    +0.000 C 
BRANCH  91  92
ATOM     92  C   UNL     1       9.283  -1.431   0.000  0.00  0.00    +0.000 A 
ATOM     93  C   UNL     1       8.470  -1.574   0.000  0.00  0.00    +0.000 A 
ATOM     94  C   UNL     1       9.565  -0.655   0.000  0.00  0.00    +0.000 A 
ATOM     95  C   UNL     1       7.940  -0.942   0.000  0.00  0.00    +0.000 A 
ATOM     96  C   UNL     1       9.035  -0.023   0.000  0.00  0.00    +0.000 A 
ATOM     97  C   UNL     1       8.223  -0.167   0.000  0.00  0.00    +0.000 A 
ENDBRANCH  91  92
ENDBRANCH  21  91
BRANCH  23  98
ATOM     98  C   UNL     1      11.957  -1.650   0.000  0.00  0.00    +0.000 C 
BRANCH  98  99
ATOM     99  C   UNL     1      12.671  -2.062   0.000  0.00  0.00    +0.000 A 
ATOM    100  C   UNL     1      13.386  -1.650   0.000  0.00  0.00    +0.000 A 
ATOM    101  C   UNL     1      12.671  -2.888   0.000  0.00  0.00    +0.000 A 
ATOM    102  C   UNL     1      14.100  -2.062   0.000  0.00  0.00    +0.000 A 
ATOM    103  C   UNL     1      13.386  -3.300   0.000  0.00  0.00    +0.000 A 
ATOM    104  C   UNL     1      14.100  -2.888   0.000  0.00  0.00    +0.000 A 
BRANCH 104 105
ATOM    105  O   UNL     1      14.815  -3.300   0.000  0.00  0.00    +0.000 OA
ATOM    106  H   UNL     1      14.815  -4.237   0.000  0.00  0.00    +0.000 HD
ENDBRANCH 104 105
ENDBRANCH  98  99
ENDBRANCH  23  98
TORSDOF 28
