REMARK  Name = 
REMARK  27 active torsions:
REMARK  status: ('A' for Active; 'I' for Inactive)
REMARK    1  A    between atoms: N_1  and  C_2
REMARK    2  A    between atoms: C_2  and  C_3
REMARK    3  A    between atoms: C_2  and  C_38
REMARK    4  A    between atoms: C_3  and  C_4
REMARK    5  A    between atoms: C_4  and  C_5
REMARK    6  A    between atoms: N_7  and  C_8
REMARK    7  A    between atoms: C_8  and  C_9
REMARK    8  A    between atoms: C_8  and  C_31
REMARK    9  A    between atoms: C_9  and  S_10
REMARK   10  A    between atoms: S_10  and  S_11
REMARK   11  A    between atoms: S_11  and  C_12
REMARK   12  A    between atoms: C_12  and  C_13
REMARK   13  A    between atoms: C_13  and  N_14
REMARK   14  A    between atoms: C_13  and  C_24
REMARK   15  A    between atoms: C_15  and  C_17
REMARK   16  A    between atoms: C_17  and  C_18
REMARK   17  A    between atoms: C_18  and  C_19
REMARK   18  A    between atoms: C_19  and  N_20
REMARK   19  A    between atoms: C_19  and  C_21
REMARK   20  A    between atoms: C_21  and  O_23
REMARK   21  A    between atoms: N_26  and  CA_27
REMARK   22  A    between atoms: CA_27  and  C_28
REMARK   23  A    between atoms: C_28  and  OXT_30
REMARK   24  A    between atoms: N_33  and  CA_34
REMARK   25  A    between atoms: CA_34  and  C_35
REMARK   26  A    between atoms: C_35  and  OXT_37
REMARK   27  A    between atoms: C_38  and  O_40
REMARK                            x       y       z     vdW  Elec       q    Type
REMARK                         _______ _______ _______ _____ _____    ______ ____
ROOT
ATOM      1  S   UNK A   1       0.238   2.118   2.220  0.00  0.00    +0.000 S 
ENDROOT
BRANCH   1   2
ATOM      2  C   UNK A   1       1.943   1.464   2.185  0.00  0.00    +0.000 C 
BRANCH   2   3
ATOM      3  C   UNK A   1       2.005   0.879   0.615  0.00  0.00    +0.000 C 
BRANCH   3   6
ATOM      4  C   UNK A   1       3.373  -1.077  -0.092  0.00  0.00    +0.000 C 
ATOM      5  O   UNK A   1       2.572  -1.143  -1.076  0.00  0.00    +0.000 OA
ATOM      6  N   UNK A   1       3.289  -0.042   0.899  0.00  0.00    +0.000 N 
ATOM      7  H   UNK A   1       3.923   0.084   1.641  0.00  0.00    +0.000 HD
BRANCH   4   8
ATOM      8  C   UNK A   1       4.549  -1.955  -0.206  0.00  0.00    +0.000 C 
BRANCH   8   9
ATOM      9  C   UNK A   1       4.968  -2.643   1.037  0.00  0.00    +0.000 C 
BRANCH   9  10
ATOM     10  C   UNK A   1       5.834  -1.506   1.911  0.00  0.00    +0.000 C 
BRANCH  10  11
ATOM     11  N   UNK A   1       6.637  -1.002   0.612  0.00  0.00    +0.000 NA
ATOM     12  H   UNK A   1       6.098  -0.275   0.141  0.00  0.00    +0.000 HD
ATOM     13  H   UNK A   1       6.779  -1.786  -0.024  0.00  0.00    +0.000 HD
ENDBRANCH  10  11
BRANCH  10  14
ATOM     14  C   UNK A   1       7.004  -2.589   2.309  0.00  0.00    +0.000 C 
ATOM     15  O   UNK A   1       7.884  -1.929   2.943  0.00  0.00    +0.000 OA
BRANCH  14  16
ATOM     16  O   UNK A   1       7.477  -3.353   1.272  0.00  0.00    +0.000 OA
ATOM     17  H   UNK A   1       6.884  -3.867   0.760  0.00  0.00    +0.000 HD
ENDBRANCH  14  16
ENDBRANCH  10  14
ENDBRANCH   9  10
ENDBRANCH   8   9
ENDBRANCH   4   8
ENDBRANCH   3   6
BRANCH   3  18
ATOM     18  C   UNK A   1       2.931   2.136   0.098  0.00  0.00    +0.000 C 
ATOM     19  O   UNK A   1       3.868   2.447   0.841  0.00  0.00    +0.000 OA
ATOM     20  N   GLY A   2       3.380   1.701  -1.199  0.00  0.00    +0.000 N 
ATOM     21  H   GLY A   2       3.176   0.797  -1.531  0.00  0.00    +0.000 HD
BRANCH  20  22
ATOM     22  CA  GLY A   2       4.145   2.642  -2.003  0.00  0.00    +0.000 C 
BRANCH  22  23
ATOM     23  C   GLY A   2       4.100   1.997  -3.364  0.00  0.00    +0.000 C 
ATOM     24  O   GLY A   2       2.906   1.845  -3.775  0.00  0.00    +0.000 OA
BRANCH  23  25
ATOM     25  OXT GLY A   2       4.862   0.821  -3.421  0.00  0.00    +0.000 OA
ATOM     26  HXT GLY A   2       5.756   0.828  -3.140  0.00  0.00    +0.000 HD
ENDBRANCH  23  25
ENDBRANCH  22  23
ENDBRANCH  20  22
ENDBRANCH   3  18
ENDBRANCH   2   3
ENDBRANCH   1   2
BRANCH   1  27
ATOM     27  S   UNK A   1      -0.599   2.275   0.274  0.00  0.00    +0.000 S 
BRANCH  27  28
ATOM     28  C   UNK A   1      -1.295   0.688  -0.297  0.00  0.00    +0.000 C 
BRANCH  28  29
ATOM     29  C   UNK A   1      -2.855   0.714   0.312  0.00  0.00    +0.000 C 
BRANCH  29  30
ATOM     30  N   UNK A   1      -3.312  -0.482  -0.657  0.00  0.00    +0.000 N 
ATOM     31  C   UNK A   1      -3.971  -1.537   0.062  0.00  0.00    +0.000 C 
ATOM     32  O   UNK A   1      -4.126  -1.420   1.321  0.00  0.00    +0.000 OA
ATOM     33  H   UNK A   1      -3.158  -0.491  -1.629  0.00  0.00    +0.000 HD
BRANCH  31  34
ATOM     34  C   UNK A   1      -5.052  -2.376  -0.531  0.00  0.00    +0.000 C 
BRANCH  34  35
ATOM     35  C   UNK A   1      -4.629  -3.661  -1.115  0.00  0.00    +0.000 C 
BRANCH  35  36
ATOM     36  C   UNK A   1      -5.689  -4.821  -0.535  0.00  0.00    +0.000 C 
BRANCH  36  37
ATOM     37  N   UNK A   1      -6.975  -3.901  -0.813  0.00  0.00    +0.000 NA
ATOM     38  H   UNK A   1      -6.798  -2.957  -0.470  0.00  0.00    +0.000 HD
ATOM     39  H   UNK A   1      -7.784  -4.292  -0.329  0.00  0.00    +0.000 HD
ENDBRANCH  36  37
BRANCH  36  40
ATOM     40  C   UNK A   1      -5.553  -4.269   1.010  0.00  0.00    +0.000 C 
ATOM     41  O   UNK A   1      -6.571  -4.585   1.706  0.00  0.00    +0.000 OA
BRANCH  40  42
ATOM     42  O   UNK A   1      -4.385  -4.861   1.518  0.00  0.00    +0.000 OA
ATOM     43  H   UNK A   1      -3.562  -4.708   1.097  0.00  0.00    +0.000 HD
ENDBRANCH  40  42
ENDBRANCH  36  40
ENDBRANCH  35  36
ENDBRANCH  34  35
ENDBRANCH  31  34
ENDBRANCH  29  30
BRANCH  29  44
ATOM     44  C   UNK A   1      -3.328   1.859  -0.772  0.00  0.00    +0.000 C 
ATOM     45  O   UNK A   1      -4.549   1.726  -1.100  0.00  0.00    +0.000 OA
ATOM     46  N   GLY A   2      -2.992   3.181  -0.390  0.00  0.00    +0.000 N 
ATOM     47  H   GLY A   2      -2.070   3.465  -0.583  0.00  0.00    +0.000 HD
BRANCH  46  48
ATOM     48  CA  GLY A   2      -3.824   4.150   0.240  0.00  0.00    +0.000 C 
BRANCH  48  49
ATOM     49  C   GLY A   2      -4.372   5.173  -0.713  0.00  0.00    +0.000 C 
ATOM     50  O   GLY A   2      -4.157   6.368  -0.333  0.00  0.00    +0.000 OA
BRANCH  49  51
ATOM     51  OXT GLY A   2      -5.731   4.967  -0.994  0.00  0.00    +0.000 OA
ATOM     52  HXT GLY A   2      -6.028   4.127  -1.284  0.00  0.00    +0.000 HD
ENDBRANCH  49  51
ENDBRANCH  48  49
ENDBRANCH  46  48
ENDBRANCH  29  44
ENDBRANCH  28  29
ENDBRANCH  27  28
ENDBRANCH   1  27
TORSDOF 27
