REMARK  Name = 5289294
REMARK  15 active torsions:
REMARK  status: ('A' for Active; 'I' for Inactive)
REMARK    1  A    between atoms: O_2  and  C_19
REMARK    2  A    between atoms: O_4  and  C_26
REMARK    3  A    between atoms: N_6  and  C_12
REMARK    4  A    between atoms: N_7  and  C_8
REMARK    5  A    between atoms: C_8  and  C_9
REMARK    6  A    between atoms: C_8  and  C_14
REMARK    7  A    between atoms: C_9  and  C_13
REMARK    8  A    between atoms: C_10  and  C_11
REMARK    9  A    between atoms: C_10  and  C_12
REMARK   10  A    between atoms: C_11  and  C_16
REMARK   11  A    between atoms: C_11  and  C_17
REMARK   12  A    between atoms: C_13  and  C_15
REMARK   13  A    between atoms: C_18  and  C_19
REMARK   14  A    between atoms: C_19  and  C_22
REMARK   15  A    between atoms: C_22  and  C_26
REMARK                            x       y       z     vdW  Elec       q    Type
REMARK                         _______ _______ _______ _____ _____    ______ ____
ROOT
ATOM      1  C   UNL     1      -0.283  -0.619  -0.745  0.00  0.00    +0.000 C 
ENDROOT
BRANCH   1   4
ATOM      2  O   UNL     1      -0.077  -1.712   1.409  0.00  0.00    +0.000 OA
ATOM      3  N   UNL     1       1.058  -2.604  -0.407  0.00  0.00    +0.000 N 
ATOM      4  C   UNL     1       0.217  -1.693   0.216  0.00  0.00    +0.000 C 
ATOM      5  H   UNL     1       1.264  -2.501  -1.397  0.00  0.00    +0.000 HD
BRANCH   3   6
ATOM      6  C   UNL     1       1.689  -3.695   0.298  0.00  0.00    +0.000 C 
BRANCH   6   7
ATOM      7  C   UNL     1       3.051  -3.310   0.870  0.00  0.00    +0.000 C 
BRANCH   7   8
ATOM      8  C   UNL     1       4.083  -2.832  -0.170  0.00  0.00    +0.000 C 
ATOM      9  C   UNL     1       4.339  -3.942  -1.193  0.00  0.00    +0.000 C 
ATOM     10  C   UNL     1       5.405  -2.407   0.470  0.00  0.00    +0.000 C 
ENDBRANCH   7   8
ENDBRANCH   6   7
ENDBRANCH   3   6
ENDBRANCH   1   4
BRANCH   1  12
ATOM     11  O   UNL     1      -2.418   0.159  -2.514  0.00  0.00    +0.000 OA
ATOM     12  N   UNL     1      -1.623  -0.249  -0.371  0.00  0.00    +0.000 N 
ATOM     13  C   UNL     1      -2.591   0.114  -1.299  0.00  0.00    +0.000 C 
ATOM     14  H   UNL     1      -1.846  -0.204   0.619  0.00  0.00    +0.000 HD
BRANCH  13  15
ATOM     15  C   UNL     1      -3.921   0.477  -0.648  0.00  0.00    +0.000 C 
BRANCH  15  16
ATOM     16  O   UNL     1      -4.810   0.932  -1.657  0.00  0.00    +0.000 OA
ATOM     17  H   UNL     1      -5.598   1.289  -1.214  0.00  0.00    +0.000 HD
ENDBRANCH  15  16
BRANCH  15  18
ATOM     18  C   UNL     1      -4.531  -0.722   0.082  0.00  0.00    +0.000 C 
BRANCH  18  20
ATOM     19  O   UNL     1      -5.902   0.849   1.345  0.00  0.00    +0.000 OA
ATOM     20  C   UNL     1      -5.556  -0.301   1.113  0.00  0.00    +0.000 C 
BRANCH  20  21
ATOM     21  O   UNL     1      -6.069  -1.376   1.768  0.00  0.00    +0.000 OA
ATOM     22  H   UNL     1      -6.737  -1.111   2.437  0.00  0.00    +0.000 HD
ENDBRANCH  20  21
ENDBRANCH  18  20
ENDBRANCH  15  18
ENDBRANCH  13  15
ENDBRANCH   1  12
BRANCH   1  23
ATOM     23  C   UNL     1       0.653   0.594  -0.817  0.00  0.00    +0.000 C 
BRANCH  23  24
ATOM     24  C   UNL     1       0.886   1.283   0.535  0.00  0.00    +0.000 C 
BRANCH  24  25
ATOM     25  C   UNL     1       1.846   2.440   0.406  0.00  0.00    +0.000 A 
ATOM     26  C   UNL     1       3.216   2.230   0.565  0.00  0.00    +0.000 A 
ATOM     27  C   UNL     1       1.364   3.719   0.127  0.00  0.00    +0.000 A 
ATOM     28  C   UNL     1       4.104   3.300   0.445  0.00  0.00    +0.000 A 
ATOM     29  C   UNL     1       2.251   4.788   0.007  0.00  0.00    +0.000 A 
ATOM     30  C   UNL     1       3.621   4.579   0.166  0.00  0.00    +0.000 A 
ENDBRANCH  24  25
ENDBRANCH  23  24
ENDBRANCH   1  23
TORSDOF 13
