REMARK  Name = 
REMARK  27 active torsions:
REMARK  status: ('A' for Active; 'I' for Inactive)
REMARK    1  A    between atoms: C_1  and  C_2
REMARK    2  A    between atoms: C_2  and  C_3
REMARK    3  A    between atoms: C_2  and  C_4
REMARK    4  A    between atoms: C_4  and  N_5
REMARK    5  A    between atoms: C_4  and  C_47
REMARK    6  A    between atoms: C_6  and  C_8
REMARK    7  A    between atoms: C_8  and  O_9
REMARK    8  A    between atoms: C_8  and  C_17
REMARK    9  A    between atoms: O_9  and  C_10
REMARK   10  A    between atoms: C_10  and  C_11
REMARK   11  A    between atoms: C_17  and  O_18
REMARK   12  A    between atoms: C_17  and  C_19
REMARK   13  A    between atoms: C_19  and  O_20
REMARK   14  A    between atoms: C_19  and  C_21
REMARK   15  A    between atoms: C_21  and  O_22
REMARK   16  A    between atoms: C_21  and  C_30
REMARK   17  A    between atoms: O_22  and  C_23
REMARK   18  A    between atoms: C_23  and  C_24
REMARK   19  A    between atoms: N_32  and  C_33
REMARK   20  A    between atoms: C_33  and  C_34
REMARK   21  A    between atoms: C_33  and  C_44
REMARK   22  A    between atoms: N_36  and  C_37
REMARK   23  A    between atoms: C_37  and  C_38
REMARK   24  A    between atoms: C_44  and  C_45
REMARK   25  A    between atoms: C_44  and  C_46
REMARK   26  A    between atoms: N_49  and  C_50
REMARK   27  A    between atoms: C_50  and  C_51
REMARK                            x       y       z     vdW  Elec       q    Type
REMARK                         _______ _______ _______ _____ _____    ______ ____
ROOT
ATOM      1  C   UNL     1      -0.328  -0.366   0.663  0.00  0.00    +0.000 C 
ENDROOT
BRANCH   1   2
ATOM      2  O   UNL     1      -0.381   0.882   1.485  0.00  0.00    +0.000 OA
ATOM      3  H   UNL     1      -0.290   1.655   0.905  0.00  0.00    +0.000 HD
ENDBRANCH   1   2
BRANCH   1   4
ATOM      4  C   UNL     1      -1.389   0.269  -0.528  0.00  0.00    +0.000 C 
BRANCH   4   6
ATOM      5  N   UNL     1      -3.420   1.305   0.377  0.00  0.00    +0.000 N 
ATOM      6  C   UNL     1      -2.725   0.046   0.339  0.00  0.00    +0.000 C 
ATOM      7  O   UNL     1      -2.732  -0.638   1.342  0.00  0.00    +0.000 OA
ATOM      8  H   UNL     1      -3.048   2.148   0.030  0.00  0.00    +0.000 HD
BRANCH   5   9
ATOM      9  C   UNL     1      -4.846   1.180   1.040  0.00  0.00    +0.000 C 
BRANCH   9  10
ATOM     10  C   UNL     1      -5.624   1.380  -0.356  0.00  0.00    +0.000 C 
ATOM     11  O   UNL     1      -5.284   2.253  -1.131  0.00  0.00    +0.000 OA
ATOM     12  N   UNL     1      -6.151   0.149  -0.866  0.00  0.00    +0.000 N 
ATOM     13  H   UNL     1      -5.845  -0.727  -0.538  0.00  0.00    +0.000 HD
BRANCH  12  14
ATOM     14  C   UNL     1      -7.173   0.277  -1.902  0.00  0.00    +0.000 C 
BRANCH  14  15
ATOM     15  C   UNL     1      -8.319   0.996  -1.264  0.00  0.00    +0.000 A 
ATOM     16  C   UNL     1      -8.378   2.381  -1.308  0.00  0.00    +0.000 A 
ATOM     17  C   UNL     1      -8.775   3.139  -0.215  0.00  0.00    +0.000 A 
ATOM     18  C   UNL     1      -9.234   2.462   0.909  0.00  0.00    +0.000 A 
ATOM     19  C   UNL     1      -9.572   1.128   0.739  0.00  0.00    +0.000 A 
ATOM     20  N   UNL     1      -8.835   0.422  -0.153  0.00  0.00    +0.000 NA
ENDBRANCH  14  15
ENDBRANCH  12  14
ENDBRANCH   9  10
BRANCH   9  22
ATOM     21  C   UNL     1      -4.761   2.739   2.623  0.00  0.00    +0.000 C 
ATOM     22  C   UNL     1      -4.958   2.763   1.461  0.00  0.00    +0.000 C 
ATOM     23  C   UNL     1      -4.132   3.610   0.621  0.00  0.00    +0.000 C 
ENDBRANCH   9  22
ENDBRANCH   5   9
ENDBRANCH   4   6
BRANCH   4  24
ATOM     24  O   UNL     1      -1.414  -1.088  -1.197  0.00  0.00    +0.000 OA
BRANCH  24  25
ATOM     25  C   UNL     1      -2.696  -1.461  -1.424  0.00  0.00    +0.000 C 
BRANCH  25  26
ATOM     26  C   UNL     1      -2.864  -2.926  -1.196  0.00  0.00    +0.000 A 
ATOM     27  C   UNL     1      -4.069  -3.544  -1.503  0.00  0.00    +0.000 A 
ATOM     28  C   UNL     1      -4.596  -4.524  -0.670  0.00  0.00    +0.000 A 
ATOM     29  C   UNL     1      -3.924  -4.910   0.484  0.00  0.00    +0.000 A 
ATOM     30  C   UNL     1      -2.579  -4.565   0.521  0.00  0.00    +0.000 A 
ATOM     31  C   UNL     1      -2.013  -3.674  -0.386  0.00  0.00    +0.000 A 
ENDBRANCH  25  26
ENDBRANCH  24  25
ENDBRANCH   4  24
ENDBRANCH   1   4
BRANCH   1  32
ATOM     32  C   UNL     1       1.007   0.063  -0.310  0.00  0.00    +0.000 C 
BRANCH  32  33
ATOM     33  O   UNL     1       0.699   1.524  -0.424  0.00  0.00    +0.000 OA
ATOM     34  H   UNL     1       0.460   1.873   0.449  0.00  0.00    +0.000 HD
ENDBRANCH  32  33
BRANCH  32  35
ATOM     35  C   UNL     1       1.960   0.274   1.098  0.00  0.00    +0.000 C 
BRANCH  35  36
ATOM     36  C   UNL     1       3.245   0.724   0.232  0.00  0.00    +0.000 C 
ATOM     37  O   UNL     1       4.272   0.634   0.945  0.00  0.00    +0.000 OA
ATOM     38  N   UNL     1       3.119   1.801  -0.596  0.00  0.00    +0.000 N 
ATOM     39  H   UNL     1       2.278   1.901  -1.099  0.00  0.00    +0.000 HD
BRANCH  38  40
ATOM     40  C   UNL     1       4.229   2.889  -0.796  0.00  0.00    +0.000 C 
BRANCH  40  41
ATOM     41  C   UNL     1       5.446   1.917  -0.356  0.00  0.00    +0.000 C 
ATOM     42  O   UNL     1       6.408   2.519   0.201  0.00  0.00    +0.000 OA
ATOM     43  N   UNL     1       5.827   1.228  -1.557  0.00  0.00    +0.000 N 
ATOM     44  H   UNL     1       5.161   1.206  -2.282  0.00  0.00    +0.000 HD
BRANCH  43  45
ATOM     45  C   UNL     1       7.045   0.585  -1.804  0.00  0.00    +0.000 C 
BRANCH  45  46
ATOM     46  C   UNL     1       8.140   0.786  -0.843  0.00  0.00    +0.000 A 
ATOM     47  C   UNL     1       9.065   1.786  -1.140  0.00  0.00    +0.000 A 
ATOM     48  C   UNL     1      10.317   1.821  -0.535  0.00  0.00    +0.000 A 
ATOM     49  C   UNL     1      10.922   0.572  -0.450  0.00  0.00    +0.000 A 
ATOM     50  C   UNL     1      10.051  -0.494  -0.269  0.00  0.00    +0.000 A 
ATOM     51  N   UNL     1       8.709  -0.356  -0.374  0.00  0.00    +0.000 NA
ENDBRANCH  45  46
ENDBRANCH  43  45
ENDBRANCH  40  41
BRANCH  40  52
ATOM     52  C   UNL     1       4.054   3.515   0.716  0.00  0.00    +0.000 C 
ATOM     53  C   UNL     1       2.598   3.962   0.783  0.00  0.00    +0.000 C 
ATOM     54  C   UNL     1       4.919   4.738   0.722  0.00  0.00    +0.000 C 
ENDBRANCH  40  52
ENDBRANCH  38  40
ENDBRANCH  35  36
BRANCH  35  55
ATOM     55  O   UNL     1       2.370  -1.176   1.127  0.00  0.00    +0.000 OA
BRANCH  55  56
ATOM     56  C   UNL     1       2.497  -1.661  -0.129  0.00  0.00    +0.000 C 
BRANCH  56  57
ATOM     57  C   UNL     1       2.427  -3.133  -0.081  0.00  0.00    +0.000 A 
ATOM     58  C   UNL     1       1.305  -3.863   0.287  0.00  0.00    +0.000 A 
ATOM     59  C   UNL     1       1.302  -5.254   0.245  0.00  0.00    +0.000 A 
ATOM     60  C   UNL     1       2.433  -5.966  -0.131  0.00  0.00    +0.000 A 
ATOM     61  C   UNL     1       3.421  -5.244  -0.784  0.00  0.00    +0.000 A 
ATOM     62  C   UNL     1       3.384  -3.875  -0.756  0.00  0.00    +0.000 A 
ENDBRANCH  56  57
ENDBRANCH  55  56
ENDBRANCH  35  55
ENDBRANCH  32  35
ENDBRANCH   1  32
TORSDOF 23
