REMARK  Name = 446917
REMARK  19 active torsions:
REMARK  status: ('A' for Active; 'I' for Inactive)
REMARK    1  A    between atoms: O_1  and  C_10
REMARK    2  A    between atoms: O_4  and  C_23
REMARK    3  A    between atoms: O_4  and  C_31
REMARK    4  A    between atoms: N_5  and  C_8
REMARK    5  A    between atoms: N_6  and  C_12
REMARK    6  A    between atoms: N_7  and  C_32
REMARK    7  A    between atoms: C_8  and  C_9
REMARK    8  A    between atoms: C_8  and  C_11
REMARK    9  A    between atoms: C_9  and  C_10
REMARK   10  A    between atoms: C_10  and  C_12
REMARK   11  A    between atoms: C_11  and  C_13
REMARK   12  A    between atoms: C_12  and  C_14
REMARK   13  A    between atoms: C_13  and  C_15
REMARK   14  A    between atoms: C_13  and  C_16
REMARK   15  A    between atoms: C_14  and  C_17
REMARK   16  A    between atoms: C_18  and  C_22
REMARK   17  A    between atoms: C_19  and  C_23
REMARK   18  A    between atoms: C_33  and  C_37
REMARK   19  A    between atoms: C_34  and  C_38
REMARK                            x       y       z     vdW  Elec       q    Type
REMARK                         _______ _______ _______ _____ _____    ______ ____
ROOT
ATOM      1  C   UNL     1       0.710  -1.086  -1.988  0.00  0.00    +0.000 C 
ENDROOT
BRANCH   1   2
ATOM      2  O   UNL     1       0.434  -2.006  -3.046  0.00  0.00    +0.000 OA
ATOM      3  H   UNL     1      -0.516  -1.960  -3.245  0.00  0.00    +0.000 HD
ENDBRANCH   1   2
BRANCH   1   4
ATOM      4  C   UNL     1       0.263   0.328  -2.409  0.00  0.00    +0.000 C 
BRANCH   4   5
ATOM      5  C   UNL     1       0.502   1.451  -1.376  0.00  0.00    +0.000 C 
BRANCH   5   7
ATOM      6  O   UNL     1       1.647   0.913   1.201  0.00  0.00    +0.000 OA
ATOM      7  N   UNL     1       1.905   1.515  -1.023  0.00  0.00    +0.000 N 
ATOM      8  C   UNL     1       2.360   1.236   0.255  0.00  0.00    +0.000 C 
ATOM      9  H   UNL     1       2.542   1.831  -1.746  0.00  0.00    +0.000 HD
BRANCH   8  10
ATOM     10  C   UNL     1       3.825   1.373   0.463  0.00  0.00    +0.000 A 
ATOM     11  C   UNL     1       4.700   1.200  -0.609  0.00  0.00    +0.000 A 
ATOM     12  C   UNL     1       4.324   1.674   1.730  0.00  0.00    +0.000 A 
ATOM     13  C   UNL     1       6.075   1.327  -0.414  0.00  0.00    +0.000 A 
ATOM     14  C   UNL     1       5.699   1.801   1.925  0.00  0.00    +0.000 A 
ATOM     15  C   UNL     1       6.575   1.628   0.853  0.00  0.00    +0.000 A 
BRANCH  15  16
ATOM     16  N   UNL     1       7.965   1.756   1.050  0.00  0.00    +0.000 N 
ATOM     17  H   UNL     1       8.601   1.633   0.273  0.00  0.00    +0.000 HD
ATOM     18  H   UNL     1       8.328   1.976   1.968  0.00  0.00    +0.000 HD
ENDBRANCH  15  16
ENDBRANCH   8  10
ENDBRANCH   5   7
BRANCH   5  19
ATOM     19  C   UNL     1       0.004   2.849  -1.782  0.00  0.00    +0.000 C 
BRANCH  19  20
ATOM     20  C   UNL     1       0.166   3.948  -0.716  0.00  0.00    +0.000 C 
ATOM     21  C   UNL     1      -0.592   3.630   0.573  0.00  0.00    +0.000 C 
ATOM     22  C   UNL     1      -0.309   5.291  -1.278  0.00  0.00    +0.000 C 
ENDBRANCH  19  20
ENDBRANCH   5  19
ENDBRANCH   4   5
ENDBRANCH   1   4
BRANCH   1  23
ATOM     23  C   UNL     1       0.036  -1.609  -0.697  0.00  0.00    +0.000 C 
BRANCH  23  25
ATOM     24  O   UNL     1      -1.859  -1.040   1.420  0.00  0.00    +0.000 OA
ATOM     25  N   UNL     1      -1.407  -1.516  -0.811  0.00  0.00    +0.000 N 
ATOM     26  C   UNL     1      -2.230  -1.238   0.266  0.00  0.00    +0.000 C 
ATOM     27  H   UNL     1      -1.833  -1.735  -1.706  0.00  0.00    +0.000 HD
BRANCH  26  28
ATOM     28  C   UNL     1      -3.686  -1.201  -0.144  0.00  0.00    +0.000 C 
BRANCH  28  29
ATOM     29  O   UNL     1      -4.509  -0.903   0.964  0.00  0.00    +0.000 OA
BRANCH  29  30
ATOM     30  C   UNL     1      -5.680  -0.228   0.712  0.00  0.00    +0.000 A 
ATOM     31  C   UNL     1      -6.849  -0.939   0.441  0.00  0.00    +0.000 A 
ATOM     32  C   UNL     1      -5.700   1.167   0.729  0.00  0.00    +0.000 A 
ATOM     33  C   UNL     1      -8.038  -0.255   0.186  0.00  0.00    +0.000 A 
ATOM     34  C   UNL     1      -6.889   1.850   0.474  0.00  0.00    +0.000 A 
ATOM     35  C   UNL     1      -6.848  -2.432   0.418  0.00  0.00    +0.000 C 
ATOM     36  C   UNL     1      -4.459   1.946   1.018  0.00  0.00    +0.000 C 
ATOM     37  C   UNL     1      -8.058   1.139   0.203  0.00  0.00    +0.000 A 
ENDBRANCH  29  30
ENDBRANCH  28  29
ENDBRANCH  26  28
ENDBRANCH  23  25
BRANCH  23  38
ATOM     38  C   UNL     1       0.429  -3.043  -0.294  0.00  0.00    +0.000 C 
BRANCH  38  39
ATOM     39  C   UNL     1       1.894  -3.239   0.007  0.00  0.00    +0.000 A 
ATOM     40  C   UNL     1       2.370  -3.060   1.306  0.00  0.00    +0.000 A 
ATOM     41  C   UNL     1       2.773  -3.601  -1.014  0.00  0.00    +0.000 A 
ATOM     42  C   UNL     1       3.724  -3.242   1.584  0.00  0.00    +0.000 A 
ATOM     43  C   UNL     1       4.128  -3.783  -0.736  0.00  0.00    +0.000 A 
ATOM     44  C   UNL     1       4.603  -3.604   0.563  0.00  0.00    +0.000 A 
ENDBRANCH  38  39
ENDBRANCH  23  38
ENDBRANCH   1  23
TORSDOF 15
