REMARK  Name = 
REMARK  23 active torsions:
REMARK  status: ('A' for Active; 'I' for Inactive)
REMARK    1  A    between atoms: C_1  and  C_2
REMARK    2  A    between atoms: C_2  and  C_3
REMARK    3  A    between atoms: C_3  and  C_4
REMARK    4  A    between atoms: C_4  and  C_5
REMARK    5  A    between atoms: C_5  and  N_6
REMARK    6  A    between atoms: C_7  and  C_9
REMARK    7  A    between atoms: C_9  and  C_10
REMARK    8  A    between atoms: C_9  and  N_25
REMARK    9  A    between atoms: C_10  and  C_11
REMARK   10  A    between atoms: C_14  and  O_15
REMARK   11  A    between atoms: O_15  and  C_16
REMARK   12  A    between atoms: C_16  and  C_17
REMARK   13  A    between atoms: C_17  and  O_19
REMARK   14  A    between atoms: C_20  and  C_21
REMARK   15  A    between atoms: C_21  and  O_23
REMARK   16  A    between atoms: C_26  and  C_28
REMARK   17  A    between atoms: C_28  and  C_29
REMARK   18  A    between atoms: C_28  and  N_36
REMARK   19  A    between atoms: C_29  and  C_30
REMARK   20  A    between atoms: C_37  and  C_39
REMARK   21  A    between atoms: C_39  and  C_40
REMARK   22  A    between atoms: C_40  and  C_41
REMARK   23  A    between atoms: C_41  and  O_43
REMARK                            x       y       z     vdW  Elec       q    Type
REMARK                         _______ _______ _______ _____ _____    ______ ____
ROOT
ATOM      1  C   UNL     1       0.402  -0.519   0.536  0.00  0.00    +0.000 C 
ENDROOT
BRANCH   1   3
ATOM      2  N   UNL     1      -0.110  -1.038   2.987  0.00  0.00    +0.000 N 
ATOM      3  C   UNL     1       0.654  -0.179   2.126  0.00  0.00    +0.000 C 
ATOM      4  O   UNL     1       1.905  -0.294   2.315  0.00  0.00    +0.000 OA
ATOM      5  H   UNL     1      -0.699  -1.746   2.639  0.00  0.00    +0.000 HD
BRANCH   2   6
ATOM      6  C   UNL     1       0.052  -0.786   4.418  0.00  0.00    +0.000 C 
BRANCH   6   7
ATOM      7  C   UNL     1       0.459  -2.031   5.169  0.00  0.00    +0.000 C 
BRANCH   7   8
ATOM      8  C   UNL     1       1.311  -1.560   6.343  0.00  0.00    +0.000 C 
BRANCH   8  10
ATOM      9  C   UNL     1       0.916   0.682   6.214  0.00  0.00    +0.000 C 
ATOM     10  C   UNL     1       1.560  -0.074   6.302  0.00  0.00    +0.000 C 
ENDBRANCH   8  10
ENDBRANCH   7   8
ENDBRANCH   6   7
ENDBRANCH   2   6
ENDBRANCH   1   3
BRANCH   1  11
ATOM     11  N   UNL     1      -1.167  -0.214   0.677  0.00  0.00    +0.000 N 
ATOM     12  C   UNL     1      -1.856  -0.146  -0.565  0.00  0.00    +0.000 C 
ATOM     13  O   UNL     1      -1.255  -0.216  -1.629  0.00  0.00    +0.000 OA
ATOM     14  H   UNL     1      -1.612  -0.087   1.545  0.00  0.00    +0.000 HD
BRANCH  12  15
ATOM     15  C   UNL     1      -3.187  -1.097  -0.409  0.00  0.00    +0.000 C 
BRANCH  15  16
ATOM     16  N   UNL     1      -4.064   0.173   0.022  0.00  0.00    +0.000 N 
ATOM     17  C   UNL     1      -5.235  -0.163   0.759  0.00  0.00    +0.000 C 
ATOM     18  O   UNL     1      -5.933  -1.091   0.245  0.00  0.00    +0.000 OA
ATOM     19  H   UNL     1      -3.817   1.100  -0.202  0.00  0.00    +0.000 HD
BRANCH  17  20
ATOM     20  C   UNL     1      -6.056   1.032   1.152  0.00  0.00    +0.000 C 
BRANCH  20  21
ATOM     21  C   UNL     1      -6.180   1.867  -0.112  0.00  0.00    +0.000 C 
BRANCH  21  22
ATOM     22  C   UNL     1      -6.389   3.301   0.175  0.00  0.00    +0.000 C 
ATOM     23  O   UNL     1      -6.031   4.121  -0.719  0.00  0.00    +0.000 OA
BRANCH  22  24
ATOM     24  O   UNL     1      -7.570   3.646   0.840  0.00  0.00    +0.000 OA
ATOM     25  H   UNL     1      -7.906   3.092   1.517  0.00  0.00    +0.000 HD
ENDBRANCH  22  24
ENDBRANCH  21  22
ENDBRANCH  20  21
ENDBRANCH  17  20
ENDBRANCH  15  16
BRANCH  15  26
ATOM     26  C   UNL     1      -3.650  -0.920  -2.011  0.00  0.00    +0.000 C 
BRANCH  26  27
ATOM     27  C   UNL     1      -3.404  -2.293  -2.534  0.00  0.00    +0.000 A 
ATOM     28  C   UNL     1      -2.270  -3.024  -2.244  0.00  0.00    +0.000 A 
ATOM     29  C   UNL     1      -1.976  -4.166  -2.943  0.00  0.00    +0.000 A 
ATOM     30  C   UNL     1      -2.992  -4.720  -3.691  0.00  0.00    +0.000 A 
ATOM     31  C   UNL     1      -4.297  -4.314  -3.436  0.00  0.00    +0.000 A 
ATOM     32  C   UNL     1      -4.505  -3.043  -2.927  0.00  0.00    +0.000 A 
ENDBRANCH  26  27
ENDBRANCH  15  26
ENDBRANCH  12  15
ENDBRANCH   1  11
BRANCH   1  33
ATOM     33  C   UNL     1       0.705   1.068   0.101  0.00  0.00    +0.000 C 
BRANCH  33  34
ATOM     34  C   UNL     1       2.010   1.027  -0.587  0.00  0.00    +0.000 A 
ATOM     35  C   UNL     1       2.344   0.048  -1.505  0.00  0.00    +0.000 A 
ATOM     36  C   UNL     1       3.647  -0.238  -1.814  0.00  0.00    +0.000 A 
ATOM     37  C   UNL     1       4.627   0.340  -1.055  0.00  0.00    +0.000 A 
ATOM     38  C   UNL     1       4.365   1.459  -0.298  0.00  0.00    +0.000 A 
ATOM     39  C   UNL     1       3.043   1.875  -0.209  0.00  0.00    +0.000 A 
BRANCH  38  40
ATOM     40  C   UNL     1       5.385   1.993   0.615  0.00  0.00    +0.000 C 
ATOM     41  O   UNL     1       5.013   2.765   1.549  0.00  0.00    +0.000 OA
BRANCH  40  42
ATOM     42  O   UNL     1       6.527   1.244   0.861  0.00  0.00    +0.000 OA
ATOM     43  H   UNL     1       6.851   0.655   0.208  0.00  0.00    +0.000 HD
ENDBRANCH  40  42
ENDBRANCH  38  40
BRANCH  37  44
ATOM     44  O   UNL     1       5.944   0.126  -1.463  0.00  0.00    +0.000 OA
BRANCH  44  45
ATOM     45  C   UNL     1       6.228   0.086  -2.860  0.00  0.00    +0.000 C 
BRANCH  45  46
ATOM     46  C   UNL     1       6.825   1.393  -3.250  0.00  0.00    +0.000 C 
ATOM     47  O   UNL     1       6.124   2.441  -3.336  0.00  0.00    +0.000 OA
BRANCH  46  48
ATOM     48  O   UNL     1       8.081   1.439  -3.811  0.00  0.00    +0.000 OA
ATOM     49  H   UNL     1       8.639   0.687  -3.773  0.00  0.00    +0.000 HD
ENDBRANCH  46  48
ENDBRANCH  45  46
ENDBRANCH  44  45
ENDBRANCH  37  44
ENDBRANCH  33  34
ENDBRANCH   1  33
TORSDOF 22
