REMARK  Name = 5494439
REMARK  14 active torsions:
REMARK  status: ('A' for Active; 'I' for Inactive)
REMARK    1  A    between atoms: N_7  and  C_18
REMARK    2  A    between atoms: N_8  and  C_22
REMARK    3  A    between atoms: N_9  and  C_29
REMARK    4  A    between atoms: N_10  and  C_34
REMARK    5  A    between atoms: C_13  and  C_19
REMARK    6  A    between atoms: C_17  and  C_18
REMARK    7  A    between atoms: C_18  and  C_20
REMARK    8  A    between atoms: C_20  and  C_21
REMARK    9  A    between atoms: C_21  and  C_23
REMARK   10  A    between atoms: C_21  and  C_24
REMARK   11  A    between atoms: C_22  and  C_25
REMARK   12  A    between atoms: C_25  and  C_27
REMARK   13  A    between atoms: C_26  and  C_28
REMARK   14  A    between atoms: C_27  and  C_29
REMARK                            x       y       z     vdW  Elec       q    Type
REMARK                         _______ _______ _______ _____ _____    ______ ____
ROOT
ATOM      1  O   UNL     1      -0.854   0.148   0.185  0.00  0.00    +0.000 OA
ATOM      2  N   UNL     1      -1.759   2.224   0.665  0.00  0.00    +0.000 N 
ATOM      3  C   UNL     1      -2.735   1.758   1.641  0.00  0.00    +0.000 C 
ATOM      4  C   UNL     1      -3.195   3.021   2.361  0.00  0.00    +0.000 C 
ATOM      5  C   UNL     1      -3.029   4.112   1.306  0.00  0.00    +0.000 C 
ATOM      6  C   UNL     1      -1.782   3.680   0.550  0.00  0.00    +0.000 C 
ATOM      7  C   UNL     1      -0.842   1.375   0.066  0.00  0.00    +0.000 C 
ENDROOT
BRANCH   3  10
ATOM      8  O   UNL     1      -4.155   1.477  -0.257  0.00  0.00    +0.000 OA
ATOM      9  N   UNL     1      -4.480   0.119   1.605  0.00  0.00    +0.000 N 
ATOM     10  C   UNL     1      -3.853   1.115   0.877  0.00  0.00    +0.000 C 
ATOM     11  H   UNL     1      -4.153  -0.094   2.543  0.00  0.00    +0.000 HD
BRANCH   9  12
ATOM     12  C   UNL     1      -5.603  -0.640   1.103  0.00  0.00    +0.000 C 
BRANCH  12  13
ATOM     13  C   UNL     1      -5.168  -1.899   0.359  0.00  0.00    +0.000 C 
BRANCH  13  14
ATOM     14  C   UNL     1      -4.383  -2.867   1.253  0.00  0.00    +0.000 C 
BRANCH  14  15
ATOM     15  C   UNL     1      -3.941  -4.120   0.504  0.00  0.00    +0.000 C 
BRANCH  15  16
ATOM     16  N   UNL     1      -3.068  -3.751  -0.611  0.00  0.00    +0.000 NA
ATOM     17  N   UNL     1      -1.788  -4.456  -2.410  0.00  0.00    +0.000 N 
ATOM     18  N   UNL     1      -2.851  -6.069  -1.200  0.00  0.00    +0.000 N 
ATOM     19  C   UNL     1      -2.614  -4.720  -1.343  0.00  0.00    +0.000 C 
ATOM     20  H   UNL     1      -1.421  -5.200  -2.993  0.00  0.00    +0.000 HD
ATOM     21  H   UNL     1      -1.521  -3.506  -2.643  0.00  0.00    +0.000 HD
ATOM     22  H   UNL     1      -2.438  -6.742  -1.837  0.00  0.00    +0.000 HD
ATOM     23  H   UNL     1      -3.439  -6.440  -0.463  0.00  0.00    +0.000 HD
ENDBRANCH  15  16
ENDBRANCH  14  15
ENDBRANCH  13  14
ENDBRANCH  12  13
ENDBRANCH   9  12
ENDBRANCH   3  10
BRANCH   7  24
ATOM     24  C   UNL     1       0.207   2.046  -0.783  0.00  0.00    +0.000 C 
BRANCH  24  26
ATOM     25  O   UNL     1       2.082   2.244   1.382  0.00  0.00    +0.000 OA
ATOM     26  N   UNL     1       1.371   1.235  -0.582  0.00  0.00    +0.000 N 
ATOM     27  C   UNL     1       2.229   1.401   0.502  0.00  0.00    +0.000 C 
ATOM     28  H   UNL     1       1.569   0.532  -1.287  0.00  0.00    +0.000 HD
BRANCH  27  29
ATOM     29  C   UNL     1       3.407   0.496   0.553  0.00  0.00    +0.000 A 
ATOM     30  C   UNL     1       4.571   0.902   1.205  0.00  0.00    +0.000 A 
ATOM     31  C   UNL     1       3.348  -0.759  -0.052  0.00  0.00    +0.000 A 
ATOM     32  C   UNL     1       5.676   0.053   1.252  0.00  0.00    +0.000 A 
ATOM     33  C   UNL     1       4.453  -1.609  -0.005  0.00  0.00    +0.000 A 
ATOM     34  C   UNL     1       5.617  -1.203   0.647  0.00  0.00    +0.000 A 
BRANCH  34  37
ATOM     35  O   UNL     1       7.779  -1.683   1.289  0.00  0.00    +0.000 OA
ATOM     36  O   UNL     1       6.668  -3.193   0.146  0.00  0.00    +0.000 OA
ATOM     37  N   UNL     1       6.742  -2.068   0.696  0.00  0.00    +0.000 N 
ENDBRANCH  34  37
ENDBRANCH  27  29
ENDBRANCH  24  26
BRANCH  24  38
ATOM     38  C   UNL     1      -0.246   2.100  -2.237  0.00  0.00    +0.000 C 
BRANCH  38  39
ATOM     39  C   UNL     1       0.791   2.713  -3.200  0.00  0.00    +0.000 C 
ATOM     40  C   UNL     1       0.257   2.664  -4.635  0.00  0.00    +0.000 C 
ATOM     41  C   UNL     1       1.148   4.154  -2.833  0.00  0.00    +0.000 C 
ENDBRANCH  38  39
ENDBRANCH  24  38
ENDBRANCH   7  24
TORSDOF 12
