REMARK  Name = 
REMARK  23 active torsions:
REMARK  status: ('A' for Active; 'I' for Inactive)
REMARK    1  A    between atoms: C_1  and  C_4
REMARK    2  A    between atoms: C_4  and  C_5
REMARK    3  A    between atoms: C_4  and  N_15
REMARK    4  A    between atoms: C_5  and  C_6
REMARK    5  A    between atoms: C_16  and  C_18
REMARK    6  A    between atoms: C_24  and  C_25
REMARK    7  A    between atoms: C_25  and  C_26
REMARK    8  A    between atoms: C_25  and  C_27
REMARK    9  A    between atoms: C_31  and  C_32
REMARK   10  A    between atoms: C_32  and  C_33
REMARK   11  A    between atoms: C_33  and  C_34
REMARK   12  A    between atoms: C_34  and  C_35
REMARK   13  A    between atoms: C_35  and  N_36
REMARK   14  A    between atoms: C_40  and  C_41
REMARK   15  A    between atoms: C_41  and  C_42
REMARK   16  A    between atoms: C_54  and  C_55
REMARK   17  A    between atoms: C_55  and  C_56
REMARK   18  A    between atoms: C_59  and  O_60
REMARK   19  A    between atoms: C_66  and  N_69
REMARK   20  A    between atoms: C_70  and  C_72
REMARK   21  A    between atoms: C_72  and  N_73
REMARK   22  A    between atoms: C_72  and  C_74
REMARK   23  A    between atoms: C_74  and  C_75
REMARK                            x       y       z     vdW  Elec       q    Type
REMARK                         _______ _______ _______ _____ _____    ______ ____
ROOT
ATOM      1  C   UNL     1       2.845   1.072   0.000  0.00  0.00    +0.000 C 
ATOM      2  C   UNL     1       2.432   0.357   0.000  0.00  0.00    +0.000 C 
ATOM      3  S   UNL     1       1.607   0.357   0.000  0.00  0.00    +0.000 S 
ATOM      4  N   UNL     1       2.432   1.786   0.000  0.00  0.00    +0.000 N 
ATOM      5  C   UNL     1       1.607   1.786   0.000  0.00  0.00    +0.000 C 
ATOM      6  O   UNL     1       1.195   1.072   0.000  0.00  0.00    +0.000 OA
ATOM      7  C   UNL     1       1.195   2.501   0.000  0.00  0.00    +0.000 C 
ATOM      8  N   UNL     1       0.370   2.501   0.000  0.00  0.00    +0.000 N 
ATOM      9  C   UNL     1      -0.043   3.215   0.000  0.00  0.00    +0.000 C 
ATOM     10  O   UNL     1       0.370   3.930   0.000  0.00  0.00    +0.000 OA
ATOM     11  C   UNL     1      -0.868   3.215   0.000  0.00  0.00    +0.000 C 
ATOM     12  N   UNL     1      -1.280   2.501   0.000  0.00  0.00    +0.000 N 
ATOM     13  C   UNL     1      -2.105   2.501   0.000  0.00  0.00    +0.000 C 
ATOM     14  O   UNL     1      -2.518   3.215   0.000  0.00  0.00    +0.000 OA
ATOM     15  C   UNL     1      -2.518   1.786   0.000  0.00  0.00    +0.000 C 
ATOM     16  N   UNL     1      -2.105   1.072   0.000  0.00  0.00    +0.000 N 
ATOM     17  C   UNL     1      -2.518   0.357   0.000  0.00  0.00    +0.000 C 
ATOM     18  O   UNL     1      -3.342   0.357   0.000  0.00  0.00    +0.000 OA
ATOM     19  C   UNL     1      -2.105  -0.357   0.000  0.00  0.00    +0.000 C 
ATOM     20  N   UNL     1      -1.280  -0.357   0.000  0.00  0.00    +0.000 N 
ATOM     21  C   UNL     1      -0.868  -1.072   0.000  0.00  0.00    +0.000 C 
ATOM     22  O   UNL     1      -1.280  -1.786   0.000  0.00  0.00    +0.000 OA
ATOM     23  C   UNL     1      -0.043  -1.072   0.000  0.00  0.00    +0.000 C 
ATOM     24  C   UNL     1       0.370  -0.357   0.000  0.00  0.00    +0.000 C 
ATOM     25  S   UNL     1       1.195  -0.357   0.000  0.00  0.00    +0.000 S 
ATOM     26  H   UNL     1       2.925   2.639   0.000  0.00  0.00    +0.000 HD
ATOM     27  H   UNL     1      -0.122   1.648   0.000  0.00  0.00    +0.000 HD
ATOM     28  H   UNL     1      -0.788   1.648   0.000  0.00  0.00    +0.000 HD
ATOM     29  H   UNL     1      -1.121   1.072   0.000  0.00  0.00    +0.000 HD
ATOM     30  H   UNL     1      -0.788   0.495   0.000  0.00  0.00    +0.000 HD
ENDROOT
BRANCH   1  32
ATOM     31  N   UNL     1       4.082   0.357   0.000  0.00  0.00    +0.000 N 
ATOM     32  C   UNL     1       3.670   1.072   0.000  0.00  0.00    +0.000 C 
ATOM     33  O   UNL     1       4.082   1.786   0.000  0.00  0.00    +0.000 OA
ATOM     34  H   UNL     1       3.590  -0.495   0.000  0.00  0.00    +0.000 HD
BRANCH  31  35
ATOM     35  C   UNL     1       4.907   0.357   0.000  0.00  0.00    +0.000 C 
BRANCH  35  36
ATOM     36  C   UNL     1       5.320   1.072   0.000  0.00  0.00    +0.000 C 
ATOM     37  O   UNL     1       6.145   1.072   0.000  0.00  0.00    +0.000 OA
ATOM     38  N   UNL     1       4.907   1.786   0.000  0.00  0.00    +0.000 N 
ATOM     39  H   UNL     1       5.400   2.639   0.000  0.00  0.00    +0.000 HD
ATOM     40  H   UNL     1       3.923   1.786   0.000  0.00  0.00    +0.000 HD
ENDBRANCH  35  36
BRANCH  35  41
ATOM     41  C   UNL     1       5.320  -0.357   0.000  0.00  0.00    +0.000 C 
BRANCH  41  42
ATOM     42  C   UNL     1       4.907  -1.072   0.000  0.00  0.00    +0.000 A 
ATOM     43  C   UNL     1       5.243  -1.825   0.000  0.00  0.00    +0.000 A 
ATOM     44  N   UNL     1       4.630  -2.377   0.000  0.00  0.00    +0.000 N 
ATOM     45  C   UNL     1       3.915  -1.965   0.000  0.00  0.00    +0.000 A 
ATOM     46  C   UNL     1       3.131  -2.220   0.000  0.00  0.00    +0.000 A 
ATOM     47  C   UNL     1       2.518  -1.668   0.000  0.00  0.00    +0.000 A 
ATOM     48  C   UNL     1       2.689  -0.861   0.000  0.00  0.00    +0.000 A 
ATOM     49  C   UNL     1       3.474  -0.606   0.000  0.00  0.00    +0.000 A 
ATOM     50  C   UNL     1       4.087  -1.158   0.000  0.00  0.00    +0.000 A 
ATOM     51  H   UNL     1       4.733  -3.356   0.000  0.00  0.00    +0.000 HD
ENDBRANCH  41  42
ENDBRANCH  35  41
ENDBRANCH  31  35
ENDBRANCH   1  32
BRANCH  23  52
ATOM     52  N   UNL     1       0.370  -1.786   0.000  0.00  0.00    +0.000 N 
ATOM     53  C   UNL     1       1.195  -1.786   0.000  0.00  0.00    +0.000 C 
ATOM     54  O   UNL     1       1.607  -1.072   0.000  0.00  0.00    +0.000 OA
ATOM     55  H   UNL     1      -0.122  -2.639   0.000  0.00  0.00    +0.000 HD
BRANCH  53  56
ATOM     56  C   UNL     1       1.607  -2.501   0.000  0.00  0.00    +0.000 C 
BRANCH  56  57
ATOM     57  N   UNL     1       2.432  -2.501   0.000  0.00  0.00    +0.000 NA
ATOM     58  H   UNL     1       2.942  -3.384   0.000  0.00  0.00    +0.000 HD
ATOM     59  H   UNL     1       2.942  -1.617   0.000  0.00  0.00    +0.000 HD
ENDBRANCH  56  57
BRANCH  56  60
ATOM     60  C   UNL     1       1.195  -3.215   0.000  0.00  0.00    +0.000 C 
BRANCH  60  61
ATOM     61  C   UNL     1       1.607  -3.929   0.000  0.00  0.00    +0.000 A 
ATOM     62  C   UNL     1       1.195  -4.644   0.000  0.00  0.00    +0.000 A 
ATOM     63  C   UNL     1       1.607  -5.359   0.000  0.00  0.00    +0.000 A 
ATOM     64  C   UNL     1       2.432  -5.359   0.000  0.00  0.00    +0.000 A 
ATOM     65  C   UNL     1       2.845  -4.644   0.000  0.00  0.00    +0.000 A 
ATOM     66  C   UNL     1       2.432  -3.929   0.000  0.00  0.00    +0.000 A 
ENDBRANCH  60  61
ENDBRANCH  56  60
ENDBRANCH  53  56
ENDBRANCH  23  52
BRANCH   7  67
ATOM     67  C   UNL     1       1.607   3.215   0.000  0.00  0.00    +0.000 C 
ATOM     68  C   UNL     1       2.432   3.215   0.000  0.00  0.00    +0.000 C 
ATOM     69  C   UNL     1       1.195   3.930   0.000  0.00  0.00    +0.000 C 
ENDBRANCH   7  67
BRANCH  11  70
ATOM     70  C   UNL     1      -1.280   3.930   0.000  0.00  0.00    +0.000 C 
BRANCH  70  71
ATOM     71  C   UNL     1      -2.105   3.930   0.000  0.00  0.00    +0.000 C 
BRANCH  71  72
ATOM     72  C   UNL     1      -2.518   4.644   0.000  0.00  0.00    +0.000 C 
BRANCH  72  73
ATOM     73  C   UNL     1      -3.342   4.644   0.000  0.00  0.00    +0.000 C 
BRANCH  73  74
ATOM     74  N   UNL     1      -3.755   5.359   0.000  0.00  0.00    +0.000 NA
ATOM     75  H   UNL     1      -3.245   6.242   0.000  0.00  0.00    +0.000 HD
ATOM     76  H   UNL     1      -4.775   5.358   0.000  0.00  0.00    +0.000 HD
ENDBRANCH  73  74
ENDBRANCH  72  73
ENDBRANCH  71  72
ENDBRANCH  70  71
ENDBRANCH  11  70
BRANCH  15  77
ATOM     77  C   UNL     1      -3.342   1.786   0.000  0.00  0.00    +0.000 C 
BRANCH  77  78
ATOM     78  C   UNL     1      -3.755   2.501   0.000  0.00  0.00    +0.000 A 
ATOM     79  C   UNL     1      -3.420   3.254   0.000  0.00  0.00    +0.000 A 
ATOM     80  N   UNL     1      -4.033   3.806   0.000  0.00  0.00    +0.000 N 
ATOM     81  C   UNL     1      -4.747   3.394   0.000  0.00  0.00    +0.000 A 
ATOM     82  C   UNL     1      -5.532   3.649   0.000  0.00  0.00    +0.000 A 
ATOM     83  C   UNL     1      -6.145   3.097   0.000  0.00  0.00    +0.000 A 
ATOM     84  C   UNL     1      -5.973   2.290   0.000  0.00  0.00    +0.000 A 
ATOM     85  C   UNL     1      -5.189   2.035   0.000  0.00  0.00    +0.000 A 
ATOM     86  C   UNL     1      -4.575   2.587   0.000  0.00  0.00    +0.000 A 
ATOM     87  H   UNL     1      -3.930   4.786   0.000  0.00  0.00    +0.000 HD
ENDBRANCH  77  78
ENDBRANCH  15  77
BRANCH  19  88
ATOM     88  C   UNL     1      -2.765  -1.500   0.000  0.00  0.00    +0.000 C 
BRANCH  88  89
ATOM     89  C   UNL     1      -2.353  -2.215   0.000  0.00  0.00    +0.000 A 
ATOM     90  C   UNL     1      -1.528  -2.215   0.000  0.00  0.00    +0.000 A 
ATOM     91  C   UNL     1      -1.115  -2.929   0.000  0.00  0.00    +0.000 A 
ATOM     92  C   UNL     1      -1.528  -3.644   0.000  0.00  0.00    +0.000 A 
ATOM     93  C   UNL     1      -2.353  -3.644   0.000  0.00  0.00    +0.000 A 
ATOM     94  C   UNL     1      -2.765  -2.929   0.000  0.00  0.00    +0.000 A 
BRANCH  92  95
ATOM     95  O   UNL     1      -1.115  -4.358   0.000  0.00  0.00    +0.000 OA
ATOM     96  H   UNL     1      -1.583  -5.170   0.000  0.00  0.00    +0.000 HD
ENDBRANCH  92  95
ENDBRANCH  88  89
ENDBRANCH  19  88
TORSDOF 21
