REMARK  Name = 
REMARK  39 active torsions:
REMARK  status: ('A' for Active; 'I' for Inactive)
REMARK    1  A    between atoms: C_1  and  C_2
REMARK    2  A    between atoms: C_1  and  C_40
REMARK    3  A    between atoms: C_2  and  N_3
REMARK    4  A    between atoms: C_2  and  C_4
REMARK    5  A    between atoms: C_6  and  C_35
REMARK    6  A    between atoms: N_7  and  C_8
REMARK    7  A    between atoms: C_8  and  C_9
REMARK    8  A    between atoms: C_8  and  C_10
REMARK    9  A    between atoms: C_10  and  C_11
REMARK   10  A    between atoms: C_11  and  S_12
REMARK   11  A    between atoms: S_12  and  C_13
REMARK   12  A    between atoms: N_14  and  C_16
REMARK   13  A    between atoms: C_16  and  C_17
REMARK   14  A    between atoms: C_16  and  C_20
REMARK   15  A    between atoms: N_18  and  C_24
REMARK   16  A    between atoms: C_20  and  C_21
REMARK   17  A    between atoms: C_21  and  O_22
REMARK   18  A    between atoms: C_24  and  C_25
REMARK   19  A    between atoms: C_24  and  C_26
REMARK   20  A    between atoms: C_26  and  C_27
REMARK   21  A    between atoms: C_35  and  N_36
REMARK   22  A    between atoms: C_37  and  C_38
REMARK   23  A    between atoms: C_38  and  N_39
REMARK   24  A    between atoms: C_38  and  C_51
REMARK   25  A    between atoms: C_51  and  C_52
REMARK   26  A    between atoms: C_52  and  S_53
REMARK   27  A    between atoms: S_53  and  C_54
REMARK   28  A    between atoms: C_55  and  C_56
REMARK   29  A    between atoms: C_56  and  C_57
REMARK   30  A    between atoms: C_56  and  N_59
REMARK   31  A    between atoms: C_57  and  C_61
REMARK   32  A    between atoms: C_60  and  C_73
REMARK   33  A    between atoms: C_64  and  O_67
REMARK   34  A    between atoms: O_67  and  S_68
REMARK   35  A    between atoms: S_68  and  O_69
REMARK   36  A    between atoms: C_73  and  N_74
REMARK   37  A    between atoms: C_73  and  C_75
REMARK   38  A    between atoms: C_75  and  C_76
REMARK   39  A    between atoms: C_76  and  O_77
REMARK                            x       y       z     vdW  Elec       q    Type
REMARK                         _______ _______ _______ _____ _____    ______ ____
ROOT
ATOM      1  C   UNL     1      -1.482  -0.165   0.000  0.00  0.00    +0.000 C 
ENDROOT
BRANCH   1   2
ATOM      2  N   UNL     1      -0.783  -0.614   0.000  0.00  0.00    +0.000 N 
ATOM      3  C   UNL     1      -0.066  -0.244   0.000  0.00  0.00    +0.000 C 
ATOM      4  O   UNL     1      -0.068   0.567   0.000  0.00  0.00    +0.000 OA
ATOM      5  H   UNL     1      -0.830  -1.598   0.000  0.00  0.00    +0.000 HD
BRANCH   3   6
ATOM      6  C   UNL     1       0.642  -0.700   0.000  0.00  0.00    +0.000 C 
BRANCH   6   7
ATOM      7  N   UNL     1       1.375  -0.322   0.000  0.00  0.00    +0.000 N 
ATOM      8  C   UNL     1       2.088  -0.780   0.000  0.00  0.00    +0.000 C 
ATOM      9  O   UNL     1       2.089  -1.617   0.000  0.00  0.00    +0.000 OA
ATOM     10  H   UNL     1       1.422   0.661   0.000  0.00  0.00    +0.000 HD
BRANCH   8  11
ATOM     11  C   UNL     1       2.818  -0.403   0.000  0.00  0.00    +0.000 C 
BRANCH  11  12
ATOM     12  N   UNL     1       3.532  -0.862   0.000  0.00  0.00    +0.000 N 
ATOM     13  C   UNL     1       4.265  -0.483   0.000  0.00  0.00    +0.000 C 
ATOM     14  O   UNL     1       4.263   0.332   0.000  0.00  0.00    +0.000 OA
ATOM     15  H   UNL     1       3.485  -1.845   0.000  0.00  0.00    +0.000 HD
BRANCH  13  16
ATOM     16  C   UNL     1       4.978  -0.941   0.000  0.00  0.00    +0.000 C 
BRANCH  16  17
ATOM     17  N   UNL     1       4.980  -1.781   0.000  0.00  0.00    +0.000 N 
ATOM     18  C   UNL     1       4.264  -2.196   0.000  0.00  0.00    +0.000 C 
ATOM     19  O   UNL     1       3.556  -1.789   0.000  0.00  0.00    +0.000 OA
ATOM     20  H   UNL     1       5.833  -2.272   0.000  0.00  0.00    +0.000 HD
BRANCH  18  21
ATOM     21  C   UNL     1       4.266  -3.026   0.000  0.00  0.00    +0.000 C 
BRANCH  21  22
ATOM     22  N   UNL     1       4.994  -3.444   0.000  0.00  0.00    +0.000 NA
ATOM     23  H   UNL     1       4.996  -4.464   0.000  0.00  0.00    +0.000 HD
ATOM     24  H   UNL     1       5.876  -2.933   0.000  0.00  0.00    +0.000 HD
ENDBRANCH  21  22
BRANCH  21  25
ATOM     25  C   UNL     1       3.558  -3.436   0.000  0.00  0.00    +0.000 C 
BRANCH  25  26
ATOM     26  C   UNL     1       2.853  -3.031   0.000  0.00  0.00    +0.000 C 
ATOM     27  O   UNL     1       2.851  -2.197   0.000  0.00  0.00    +0.000 OA
BRANCH  26  28
ATOM     28  O   UNL     1       2.150  -3.438   0.000  0.00  0.00    +0.000 OA
ATOM     29  H   UNL     1       1.337  -2.972   0.000  0.00  0.00    +0.000 HD
ENDBRANCH  26  28
ENDBRANCH  25  26
ENDBRANCH  21  25
ENDBRANCH  18  21
ENDBRANCH  16  17
BRANCH  16  30
ATOM     30  C   UNL     1       5.714  -0.562   0.000  0.00  0.00    +0.000 C 
BRANCH  30  31
ATOM     31  C   UNL     1       6.431  -1.022   0.000  0.00  0.00    +0.000 A 
ATOM     32  C   UNL     1       6.432  -1.864   0.000  0.00  0.00    +0.000 A 
ATOM     33  C   UNL     1       7.088  -2.312   0.000  0.00  0.00    +0.000 A 
ATOM     34  C   UNL     1       7.867  -1.932   0.000  0.00  0.00    +0.000 A 
ATOM     35  C   UNL     1       7.865  -1.089   0.000  0.00  0.00    +0.000 A 
ATOM     36  C   UNL     1       7.167  -0.642   0.000  0.00  0.00    +0.000 A 
BRANCH  34  37
ATOM     37  O   UNL     1       8.591  -2.383   0.000  0.00  0.00    +0.000 OA
BRANCH  37  38
ATOM     38  S   UNL     1       9.309  -2.797   0.000  0.00  0.00    +0.000 S 
ATOM     39  O   UNL     1       9.728  -2.071   0.000  0.00  0.00    +0.000 OA
ATOM     40  O   UNL     1       8.899  -3.506   0.000  0.00  0.00    +0.000 OA
BRANCH  38  41
ATOM     41  O   UNL     1      10.027  -3.212   0.000  0.00  0.00    +0.000 OA
ATOM     42  H   UNL     1      10.027  -4.182   0.000  0.00  0.00    +0.000 HD
ENDBRANCH  38  41
ENDBRANCH  37  38
ENDBRANCH  34  37
ENDBRANCH  30  31
ENDBRANCH  16  30
ENDBRANCH  13  16
ENDBRANCH  11  12
BRANCH  11  43
ATOM     43  C   UNL     1       2.857   0.414   0.000  0.00  0.00    +0.000 C 
BRANCH  43  44
ATOM     44  C   UNL     1       2.168   0.858   0.000  0.00  0.00    +0.000 C 
BRANCH  44  45
ATOM     45  S   UNL     1       2.167   1.699   0.000  0.00  0.00    +0.000 S 
ATOM     46  C   UNL     1       1.446   2.114   0.000  0.00  0.00    +0.000 C 
ENDBRANCH  44  45
ENDBRANCH  43  44
ENDBRANCH  11  43
ENDBRANCH   8  11
ENDBRANCH   6   7
ENDBRANCH   3   6
ENDBRANCH   1   2
BRANCH   1  47
ATOM     47  C   UNL     1      -2.191  -0.587   0.000  0.00  0.00    +0.000 C 
ATOM     48  O   UNL     1      -2.181  -1.411   0.000  0.00  0.00    +0.000 OA
ATOM     49  N   UNL     1      -2.915  -0.180   0.000  0.00  0.00    +0.000 N 
ATOM     50  H   UNL     1      -2.927   0.805   0.000  0.00  0.00    +0.000 HD
BRANCH  49  51
ATOM     51  C   UNL     1      -3.610  -0.592   0.000  0.00  0.00    +0.000 C 
BRANCH  51  52
ATOM     52  C   UNL     1      -4.324  -0.192   0.000  0.00  0.00    +0.000 C 
ATOM     53  N   UNL     1      -5.039  -0.616   0.000  0.00  0.00    +0.000 N 
ATOM     54  O   UNL     1      -4.334   0.650   0.000  0.00  0.00    +0.000 OA
ATOM     55  H   UNL     1      -5.027  -1.601   0.000  0.00  0.00    +0.000 HD
BRANCH  53  56
ATOM     56  C   UNL     1      -5.757  -0.214   0.000  0.00  0.00    +0.000 C 
BRANCH  56  57
ATOM     57  C   UNL     1      -6.458  -0.630   0.000  0.00  0.00    +0.000 C 
ATOM     58  N   UNL     1      -7.169  -0.231   0.000  0.00  0.00    +0.000 N 
ATOM     59  O   UNL     1      -6.489  -1.453   0.000  0.00  0.00    +0.000 OA
ATOM     60  H   UNL     1      -7.182   0.753   0.000  0.00  0.00    +0.000 HD
BRANCH  58  61
ATOM     61  C   UNL     1      -7.885  -0.657   0.000  0.00  0.00    +0.000 C 
BRANCH  61  62
ATOM     62  C   UNL     1      -8.603  -0.255   0.000  0.00  0.00    +0.000 C 
ATOM     63  N   UNL     1      -9.304  -0.672   0.000  0.00  0.00    +0.000 N 
ATOM     64  O   UNL     1      -8.572   0.568   0.000  0.00  0.00    +0.000 OA
ATOM     65  H   UNL     1     -10.163  -0.190   0.000  0.00  0.00    +0.000 HD
ATOM     66  H   UNL     1      -9.291  -1.656   0.000  0.00  0.00    +0.000 HD
ENDBRANCH  61  62
BRANCH  61  67
ATOM     67  C   UNL     1      -7.875  -1.494   0.000  0.00  0.00    +0.000 C 
BRANCH  67  68
ATOM     68  C   UNL     1      -8.595  -1.922   0.000  0.00  0.00    +0.000 A 
ATOM     69  C   UNL     1      -9.318  -1.517   0.000  0.00  0.00    +0.000 A 
ATOM     70  C   UNL     1     -10.027  -1.939   0.000  0.00  0.00    +0.000 A 
ATOM     71  C   UNL     1     -10.016  -2.764   0.000  0.00  0.00    +0.000 A 
ATOM     72  C   UNL     1      -9.293  -3.169   0.000  0.00  0.00    +0.000 A 
ATOM     73  C   UNL     1      -8.584  -2.747   0.000  0.00  0.00    +0.000 A 
ENDBRANCH  67  68
ENDBRANCH  61  67
ENDBRANCH  58  61
ENDBRANCH  56  57
BRANCH  56  74
ATOM     74  C   UNL     1      -5.767   0.609   0.000  0.00  0.00    +0.000 C 
BRANCH  74  75
ATOM     75  C   UNL     1      -6.501   1.020   0.000  0.00  0.00    +0.000 C 
ATOM     76  O   UNL     1      -6.512   1.846   0.000  0.00  0.00    +0.000 OA
BRANCH  75  77
ATOM     77  O   UNL     1      -7.200   0.606   0.000  0.00  0.00    +0.000 OA
ATOM     78  H   UNL     1      -8.017   1.064   0.000  0.00  0.00    +0.000 HD
ENDBRANCH  75  77
ENDBRANCH  74  75
ENDBRANCH  56  74
ENDBRANCH  53  56
ENDBRANCH  51  52
BRANCH  51  79
ATOM     79  C   UNL     1      -3.641  -1.412   0.000  0.00  0.00    +0.000 C 
BRANCH  79  80
ATOM     80  C   UNL     1      -4.351  -1.833   0.000  0.00  0.00    +0.000 C 
BRANCH  80  81
ATOM     81  S   UNL     1      -4.382  -2.649   0.000  0.00  0.00    +0.000 S 
ATOM     82  C   UNL     1      -5.093  -3.071   0.000  0.00  0.00    +0.000 C 
ENDBRANCH  80  81
ENDBRANCH  79  80
ENDBRANCH  51  79
ENDBRANCH  49  51
ENDBRANCH   1  47
BRANCH   1  83
ATOM     83  C   UNL     1      -1.485   0.648   0.000  0.00  0.00    +0.000 C 
BRANCH  83  84
ATOM     84  C   UNL     1      -2.212   1.060   0.000  0.00  0.00    +0.000 A 
ATOM     85  C   UNL     1      -2.195   1.885   0.000  0.00  0.00    +0.000 A 
ATOM     86  C   UNL     1      -2.975   2.156   0.000  0.00  0.00    +0.000 A 
ATOM     87  N   UNL     1      -3.474   1.498   0.000  0.00  0.00    +0.000 N 
ATOM     88  C   UNL     1      -3.002   0.821   0.000  0.00  0.00    +0.000 A 
ATOM     89  C   UNL     1      -1.572   2.425   0.000  0.00  0.00    +0.000 A 
ATOM     90  C   UNL     1      -1.727   3.235   0.000  0.00  0.00    +0.000 A 
ATOM     91  C   UNL     1      -2.507   3.506   0.000  0.00  0.00    +0.000 A 
ATOM     92  C   UNL     1      -3.131   2.966   0.000  0.00  0.00    +0.000 A 
ATOM     93  H   UNL     1      -4.458   1.517   0.000  0.00  0.00    +0.000 HD
ENDBRANCH  83  84
ENDBRANCH   1  83
TORSDOF 37
