REMARK  Name = 
REMARK  43 active torsions:
REMARK  status: ('A' for Active; 'I' for Inactive)
REMARK    1  A    between atoms: CG1_1  and  CB_2
REMARK    2  A    between atoms: CB_2  and  CG2_3
REMARK    3  A    between atoms: CB_2  and  CA_4
REMARK    4  A    between atoms: C_8  and  C_59
REMARK    5  A    between atoms: N_11  and  C_58
REMARK    6  A    between atoms: CA_12  and  CB_51
REMARK    7  A    between atoms: CA_16  and  CB_43
REMARK    8  A    between atoms: CA_20  and  CB_33
REMARK    9  A    between atoms: CA_24  and  CB_28
REMARK   10  A    between atoms: CB_28  and  CG_29
REMARK   11  A    between atoms: CG_29  and  CD_30
REMARK   12  A    between atoms: CD_30  and  CE_31
REMARK   13  A    between atoms: CE_31  and  NZ_32
REMARK   14  A    between atoms: CB_33  and  CG_34
REMARK   15  A    between atoms: CB_43  and  CG_44
REMARK   16  A    between atoms: CZ_47  and  OH_50
REMARK   17  A    between atoms: CB_51  and  CG_52
REMARK   18  A    between atoms: C_59  and  C_60
REMARK   19  A    between atoms: C_60  and  S_61
REMARK   20  A    between atoms: S_61  and  C_62
REMARK   21  A    between atoms: C_62  and  C_63
REMARK   22  A    between atoms: N_65  and  C_66
REMARK   23  A    between atoms: C_66  and  C_67
REMARK   24  A    between atoms: C_67  and  C_68
REMARK   25  A    between atoms: C_67  and  N_95
REMARK   26  A    between atoms: N_70  and  C_71
REMARK   27  A    between atoms: C_71  and  C_72
REMARK   28  A    between atoms: C_71  and  C_77
REMARK   29  A    between atoms: C_72  and  C_73
REMARK   30  A    between atoms: C_73  and  C_74
REMARK   31  A    between atoms: C_74  and  C_75
REMARK   32  A    between atoms: C_75  and  N_76
REMARK   33  A    between atoms: N_79  and  C_80
REMARK   34  A    between atoms: C_80  and  C_81
REMARK   35  A    between atoms: C_80  and  C_83
REMARK   36  A    between atoms: C_81  and  S_82
REMARK   37  A    between atoms: N_85  and  C_86
REMARK   38  A    between atoms: C_86  and  C_87
REMARK   39  A    between atoms: C_86  and  C_92
REMARK   40  A    between atoms: C_87  and  C_88
REMARK   41  A    between atoms: C_88  and  C_89
REMARK   42  A    between atoms: C_89  and  C_90
REMARK   43  A    between atoms: C_90  and  N_91
REMARK                            x       y       z     vdW  Elec       q    Type
REMARK                         _______ _______ _______ _____ _____    ______ ____
ROOT
ATOM      1  CA  VAL A   6      -0.906  -0.523   0.000  0.00  0.00    +0.000 C 
ATOM      2  C   VAL A   6      -0.191  -0.111   0.000  0.00  0.00    +0.000 C 
ATOM      3  O   VAL A   6       0.523  -0.523   0.000  0.00  0.00    +0.000 OA
ATOM      4  N   UNK A   1      -0.191   0.715   0.000  0.00  0.00    +0.000 N 
ATOM      5  C   UNK A   1       0.523   1.127   0.000  0.00  0.00    +0.000 C 
ATOM      6  C   UNK A   1       0.523   1.952   0.000  0.00  0.00    +0.000 C 
ATOM      7  O   UNK A   1       1.238   2.365   0.000  0.00  0.00    +0.000 OA
ATOM      8  N   PHE A   2      -0.191   2.365   0.000  0.00  0.00    +0.000 N 
ATOM      9  CA  PHE A   2      -0.191   3.189   0.000  0.00  0.00    +0.000 C 
ATOM     10  C   PHE A   2      -0.906   3.602   0.000  0.00  0.00    +0.000 C 
ATOM     11  O   PHE A   2      -0.906   4.427   0.000  0.00  0.00    +0.000 OA
ATOM     12  N   TYR A   3      -1.620   3.189   0.000  0.00  0.00    +0.000 N 
ATOM     13  CA  TYR A   3      -2.335   3.602   0.000  0.00  0.00    +0.000 C 
ATOM     14  C   TYR A   3      -3.049   3.189   0.000  0.00  0.00    +0.000 C 
ATOM     15  O   TYR A   3      -3.764   3.602   0.000  0.00  0.00    +0.000 OA
ATOM     16  N   TRP A   4      -3.049   2.365   0.000  0.00  0.00    +0.000 N 
ATOM     17  CA  TRP A   4      -3.764   1.952   0.000  0.00  0.00    +0.000 C 
ATOM     18  C   TRP A   4      -3.764   1.127   0.000  0.00  0.00    +0.000 C 
ATOM     19  O   TRP A   4      -4.478   0.715   0.000  0.00  0.00    +0.000 OA
ATOM     20  N   LYS A   5      -3.049   0.715   0.000  0.00  0.00    +0.000 N 
ATOM     21  CA  LYS A   5      -3.049  -0.111   0.000  0.00  0.00    +0.000 C 
ATOM     22  C   LYS A   5      -2.335  -0.523   0.000  0.00  0.00    +0.000 C 
ATOM     23  O   LYS A   5      -2.335  -1.348   0.000  0.00  0.00    +0.000 OA
ATOM     24  N   VAL A   6      -1.620  -0.111   0.000  0.00  0.00    +0.000 N 
ATOM     25  C   ACE A   0      -0.906   1.952   0.000  0.00  0.00    +0.000 C 
ATOM     26  H   UNK A   1      -1.044   1.207   0.000  0.00  0.00    +0.000 HD
ATOM     27  H   TYR A   3      -1.620   2.205   0.000  0.00  0.00    +0.000 HD
ATOM     28  H   TRP A   4      -2.197   1.872   0.000  0.00  0.00    +0.000 HD
ATOM     29  H   LYS A   5      -2.197   1.207   0.000  0.00  0.00    +0.000 HD
ATOM     30  H   VAL A   6      -1.620   0.874   0.000  0.00  0.00    +0.000 HD
ENDROOT
BRANCH   1  32
ATOM     31  CG1 VAL A   6      -1.620  -1.760   0.000  0.00  0.00    +0.000 C 
ATOM     32  CB  VAL A   6      -0.906  -1.348   0.000  0.00  0.00    +0.000 C 
ATOM     33  CG2 VAL A   6      -0.191  -1.760   0.000  0.00  0.00    +0.000 C 
ENDBRANCH   1  32
BRANCH  21  34
ATOM     34  CB  LYS A   5      -3.764  -0.523   0.000  0.00  0.00    +0.000 C 
BRANCH  34  35
ATOM     35  CG  LYS A   5      -3.764  -1.348   0.000  0.00  0.00    +0.000 C 
BRANCH  35  36
ATOM     36  CD  LYS A   5      -4.478  -1.760   0.000  0.00  0.00    +0.000 C 
BRANCH  36  37
ATOM     37  CE  LYS A   5      -4.478  -2.586   0.000  0.00  0.00    +0.000 C 
BRANCH  37  38
ATOM     38  NZ  LYS A   5      -5.193  -2.998   0.000  0.00  0.00    +0.000 NA
ATOM     39  HZ1 LYS A   5      -6.076  -2.488   0.000  0.00  0.00    +0.000 HD
ATOM     40  HZ2 LYS A   5      -5.193  -4.018   0.000  0.00  0.00    +0.000 HD
ENDBRANCH  37  38
ENDBRANCH  36  37
ENDBRANCH  35  36
ENDBRANCH  34  35
ENDBRANCH  21  34
BRANCH  17  41
ATOM     41  CB  TRP A   4      -4.478   2.365   0.000  0.00  0.00    +0.000 C 
BRANCH  41  42
ATOM     42  CG  TRP A   4      -5.193   1.952   0.000  0.00  0.00    +0.000 A 
ATOM     43  CD1 TRP A   4      -5.279   1.131   0.000  0.00  0.00    +0.000 A 
ATOM     44  NE1 TRP A   4      -6.086   0.960   0.000  0.00  0.00    +0.000 N 
ATOM     45  CE2 TRP A   4      -6.498   1.674   0.000  0.00  0.00    +0.000 A 
ATOM     46  CD2 TRP A   4      -5.946   2.288   0.000  0.00  0.00    +0.000 A 
ATOM     47  CE3 TRP A   4      -6.201   3.072   0.000  0.00  0.00    +0.000 A 
ATOM     48  CZ3 TRP A   4      -7.008   3.244   0.000  0.00  0.00    +0.000 A 
ATOM     49  CH2 TRP A   4      -7.560   2.631   0.000  0.00  0.00    +0.000 A 
ATOM     50  CZ2 TRP A   4      -7.305   1.846   0.000  0.00  0.00    +0.000 A 
ATOM     51  HE1 TRP A   4      -6.486   0.061   0.000  0.00  0.00    +0.000 HD
ENDBRANCH  41  42
ENDBRANCH  17  41
BRANCH  13  52
ATOM     52  CB  TYR A   3      -2.335   4.427   0.000  0.00  0.00    +0.000 C 
BRANCH  52  53
ATOM     53  CG  TYR A   3      -3.049   4.840   0.000  0.00  0.00    +0.000 A 
ATOM     54  CD1 TYR A   3      -3.764   4.427   0.000  0.00  0.00    +0.000 A 
ATOM     55  CE1 TYR A   3      -4.478   4.840   0.000  0.00  0.00    +0.000 A 
ATOM     56  CZ  TYR A   3      -4.478   5.665   0.000  0.00  0.00    +0.000 A 
ATOM     57  CE2 TYR A   3      -3.764   6.077   0.000  0.00  0.00    +0.000 A 
ATOM     58  CD2 TYR A   3      -3.049   5.665   0.000  0.00  0.00    +0.000 A 
BRANCH  56  59
ATOM     59  OH  TYR A   3      -5.193   6.077   0.000  0.00  0.00    +0.000 OA
ATOM     60  HH  TYR A   3      -5.193   7.014   0.000  0.00  0.00    +0.000 HD
ENDBRANCH  56  59
ENDBRANCH  52  53
ENDBRANCH  13  52
BRANCH   9  61
ATOM     61  CB  PHE A   2       0.523   3.602   0.000  0.00  0.00    +0.000 C 
BRANCH  61  62
ATOM     62  CG  PHE A   2       0.523   4.427   0.000  0.00  0.00    +0.000 A 
ATOM     63  CD1 PHE A   2      -0.191   4.840   0.000  0.00  0.00    +0.000 A 
ATOM     64  CE1 PHE A   2      -0.191   5.665   0.000  0.00  0.00    +0.000 A 
ATOM     65  CZ  PHE A   2       0.523   6.077   0.000  0.00  0.00    +0.000 A 
ATOM     66  CE2 PHE A   2       1.238   5.665   0.000  0.00  0.00    +0.000 A 
ATOM     67  CD2 PHE A   2       1.238   4.840   0.000  0.00  0.00    +0.000 A 
ENDBRANCH  61  62
ENDBRANCH   9  61
BRANCH   5  68
ATOM     68  C   UNK A   1       1.238   0.715   0.000  0.00  0.00    +0.000 C 
BRANCH  68  69
ATOM     69  C   UNK A   1       1.952   1.127   0.000  0.00  0.00    +0.000 C 
BRANCH  69  70
ATOM     70  S   UNK A   1       2.666   0.715   0.000  0.00  0.00    +0.000 S 
BRANCH  70  71
ATOM     71  C   UNK A   1       3.381   1.127   0.000  0.00  0.00    +0.000 C 
BRANCH  71  72
ATOM     72  C   UNK A   1       4.095   0.715   0.000  0.00  0.00    +0.000 C 
ATOM     73  O   UNK A   1       4.095  -0.111   0.000  0.00  0.00    +0.000 OA
ATOM     74  N   UNK A   1       4.810   1.127   0.000  0.00  0.00    +0.000 N 
ATOM     75  H   UNK A   1       4.810   2.111   0.000  0.00  0.00    +0.000 HD
BRANCH  74  76
ATOM     76  C   UNK A   1       5.524   0.715   0.000  0.00  0.00    +0.000 C 
BRANCH  76  77
ATOM     77  C   UNK A   1       6.239   1.127   0.000  0.00  0.00    +0.000 C 
BRANCH  77  78
ATOM     78  C   UNK A   1       6.953   0.715   0.000  0.00  0.00    +0.000 C 
ATOM     79  O   UNK A   1       6.953  -0.111   0.000  0.00  0.00    +0.000 OA
ATOM     80  N   UNK A   1       7.668   1.127   0.000  0.00  0.00    +0.000 N 
ATOM     81  H   UNK A   1       7.668   2.111   0.000  0.00  0.00    +0.000 HD
BRANCH  80  82
ATOM     82  C   UNK A   1       8.382   0.715   0.000  0.00  0.00    +0.000 C 
BRANCH  82  83
ATOM     83  C   UNK A   1       9.097   1.127   0.000  0.00  0.00    +0.000 C 
ATOM     84  O   UNK A   1       9.097   1.952   0.000  0.00  0.00    +0.000 OA
ATOM     85  N   UNK A   1       9.811   0.715   0.000  0.00  0.00    +0.000 N 
ATOM     86  H   UNK A   1       9.811  -0.270   0.000  0.00  0.00    +0.000 HD
BRANCH  85  87
ATOM     87  C   UNK A   1      10.526   1.127   0.000  0.00  0.00    +0.000 C 
BRANCH  87  88
ATOM     88  C   UNK A   1      11.240   0.715   0.000  0.00  0.00    +0.000 C 
ATOM     89  O   UNK A   1      11.240  -0.111   0.000  0.00  0.00    +0.000 OA
ATOM     90  N   UNK A   1      11.955   1.127   0.000  0.00  0.00    +0.000 N 
ATOM     91  H   UNK A   1      11.955   2.111   0.000  0.00  0.00    +0.000 HD
BRANCH  90  92
ATOM     92  C   UNK A   1      12.669   0.715   0.000  0.00  0.00    +0.000 C 
BRANCH  92  93
ATOM     93  C   UNK A   1      12.669  -0.111   0.000  0.00  0.00    +0.000 C 
ATOM     94  O   UNK A   1      13.383  -0.523   0.000  0.00  0.00    +0.000 OA
ATOM     95  N   UNK A   1      11.955  -0.523   0.000  0.00  0.00    +0.000 N 
ATOM     96  H   UNK A   1      11.102  -0.031   0.000  0.00  0.00    +0.000 HD
ATOM     97  H   UNK A   1      11.955  -1.507   0.000  0.00  0.00    +0.000 HD
ENDBRANCH  92  93
BRANCH  92  98
ATOM     98  C   UNK A   1      13.383   1.127   0.000  0.00  0.00    +0.000 C 
BRANCH  98  99
ATOM     99  C   UNK A   1      14.098   0.715   0.000  0.00  0.00    +0.000 C 
BRANCH  99 100
ATOM    100  C   UNK A   1      14.812   1.127   0.000  0.00  0.00    +0.000 C 
BRANCH 100 101
ATOM    101  C   UNK A   1      15.527   0.715   0.000  0.00  0.00    +0.000 C 
BRANCH 101 102
ATOM    102  N   UNK A   1      16.241   1.127   0.000  0.00  0.00    +0.000 NA
ATOM    103  H   UNK A   1      17.125   0.617   0.000  0.00  0.00    +0.000 HD
ATOM    104  H   UNK A   1      16.241   2.147   0.000  0.00  0.00    +0.000 HD
ENDBRANCH 101 102
ENDBRANCH 100 101
ENDBRANCH  99 100
ENDBRANCH  98  99
ENDBRANCH  92  98
ENDBRANCH  90  92
ENDBRANCH  87  88
BRANCH  87 105
ATOM    105  C   UNK A   1      10.526   1.952   0.000  0.00  0.00    +0.000 C 
BRANCH 105 106
ATOM    106  S   UNK A   1      11.240   2.365   0.000  0.00  0.00    +0.000 S 
ATOM    107  H   UNK A   1      12.418   1.684   0.000  0.00  0.00    +0.000 HD
ENDBRANCH 105 106
ENDBRANCH  87 105
ENDBRANCH  85  87
ENDBRANCH  82  83
BRANCH  82 108
ATOM    108  C   UNK A   1       8.382  -0.111   0.000  0.00  0.00    +0.000 C 
BRANCH 108 109
ATOM    109  C   UNK A   1       9.097  -0.523   0.000  0.00  0.00    +0.000 C 
BRANCH 109 110
ATOM    110  C   UNK A   1       9.097  -1.348   0.000  0.00  0.00    +0.000 C 
BRANCH 110 111
ATOM    111  C   UNK A   1       9.811  -1.760   0.000  0.00  0.00    +0.000 C 
BRANCH 111 112
ATOM    112  N   UNK A   1       9.811  -2.586   0.000  0.00  0.00    +0.000 NA
ATOM    113  H   UNK A   1       8.928  -3.096   0.000  0.00  0.00    +0.000 HD
ATOM    114  H   UNK A   1      10.695  -3.096   0.000  0.00  0.00    +0.000 HD
ENDBRANCH 111 112
ENDBRANCH 110 111
ENDBRANCH 109 110
ENDBRANCH 108 109
ENDBRANCH  82 108
ENDBRANCH  80  82
ENDBRANCH  77  78
BRANCH  77 115
ATOM    115  N   UNK A   1       6.239   1.952   0.000  0.00  0.00    +0.000 NA
ATOM    116  H   UNK A   1       7.122   2.462   0.000  0.00  0.00    +0.000 HD
ATOM    117  H   UNK A   1       5.355   2.462   0.000  0.00  0.00    +0.000 HD
ENDBRANCH  77 115
ENDBRANCH  76  77
ENDBRANCH  74  76
ENDBRANCH  71  72
ENDBRANCH  70  71
ENDBRANCH  69  70
ENDBRANCH  68  69
ENDBRANCH   5  68
TORSDOF 40
