REMARK  Name = 
REMARK  33 active torsions:
REMARK  status: ('A' for Active; 'I' for Inactive)
REMARK    1  A    between atoms: CD1_1  and  CG1_2
REMARK    2  A    between atoms: CG1_2  and  CB_3
REMARK    3  A    between atoms: CB_3  and  CG2_4
REMARK    4  A    between atoms: CB_3  and  CA_5
REMARK    5  A    between atoms: CA_5  and  N_6
REMARK    6  A    between atoms: CA_5  and  C_45
REMARK    7  A    between atoms: C_7  and  CA_9
REMARK    8  A    between atoms: CA_9  and  CB_10
REMARK    9  A    between atoms: CA_9  and  N_18
REMARK   10  A    between atoms: CB_10  and  CG_11
REMARK   11  A    between atoms: CZ_14  and  OH_15
REMARK   12  A    between atoms: C_19  and  CA_21
REMARK   13  A    between atoms: CA_21  and  N_22
REMARK   14  A    between atoms: CA_21  and  CB_42
REMARK   15  A    between atoms: C_23  and  CA_25
REMARK   16  A    between atoms: CA_25  and  CB_26
REMARK   17  A    between atoms: CA_25  and  N_33
REMARK   18  A    between atoms: CB_26  and  CG_27
REMARK   19  A    between atoms: CG_27  and  CD_28
REMARK   20  A    between atoms: CD_28  and  NE_29
REMARK   21  A    between atoms: C_34  and  CA_36
REMARK   22  A    between atoms: CA_36  and  N_37
REMARK   23  A    between atoms: CA_36  and  CB_38
REMARK   24  A    between atoms: CB_38  and  CG_39
REMARK   25  A    between atoms: CG_39  and  OD2_41
REMARK   26  A    between atoms: CB_42  and  CG1_43
REMARK   27  A    between atoms: CB_42  and  CG2_44
REMARK   28  A    between atoms: N_47  and  CA_48
REMARK   29  A    between atoms: CA_48  and  CB_49
REMARK   30  A    between atoms: CA_48  and  C_55
REMARK   31  A    between atoms: CB_49  and  CG_50
REMARK   32  A    between atoms: CA_61  and  C_62
REMARK   33  A    between atoms: C_62  and  OXT_64
REMARK                            x       y       z     vdW  Elec       q    Type
REMARK                         _______ _______ _______ _____ _____    ______ ____
ROOT
ATOM      1  CA  TYR A   4      -0.647  -0.692   0.199  0.00  0.00    +0.000 C 
ENDROOT
BRANCH   1   3
ATOM      2  N   ILE A   5      -2.649  -2.295   0.427  0.00  0.00    +0.000 N 
ATOM      3  C   TYR A   4      -1.768  -1.621  -0.482  0.00  0.00    +0.000 C 
ATOM      4  O   TYR A   4      -1.810  -1.736  -1.687  0.00  0.00    +0.000 OA
ATOM      5  H   ILE A   5      -2.415  -2.488   1.364  0.00  0.00    +0.000 HD
BRANCH   2   6
ATOM      6  CA  ILE A   5      -4.023  -2.695  -0.220  0.00  0.00    +0.000 C 
BRANCH   6   7
ATOM      7  C   ILE A   5      -4.668  -1.234  -0.107  0.00  0.00    +0.000 C 
ATOM      8  O   ILE A   5      -3.897  -0.283  -0.209  0.00  0.00    +0.000 OA
ATOM      9  N   HIS A   6      -5.943  -1.023  -0.673  0.00  0.00    +0.000 N 
ATOM     10  H   HIS A   6      -6.647  -1.710  -0.636  0.00  0.00    +0.000 HD
BRANCH   9  11
ATOM     11  CA  HIS A   6      -6.177   0.374  -1.367  0.00  0.00    +0.000 C 
BRANCH  11  12
ATOM     12  C   HIS A   6      -6.289   1.161   0.037  0.00  0.00    +0.000 C 
ATOM     13  O   HIS A   6      -5.301   1.938   0.270  0.00  0.00    +0.000 OA
ATOM     14  N   PRO A   7      -7.453   1.960   0.233  0.00  0.00    +0.000 N 
ATOM     15  CD  PRO A   7      -7.787   3.256  -0.264  0.00  0.00    +0.000 C 
ATOM     16  CG  PRO A   7      -7.476   4.047   0.977  0.00  0.00    +0.000 C 
ATOM     17  CB  PRO A   7      -7.845   3.267   2.147  0.00  0.00    +0.000 C 
ATOM     18  CA  PRO A   7      -8.275   1.794   1.564  0.00  0.00    +0.000 C 
BRANCH  18  19
ATOM     19  C   PRO A   7      -9.637   2.274   0.852  0.00  0.00    +0.000 C 
ATOM     20  O   PRO A   7     -10.429   1.282   0.913  0.00  0.00    +0.000 OA
BRANCH  19  21
ATOM     21  OXT PRO A   7     -10.135   3.498   1.031  0.00  0.00    +0.000 OA
ATOM     22  HXT PRO A   7      -9.570   4.244   0.991  0.00  0.00    +0.000 HD
ENDBRANCH  19  21
ENDBRANCH  18  19
ENDBRANCH  11  12
BRANCH  11  23
ATOM     23  CB  HIS A   6      -7.791   0.090  -1.493  0.00  0.00    +0.000 C 
BRANCH  23  24
ATOM     24  CG  HIS A   6      -7.899  -1.188  -2.217  0.00  0.00    +0.000 A 
ATOM     25  CD2 HIS A   6      -7.068  -1.715  -3.196  0.00  0.00    +0.000 A 
ATOM     26  NE2 HIS A   6      -7.262  -3.053  -3.270  0.00  0.00    +0.000 NA
ATOM     27  CE1 HIS A   6      -7.889  -3.393  -2.139  0.00  0.00    +0.000 A 
ATOM     28  ND1 HIS A   6      -8.505  -2.276  -1.682  0.00  0.00    +0.000 N 
ATOM     29  HD1 HIS A   6      -9.269  -2.258  -1.062  0.00  0.00    +0.000 HD
ENDBRANCH  23  24
ENDBRANCH  11  23
ENDBRANCH   9  11
ENDBRANCH   6   7
BRANCH   6  30
ATOM     30  CB  ILE A   5      -4.659  -3.122   1.302  0.00  0.00    +0.000 C 
ATOM     31  CG2 ILE A   5      -5.866  -3.964   0.631  0.00  0.00    +0.000 C 
BRANCH  30  33
ATOM     32  CD1 ILE A   5      -3.096  -4.379   1.678  0.00  0.00    +0.000 C 
ATOM     33  CG1 ILE A   5      -3.695  -4.414   1.405  0.00  0.00    +0.000 C 
ENDBRANCH  30  33
ENDBRANCH   6  30
ENDBRANCH   2   6
ENDBRANCH   1   3
BRANCH   1  34
ATOM     34  N   TYR A   4       0.540  -1.407  -0.551  0.00  0.00    +0.000 N 
ATOM     35  C   VAL A   3       1.837  -1.214   0.040  0.00  0.00    +0.000 C 
ATOM     36  O   VAL A   3       1.896  -0.480   1.060  0.00  0.00    +0.000 OA
ATOM     37  H   TYR A   4       0.405  -1.946  -1.364  0.00  0.00    +0.000 HD
BRANCH  35  38
ATOM     38  CA  VAL A   3       2.910  -0.777  -1.084  0.00  0.00    +0.000 C 
BRANCH  38  39
ATOM     39  N   VAL A   3       4.150  -0.863  -0.110  0.00  0.00    +0.000 N 
ATOM     40  C   ARG A   2       5.398  -0.472  -0.725  0.00  0.00    +0.000 C 
ATOM     41  O   ARG A   2       5.362  -0.694  -1.956  0.00  0.00    +0.000 OA
ATOM     42  H   VAL A   3       4.079  -1.155   0.827  0.00  0.00    +0.000 HD
BRANCH  40  43
ATOM     43  CA  ARG A   2       5.933   0.973  -0.238  0.00  0.00    +0.000 C 
BRANCH  43  44
ATOM     44  N   ARG A   2       7.065   0.347   0.666  0.00  0.00    +0.000 N 
ATOM     45  C   ASP A   1       7.244   1.060   1.828  0.00  0.00    +0.000 C 
ATOM     46  O   ASP A   1       6.268   1.421   2.539  0.00  0.00    +0.000 OA
ATOM     47  H   ARG A   2       7.581  -0.457   0.427  0.00  0.00    +0.000 HD
BRANCH  45  48
ATOM     48  CA  ASP A   1       8.673   1.172   2.556  0.00  0.00    +0.000 C 
BRANCH  48  49
ATOM     49  N   ASP A   1       9.142  -0.262   2.099  0.00  0.00    +0.000 NA
ATOM     50  H1  ASP A   1       8.947  -0.382   1.105  0.00  0.00    +0.000 HD
ATOM     51  H2  ASP A   1       8.638  -0.971   2.632  0.00  0.00    +0.000 HD
ENDBRANCH  48  49
BRANCH  48  52
ATOM     52  CB  ASP A   1       9.391   1.890   1.262  0.00  0.00    +0.000 C 
BRANCH  52  53
ATOM     53  CG  ASP A   1      10.642   2.481   1.767  0.00  0.00    +0.000 C 
ATOM     54  OD1 ASP A   1      11.664   2.458   1.021  0.00  0.00    +0.000 OA
BRANCH  53  55
ATOM     55  OD2 ASP A   1      10.562   3.586   2.619  0.00  0.00    +0.000 OA
ATOM     56  HD2 ASP A   1       9.835   3.676   3.203  0.00  0.00    +0.000 HD
ENDBRANCH  53  55
ENDBRANCH  52  53
ENDBRANCH  48  52
ENDBRANCH  45  48
ENDBRANCH  43  44
BRANCH  43  57
ATOM     57  CB  ARG A   2       7.004   1.206  -1.468  0.00  0.00    +0.000 C 
BRANCH  57  58
ATOM     58  CG  ARG A   2       7.629   0.004  -1.738  0.00  0.00    +0.000 C 
BRANCH  58  59
ATOM     59  CD  ARG A   2       8.918  -0.527  -1.770  0.00  0.00    +0.000 C 
BRANCH  59  60
ATOM     60  NE  ARG A   2       8.775  -1.842  -1.135  0.00  0.00    +0.000 N 
ATOM     61  CZ  ARG A   2       9.747  -2.850  -1.208  0.00  0.00    +0.000 C 
ATOM     62  NH1 ARG A   2      10.735  -2.656  -1.996  0.00  0.00    +0.000 NA
ATOM     63  NH2 ARG A   2       9.886  -3.671  -0.044  0.00  0.00    +0.000 N 
ATOM     64  HE  ARG A   2       7.951  -2.027  -0.630  0.00  0.00    +0.000 HD
ATOM     65  HH1 ARG A   2      10.625  -2.088  -2.793  0.00  0.00    +0.000 HD
ATOM     66 HH21 ARG A   2       9.117  -3.812   0.554  0.00  0.00    +0.000 HD
ATOM     67 HH22 ARG A   2      10.751  -4.096   0.158  0.00  0.00    +0.000 HD
ENDBRANCH  59  60
ENDBRANCH  58  59
ENDBRANCH  57  58
ENDBRANCH  43  57
ENDBRANCH  40  43
ENDBRANCH  38  39
BRANCH  38  68
ATOM     68  CB  VAL A   3       3.133  -2.316  -1.605  0.00  0.00    +0.000 C 
ATOM     69  CG1 VAL A   3       3.271  -3.187  -0.418  0.00  0.00    +0.000 C 
ATOM     70  CG2 VAL A   3       1.983  -2.625  -2.505  0.00  0.00    +0.000 C 
ENDBRANCH  38  68
ENDBRANCH  35  38
ENDBRANCH   1  34
BRANCH   1  71
ATOM     71  CB  TYR A   4      -0.735   0.487  -0.951  0.00  0.00    +0.000 C 
BRANCH  71  72
ATOM     72  CG  TYR A   4      -0.653   1.754  -0.196  0.00  0.00    +0.000 A 
ATOM     73  CD1 TYR A   4       0.312   2.656  -0.629  0.00  0.00    +0.000 A 
ATOM     74  CE1 TYR A   4       0.590   3.744   0.165  0.00  0.00    +0.000 A 
ATOM     75  CZ  TYR A   4      -0.266   4.084   1.200  0.00  0.00    +0.000 A 
ATOM     76  CE2 TYR A   4      -1.502   3.453   1.234  0.00  0.00    +0.000 A 
ATOM     77  CD2 TYR A   4      -1.742   2.337   0.443  0.00  0.00    +0.000 A 
BRANCH  75  78
ATOM     78  OH  TYR A   4       0.173   4.873   2.266  0.00  0.00    +0.000 OA
ATOM     79  HH  TYR A   4       1.010   5.292   2.226  0.00  0.00    +0.000 HD
ENDBRANCH  75  78
ENDBRANCH  71  72
ENDBRANCH   1  71
TORSDOF 29
