REMARK  Name = 71249967
REMARK  14 active torsions:
REMARK  status: ('A' for Active; 'I' for Inactive)
REMARK    1  A    between atoms: O_4  and  C_29
REMARK    2  A    between atoms: O_5  and  C_30
REMARK    3  A    between atoms: N_9  and  C_25
REMARK    4  A    between atoms: N_10  and  C_26
REMARK    5  A    between atoms: C_12  and  C_17
REMARK    6  A    between atoms: C_12  and  C_20
REMARK    7  A    between atoms: C_16  and  C_18
REMARK    8  A    between atoms: C_17  and  C_23
REMARK    9  A    between atoms: C_24  and  C_26
REMARK   10  A    between atoms: C_25  and  C_29
REMARK   11  A    between atoms: C_25  and  C_31
REMARK   12  A    between atoms: C_26  and  C_30
REMARK   13  A    between atoms: C_29  and  C_35
REMARK   14  A    between atoms: C_30  and  C_36
REMARK                            x       y       z     vdW  Elec       q    Type
REMARK                         _______ _______ _______ _____ _____    ______ ____
ROOT
ATOM      1  O   UNL     1       0.987   0.407  -0.311  0.00  0.00    +0.000 OA
ATOM      2  N   UNL     1      -0.067  -0.441   1.559  0.00  0.00    +0.000 N 
ATOM      3  C   UNL     1      -1.417  -0.788   1.066  0.00  0.00    +0.000 C 
ATOM      4  C   UNL     1      -2.063  -1.530   2.256  0.00  0.00    +0.000 C 
ATOM      5  C   UNL     1       0.069  -0.783   2.971  0.00  0.00    +0.000 C 
ATOM      6  C   UNL     1      -1.351  -0.959   3.474  0.00  0.00    +0.000 C 
ATOM      7  C   UNL     1       1.021   0.092   0.883  0.00  0.00    +0.000 C 
ENDROOT
BRANCH   7  10
ATOM      8  O   UNL     1       3.320  -2.145   0.545  0.00  0.00    +0.000 OA
ATOM      9  N   UNL     1       3.392   0.163   0.705  0.00  0.00    +0.000 N 
ATOM     10  C   UNL     1       2.292   0.298   1.651  0.00  0.00    +0.000 C 
ATOM     11  C   UNL     1       2.409   1.723   2.179  0.00  0.00    +0.000 C 
ATOM     12  C   UNL     1       3.050   2.480   1.019  0.00  0.00    +0.000 C 
ATOM     13  C   UNL     1       4.003   1.458   0.418  0.00  0.00    +0.000 C 
ATOM     14  C   UNL     1       3.863  -1.071   0.283  0.00  0.00    +0.000 C 
BRANCH  14  15
ATOM     15  C   UNL     1       5.116  -1.035  -0.556  0.00  0.00    +0.000 C 
BRANCH  15  16
ATOM     16  N   UNL     1       5.828  -2.259  -0.220  0.00  0.00    +0.000 NA
ATOM     17  H   UNL     1       6.123  -2.232   0.755  0.00  0.00    +0.000 HD
ATOM     18  H   UNL     1       6.682  -2.324  -0.773  0.00  0.00    +0.000 HD
ENDBRANCH  15  16
BRANCH  15  19
ATOM     19  C   UNL     1       4.745  -0.917  -2.038  0.00  0.00    +0.000 C 
ATOM     20  C   UNL     1       5.915  -0.480  -2.914  0.00  0.00    +0.000 C 
BRANCH  19  21
ATOM     21  O   UNL     1       4.321  -2.208  -2.487  0.00  0.00    +0.000 OA
ATOM     22  H   UNL     1       4.056  -2.121  -3.419  0.00  0.00    +0.000 HD
ENDBRANCH  19  21
ENDBRANCH  15  19
ENDBRANCH  14  15
ENDBRANCH   7  10
BRANCH   3  25
ATOM     23  O   UNL     1      -3.150   0.799   1.524  0.00  0.00    +0.000 OA
ATOM     24  N   UNL     1      -1.663   1.226  -0.216  0.00  0.00    +0.000 N 
ATOM     25  C   UNL     1      -2.178   0.492   0.839  0.00  0.00    +0.000 C 
ATOM     26  H   UNL     1      -0.844   0.891  -0.711  0.00  0.00    +0.000 HD
BRANCH  24  27
ATOM     27  C   UNL     1      -2.227   2.483  -0.653  0.00  0.00    +0.000 C 
BRANCH  27  30
ATOM     28  O   UNL     1      -1.084   2.116  -2.768  0.00  0.00    +0.000 OA
ATOM     29  N   UNL     1      -3.087   3.239  -2.786  0.00  0.00    +0.000 N 
ATOM     30  C   UNL     1      -2.056   2.566  -2.166  0.00  0.00    +0.000 C 
ATOM     31  H   UNL     1      -3.874   3.623  -2.273  0.00  0.00    +0.000 HD
ATOM     32  H   UNL     1      -3.090   3.375  -3.791  0.00  0.00    +0.000 HD
ENDBRANCH  27  30
BRANCH  27  33
ATOM     33  C   UNL     1      -1.595   3.693   0.047  0.00  0.00    +0.000 C 
ATOM     34  C   UNL     1      -1.724   3.621   1.565  0.00  0.00    +0.000 C 
BRANCH  33  35
ATOM     35  O   UNL     1      -0.212   3.776  -0.297  0.00  0.00    +0.000 OA
ATOM     36  H   UNL     1       0.157   4.555   0.152  0.00  0.00    +0.000 HD
ENDBRANCH  33  35
ENDBRANCH  27  33
ENDBRANCH  24  27
ENDBRANCH   3  25
BRANCH   3  37
ATOM     37  C   UNL     1      -1.453  -1.676  -0.175  0.00  0.00    +0.000 C 
BRANCH  37  38
ATOM     38  C   UNL     1      -2.861  -2.047  -0.550  0.00  0.00    +0.000 A 
ATOM     39  C   UNL     1      -3.586  -1.237  -1.425  0.00  0.00    +0.000 A 
ATOM     40  C   UNL     1      -3.443  -3.200  -0.025  0.00  0.00    +0.000 A 
ATOM     41  C   UNL     1      -4.892  -1.580  -1.774  0.00  0.00    +0.000 A 
ATOM     42  C   UNL     1      -4.750  -3.544  -0.373  0.00  0.00    +0.000 A 
ATOM     43  C   UNL     1      -5.474  -2.734  -1.248  0.00  0.00    +0.000 A 
ENDBRANCH  37  38
ENDBRANCH   3  37
TORSDOF 12
