REMARK  Name = 
REMARK  30 active torsions:
REMARK  status: ('A' for Active; 'I' for Inactive)
REMARK    1  A    between atoms: CE_1  and  SD_2
REMARK    2  A    between atoms: SD_2  and  CG_3
REMARK    3  A    between atoms: CG_3  and  CB_4
REMARK    4  A    between atoms: CB_4  and  CA_5
REMARK    5  A    between atoms: CA_5  and  N_6
REMARK    6  A    between atoms: CA_5  and  C_9
REMARK    7  A    between atoms: N_11  and  CA_12
REMARK    8  A    between atoms: CA_12  and  CB_13
REMARK    9  A    between atoms: CA_12  and  C_17
REMARK   10  A    between atoms: CB_13  and  CG_14
REMARK   11  A    between atoms: CG_14  and  OD2_16
REMARK   12  A    between atoms: N_19  and  CA_20
REMARK   13  A    between atoms: CA_20  and  C_21
REMARK   14  A    between atoms: N_23  and  CA_24
REMARK   15  A    between atoms: CA_24  and  CB_25
REMARK   16  A    between atoms: CA_24  and  C_27
REMARK   17  A    between atoms: CB_25  and  SG_26
REMARK   18  A    between atoms: N_29  and  CA_30
REMARK   19  A    between atoms: CA_30  and  CB_31
REMARK   20  A    between atoms: CA_30  and  C_36
REMARK   21  A    between atoms: CB_31  and  CG_32
REMARK   22  A    between atoms: CG_32  and  CD_33
REMARK   23  A    between atoms: CD_33  and  OE2_35
REMARK   24  A    between atoms: N_38  and  CA_39
REMARK   25  A    between atoms: CA_39  and  CB_40
REMARK   26  A    between atoms: CA_39  and  C_44
REMARK   27  A    between atoms: CB_40  and  CG_41
REMARK   28  A    between atoms: CG_41  and  CD1_42
REMARK   29  A    between atoms: CG_41  and  CD2_43
REMARK   30  A    between atoms: C_44  and  OXT_46
REMARK                            x       y       z     vdW  Elec       q    Type
REMARK                         _______ _______ _______ _____ _____    ______ ____
ROOT
ATOM      1  C   GLY A   3       0.778  -0.632  -1.318  0.00  0.00    +0.000 C 
ATOM      2  O   GLY A   3       0.600  -1.706  -1.968  0.00  0.00    +0.000 OA
ATOM      3  N   CYS A   4       0.291  -0.465   0.019  0.00  0.00    +0.000 N 
ATOM      4  H   CYS A   4       0.723   0.113   0.689  0.00  0.00    +0.000 HD
ENDROOT
BRANCH   1   5
ATOM      5  CA  GLY A   3       2.026   0.135  -1.630  0.00  0.00    +0.000 C 
BRANCH   5   8
ATOM      6  C   ASP A   2       3.464   0.526   0.389  0.00  0.00    +0.000 C 
ATOM      7  O   ASP A   2       2.684   1.409   0.794  0.00  0.00    +0.000 OA
ATOM      8  N   GLY A   3       2.977  -0.345  -0.629  0.00  0.00    +0.000 N 
ATOM      9  H   GLY A   3       3.285  -1.279  -0.658  0.00  0.00    +0.000 HD
BRANCH   6  10
ATOM     10  CA  ASP A   2       4.158  -0.345   1.573  0.00  0.00    +0.000 C 
BRANCH  10  13
ATOM     11  C   MET A   1       5.847  -0.131  -0.327  0.00  0.00    +0.000 C 
ATOM     12  O   MET A   1       5.650   1.049  -0.396  0.00  0.00    +0.000 OA
ATOM     13  N   ASP A   2       5.242  -0.970   0.605  0.00  0.00    +0.000 N 
ATOM     14  H   ASP A   2       5.482  -1.924   0.659  0.00  0.00    +0.000 HD
BRANCH  11  15
ATOM     15  CA  MET A   1       7.207  -0.796  -0.893  0.00  0.00    +0.000 C 
BRANCH  15  16
ATOM     16  N   MET A   1       7.543   0.419  -1.855  0.00  0.00    +0.000 N 
ATOM     17  C   UNK A   0       7.014   0.227  -3.167  0.00  0.00    +0.000 C 
ATOM     18  O   UNK A   0       7.355  -0.852  -3.735  0.00  0.00    +0.000 OA
ATOM     19  H   MET A   1       8.055   1.214  -1.580  0.00  0.00    +0.000 HD
ENDBRANCH  15  16
BRANCH  15  20
ATOM     20  CB  MET A   1       8.104  -0.139   0.337  0.00  0.00    +0.000 C 
BRANCH  20  21
ATOM     21  CG  MET A   1       8.730  -1.424   0.871  0.00  0.00    +0.000 C 
BRANCH  21  23
ATOM     22  CE  MET A   1       9.196  -0.572   3.074  0.00  0.00    +0.000 C 
ATOM     23  SD  MET A   1       9.508  -0.954   2.452  0.00  0.00    +0.000 S 
ENDBRANCH  21  23
ENDBRANCH  20  21
ENDBRANCH  15  20
ENDBRANCH  11  15
ENDBRANCH  10  13
BRANCH  10  24
ATOM     24  CB  ASP A   2       5.154   0.903   2.014  0.00  0.00    +0.000 C 
BRANCH  24  25
ATOM     25  CG  ASP A   2       5.143   0.786   3.506  0.00  0.00    +0.000 C 
ATOM     26  OD1 ASP A   2       5.534  -0.246   4.115  0.00  0.00    +0.000 OA
BRANCH  25  27
ATOM     27  OD2 ASP A   2       4.261   1.626   4.191  0.00  0.00    +0.000 OA
ATOM     28  HD2 ASP A   2       3.943   2.406   3.780  0.00  0.00    +0.000 HD
ENDBRANCH  25  27
ENDBRANCH  24  25
ENDBRANCH  10  24
ENDBRANCH   6  10
ENDBRANCH   5   8
ENDBRANCH   1   5
BRANCH   3  29
ATOM     29  CA  CYS A   4      -1.020  -1.312   0.305  0.00  0.00    +0.000 C 
BRANCH  29  30
ATOM     30  C   CYS A   4      -1.953  -0.227  -0.447  0.00  0.00    +0.000 C 
ATOM     31  O   CYS A   4      -1.955   0.928  -0.059  0.00  0.00    +0.000 OA
ATOM     32  N   GLU A   5      -3.040  -0.651  -1.221  0.00  0.00    +0.000 N 
ATOM     33  H   GLU A   5      -2.965  -1.001  -2.138  0.00  0.00    +0.000 HD
BRANCH  32  34
ATOM     34  CA  GLU A   5      -4.410  -0.495  -0.431  0.00  0.00    +0.000 C 
BRANCH  34  35
ATOM     35  C   GLU A   5      -5.276  -0.233  -1.778  0.00  0.00    +0.000 C 
ATOM     36  O   GLU A   5      -5.592   0.913  -2.080  0.00  0.00    +0.000 OA
ATOM     37  N   LEU A   6      -6.267  -1.207  -1.856  0.00  0.00    +0.000 N 
ATOM     38  H   LEU A   6      -6.064  -2.129  -1.579  0.00  0.00    +0.000 HD
BRANCH  37  39
ATOM     39  CA  LEU A   6      -7.713  -0.851  -2.385  0.00  0.00    +0.000 C 
BRANCH  39  40
ATOM     40  C   LEU A   6      -7.187   0.309  -3.397  0.00  0.00    +0.000 C 
ATOM     41  O   LEU A   6      -6.848  -0.284  -4.469  0.00  0.00    +0.000 OA
BRANCH  40  42
ATOM     42  OXT LEU A   6      -8.178   1.275  -3.625  0.00  0.00    +0.000 OA
ATOM     43  HXT LEU A   6      -8.512   1.781  -2.911  0.00  0.00    +0.000 HD
ENDBRANCH  40  42
ENDBRANCH  39  40
BRANCH  39  44
ATOM     44  CB  LEU A   6      -8.007   0.241  -1.175  0.00  0.00    +0.000 C 
BRANCH  44  45
ATOM     45  CG  LEU A   6      -8.377  -0.556   0.028  0.00  0.00    +0.000 C 
ATOM     46  CD1 LEU A   6      -7.830   0.092   1.279  0.00  0.00    +0.000 C 
ATOM     47  CD2 LEU A   6      -7.988  -1.998  -0.020  0.00  0.00    +0.000 C 
ENDBRANCH  44  45
ENDBRANCH  39  44
ENDBRANCH  37  39
ENDBRANCH  34  35
BRANCH  34  48
ATOM     48  CB  GLU A   5      -4.154   1.106  -0.091  0.00  0.00    +0.000 C 
BRANCH  48  49
ATOM     49  CG  GLU A   5      -4.696   1.367   1.251  0.00  0.00    +0.000 C 
BRANCH  49  50
ATOM     50  CD  GLU A   5      -5.017   0.266   2.125  0.00  0.00    +0.000 C 
ATOM     51  OE1 GLU A   5      -5.305   0.577   3.324  0.00  0.00    +0.000 OA
BRANCH  50  52
ATOM     52  OE2 GLU A   5      -4.785  -1.080   1.962  0.00  0.00    +0.000 OA
ATOM     53  HE2 GLU A   5      -4.563  -1.419   1.117  0.00  0.00    +0.000 HD
ENDBRANCH  50  52
ENDBRANCH  49  50
ENDBRANCH  48  49
ENDBRANCH  34  48
ENDBRANCH  32  34
ENDBRANCH  29  30
BRANCH  29  54
ATOM     54  CB  CYS A   4      -1.197  -0.604   1.796  0.00  0.00    +0.000 C 
BRANCH  54  55
ATOM     55  SG  CYS A   4      -1.675  -1.888   2.940  0.00  0.00    +0.000 S 
ATOM     56  HG  CYS A   4      -2.837  -2.458   2.522  0.00  0.00    +0.000 HD
ENDBRANCH  54  55
ENDBRANCH  29  54
ENDBRANCH   3  29
TORSDOF 27
