REMARK  Name = 
REMARK  35 active torsions:
REMARK  status: ('A' for Active; 'I' for Inactive)
REMARK    1  A    between atoms: C_1  and  CA_3
REMARK    2  A    between atoms: C_1  and  OXT_12
REMARK    3  A    between atoms: N_2  and  CA_3
REMARK    4  A    between atoms: CA_3  and  CB_4
REMARK    5  A    between atoms: CB_4  and  CG_5
REMARK    6  A    between atoms: C_13  and  CA_15
REMARK    7  A    between atoms: C_20  and  CA_22
REMARK    8  A    between atoms: N_21  and  CA_22
REMARK    9  A    between atoms: CA_22  and  CB_23
REMARK   10  A    between atoms: CB_23  and  CG_24
REMARK   11  A    between atoms: C_30  and  CA_32
REMARK   12  A    between atoms: N_31  and  CA_32
REMARK   13  A    between atoms: CA_32  and  CB_33
REMARK   14  A    between atoms: CB_33  and  CG1_34
REMARK   15  A    between atoms: CB_33  and  CG2_74
REMARK   16  A    between atoms: C_36  and  CA_38
REMARK   17  A    between atoms: N_37  and  CA_38
REMARK   18  A    between atoms: CA_38  and  CB_39
REMARK   19  A    between atoms: CB_39  and  CG_40
REMARK   20  A    between atoms: CZ_43  and  OH_44
REMARK   21  A    between atoms: C_48  and  CA_50
REMARK   22  A    between atoms: N_49  and  CA_50
REMARK   23  A    between atoms: CA_50  and  CB_51
REMARK   24  A    between atoms: CB_51  and  CG1_52
REMARK   25  A    between atoms: CB_51  and  CG2_53
REMARK   26  A    between atoms: C_55  and  CA_57
REMARK   27  A    between atoms: N_56  and  CA_57
REMARK   28  A    between atoms: CA_57  and  CB_58
REMARK   29  A    between atoms: CB_58  and  CG_59
REMARK   30  A    between atoms: CG_59  and  CD_60
REMARK   31  A    between atoms: CD_60  and  NE_61
REMARK   32  A    between atoms: C_66  and  CA_68
REMARK   33  A    between atoms: N_67  and  CA_68
REMARK   34  A    between atoms: CA_68  and  CB_69
REMARK   35  A    between atoms: CB_69  and  CG_70
REMARK                            x       y       z     vdW  Elec       q    Type
REMARK                         _______ _______ _______ _____ _____    ______ ____
ROOT
ATOM      1  CA  TYR A   4      -0.905  -0.603   0.000  0.00  0.00    +0.000 C 
ENDROOT
BRANCH   1   3
ATOM      2  N   VAL A   5       0.524  -0.603   0.000  0.00  0.00    +0.000 N 
ATOM      3  C   TYR A   4      -0.190  -1.015   0.000  0.00  0.00    +0.000 C 
ATOM      4  O   TYR A   4      -0.190  -1.840   0.000  0.00  0.00    +0.000 OA
ATOM      5  H   VAL A   5       0.524   0.382   0.000  0.00  0.00    +0.000 HD
BRANCH   2   6
ATOM      6  CA  VAL A   5       1.238  -1.015   0.000  0.00  0.00    +0.000 C 
BRANCH   6   8
ATOM      7  N   HIS A   6       2.667  -1.015   0.000  0.00  0.00    +0.000 N 
ATOM      8  C   VAL A   5       1.953  -0.603   0.000  0.00  0.00    +0.000 C 
ATOM      9  O   VAL A   5       1.953   0.222   0.000  0.00  0.00    +0.000 OA
ATOM     10  H   HIS A   6       2.667  -2.000   0.000  0.00  0.00    +0.000 HD
BRANCH   7  11
ATOM     11  CA  HIS A   6       3.382  -0.603   0.000  0.00  0.00    +0.000 C 
BRANCH  11  17
ATOM     12  N   PRO A   7       4.096  -1.840   0.000  0.00  0.00    +0.000 N 
ATOM     13  CA  PRO A   7       4.764  -2.325   0.000  0.00  0.00    +0.000 C 
ATOM     14  CB  PRO A   7       4.509  -3.110   0.000  0.00  0.00    +0.000 C 
ATOM     15  CG  PRO A   7       3.684  -3.110   0.000  0.00  0.00    +0.000 C 
ATOM     16  CD  PRO A   7       3.429  -2.325   0.000  0.00  0.00    +0.000 C 
ATOM     17  C   HIS A   6       4.096  -1.015   0.000  0.00  0.00    +0.000 C 
ATOM     18  O   HIS A   6       4.811  -0.603   0.000  0.00  0.00    +0.000 OA
BRANCH  13  20
ATOM     19  N   PHE A   8       5.720  -1.263   0.000  0.00  0.00    +0.000 N 
ATOM     20  C   PRO A   7       5.548  -2.070   0.000  0.00  0.00    +0.000 C 
ATOM     21  O   PRO A   7       6.162  -2.622   0.000  0.00  0.00    +0.000 OA
ATOM     22  H   PHE A   8       4.988  -0.604   0.000  0.00  0.00    +0.000 HD
BRANCH  19  23
ATOM     23  CA  PHE A   8       6.505  -1.008   0.000  0.00  0.00    +0.000 C 
BRANCH  23  24
ATOM     24  C   PHE A   8       6.718  -0.211   0.000  0.00  0.00    +0.000 C 
ATOM     25  O   PHE A   8       6.135   0.372   0.000  0.00  0.00    +0.000 OA
BRANCH  24  26
ATOM     26  OXT PHE A   8       7.515   0.002   0.000  0.00  0.00    +0.000 OA
ATOM     27  HXT PHE A   8       8.177  -0.661   0.000  0.00  0.00    +0.000 HD
ENDBRANCH  24  26
ENDBRANCH  23  24
BRANCH  23  28
ATOM     28  CB  PHE A   8       7.088  -1.592   0.000  0.00  0.00    +0.000 C 
BRANCH  28  29
ATOM     29  CG  PHE A   8       7.885  -1.378   0.000  0.00  0.00    +0.000 A 
ATOM     30  CD1 PHE A   8       8.098  -0.581   0.000  0.00  0.00    +0.000 A 
ATOM     31  CE1 PHE A   8       8.895  -0.368   0.000  0.00  0.00    +0.000 A 
ATOM     32  CZ  PHE A   8       9.479  -0.951   0.000  0.00  0.00    +0.000 A 
ATOM     33  CE2 PHE A   8       9.265  -1.748   0.000  0.00  0.00    +0.000 A 
ATOM     34  CD2 PHE A   8       8.468  -1.962   0.000  0.00  0.00    +0.000 A 
ENDBRANCH  28  29
ENDBRANCH  23  28
ENDBRANCH  19  23
ENDBRANCH  13  20
ENDBRANCH  11  17
BRANCH  11  35
ATOM     35  CB  HIS A   6       3.382   0.222   0.000  0.00  0.00    +0.000 C 
BRANCH  35  36
ATOM     36  CG  HIS A   6       4.096   0.635   0.000  0.00  0.00    +0.000 A 
ATOM     37  CD2 HIS A   6       4.183   1.455   0.000  0.00  0.00    +0.000 A 
ATOM     38  NE2 HIS A   6       4.990   1.627   0.000  0.00  0.00    +0.000 N 
ATOM     39  CE1 HIS A   6       5.402   0.912   0.000  0.00  0.00    +0.000 A 
ATOM     40  ND1 HIS A   6       4.850   0.299   0.000  0.00  0.00    +0.000 NA
ATOM     41  HE2 HIS A   6       5.390   2.526   0.000  0.00  0.00    +0.000 HD
ENDBRANCH  35  36
ENDBRANCH  11  35
ENDBRANCH   7  11
ENDBRANCH   6   8
BRANCH   6  42
ATOM     42  CB  VAL A   5       1.238  -1.840   0.000  0.00  0.00    +0.000 C 
ATOM     43  CG1 VAL A   5       1.953  -2.253   0.000  0.00  0.00    +0.000 C 
ATOM     44  CG2 VAL A   5       0.653  -2.275   0.000  0.00  0.00    +0.000 C 
ENDBRANCH   6  42
ENDBRANCH   2   6
ENDBRANCH   1   3
BRANCH   1  45
ATOM     45  N   TYR A   4      -1.619  -1.015   0.000  0.00  0.00    +0.000 N 
ATOM     46  C   VAL A   3      -2.334  -0.603   0.000  0.00  0.00    +0.000 C 
ATOM     47  O   VAL A   3      -2.334   0.222   0.000  0.00  0.00    +0.000 OA
ATOM     48  H   TYR A   4      -1.619  -2.000   0.000  0.00  0.00    +0.000 HD
BRANCH  46  49
ATOM     49  CA  VAL A   3      -3.048  -1.015   0.000  0.00  0.00    +0.000 C 
BRANCH  49  50
ATOM     50  N   VAL A   3      -3.763  -0.603   0.000  0.00  0.00    +0.000 N 
ATOM     51  C   ARG A   2      -4.477  -1.015   0.000  0.00  0.00    +0.000 C 
ATOM     52  O   ARG A   2      -4.477  -1.840   0.000  0.00  0.00    +0.000 OA
ATOM     53  H   VAL A   3      -3.763   0.382   0.000  0.00  0.00    +0.000 HD
BRANCH  51  54
ATOM     54  CA  ARG A   2      -5.192  -0.603   0.000  0.00  0.00    +0.000 C 
BRANCH  54  55
ATOM     55  N   ARG A   2      -5.906  -1.015   0.000  0.00  0.00    +0.000 N 
ATOM     56  C   ASN A   1      -6.621  -0.603   0.000  0.00  0.00    +0.000 C 
ATOM     57  O   ASN A   1      -6.621   0.222   0.000  0.00  0.00    +0.000 OA
ATOM     58  H   ARG A   2      -5.906  -2.000   0.000  0.00  0.00    +0.000 HD
BRANCH  56  59
ATOM     59  CA  ASN A   1      -7.335  -1.015   0.000  0.00  0.00    +0.000 C 
BRANCH  59  60
ATOM     60  N   ASN A   1      -7.335  -1.840   0.000  0.00  0.00    +0.000 NA
ATOM     61  H1  ASN A   1      -8.219  -2.350   0.000  0.00  0.00    +0.000 HD
ATOM     62  H2  ASN A   1      -6.452  -2.350   0.000  0.00  0.00    +0.000 HD
ENDBRANCH  59  60
BRANCH  59  63
ATOM     63  CB  ASN A   1      -8.050  -0.603   0.000  0.00  0.00    +0.000 C 
BRANCH  63  64
ATOM     64  CG  ASN A   1      -8.764  -1.015   0.000  0.00  0.00    +0.000 C 
ATOM     65  OD1 ASN A   1      -8.764  -1.840   0.000  0.00  0.00    +0.000 OA
ATOM     66  ND2 ASN A   1      -9.479  -0.603   0.000  0.00  0.00    +0.000 N 
ATOM     67 HD21 ASN A   1      -9.479   0.382   0.000  0.00  0.00    +0.000 HD
ATOM     68 HD22 ASN A   1     -10.331  -1.095   0.000  0.00  0.00    +0.000 HD
ENDBRANCH  63  64
ENDBRANCH  59  63
ENDBRANCH  56  59
ENDBRANCH  54  55
BRANCH  54  69
ATOM     69  CB  ARG A   2      -5.192   0.222   0.000  0.00  0.00    +0.000 C 
BRANCH  69  70
ATOM     70  CG  ARG A   2      -5.906   0.635   0.000  0.00  0.00    +0.000 C 
BRANCH  70  71
ATOM     71  CD  ARG A   2      -5.906   1.460   0.000  0.00  0.00    +0.000 C 
BRANCH  71  72
ATOM     72  NE  ARG A   2      -6.621   1.872   0.000  0.00  0.00    +0.000 N 
ATOM     73  CZ  ARG A   2      -6.621   2.697   0.000  0.00  0.00    +0.000 C 
ATOM     74  NH1 ARG A   2      -5.906   3.110   0.000  0.00  0.00    +0.000 NA
ATOM     75  NH2 ARG A   2      -7.335   3.110   0.000  0.00  0.00    +0.000 N 
ATOM     76  HE  ARG A   2      -7.473   1.380   0.000  0.00  0.00    +0.000 HD
ATOM     77  HH1 ARG A   2      -5.054   2.617   0.000  0.00  0.00    +0.000 HD
ATOM     78 HH21 ARG A   2      -7.335   4.094   0.000  0.00  0.00    +0.000 HD
ATOM     79 HH22 ARG A   2      -8.188   2.617   0.000  0.00  0.00    +0.000 HD
ENDBRANCH  71  72
ENDBRANCH  70  71
ENDBRANCH  69  70
ENDBRANCH  54  69
ENDBRANCH  51  54
ENDBRANCH  49  50
BRANCH  49  80
ATOM     80  CB  VAL A   3      -3.048  -1.840   0.000  0.00  0.00    +0.000 C 
ATOM     81  CG1 VAL A   3      -3.763  -2.253   0.000  0.00  0.00    +0.000 C 
ATOM     82  CG2 VAL A   3      -2.334  -2.253   0.000  0.00  0.00    +0.000 C 
ENDBRANCH  49  80
ENDBRANCH  46  49
ENDBRANCH   1  45
BRANCH   1  83
ATOM     83  CB  TYR A   4      -0.905   0.222   0.000  0.00  0.00    +0.000 C 
BRANCH  83  84
ATOM     84  CG  TYR A   4      -0.190   0.635   0.000  0.00  0.00    +0.000 A 
ATOM     85  CD1 TYR A   4      -0.190   1.460   0.000  0.00  0.00    +0.000 A 
ATOM     86  CE1 TYR A   4       0.524   1.872   0.000  0.00  0.00    +0.000 A 
ATOM     87  CZ  TYR A   4       1.238   1.460   0.000  0.00  0.00    +0.000 A 
ATOM     88  CE2 TYR A   4       1.238   0.635   0.000  0.00  0.00    +0.000 A 
ATOM     89  CD2 TYR A   4       0.524   0.222   0.000  0.00  0.00    +0.000 A 
BRANCH  87  90
ATOM     90  OH  TYR A   4       1.953   1.872   0.000  0.00  0.00    +0.000 OA
ATOM     91  HH  TYR A   4       2.764   1.404   0.000  0.00  0.00    +0.000 HD
ENDBRANCH  87  90
ENDBRANCH  83  84
ENDBRANCH   1  83
TORSDOF 31
