REMARK  Name = 
REMARK  43 active torsions:
REMARK  status: ('A' for Active; 'I' for Inactive)
REMARK    1  A    between atoms: N_1  and  C_2
REMARK    2  A    between atoms: C_2  and  C_3
REMARK    3  A    between atoms: C_2  and  C_58
REMARK    4  A    between atoms: C_3  and  N_4
REMARK    5  A    between atoms: C_5  and  C_7
REMARK    6  A    between atoms: C_7  and  C_8
REMARK    7  A    between atoms: C_7  and  N_15
REMARK    8  A    between atoms: C_8  and  C_9
REMARK    9  A    between atoms: C_16  and  C_18
REMARK   10  A    between atoms: C_18  and  C_19
REMARK   11  A    between atoms: C_18  and  N_26
REMARK   12  A    between atoms: C_19  and  C_20
REMARK   13  A    between atoms: C_27  and  C_29
REMARK   14  A    between atoms: C_29  and  C_30
REMARK   15  A    between atoms: C_30  and  C_31
REMARK   16  A    between atoms: C_31  and  C_32
REMARK   17  A    between atoms: C_32  and  C_33
REMARK   18  A    between atoms: C_33  and  C_34
REMARK   19  A    between atoms: C_34  and  C_35
REMARK   20  A    between atoms: C_35  and  N_36
REMARK   21  A    between atoms: C_37  and  C_39
REMARK   22  A    between atoms: C_39  and  C_40
REMARK   23  A    between atoms: C_40  and  C_41
REMARK   24  A    between atoms: C_41  and  N_42
REMARK   25  A    between atoms: C_41  and  C_55
REMARK   26  A    between atoms: N_45  and  C_46
REMARK   27  A    between atoms: C_46  and  C_47
REMARK   28  A    between atoms: C_46  and  C_52
REMARK   29  A    between atoms: C_47  and  C_48
REMARK   30  A    between atoms: C_48  and  C_49
REMARK   31  A    between atoms: C_49  and  O_50
REMARK   32  A    between atoms: C_52  and  O_53
REMARK   33  A    between atoms: C_55  and  O_56
REMARK   34  A    between atoms: N_60  and  CA_61
REMARK   35  A    between atoms: CA_61  and  CB_62
REMARK   36  A    between atoms: CA_61  and  C_66
REMARK   37  A    between atoms: CB_62  and  CG_63
REMARK   38  A    between atoms: CG_63  and  OD1_64
REMARK   39  A    between atoms: N_68  and  CA_69
REMARK   40  A    between atoms: CA_69  and  CB_70
REMARK   41  A    between atoms: CA_69  and  C_72
REMARK   42  A    between atoms: CB_70  and  SG_71
REMARK   43  A    between atoms: C_72  and  O_73
REMARK                            x       y       z     vdW  Elec       q    Type
REMARK                         _______ _______ _______ _____ _____    ______ ____
ROOT
ATOM      1  C   UNK A   1      19.687  -5.042   0.000  0.00  0.00    +0.000 C 
ENDROOT
BRANCH   1   2
ATOM      2  N   UNK A   1      18.872  -5.171   0.000  0.00  0.00    +0.000 N 
ATOM      3  C   UNK A   1      18.575  -5.941   0.000  0.00  0.00    +0.000 C 
ATOM      4  O   UNK A   1      19.094  -6.582   0.000  0.00  0.00    +0.000 OA
ATOM      5  H   UNK A   1      18.253  -4.405   0.000  0.00  0.00    +0.000 HD
BRANCH   3   6
ATOM      6  C   UNK A   1      17.761  -6.069   0.000  0.00  0.00    +0.000 C 
BRANCH   6   7
ATOM      7  C   UNK A   1      17.464  -6.839   0.000  0.00  0.00    +0.000 C 
BRANCH   7   8
ATOM      8  C   UNK A   1      16.649  -6.967   0.000  0.00  0.00    +0.000 C 
BRANCH   8   9
ATOM      9  C   UNK A   1      16.353  -7.737   0.000  0.00  0.00    +0.000 C 
BRANCH   9  10
ATOM     10  C   UNK A   1      15.538  -7.865   0.000  0.00  0.00    +0.000 C 
BRANCH  10  11
ATOM     11  C   UNK A   1      15.242  -8.635   0.000  0.00  0.00    +0.000 C 
BRANCH  11  12
ATOM     12  C   UNK A   1      14.427  -8.764   0.000  0.00  0.00    +0.000 C 
BRANCH  12  13
ATOM     13  N   UNK A   1      14.130  -9.534   0.000  0.00  0.00    +0.000 N 
ATOM     14  C   UNK A   1      13.315  -9.662   0.000  0.00  0.00    +0.000 C 
ATOM     15  O   UNK A   1      12.797  -9.020   0.000  0.00  0.00    +0.000 OA
ATOM     16  H   UNK A   1      14.749 -10.299   0.000  0.00  0.00    +0.000 HD
BRANCH  14  17
ATOM     17  C   UNK A   1      13.019 -10.432   0.000  0.00  0.00    +0.000 C 
BRANCH  17  18
ATOM     18  C   UNK A   1      12.204 -10.560   0.000  0.00  0.00    +0.000 C 
BRANCH  18  19
ATOM     19  C   UNK A   1      11.908 -11.330   0.000  0.00  0.00    +0.000 C 
BRANCH  19  20
ATOM     20  N   UNK A   1      11.093 -11.459   0.000  0.00  0.00    +0.000 N 
ATOM     21  C   UNK A   0      10.796 -12.229   0.000  0.00  0.00    +0.000 C 
ATOM     22  O   UNK A   0      11.315 -12.870   0.000  0.00  0.00    +0.000 OA
ATOM     23  N   UNK A   1       9.981 -12.357   0.000  0.00  0.00    +0.000 N 
ATOM     24  H   UNK A   1      10.474 -10.693   0.000  0.00  0.00    +0.000 HD
ATOM     25  H   UNK A   1       9.362 -11.591   0.000  0.00  0.00    +0.000 HD
BRANCH  23  26
ATOM     26  C   UNK A   1       9.685 -13.127   0.000  0.00  0.00    +0.000 C 
BRANCH  26  27
ATOM     27  C   UNK A   1      10.204 -13.768   0.000  0.00  0.00    +0.000 C 
ATOM     28  O   UNK A   1      11.018 -13.640   0.000  0.00  0.00    +0.000 OA
BRANCH  27  29
ATOM     29  O   UNK A   1       9.907 -14.538   0.000  0.00  0.00    +0.000 OA
ATOM     30  H   UNK A   1       8.982 -14.684   0.000  0.00  0.00    +0.000 HD
ENDBRANCH  27  29
ENDBRANCH  26  27
BRANCH  26  31
ATOM     31  C   UNK A   1       8.870 -13.255   0.000  0.00  0.00    +0.000 C 
BRANCH  31  32
ATOM     32  C   UNK A   1       8.574 -14.025   0.000  0.00  0.00    +0.000 C 
BRANCH  32  33
ATOM     33  C   UNK A   1       7.759 -14.153   0.000  0.00  0.00    +0.000 C 
ATOM     34  O   UNK A   1       7.240 -13.512   0.000  0.00  0.00    +0.000 OA
BRANCH  33  35
ATOM     35  O   UNK A   1       7.462 -14.923   0.000  0.00  0.00    +0.000 OA
ATOM     36  H   UNK A   1       6.537 -15.069   0.000  0.00  0.00    +0.000 HD
ENDBRANCH  33  35
ENDBRANCH  32  33
ENDBRANCH  31  32
ENDBRANCH  26  31
ENDBRANCH  23  26
ENDBRANCH  19  20
BRANCH  19  37
ATOM     37  C   UNK A   1      12.426 -11.972   0.000  0.00  0.00    +0.000 C 
ATOM     38  O   UNK A   1      13.241 -11.844   0.000  0.00  0.00    +0.000 OA
BRANCH  37  39
ATOM     39  O   UNK A   1      12.130 -12.742   0.000  0.00  0.00    +0.000 OA
ATOM     40  H   UNK A   1      11.204 -12.888   0.000  0.00  0.00    +0.000 HD
ENDBRANCH  37  39
ENDBRANCH  19  37
ENDBRANCH  18  19
ENDBRANCH  17  18
ENDBRANCH  14  17
ENDBRANCH  12  13
ENDBRANCH  11  12
ENDBRANCH  10  11
ENDBRANCH   9  10
ENDBRANCH   8   9
ENDBRANCH   7   8
ENDBRANCH   6   7
ENDBRANCH   3   6
ENDBRANCH   1   2
BRANCH   1  42
ATOM     41  N   UNK A   1      19.909  -6.454   0.000  0.00  0.00    +0.000 N 
ATOM     42  C   UNK A   1      20.205  -5.684   0.000  0.00  0.00    +0.000 C 
ATOM     43  O   UNK A   1      21.020  -5.556   0.000  0.00  0.00    +0.000 OA
ATOM     44  H   UNK A   1      18.936  -6.607   0.000  0.00  0.00    +0.000 HD
BRANCH  41  45
ATOM     45  C   UNK A   1      20.428  -7.096   0.000  0.00  0.00    +0.000 C 
BRANCH  45  47
ATOM     46  N   UNK A   1      20.650  -8.507   0.000  0.00  0.00    +0.000 N 
ATOM     47  C   UNK A   1      20.131  -7.865   0.000  0.00  0.00    +0.000 C 
ATOM     48  O   UNK A   1      19.316  -7.994   0.000  0.00  0.00    +0.000 OA
ATOM     49  H   UNK A   1      21.622  -8.354   0.000  0.00  0.00    +0.000 HD
BRANCH  46  50
ATOM     50  C   UNK A   1      20.354  -9.277   0.000  0.00  0.00    +0.000 C 
BRANCH  50  51
ATOM     51  C   UNK A   1      20.872  -9.919   0.000  0.00  0.00    +0.000 C 
BRANCH  51  52
ATOM     52  C   UNK A   1      20.576 -10.689   0.000  0.00  0.00    +0.000 C 
ATOM     53  O   UNK A   1      19.761 -10.817   0.000  0.00  0.00    +0.000 OA
ATOM     54  N   ASP A   2      21.094 -11.330   0.000  0.00  0.00    +0.000 N 
ATOM     55  H   ASP A   2      22.067 -11.177   0.000  0.00  0.00    +0.000 HD
BRANCH  54  56
ATOM     56  CA  ASP A   2      20.798 -12.100   0.000  0.00  0.00    +0.000 C 
BRANCH  56  57
ATOM     57  C   ASP A   2      21.317 -12.742   0.000  0.00  0.00    +0.000 C 
ATOM     58  O   ASP A   2      22.132 -12.613   0.000  0.00  0.00    +0.000 OA
ATOM     59  N   CYS A   3      21.020 -13.512   0.000  0.00  0.00    +0.000 N 
ATOM     60  H   CYS A   3      20.048 -13.665   0.000  0.00  0.00    +0.000 HD
BRANCH  59  61
ATOM     61  CA  CYS A   3      21.539 -14.153   0.000  0.00  0.00    +0.000 C 
BRANCH  61  62
ATOM     62  C   CYS A   3      22.354 -14.025   0.000  0.00  0.00    +0.000 C 
ATOM     63  OXT CYS A   3      22.650 -13.255   0.000  0.00  0.00    +0.000 OA
BRANCH  62  64
ATOM     64  O   CYS A   3      22.872 -14.667   0.000  0.00  0.00    +0.000 OA
ATOM     65  H   CYS A   3      22.536 -15.541   0.000  0.00  0.00    +0.000 HD
ENDBRANCH  62  64
ENDBRANCH  61  62
BRANCH  61  66
ATOM     66  CB  CYS A   3      21.243 -14.923   0.000  0.00  0.00    +0.000 C 
BRANCH  66  67
ATOM     67  SG  CYS A   3      21.761 -15.565   0.000  0.00  0.00    +0.000 S 
ATOM     68  HG  CYS A   3      21.273 -16.834   0.000  0.00  0.00    +0.000 HD
ENDBRANCH  66  67
ENDBRANCH  61  66
ENDBRANCH  59  61
ENDBRANCH  56  57
BRANCH  56  69
ATOM     69  CB  ASP A   2      19.983 -12.229   0.000  0.00  0.00    +0.000 C 
BRANCH  69  70
ATOM     70  CG  ASP A   2      19.687 -12.998   0.000  0.00  0.00    +0.000 C 
ATOM     71  OD2 ASP A   2      20.205 -13.640   0.000  0.00  0.00    +0.000 OA
BRANCH  70  72
ATOM     72  OD1 ASP A   2      18.872 -13.127   0.000  0.00  0.00    +0.000 OA
ATOM     73  HD1 ASP A   2      18.283 -12.398   0.000  0.00  0.00    +0.000 HD
ENDBRANCH  70  72
ENDBRANCH  69  70
ENDBRANCH  56  69
ENDBRANCH  54  56
ENDBRANCH  51  52
BRANCH  51  74
ATOM     74  N   UNK A   1      21.687  -9.790   0.000  0.00  0.00    +0.000 NA
ATOM     75  H   UNK A   1      22.328 -10.584   0.000  0.00  0.00    +0.000 HD
ATOM     76  H   UNK A   1      22.053  -8.838   0.000  0.00  0.00    +0.000 HD
ENDBRANCH  51  74
ENDBRANCH  50  51
ENDBRANCH  46  50
ENDBRANCH  45  47
BRANCH  45  77
ATOM     77  C   UNK A   1      21.243  -6.967   0.000  0.00  0.00    +0.000 C 
BRANCH  77  78
ATOM     78  C   UNK A   1      21.761  -7.609   0.000  0.00  0.00    +0.000 A 
ATOM     79  C   UNK A   1      22.576  -7.481   0.000  0.00  0.00    +0.000 A 
ATOM     80  C   UNK A   1      23.095  -8.122   0.000  0.00  0.00    +0.000 A 
ATOM     81  C   UNK A   1      22.798  -8.892   0.000  0.00  0.00    +0.000 A 
ATOM     82  C   UNK A   1      21.983  -9.020   0.000  0.00  0.00    +0.000 A 
ATOM     83  C   UNK A   1      21.465  -8.379   0.000  0.00  0.00    +0.000 A 
ENDBRANCH  77  78
ENDBRANCH  45  77
ENDBRANCH  41  45
ENDBRANCH   1  42
BRANCH   1  84
ATOM     84  C   UNK A   1      19.983  -4.272   0.000  0.00  0.00    +0.000 C 
BRANCH  84  85
ATOM     85  C   UNK A   1      20.798  -4.144   0.000  0.00  0.00    +0.000 A 
ATOM     86  C   UNK A   1      21.094  -3.374   0.000  0.00  0.00    +0.000 A 
ATOM     87  C   UNK A   1      21.909  -3.246   0.000  0.00  0.00    +0.000 A 
ATOM     88  C   UNK A   1      22.428  -3.888   0.000  0.00  0.00    +0.000 A 
ATOM     89  C   UNK A   1      22.132  -4.657   0.000  0.00  0.00    +0.000 A 
ATOM     90  C   UNK A   1      21.317  -4.786   0.000  0.00  0.00    +0.000 A 
ENDBRANCH  84  85
ENDBRANCH   1  84
TORSDOF 43
