REMARK  Name = 
REMARK  43 active torsions:
REMARK  status: ('A' for Active; 'I' for Inactive)
REMARK    1  A    between atoms: C_2  and  O_3
REMARK    2  A    between atoms: C_2  and  C_4
REMARK    3  A    between atoms: C_4  and  C_5
REMARK    4  A    between atoms: C_5  and  C_6
REMARK    5  A    between atoms: C_9  and  O_10
REMARK    6  A    between atoms: C_11  and  C_12
REMARK    7  A    between atoms: C_12  and  N_13
REMARK    8  A    between atoms: N_13  and  C_14
REMARK    9  A    between atoms: N_13  and  C_63
REMARK   10  A    between atoms: C_14  and  C_15
REMARK   11  A    between atoms: C_15  and  N_16
REMARK   12  A    between atoms: N_16  and  C_17
REMARK   13  A    between atoms: N_16  and  C_21
REMARK   14  A    between atoms: C_17  and  C_18
REMARK   15  A    between atoms: C_18  and  O_20
REMARK   16  A    between atoms: C_21  and  C_22
REMARK   17  A    between atoms: C_24  and  C_25
REMARK   18  A    between atoms: C_25  and  C_26
REMARK   19  A    between atoms: C_26  and  C_27
REMARK   20  A    between atoms: N_29  and  C_30
REMARK   21  A    between atoms: C_30  and  C_31
REMARK   22  A    between atoms: C_31  and  C_32
REMARK   23  A    between atoms: C_32  and  C_33
REMARK   24  A    between atoms: C_33  and  C_34
REMARK   25  A    between atoms: C_34  and  C_35
REMARK   26  A    between atoms: N_37  and  C_38
REMARK   27  A    between atoms: C_38  and  C_39
REMARK   28  A    between atoms: C_39  and  C_40
REMARK   29  A    between atoms: C_40  and  C_41
REMARK   30  A    between atoms: C_41  and  C_42
REMARK   31  A    between atoms: C_42  and  N_43
REMARK   32  A    between atoms: C_42  and  C_56
REMARK   33  A    between atoms: N_46  and  C_47
REMARK   34  A    between atoms: C_47  and  C_48
REMARK   35  A    between atoms: C_47  and  C_53
REMARK   36  A    between atoms: C_48  and  C_49
REMARK   37  A    between atoms: C_49  and  C_50
REMARK   38  A    between atoms: C_50  and  O_52
REMARK   39  A    between atoms: C_53  and  O_55
REMARK   40  A    between atoms: C_56  and  O_58
REMARK   41  A    between atoms: C_61  and  O_62
REMARK   42  A    between atoms: C_63  and  C_64
REMARK   43  A    between atoms: C_64  and  O_66
REMARK                            x       y       z     vdW  Elec       q    Type
REMARK                         _______ _______ _______ _____ _____    ______ ____
ROOT
ATOM      1  C   UNK A   1      -1.111   0.510  -0.505  0.00  0.00    +0.000 C 
ENDROOT
BRANCH   1   2
ATOM      2  C   UNK A   1       0.026  -0.414  -0.234  0.00  0.00    +0.000 C 
ATOM      3  O   UNK A   1      -0.193  -1.283   0.664  0.00  0.00    +0.000 OA
ATOM      4  N   UNK A   1       1.373  -0.123  -0.550  0.00  0.00    +0.000 N 
ATOM      5  H   UNK A   1       1.597   0.188  -1.457  0.00  0.00    +0.000 HD
BRANCH   4   6
ATOM      6  C   UNK A   1       2.442  -0.272   0.436  0.00  0.00    +0.000 C 
BRANCH   6   7
ATOM      7  C   UNK A   1       2.259  -1.578   1.149  0.00  0.00    +0.000 C 
BRANCH   7   8
ATOM      8  C   UNK A   1       3.012  -2.640   0.384  0.00  0.00    +0.000 C 
BRANCH   8   9
ATOM      9  C   UNK A   1       2.774  -2.582  -1.097  0.00  0.00    +0.000 C 
BRANCH   9  10
ATOM     10  C   UNK A   1       3.877  -1.831  -1.832  0.00  0.00    +0.000 C 
BRANCH  10  11
ATOM     11  C   UNK A   1       5.124  -2.107  -1.049  0.00  0.00    +0.000 C 
ATOM     12  O   UNK A   1       5.319  -3.247  -0.531  0.00  0.00    +0.000 OA
ATOM     13  N   UNK A   1       5.996  -1.056  -0.622  0.00  0.00    +0.000 N 
ATOM     14  H   UNK A   1       6.271  -0.343  -1.242  0.00  0.00    +0.000 HD
BRANCH  13  15
ATOM     15  C   UNK A   1       6.468  -1.071   0.761  0.00  0.00    +0.000 C 
BRANCH  15  16
ATOM     16  C   UNK A   1       6.750   0.340   1.210  0.00  0.00    +0.000 C 
BRANCH  16  17
ATOM     17  C   UNK A   1       7.804   0.323   2.288  0.00  0.00    +0.000 C 
BRANCH  17  18
ATOM     18  C   UNK A   1       8.728  -0.852   2.190  0.00  0.00    +0.000 C 
BRANCH  18  19
ATOM     19  C   UNK A   1       9.190  -0.881   0.578  0.00  0.00    +0.000 C 
BRANCH  19  20
ATOM     20  N   UNK A   1      10.663  -1.386   0.972  0.00  0.00    +0.000 N 
ATOM     21  C   UNK A   0      11.657  -0.955   0.054  0.00  0.00    +0.000 C 
ATOM     22  O   UNK A   0      11.384  -0.381  -1.031  0.00  0.00    +0.000 OA
ATOM     23  N   UNK A   1      13.064  -1.088   0.302  0.00  0.00    +0.000 N 
ATOM     24  H   UNK A   1      10.855  -1.936   1.765  0.00  0.00    +0.000 HD
ATOM     25  H   UNK A   1      13.522  -1.946   0.454  0.00  0.00    +0.000 HD
BRANCH  23  26
ATOM     26  C   UNK A   1      13.797   0.343   0.299  0.00  0.00    +0.000 C 
BRANCH  26  27
ATOM     27  C   UNK A   1      13.349   0.623  -1.255  0.00  0.00    +0.000 C 
ATOM     28  O   UNK A   1      13.977   0.080  -2.146  0.00  0.00    +0.000 OA
BRANCH  27  29
ATOM     29  O   UNK A   1      13.000   1.977  -1.336  0.00  0.00    +0.000 OA
ATOM     30  H   UNK A   1      12.517   2.379  -0.642  0.00  0.00    +0.000 HD
ENDBRANCH  27  29
ENDBRANCH  26  27
BRANCH  26  31
ATOM     31  C   UNK A   1      15.275  -0.350  -0.095  0.00  0.00    +0.000 C 
BRANCH  31  32
ATOM     32  C   UNK A   1      15.995   0.930  -0.513  0.00  0.00    +0.000 C 
BRANCH  32  33
ATOM     33  C   UNK A   1      15.898   1.968   0.561  0.00  0.00    +0.000 C 
ATOM     34  O   UNK A   1      16.584   1.757   1.606  0.00  0.00    +0.000 OA
BRANCH  33  35
ATOM     35  O   UNK A   1      15.672   3.316   0.264  0.00  0.00    +0.000 OA
ATOM     36  H   UNK A   1      15.173   3.552  -0.493  0.00  0.00    +0.000 HD
ENDBRANCH  33  35
ENDBRANCH  32  33
ENDBRANCH  31  32
ENDBRANCH  26  31
ENDBRANCH  23  26
ENDBRANCH  19  20
BRANCH  19  37
ATOM     37  C   UNK A   1       9.622   0.703   0.609  0.00  0.00    +0.000 C 
ATOM     38  O   UNK A   1       9.208   1.360  -0.360  0.00  0.00    +0.000 OA
BRANCH  37  39
ATOM     39  O   UNK A   1      10.408   1.106   1.630  0.00  0.00    +0.000 OA
ATOM     40  H   UNK A   1      10.649   0.501   2.303  0.00  0.00    +0.000 HD
ENDBRANCH  37  39
ENDBRANCH  19  37
ENDBRANCH  18  19
ENDBRANCH  17  18
ENDBRANCH  16  17
ENDBRANCH  15  16
ENDBRANCH  13  15
ENDBRANCH  10  11
ENDBRANCH   9  10
ENDBRANCH   8   9
ENDBRANCH   7   8
ENDBRANCH   6   7
ENDBRANCH   4   6
ENDBRANCH   1   2
BRANCH   1  41
ATOM     41  C   UNK A   1      -1.692   0.911   0.847  0.00  0.00    +0.000 C 
BRANCH  41  44
ATOM     42  C   UNK A   1      -5.013  -0.352  -0.370  0.00  0.00    +0.000 A 
ATOM     43  C   UNK A   1      -4.019   0.568  -0.056  0.00  0.00    +0.000 A 
ATOM     44  C   UNK A   1      -3.052   0.289   0.903  0.00  0.00    +0.000 A 
ATOM     45  C   UNK A   1      -3.261  -0.853   1.650  0.00  0.00    +0.000 A 
ATOM     46  C   UNK A   1      -4.199  -1.815   1.296  0.00  0.00    +0.000 A 
ATOM     47  C   UNK A   1      -4.908  -1.650   0.113  0.00  0.00    +0.000 A 
BRANCH  47  48
ATOM     48  O   UNK A   1      -5.248  -2.757  -0.667  0.00  0.00    +0.000 OA
ATOM     49  H   UNK A   1      -5.167  -3.621  -0.315  0.00  0.00    +0.000 HD
ENDBRANCH  47  48
BRANCH  42  50
ATOM     50  C   UNK A   1      -5.690  -0.175  -1.693  0.00  0.00    +0.000 C 
BRANCH  50  51
ATOM     51  N   UNK A   1      -6.721   0.849  -1.631  0.00  0.00    +0.000 NA
BRANCH  51  52
ATOM     52  C   UNK A   1      -7.915   0.165  -1.163  0.00  0.00    +0.000 C 
BRANCH  52  53
ATOM     53  C   UNK A   1      -8.175  -0.995  -2.117  0.00  0.00    +0.000 C 
BRANCH  53  54
ATOM     54  N   UNK A   1      -8.985  -2.013  -1.499  0.00  0.00    +0.000 NA
BRANCH  54  55
ATOM     55  C   UNK A   1      -9.690  -1.558  -0.331  0.00  0.00    +0.000 C 
BRANCH  55  60
ATOM     56  C   UNK A   1     -11.739   1.489   0.275  0.00  0.00    +0.000 A 
ATOM     57  C   UNK A   1     -12.735   1.315  -0.673  0.00  0.00    +0.000 A 
ATOM     58  C   UNK A   1     -12.410   0.553  -1.772  0.00  0.00    +0.000 A 
ATOM     59  C   UNK A   1     -11.336  -0.301  -1.747  0.00  0.00    +0.000 A 
ATOM     60  C   UNK A   1     -10.522  -0.376  -0.629  0.00  0.00    +0.000 A 
ATOM     61  C   UNK A   1     -10.863   0.441   0.437  0.00  0.00    +0.000 A 
BRANCH  59  62
ATOM     62  O   UNK A   1     -11.218  -1.237  -2.751  0.00  0.00    +0.000 OA
ATOM     63  H   UNK A   1     -11.769  -1.185  -3.507  0.00  0.00    +0.000 HD
ENDBRANCH  59  62
BRANCH  56  64
ATOM     64  C   UNK A   1     -11.866   2.570   1.269  0.00  0.00    +0.000 C 
BRANCH  64  65
ATOM     65  C   UNK A   1     -10.767   3.576   1.063  0.00  0.00    +0.000 C 
BRANCH  65  67
ATOM     66  O   UNK A   1     -10.432   4.923  -0.632  0.00  0.00    +0.000 OA
ATOM     67  C   UNK A   1     -11.122   4.479  -0.075  0.00  0.00    +0.000 C 
BRANCH  67  68
ATOM     68  O   UNK A   1     -12.487   4.696  -0.278  0.00  0.00    +0.000 OA
ATOM     69  H   UNK A   1     -13.116   4.262   0.264  0.00  0.00    +0.000 HD
ENDBRANCH  67  68
ENDBRANCH  65  67
ENDBRANCH  64  65
ENDBRANCH  56  64
ENDBRANCH  55  60
ENDBRANCH  54  55
BRANCH  54  70
ATOM     70  C   UNK A   1      -8.253  -3.222  -1.252  0.00  0.00    +0.000 C 
BRANCH  70  71
ATOM     71  C   UNK A   1      -8.329  -3.704   0.140  0.00  0.00    +0.000 C 
ATOM     72  O   UNK A   1      -7.737  -3.053   1.021  0.00  0.00    +0.000 OA
BRANCH  71  73
ATOM     73  O   UNK A   1      -9.219  -4.713   0.440  0.00  0.00    +0.000 OA
ATOM     74  H   UNK A   1      -9.646  -5.182  -0.249  0.00  0.00    +0.000 HD
ENDBRANCH  71  73
ENDBRANCH  70  71
ENDBRANCH  54  70
ENDBRANCH  53  54
ENDBRANCH  52  53
ENDBRANCH  51  52
BRANCH  51  75
ATOM     75  C   UNK A   1      -6.315   1.911  -0.746  0.00  0.00    +0.000 C 
BRANCH  75  76
ATOM     76  C   UNK A   1      -7.447   2.752  -0.293  0.00  0.00    +0.000 C 
ATOM     77  O   UNK A   1      -7.858   3.748  -0.962  0.00  0.00    +0.000 OA
BRANCH  76  78
ATOM     78  O   UNK A   1      -8.169   2.298   0.807  0.00  0.00    +0.000 OA
ATOM     79  H   UNK A   1      -7.861   1.562   1.298  0.00  0.00    +0.000 HD
ENDBRANCH  76  78
ENDBRANCH  75  76
ENDBRANCH  51  75
ENDBRANCH  50  51
ENDBRANCH  42  50
ENDBRANCH  41  44
ENDBRANCH   1  41
TORSDOF 43
