MODEL 1
REMARK VINA RESULT:    -7.211      0.000      0.000
REMARK INTER + INTRA:         -14.097
REMARK INTER:                  -9.896
REMARK INTRA:                  -4.202
REMARK CONF_INDEPENDENT:        2.685
REMARK UNBOUND:                 4.202
REMARK  Name = 71236992
REMARK  10 active torsions:
REMARK  status: ('A' for Active; 'I' for Inactive)
REMARK    1  A    between atoms: O_6  and  C_25
REMARK    2  A    between atoms: N_8  and  C_18
REMARK    3  A    between atoms: N_9  and  C_12
REMARK    4  A    between atoms: N_11  and  C_20
REMARK    5  A    between atoms: C_18  and  C_25
REMARK    6  A    between atoms: C_20  and  C_21
REMARK    7  A    between atoms: C_20  and  C_27
REMARK    8  A    between atoms: C_30  and  C_31
REMARK    9  A    between atoms: C_31  and  C_32
REMARK   10  A    between atoms: C_32  and  C_33
REMARK                            x       y       z     vdW  Elec       q    Type
REMARK                         _______ _______ _______ _____ _____    ______ ____
ROOT
ATOM      1  O   UNL     1      -1.738  -3.232   2.669  0.00  0.00    +0.000 OA
ATOM      2  N   UNL     1      -4.005  -3.145   3.159  0.00  0.00    +0.000 N 
ATOM      3  N   UNL     1      -6.254  -3.526   3.809  0.00  0.00    +0.000 NA
ATOM      4  C   UNL     1      -2.324  -2.780   4.950  0.00  0.00    +0.000 C 
ATOM      5  C   UNL     1      -2.573  -1.319   5.222  0.00  0.00    +0.000 A 
ATOM      6  C   UNL     1      -3.909  -0.869   5.204  0.00  0.00    +0.000 A 
ATOM      7  C   UNL     1      -2.645  -3.066   3.490  0.00  0.00    +0.000 C 
ATOM      8  C   UNL     1      -5.046  -1.803   5.009  0.00  0.00    +0.000 A 
ATOM      9  C   UNL     1      -5.109  -2.813   4.026  0.00  0.00    +0.000 A 
ATOM     10  C   UNL     1      -1.528  -0.400   5.430  0.00  0.00    +0.000 A 
ATOM     11  C   UNL     1      -4.146   0.511   5.385  0.00  0.00    +0.000 A 
ATOM     12  C   UNL     1      -6.190  -1.648   5.824  0.00  0.00    +0.000 A 
ATOM     13  C   UNL     1      -1.792   0.954   5.620  0.00  0.00    +0.000 A 
ATOM     14  C   UNL     1      -3.101   1.412   5.594  0.00  0.00    +0.000 A 
ATOM     15  C   UNL     1      -7.335  -2.408   5.633  0.00  0.00    +0.000 A 
ATOM     16  C   UNL     1      -7.321  -3.319   4.606  0.00  0.00    +0.000 A 
ENDROOT
BRANCH   4  18
ATOM     17  O   UNL     1      -1.212  -3.527   7.494  0.00  0.00    +0.000 OA
ATOM     18  N   UNL     1      -0.978  -3.231   5.205  0.00  0.00    +0.000 N 
ATOM     19  C   UNL     1      -0.528  -3.571   6.474  0.00  0.00    +0.000 C 
ATOM     20  H   UNL     1      -0.333  -3.283   4.421  0.00  0.00    +0.000 HD
BRANCH  19  21
ATOM     21  C   UNL     1       0.914  -4.060   6.460  0.00  0.00    +0.000 C 
ATOM     22  C   UNL     1       1.133  -5.136   7.512  0.00  0.00    +0.000 C 
BRANCH  21  24
ATOM     23  O   UNL     1       1.028  -1.638   4.900  0.00  0.00    +0.000 OA
ATOM     24  N   UNL     1       1.770  -2.926   6.686  0.00  0.00    +0.000 N 
ATOM     25  C   UNL     1       1.755  -1.795   5.877  0.00  0.00    +0.000 C 
ATOM     26  H   UNL     1       2.364  -2.930   7.511  0.00  0.00    +0.000 HD
BRANCH  25  27
ATOM     27  C   UNL     1       2.759  -0.757   6.342  0.00  0.00    +0.000 C 
BRANCH  27  28
ATOM     28  C   UNL     1       4.202  -1.211   6.146  0.00  0.00    +0.000 C 
BRANCH  28  32
ATOM     29  F   UNL     1       5.821  -1.746   4.505  0.00  0.00    +0.000 F 
ATOM     30  F   UNL     1       3.830  -2.614   4.277  0.00  0.00    +0.000 F 
ATOM     31  F   UNL     1       4.144  -0.488   3.905  0.00  0.00    +0.000 F 
ATOM     32  C   UNL     1       4.504  -1.522   4.697  0.00  0.00    +0.000 C 
ENDBRANCH  28  32
ENDBRANCH  27  28
ENDBRANCH  25  27
ENDBRANCH  21  24
ENDBRANCH  19  21
ENDBRANCH   4  18
BRANCH   2  33
ATOM     33  C   UNL     1      -4.369  -3.710   1.857  0.00  0.00    +0.000 C 
BRANCH  33  34
ATOM     34  C   UNL     1      -3.990  -5.177   1.760  0.00  0.00    +0.000 C 
BRANCH  34  35
ATOM     35  O   UNL     1      -2.694  -5.293   1.185  0.00  0.00    +0.000 OA
ATOM     36  H   UNL     1      -2.315  -4.399   1.154  0.00  0.00    +0.000 HD
ENDBRANCH  34  35
ENDBRANCH  33  34
ENDBRANCH   2  33
TORSDOF 9
ENDMDL
MODEL 2
REMARK VINA RESULT:    -6.878      2.138      4.162
REMARK INTER + INTRA:         -12.938
REMARK INTER:                  -9.563
REMARK INTRA:                  -3.376
REMARK CONF_INDEPENDENT:        2.685
REMARK UNBOUND:                 3.376
REMARK  Name = 71236992
REMARK  10 active torsions:
REMARK  status: ('A' for Active; 'I' for Inactive)
REMARK    1  A    between atoms: O_6  and  C_25
REMARK    2  A    between atoms: N_8  and  C_18
REMARK    3  A    between atoms: N_9  and  C_12
REMARK    4  A    between atoms: N_11  and  C_20
REMARK    5  A    between atoms: C_18  and  C_25
REMARK    6  A    between atoms: C_20  and  C_21
REMARK    7  A    between atoms: C_20  and  C_27
REMARK    8  A    between atoms: C_30  and  C_31
REMARK    9  A    between atoms: C_31  and  C_32
REMARK   10  A    between atoms: C_32  and  C_33
REMARK                            x       y       z     vdW  Elec       q    Type
REMARK                         _______ _______ _______ _____ _____    ______ ____
ROOT
ATOM      1  O   UNL     1      -3.644  -1.462   6.360  0.00  0.00    +0.000 OA
ATOM      2  N   UNL     1      -4.151  -2.344   4.273  0.00  0.00    +0.000 N 
ATOM      3  N   UNL     1      -4.425  -2.844   1.971  0.00  0.00    +0.000 NA
ATOM      4  C   UNL     1      -1.919  -2.740   5.290  0.00  0.00    +0.000 C 
ATOM      5  C   UNL     1      -2.028  -4.219   5.546  0.00  0.00    +0.000 A 
ATOM      6  C   UNL     1      -2.670  -5.007   4.568  0.00  0.00    +0.000 A 
ATOM      7  C   UNL     1      -3.310  -2.125   5.374  0.00  0.00    +0.000 C 
ATOM      8  C   UNL     1      -3.151  -4.427   3.289  0.00  0.00    +0.000 A 
ATOM      9  C   UNL     1      -3.884  -3.228   3.166  0.00  0.00    +0.000 A 
ATOM     10  C   UNL     1      -1.572  -4.816   6.736  0.00  0.00    +0.000 A 
ATOM     11  C   UNL     1      -2.842  -6.383   4.834  0.00  0.00    +0.000 A 
ATOM     12  C   UNL     1      -2.917  -5.146   2.096  0.00  0.00    +0.000 A 
ATOM     13  C   UNL     1      -1.742  -6.180   6.965  0.00  0.00    +0.000 A 
ATOM     14  C   UNL     1      -2.382  -6.963   6.016  0.00  0.00    +0.000 A 
ATOM     15  C   UNL     1      -3.427  -4.728   0.875  0.00  0.00    +0.000 A 
ATOM     16  C   UNL     1      -4.184  -3.583   0.870  0.00  0.00    +0.000 A 
ENDROOT
BRANCH   4  18
ATOM     17  O   UNL     1       0.955  -2.670   5.253  0.00  0.00    +0.000 OA
ATOM     18  N   UNL     1      -1.061  -2.021   6.199  0.00  0.00    +0.000 N 
ATOM     19  C   UNL     1       0.324  -2.046   6.104  0.00  0.00    +0.000 C 
ATOM     20  H   UNL     1      -1.495  -1.489   6.949  0.00  0.00    +0.000 HD
BRANCH  19  21
ATOM     21  C   UNL     1       0.989  -1.167   7.154  0.00  0.00    +0.000 C 
ATOM     22  C   UNL     1       0.106   0.019   7.508  0.00  0.00    +0.000 C 
BRANCH  21  24
ATOM     23  O   UNL     1       3.482  -2.612   7.256  0.00  0.00    +0.000 OA
ATOM     24  N   UNL     1       2.259  -0.737   6.634  0.00  0.00    +0.000 N 
ATOM     25  C   UNL     1       3.414  -1.505   6.729  0.00  0.00    +0.000 C 
ATOM     26  H   UNL     1       2.295   0.139   6.119  0.00  0.00    +0.000 HD
BRANCH  25  27
ATOM     27  C   UNL     1       4.607  -0.808   6.101  0.00  0.00    +0.000 C 
BRANCH  27  28
ATOM     28  C   UNL     1       4.458  -0.646   4.590  0.00  0.00    +0.000 C 
BRANCH  28  32
ATOM     29  F   UNL     1       3.644  -2.846   4.281  0.00  0.00    +0.000 F 
ATOM     30  F   UNL     1       4.445  -1.811   2.532  0.00  0.00    +0.000 F 
ATOM     31  F   UNL     1       5.793  -2.521   4.092  0.00  0.00    +0.000 F 
ATOM     32  C   UNL     1       4.581  -1.967   3.865  0.00  0.00    +0.000 C 
ENDBRANCH  28  32
ENDBRANCH  27  28
ENDBRANCH  25  27
ENDBRANCH  21  24
ENDBRANCH  19  21
ENDBRANCH   4  18
BRANCH   2  33
ATOM     33  C   UNL     1      -5.369  -1.537   4.162  0.00  0.00    +0.000 C 
BRANCH  33  34
ATOM     34  C   UNL     1      -6.362  -1.872   5.261  0.00  0.00    +0.000 C 
BRANCH  34  35
ATOM     35  O   UNL     1      -6.160  -0.997   6.363  0.00  0.00    +0.000 OA
ATOM     36  H   UNL     1      -5.483  -0.353   6.095  0.00  0.00    +0.000 HD
ENDBRANCH  34  35
ENDBRANCH  33  34
ENDBRANCH   2  33
TORSDOF 9
ENDMDL
MODEL 3
REMARK VINA RESULT:    -6.791      2.354      5.710
REMARK INTER + INTRA:         -14.644
REMARK INTER:                  -9.475
REMARK INTRA:                  -5.168
REMARK CONF_INDEPENDENT:        2.685
REMARK UNBOUND:                 5.168
REMARK  Name = 71236992
REMARK  10 active torsions:
REMARK  status: ('A' for Active; 'I' for Inactive)
REMARK    1  A    between atoms: O_6  and  C_25
REMARK    2  A    between atoms: N_8  and  C_18
REMARK    3  A    between atoms: N_9  and  C_12
REMARK    4  A    between atoms: N_11  and  C_20
REMARK    5  A    between atoms: C_18  and  C_25
REMARK    6  A    between atoms: C_20  and  C_21
REMARK    7  A    between atoms: C_20  and  C_27
REMARK    8  A    between atoms: C_30  and  C_31
REMARK    9  A    between atoms: C_31  and  C_32
REMARK   10  A    between atoms: C_32  and  C_33
REMARK                            x       y       z     vdW  Elec       q    Type
REMARK                         _______ _______ _______ _____ _____    ______ ____
ROOT
ATOM      1  O   UNL     1      -2.255  -4.666   5.227  0.00  0.00    +0.000 OA
ATOM      2  N   UNL     1      -2.076  -2.378   5.576  0.00  0.00    +0.000 N 
ATOM      3  N   UNL     1      -1.576  -0.060   5.549  0.00  0.00    +0.000 NA
ATOM      4  C   UNL     1      -3.591  -3.259   3.816  0.00  0.00    +0.000 C 
ATOM      5  C   UNL     1      -4.915  -2.889   4.428  0.00  0.00    +0.000 A 
ATOM      6  C   UNL     1      -5.007  -1.644   5.085  0.00  0.00    +0.000 A 
ATOM      7  C   UNL     1      -2.590  -3.514   4.935  0.00  0.00    +0.000 C 
ATOM      8  C   UNL     1      -3.873  -0.687   5.108  0.00  0.00    +0.000 A 
ATOM      9  C   UNL     1      -2.533  -1.022   5.393  0.00  0.00    +0.000 A 
ATOM     10  C   UNL     1      -6.023  -3.757   4.416  0.00  0.00    +0.000 A 
ATOM     11  C   UNL     1      -6.224  -1.321   5.725  0.00  0.00    +0.000 A 
ATOM     12  C   UNL     1      -4.145   0.682   4.888  0.00  0.00    +0.000 A 
ATOM     13  C   UNL     1      -7.216  -3.405   5.044  0.00  0.00    +0.000 A 
ATOM     14  C   UNL     1      -7.316  -2.189   5.702  0.00  0.00    +0.000 A 
ATOM     15  C   UNL     1      -3.160   1.653   4.999  0.00  0.00    +0.000 A 
ATOM     16  C   UNL     1      -1.900   1.232   5.346  0.00  0.00    +0.000 A 
ENDROOT
BRANCH   4  18
ATOM     17  O   UNL     1      -4.069  -3.315   0.981  0.00  0.00    +0.000 OA
ATOM     18  N   UNL     1      -3.611  -4.425   2.967  0.00  0.00    +0.000 N 
ATOM     19  C   UNL     1      -3.852  -4.354   1.601  0.00  0.00    +0.000 C 
ATOM     20  H   UNL     1      -3.459  -5.334   3.395  0.00  0.00    +0.000 HD
BRANCH  19  21
ATOM     21  C   UNL     1      -3.772  -5.719   0.931  0.00  0.00    +0.000 C 
ATOM     22  C   UNL     1      -4.824  -6.663   1.494  0.00  0.00    +0.000 C 
BRANCH  21  24
ATOM     23  O   UNL     1      -2.778  -7.079   3.271  0.00  0.00    +0.000 OA
ATOM     24  N   UNL     1      -2.444  -6.236   1.132  0.00  0.00    +0.000 N 
ATOM     25  C   UNL     1      -2.053  -6.882   2.299  0.00  0.00    +0.000 C 
ATOM     26  H   UNL     1      -1.787  -6.181   0.358  0.00  0.00    +0.000 HD
BRANCH  25  27
ATOM     27  C   UNL     1      -0.602  -7.320   2.241  0.00  0.00    +0.000 C 
BRANCH  27  28
ATOM     28  C   UNL     1       0.347  -6.161   1.949  0.00  0.00    +0.000 C 
BRANCH  28  32
ATOM     29  F   UNL     1      -0.130  -5.530   4.179  0.00  0.00    +0.000 F 
ATOM     30  F   UNL     1       1.357  -4.354   3.094  0.00  0.00    +0.000 F 
ATOM     31  F   UNL     1      -0.756  -4.180   2.585  0.00  0.00    +0.000 F 
ATOM     32  C   UNL     1       0.208  -5.048   2.964  0.00  0.00    +0.000 C 
ENDBRANCH  28  32
ENDBRANCH  27  28
ENDBRANCH  25  27
ENDBRANCH  21  24
ENDBRANCH  19  21
ENDBRANCH   4  18
BRANCH   2  33
ATOM     33  C   UNL     1      -0.902  -2.541   6.437  0.00  0.00    +0.000 C 
BRANCH  33  34
ATOM     34  C   UNL     1       0.379  -2.621   5.626  0.00  0.00    +0.000 C 
BRANCH  34  35
ATOM     35  O   UNL     1       1.047  -1.367   5.673  0.00  0.00    +0.000 OA
ATOM     36  H   UNL     1       0.460  -0.715   5.254  0.00  0.00    +0.000 HD
ENDBRANCH  34  35
ENDBRANCH  33  34
ENDBRANCH   2  33
TORSDOF 9
ENDMDL
MODEL 4
REMARK VINA RESULT:    -6.568      2.188      4.076
REMARK INTER + INTRA:         -13.714
REMARK INTER:                  -9.253
REMARK INTRA:                  -4.460
REMARK CONF_INDEPENDENT:        2.685
REMARK UNBOUND:                 4.460
REMARK  Name = 71236992
REMARK  10 active torsions:
REMARK  status: ('A' for Active; 'I' for Inactive)
REMARK    1  A    between atoms: O_6  and  C_25
REMARK    2  A    between atoms: N_8  and  C_18
REMARK    3  A    between atoms: N_9  and  C_12
REMARK    4  A    between atoms: N_11  and  C_20
REMARK    5  A    between atoms: C_18  and  C_25
REMARK    6  A    between atoms: C_20  and  C_21
REMARK    7  A    between atoms: C_20  and  C_27
REMARK    8  A    between atoms: C_30  and  C_31
REMARK    9  A    between atoms: C_31  and  C_32
REMARK   10  A    between atoms: C_32  and  C_33
REMARK                            x       y       z     vdW  Elec       q    Type
REMARK                         _______ _______ _______ _____ _____    ______ ____
ROOT
ATOM      1  O   UNL     1      -3.005  -3.411   6.978  0.00  0.00    +0.000 OA
ATOM      2  N   UNL     1      -4.032  -3.472   4.897  0.00  0.00    +0.000 N 
ATOM      3  N   UNL     1      -5.210  -3.066   2.878  0.00  0.00    +0.000 NA
ATOM      4  C   UNL     1      -1.775  -2.467   5.147  0.00  0.00    +0.000 C 
ATOM      5  C   UNL     1      -0.970  -3.485   4.383  0.00  0.00    +0.000 A 
ATOM      6  C   UNL     1      -1.539  -4.021   3.208  0.00  0.00    +0.000 A 
ATOM      7  C   UNL     1      -2.979  -3.162   5.768  0.00  0.00    +0.000 C 
ATOM      8  C   UNL     1      -2.844  -3.547   2.686  0.00  0.00    +0.000 A 
ATOM      9  C   UNL     1      -4.007  -3.352   3.460  0.00  0.00    +0.000 A 
ATOM     10  C   UNL     1       0.279  -3.952   4.832  0.00  0.00    +0.000 A 
ATOM     11  C   UNL     1      -0.823  -5.030   2.527  0.00  0.00    +0.000 A 
ATOM     12  C   UNL     1      -2.970  -3.324   1.296  0.00  0.00    +0.000 A 
ATOM     13  C   UNL     1       0.970  -4.938   4.130  0.00  0.00    +0.000 A 
ATOM     14  C   UNL     1       0.417  -5.481   2.980  0.00  0.00    +0.000 A 
ATOM     15  C   UNL     1      -4.183  -2.985   0.714  0.00  0.00    +0.000 A 
ATOM     16  C   UNL     1      -5.272  -2.884   1.544  0.00  0.00    +0.000 A 
ENDROOT
BRANCH   4  18
ATOM     17  O   UNL     1      -0.700   0.198   5.057  0.00  0.00    +0.000 OA
ATOM     18  N   UNL     1      -1.063  -1.787   6.200  0.00  0.00    +0.000 N 
ATOM     19  C   UNL     1      -0.578  -0.493   6.066  0.00  0.00    +0.000 C 
ATOM     20  H   UNL     1      -0.898  -2.289   7.070  0.00  0.00    +0.000 HD
BRANCH  19  21
ATOM     21  C   UNL     1       0.092   0.006   7.339  0.00  0.00    +0.000 C 
ATOM     22  C   UNL     1      -0.117   1.502   7.513  0.00  0.00    +0.000 C 
BRANCH  21  24
ATOM     23  O   UNL     1       1.249  -2.632   7.206  0.00  0.00    +0.000 OA
ATOM     24  N   UNL     1       1.491  -0.322   7.263  0.00  0.00    +0.000 N 
ATOM     25  C   UNL     1       1.958  -1.630   7.201  0.00  0.00    +0.000 C 
ATOM     26  H   UNL     1       2.158   0.441   7.186  0.00  0.00    +0.000 HD
BRANCH  25  27
ATOM     27  C   UNL     1       3.473  -1.683   7.131  0.00  0.00    +0.000 C 
BRANCH  27  28
ATOM     28  C   UNL     1       4.053  -0.605   6.219  0.00  0.00    +0.000 C 
BRANCH  28  32
ATOM     29  F   UNL     1       2.982  -1.779   4.466  0.00  0.00    +0.000 F 
ATOM     30  F   UNL     1       4.099   0.023   3.938  0.00  0.00    +0.000 F 
ATOM     31  F   UNL     1       5.162  -1.792   4.514  0.00  0.00    +0.000 F 
ATOM     32  C   UNL     1       4.070  -1.039   4.770  0.00  0.00    +0.000 C 
ENDBRANCH  28  32
ENDBRANCH  27  28
ENDBRANCH  25  27
ENDBRANCH  21  24
ENDBRANCH  19  21
ENDBRANCH   4  18
BRANCH   2  33
ATOM     33  C   UNL     1      -5.321  -3.857   5.478  0.00  0.00    +0.000 C 
BRANCH  33  34
ATOM     34  C   UNL     1      -6.132  -2.642   5.892  0.00  0.00    +0.000 C 
BRANCH  34  35
ATOM     35  O   UNL     1      -5.538  -1.470   5.349  0.00  0.00    +0.000 OA
ATOM     36  H   UNL     1      -5.343  -1.656   4.415  0.00  0.00    +0.000 HD
ENDBRANCH  34  35
ENDBRANCH  33  34
ENDBRANCH   2  33
TORSDOF 9
ENDMDL
MODEL 5
REMARK VINA RESULT:    -6.270      2.711      3.750
REMARK INTER + INTRA:         -14.224
REMARK INTER:                  -8.954
REMARK INTRA:                  -5.269
REMARK CONF_INDEPENDENT:        2.685
REMARK UNBOUND:                 5.269
REMARK  Name = 71236992
REMARK  10 active torsions:
REMARK  status: ('A' for Active; 'I' for Inactive)
REMARK    1  A    between atoms: O_6  and  C_25
REMARK    2  A    between atoms: N_8  and  C_18
REMARK    3  A    between atoms: N_9  and  C_12
REMARK    4  A    between atoms: N_11  and  C_20
REMARK    5  A    between atoms: C_18  and  C_25
REMARK    6  A    between atoms: C_20  and  C_21
REMARK    7  A    between atoms: C_20  and  C_27
REMARK    8  A    between atoms: C_30  and  C_31
REMARK    9  A    between atoms: C_31  and  C_32
REMARK   10  A    between atoms: C_32  and  C_33
REMARK                            x       y       z     vdW  Elec       q    Type
REMARK                         _______ _______ _______ _____ _____    ______ ____
ROOT
ATOM      1  O   UNL     1      -2.046  -3.068   2.202  0.00  0.00    +0.000 OA
ATOM      2  N   UNL     1      -4.246  -3.002   2.939  0.00  0.00    +0.000 N 
ATOM      3  N   UNL     1      -6.410  -3.409   3.822  0.00  0.00    +0.000 NA
ATOM      4  C   UNL     1      -2.380  -2.677   4.546  0.00  0.00    +0.000 C 
ATOM      5  C   UNL     1      -2.599  -1.226   4.881  0.00  0.00    +0.000 A 
ATOM      6  C   UNL     1      -3.930  -0.780   5.021  0.00  0.00    +0.000 A 
ATOM      7  C   UNL     1      -2.858  -2.927   3.122  0.00  0.00    +0.000 C 
ATOM      8  C   UNL     1      -5.080  -1.714   4.927  0.00  0.00    +0.000 A 
ATOM      9  C   UNL     1      -5.249  -2.697   3.930  0.00  0.00    +0.000 A 
ATOM     10  C   UNL     1      -1.539  -0.308   4.997  0.00  0.00    +0.000 A 
ATOM     11  C   UNL     1      -4.147   0.593   5.263  0.00  0.00    +0.000 A 
ATOM     12  C   UNL     1      -6.129  -1.584   5.866  0.00  0.00    +0.000 A 
ATOM     13  C   UNL     1      -1.782   1.040   5.251  0.00  0.00    +0.000 A 
ATOM     14  C   UNL     1      -3.086   1.493   5.380  0.00  0.00    +0.000 A 
ATOM     15  C   UNL     1      -7.287  -2.344   5.782  0.00  0.00    +0.000 A 
ATOM     16  C   UNL     1      -7.384  -3.228   4.736  0.00  0.00    +0.000 A 
ENDROOT
BRANCH   4  18
ATOM     17  O   UNL     1      -0.936  -3.304   6.952  0.00  0.00    +0.000 OA
ATOM     18  N   UNL     1      -1.014  -3.129   4.640  0.00  0.00    +0.000 N 
ATOM     19  C   UNL     1      -0.397  -3.409   5.852  0.00  0.00    +0.000 C 
ATOM     20  H   UNL     1      -0.481  -3.229   3.780  0.00  0.00    +0.000 HD
BRANCH  19  21
ATOM     21  C   UNL     1       1.028  -3.913   5.670  0.00  0.00    +0.000 C 
ATOM     22  C   UNL     1       1.863  -2.911   4.888  0.00  0.00    +0.000 C 
BRANCH  21  24
ATOM     23  O   UNL     1       0.579  -4.361   2.857  0.00  0.00    +0.000 OA
ATOM     24  N   UNL     1       0.968  -5.183   4.995  0.00  0.00    +0.000 N 
ATOM     25  C   UNL     1       0.746  -5.302   3.628  0.00  0.00    +0.000 C 
ATOM     26  H   UNL     1       1.161  -6.022   5.536  0.00  0.00    +0.000 HD
BRANCH  25  27
ATOM     27  C   UNL     1       0.730  -6.754   3.186  0.00  0.00    +0.000 C 
BRANCH  27  28
ATOM     28  C   UNL     1      -0.606  -7.435   3.469  0.00  0.00    +0.000 C 
BRANCH  28  32
ATOM     29  F   UNL     1      -2.812  -7.403   2.614  0.00  0.00    +0.000 F 
ATOM     30  F   UNL     1      -2.210  -5.755   3.915  0.00  0.00    +0.000 F 
ATOM     31  F   UNL     1      -1.418  -5.891   1.887  0.00  0.00    +0.000 F 
ATOM     32  C   UNL     1      -1.775  -6.616   2.971  0.00  0.00    +0.000 C 
ENDBRANCH  28  32
ENDBRANCH  27  28
ENDBRANCH  25  27
ENDBRANCH  21  24
ENDBRANCH  19  21
ENDBRANCH   4  18
BRANCH   2  33
ATOM     33  C   UNL     1      -4.750  -3.535   1.671  0.00  0.00    +0.000 C 
BRANCH  33  34
ATOM     34  C   UNL     1      -4.418  -5.008   1.513  0.00  0.00    +0.000 C 
BRANCH  34  35
ATOM     35  O   UNL     1      -3.397  -5.160   0.534  0.00  0.00    +0.000 OA
ATOM     36  H   UNL     1      -2.651  -4.601   0.811  0.00  0.00    +0.000 HD
ENDBRANCH  34  35
ENDBRANCH  33  34
ENDBRANCH   2  33
TORSDOF 9
ENDMDL
MODEL 6
REMARK VINA RESULT:    -6.067      3.018      6.485
REMARK INTER + INTRA:         -13.839
REMARK INTER:                  -8.752
REMARK INTRA:                  -5.087
REMARK CONF_INDEPENDENT:        2.685
REMARK UNBOUND:                 5.087
REMARK  Name = 71236992
REMARK  10 active torsions:
REMARK  status: ('A' for Active; 'I' for Inactive)
REMARK    1  A    between atoms: O_6  and  C_25
REMARK    2  A    between atoms: N_8  and  C_18
REMARK    3  A    between atoms: N_9  and  C_12
REMARK    4  A    between atoms: N_11  and  C_20
REMARK    5  A    between atoms: C_18  and  C_25
REMARK    6  A    between atoms: C_20  and  C_21
REMARK    7  A    between atoms: C_20  and  C_27
REMARK    8  A    between atoms: C_30  and  C_31
REMARK    9  A    between atoms: C_31  and  C_32
REMARK   10  A    between atoms: C_32  and  C_33
REMARK                            x       y       z     vdW  Elec       q    Type
REMARK                         _______ _______ _______ _____ _____    ______ ____
ROOT
ATOM      1  O   UNL     1      -2.889  -4.921   5.151  0.00  0.00    +0.000 OA
ATOM      2  N   UNL     1      -0.960  -4.007   6.063  0.00  0.00    +0.000 N 
ATOM      3  N   UNL     1       1.232  -3.275   6.596  0.00  0.00    +0.000 NA
ATOM      4  C   UNL     1      -2.174  -2.813   4.254  0.00  0.00    +0.000 C 
ATOM      5  C   UNL     1      -2.678  -1.631   5.039  0.00  0.00    +0.000 A 
ATOM      6  C   UNL     1      -1.812  -1.067   6.000  0.00  0.00    +0.000 A 
ATOM      7  C   UNL     1      -2.058  -4.008   5.191  0.00  0.00    +0.000 C 
ATOM      8  C   UNL     1      -0.423  -1.556   6.182  0.00  0.00    +0.000 A 
ATOM      9  C   UNL     1      -0.044  -2.912   6.270  0.00  0.00    +0.000 A 
ATOM     10  C   UNL     1      -3.981  -1.123   4.888  0.00  0.00    +0.000 A 
ATOM     11  C   UNL     1      -2.303  -0.006   6.791  0.00  0.00    +0.000 A 
ATOM     12  C   UNL     1       0.609  -0.604   6.344  0.00  0.00    +0.000 A 
ATOM     13  C   UNL     1      -4.433  -0.064   5.673  0.00  0.00    +0.000 A 
ATOM     14  C   UNL     1      -3.596   0.492   6.628  0.00  0.00    +0.000 A 
ATOM     15  C   UNL     1       1.914  -0.977   6.627  0.00  0.00    +0.000 A 
ATOM     16  C   UNL     1       2.170  -2.320   6.758  0.00  0.00    +0.000 A 
ENDROOT
BRANCH   4  18
ATOM     17  O   UNL     1      -1.897  -1.952   1.525  0.00  0.00    +0.000 OA
ATOM     18  N   UNL     1      -2.999  -3.205   3.138  0.00  0.00    +0.000 N 
ATOM     19  C   UNL     1      -2.788  -2.734   1.848  0.00  0.00    +0.000 C 
ATOM     20  H   UNL     1      -3.774  -3.838   3.312  0.00  0.00    +0.000 HD
BRANCH  19  21
ATOM     21  C   UNL     1      -3.766  -3.338   0.849  0.00  0.00    +0.000 C 
ATOM     22  C   UNL     1      -5.183  -2.852   1.115  0.00  0.00    +0.000 C 
BRANCH  21  24
ATOM     23  O   UNL     1      -5.120  -5.030   2.751  0.00  0.00    +0.000 OA
ATOM     24  N   UNL     1      -3.677  -4.770   0.949  0.00  0.00    +0.000 N 
ATOM     25  C   UNL     1      -4.371  -5.506   1.903  0.00  0.00    +0.000 C 
ATOM     26  H   UNL     1      -3.133  -5.266   0.248  0.00  0.00    +0.000 HD
BRANCH  25  27
ATOM     27  C   UNL     1      -4.090  -6.992   1.781  0.00  0.00    +0.000 C 
BRANCH  27  28
ATOM     28  C   UNL     1      -2.836  -7.415   2.541  0.00  0.00    +0.000 C 
BRANCH  28  32
ATOM     29  F   UNL     1      -0.492  -7.558   2.252  0.00  0.00    +0.000 F 
ATOM     30  F   UNL     1      -1.668  -6.776   0.585  0.00  0.00    +0.000 F 
ATOM     31  F   UNL     1      -1.380  -5.570   2.380  0.00  0.00    +0.000 F 
ATOM     32  C   UNL     1      -1.582  -6.829   1.931  0.00  0.00    +0.000 C 
ENDBRANCH  28  32
ENDBRANCH  27  28
ENDBRANCH  25  27
ENDBRANCH  21  24
ENDBRANCH  19  21
ENDBRANCH   4  18
BRANCH   2  33
ATOM     33  C   UNL     1      -0.630  -5.251   6.762  0.00  0.00    +0.000 C 
BRANCH  33  34
ATOM     34  C   UNL     1       0.324  -6.110   5.951  0.00  0.00    +0.000 C 
BRANCH  34  35
ATOM     35  O   UNL     1      -0.277  -6.436   4.704  0.00  0.00    +0.000 OA
ATOM     36  H   UNL     1      -1.210  -6.169   4.759  0.00  0.00    +0.000 HD
ENDBRANCH  34  35
ENDBRANCH  33  34
ENDBRANCH   2  33
TORSDOF 9
ENDMDL
MODEL 7
REMARK VINA RESULT:    -6.005      3.600      7.333
REMARK INTER + INTRA:         -13.026
REMARK INTER:                  -8.690
REMARK INTRA:                  -4.336
REMARK CONF_INDEPENDENT:        2.685
REMARK UNBOUND:                 4.336
REMARK  Name = 71236992
REMARK  10 active torsions:
REMARK  status: ('A' for Active; 'I' for Inactive)
REMARK    1  A    between atoms: O_6  and  C_25
REMARK    2  A    between atoms: N_8  and  C_18
REMARK    3  A    between atoms: N_9  and  C_12
REMARK    4  A    between atoms: N_11  and  C_20
REMARK    5  A    between atoms: C_18  and  C_25
REMARK    6  A    between atoms: C_20  and  C_21
REMARK    7  A    between atoms: C_20  and  C_27
REMARK    8  A    between atoms: C_30  and  C_31
REMARK    9  A    between atoms: C_31  and  C_32
REMARK   10  A    between atoms: C_32  and  C_33
REMARK                            x       y       z     vdW  Elec       q    Type
REMARK                         _______ _______ _______ _____ _____    ______ ____
ROOT
ATOM      1  O   UNL     1      -2.649  -5.076   5.783  0.00  0.00    +0.000 OA
ATOM      2  N   UNL     1      -0.625  -4.188   6.493  0.00  0.00    +0.000 N 
ATOM      3  N   UNL     1       1.637  -3.584   6.872  0.00  0.00    +0.000 NA
ATOM      4  C   UNL     1      -1.742  -3.289   4.465  0.00  0.00    +0.000 C 
ATOM      5  C   UNL     1      -2.113  -1.923   4.978  0.00  0.00    +0.000 A 
ATOM      6  C   UNL     1      -1.182  -1.258   5.802  0.00  0.00    +0.000 A 
ATOM      7  C   UNL     1      -1.731  -4.264   5.634  0.00  0.00    +0.000 C 
ATOM      8  C   UNL     1       0.155  -1.834   6.093  0.00  0.00    +0.000 A 
ATOM      9  C   UNL     1       0.399  -3.172   6.469  0.00  0.00    +0.000 A 
ATOM     10  C   UNL     1      -3.362  -1.330   4.714  0.00  0.00    +0.000 A 
ATOM     11  C   UNL     1      -1.552  -0.010   6.347  0.00  0.00    +0.000 A 
ATOM     12  C   UNL     1       1.278  -0.978   6.055  0.00  0.00    +0.000 A 
ATOM     13  C   UNL     1      -3.695  -0.090   5.254  0.00  0.00    +0.000 A 
ATOM     14  C   UNL     1      -2.792   0.569   6.074  0.00  0.00    +0.000 A 
ATOM     15  C   UNL     1       2.544  -1.412   6.419  0.00  0.00    +0.000 A 
ATOM     16  C   UNL     1       2.667  -2.715   6.833  0.00  0.00    +0.000 A 
ENDROOT
BRANCH   4  18
ATOM     17  O   UNL     1      -1.931  -2.431   1.727  0.00  0.00    +0.000 OA
ATOM     18  N   UNL     1      -2.618  -3.823   3.451  0.00  0.00    +0.000 N 
ATOM     19  C   UNL     1      -2.640  -3.342   2.148  0.00  0.00    +0.000 C 
ATOM     20  H   UNL     1      -3.255  -4.571   3.713  0.00  0.00    +0.000 HD
BRANCH  19  21
ATOM     21  C   UNL     1      -3.618  -4.109   1.269  0.00  0.00    +0.000 C 
ATOM     22  C   UNL     1      -4.147  -3.228   0.148  0.00  0.00    +0.000 C 
BRANCH  21  24
ATOM     23  O   UNL     1      -5.367  -2.525   2.926  0.00  0.00    +0.000 OA
ATOM     24  N   UNL     1      -4.686  -4.589   2.105  0.00  0.00    +0.000 N 
ATOM     25  C   UNL     1      -5.482  -3.747   2.873  0.00  0.00    +0.000 C 
ATOM     26  H   UNL     1      -4.905  -5.582   2.080  0.00  0.00    +0.000 HD
BRANCH  25  27
ATOM     27  C   UNL     1      -6.526  -4.519   3.657  0.00  0.00    +0.000 C 
BRANCH  27  28
ATOM     28  C   UNL     1      -7.494  -3.603   4.400  0.00  0.00    +0.000 C 
BRANCH  28  32
ATOM     29  F   UNL     1      -7.404  -3.515   6.763  0.00  0.00    +0.000 F 
ATOM     30  F   UNL     1      -5.535  -3.223   5.671  0.00  0.00    +0.000 F 
ATOM     31  F   UNL     1      -7.059  -1.663   5.664  0.00  0.00    +0.000 F 
ATOM     32  C   UNL     1      -6.866  -3.001   5.637  0.00  0.00    +0.000 C 
ENDBRANCH  28  32
ENDBRANCH  27  28
ENDBRANCH  25  27
ENDBRANCH  21  24
ENDBRANCH  19  21
ENDBRANCH   4  18
BRANCH   2  33
ATOM     33  C   UNL     1      -0.409  -5.283   7.442  0.00  0.00    +0.000 C 
BRANCH  33  34
ATOM     34  C   UNL     1       0.123  -6.525   6.749  0.00  0.00    +0.000 C 
BRANCH  34  35
ATOM     35  O   UNL     1       1.544  -6.475   6.715  0.00  0.00    +0.000 OA
ATOM     36  H   UNL     1       1.789  -5.644   6.274  0.00  0.00    +0.000 HD
ENDBRANCH  34  35
ENDBRANCH  33  34
ENDBRANCH   2  33
TORSDOF 9
ENDMDL
MODEL 8
REMARK VINA RESULT:    -5.466      3.504      6.995
REMARK INTER + INTRA:         -13.309
REMARK INTER:                  -8.150
REMARK INTRA:                  -5.159
REMARK CONF_INDEPENDENT:        2.685
REMARK UNBOUND:                 5.159
REMARK  Name = 71236992
REMARK  10 active torsions:
REMARK  status: ('A' for Active; 'I' for Inactive)
REMARK    1  A    between atoms: O_6  and  C_25
REMARK    2  A    between atoms: N_8  and  C_18
REMARK    3  A    between atoms: N_9  and  C_12
REMARK    4  A    between atoms: N_11  and  C_20
REMARK    5  A    between atoms: C_18  and  C_25
REMARK    6  A    between atoms: C_20  and  C_21
REMARK    7  A    between atoms: C_20  and  C_27
REMARK    8  A    between atoms: C_30  and  C_31
REMARK    9  A    between atoms: C_31  and  C_32
REMARK   10  A    between atoms: C_32  and  C_33
REMARK                            x       y       z     vdW  Elec       q    Type
REMARK                         _______ _______ _______ _____ _____    ______ ____
ROOT
ATOM      1  O   UNL     1      -3.601  -1.965   3.792  0.00  0.00    +0.000 OA
ATOM      2  N   UNL     1      -1.897  -0.928   4.980  0.00  0.00    +0.000 N 
ATOM      3  N   UNL     1      -0.492   0.148   6.560  0.00  0.00    +0.000 NA
ATOM      4  C   UNL     1      -2.321  -3.358   5.268  0.00  0.00    +0.000 C 
ATOM      5  C   UNL     1      -1.066  -3.900   4.636  0.00  0.00    +0.000 A 
ATOM      6  C   UNL     1       0.140  -3.211   4.881  0.00  0.00    +0.000 A 
ATOM      7  C   UNL     1      -2.671  -2.034   4.602  0.00  0.00    +0.000 C 
ATOM      8  C   UNL     1       0.201  -2.043   5.794  0.00  0.00    +0.000 A 
ATOM      9  C   UNL     1      -0.708  -0.964   5.795  0.00  0.00    +0.000 A 
ATOM     10  C   UNL     1      -1.073  -5.014   3.776  0.00  0.00    +0.000 A 
ATOM     11  C   UNL     1       1.308  -3.669   4.233  0.00  0.00    +0.000 A 
ATOM     12  C   UNL     1       1.281  -1.956   6.702  0.00  0.00    +0.000 A 
ATOM     13  C   UNL     1       0.098  -5.453   3.162  0.00  0.00    +0.000 A 
ATOM     14  C   UNL     1       1.288  -4.778   3.386  0.00  0.00    +0.000 A 
ATOM     15  C   UNL     1       1.470  -0.846   7.513  0.00  0.00    +0.000 A 
ATOM     16  C   UNL     1       0.567   0.181   7.392  0.00  0.00    +0.000 A 
ENDROOT
BRANCH   4  18
ATOM     17  O   UNL     1      -5.022  -2.697   5.997  0.00  0.00    +0.000 OA
ATOM     18  N   UNL     1      -3.474  -4.218   5.177  0.00  0.00    +0.000 N 
ATOM     19  C   UNL     1      -4.747  -3.810   5.555  0.00  0.00    +0.000 C 
ATOM     20  H   UNL     1      -3.340  -5.167   4.838  0.00  0.00    +0.000 HD
BRANCH  19  21
ATOM     21  C   UNL     1      -5.792  -4.891   5.315  0.00  0.00    +0.000 C 
ATOM     22  C   UNL     1      -5.571  -6.076   6.241  0.00  0.00    +0.000 C 
BRANCH  21  24
ATOM     23  O   UNL     1      -3.957  -6.788   4.154  0.00  0.00    +0.000 OA
ATOM     24  N   UNL     1      -5.715  -5.286   3.933  0.00  0.00    +0.000 N 
ATOM     25  C   UNL     1      -4.793  -6.213   3.463  0.00  0.00    +0.000 C 
ATOM     26  H   UNL     1      -6.410  -4.915   3.290  0.00  0.00    +0.000 HD
BRANCH  25  27
ATOM     27  C   UNL     1      -4.934  -6.439   1.968  0.00  0.00    +0.000 C 
BRANCH  27  28
ATOM     28  C   UNL     1      -3.870  -5.698   1.163  0.00  0.00    +0.000 C 
BRANCH  28  32
ATOM     29  F   UNL     1      -3.832  -3.615   0.041  0.00  0.00    +0.000 F 
ATOM     30  F   UNL     1      -5.292  -3.869   1.646  0.00  0.00    +0.000 F 
ATOM     31  F   UNL     1      -3.173  -3.661   2.119  0.00  0.00    +0.000 F 
ATOM     32  C   UNL     1      -4.048  -4.198   1.239  0.00  0.00    +0.000 C 
ENDBRANCH  28  32
ENDBRANCH  27  28
ENDBRANCH  25  27
ENDBRANCH  21  24
ENDBRANCH  19  21
ENDBRANCH   4  18
BRANCH   2  33
ATOM     33  C   UNL     1      -2.373   0.408   4.612  0.00  0.00    +0.000 C 
BRANCH  33  34
ATOM     34  C   UNL     1      -3.477   0.882   5.540  0.00  0.00    +0.000 C 
BRANCH  34  35
ATOM     35  O   UNL     1      -4.655   0.121   5.300  0.00  0.00    +0.000 OA
ATOM     36  H   UNL     1      -4.381  -0.807   5.209  0.00  0.00    +0.000 HD
ENDBRANCH  34  35
ENDBRANCH  33  34
ENDBRANCH   2  33
TORSDOF 9
ENDMDL
MODEL 9
REMARK VINA RESULT:    -5.301      3.677      7.282
REMARK INTER + INTRA:         -13.207
REMARK INTER:                  -7.986
REMARK INTRA:                  -5.221
REMARK CONF_INDEPENDENT:        2.685
REMARK UNBOUND:                 5.221
REMARK  Name = 71236992
REMARK  10 active torsions:
REMARK  status: ('A' for Active; 'I' for Inactive)
REMARK    1  A    between atoms: O_6  and  C_25
REMARK    2  A    between atoms: N_8  and  C_18
REMARK    3  A    between atoms: N_9  and  C_12
REMARK    4  A    between atoms: N_11  and  C_20
REMARK    5  A    between atoms: C_18  and  C_25
REMARK    6  A    between atoms: C_20  and  C_21
REMARK    7  A    between atoms: C_20  and  C_27
REMARK    8  A    between atoms: C_30  and  C_31
REMARK    9  A    between atoms: C_31  and  C_32
REMARK   10  A    between atoms: C_32  and  C_33
REMARK                            x       y       z     vdW  Elec       q    Type
REMARK                         _______ _______ _______ _____ _____    ______ ____
ROOT
ATOM      1  O   UNL     1      -3.498  -2.116   3.654  0.00  0.00    +0.000 OA
ATOM      2  N   UNL     1      -1.634  -1.324   4.788  0.00  0.00    +0.000 N 
ATOM      3  N   UNL     1      -0.043  -0.480   6.332  0.00  0.00    +0.000 NA
ATOM      4  C   UNL     1      -2.307  -3.706   5.000  0.00  0.00    +0.000 C 
ATOM      5  C   UNL     1      -1.153  -4.350   4.280  0.00  0.00    +0.000 A 
ATOM      6  C   UNL     1       0.132  -3.807   4.487  0.00  0.00    +0.000 A 
ATOM      7  C   UNL     1      -2.543  -2.322   4.409  0.00  0.00    +0.000 C 
ATOM      8  C   UNL     1       0.366  -2.695   5.442  0.00  0.00    +0.000 A 
ATOM      9  C   UNL     1      -0.417  -1.526   5.536  0.00  0.00    +0.000 A 
ATOM     10  C   UNL     1      -1.325  -5.416   3.378  0.00  0.00    +0.000 A 
ATOM     11  C   UNL     1       1.209  -4.357   3.758  0.00  0.00    +0.000 A 
ATOM     12  C   UNL     1       1.493  -2.767   6.293  0.00  0.00    +0.000 A 
ATOM     13  C   UNL     1      -0.241  -5.949   2.683  0.00  0.00    +0.000 A 
ATOM     14  C   UNL     1       1.026  -5.417   2.870  0.00  0.00    +0.000 A 
ATOM     15  C   UNL     1       1.842  -1.722   7.137  0.00  0.00    +0.000 A 
ATOM     16  C   UNL     1       1.053  -0.599   7.107  0.00  0.00    +0.000 A 
ENDROOT
BRANCH   4  18
ATOM     17  O   UNL     1      -3.202  -5.748   6.816  0.00  0.00    +0.000 OA
ATOM     18  N   UNL     1      -3.552  -4.432   4.938  0.00  0.00    +0.000 N 
ATOM     19  C   UNL     1      -3.900  -5.406   5.864  0.00  0.00    +0.000 C 
ATOM     20  H   UNL     1      -4.188  -4.228   4.171  0.00  0.00    +0.000 HD
BRANCH  19  21
ATOM     21  C   UNL     1      -5.284  -5.984   5.598  0.00  0.00    +0.000 C 
ATOM     22  C   UNL     1      -5.324  -6.703   4.259  0.00  0.00    +0.000 C 
BRANCH  21  24
ATOM     23  O   UNL     1      -5.924  -4.156   3.462  0.00  0.00    +0.000 OA
ATOM     24  N   UNL     1      -6.233  -4.903   5.640  0.00  0.00    +0.000 N 
ATOM     25  C   UNL     1      -6.477  -4.070   4.554  0.00  0.00    +0.000 C 
ATOM     26  H   UNL     1      -6.793  -4.790   6.481  0.00  0.00    +0.000 HD
BRANCH  25  27
ATOM     27  C   UNL     1      -7.522  -3.017   4.877  0.00  0.00    +0.000 C 
BRANCH  27  28
ATOM     28  C   UNL     1      -7.089  -2.095   6.013  0.00  0.00    +0.000 C 
BRANCH  28  32
ATOM     29  F   UNL     1      -5.710  -1.078   4.382  0.00  0.00    +0.000 F 
ATOM     30  F   UNL     1      -5.693  -0.223   6.392  0.00  0.00    +0.000 F 
ATOM     31  F   UNL     1      -4.735  -2.146   6.014  0.00  0.00    +0.000 F 
ATOM     32  C   UNL     1      -5.798  -1.375   5.696  0.00  0.00    +0.000 C 
ENDBRANCH  28  32
ENDBRANCH  27  28
ENDBRANCH  25  27
ENDBRANCH  21  24
ENDBRANCH  19  21
ENDBRANCH   4  18
BRANCH   2  33
ATOM     33  C   UNL     1      -1.978   0.070   4.501  0.00  0.00    +0.000 C 
BRANCH  33  34
ATOM     34  C   UNL     1      -3.030   0.595   5.462  0.00  0.00    +0.000 C 
BRANCH  34  35
ATOM     35  O   UNL     1      -2.630   0.316   6.798  0.00  0.00    +0.000 OA
ATOM     36  H   UNL     1      -2.167  -0.539   6.785  0.00  0.00    +0.000 HD
ENDBRANCH  34  35
ENDBRANCH  33  34
ENDBRANCH   2  33
TORSDOF 9
ENDMDL
