MODEL 1
REMARK VINA RESULT:   683.215      0.000      0.000
REMARK INTER + INTRA:         721.911
REMARK INTER:                 680.530
REMARK INTRA:                  41.381
REMARK CONF_INDEPENDENT:        2.685
REMARK UNBOUND:               -41.381
REMARK  Name = 71236992
REMARK  10 active torsions:
REMARK  status: ('A' for Active; 'I' for Inactive)
REMARK    1  A    between atoms: O_6  and  C_25
REMARK    2  A    between atoms: N_8  and  C_18
REMARK    3  A    between atoms: N_9  and  C_12
REMARK    4  A    between atoms: N_11  and  C_20
REMARK    5  A    between atoms: C_18  and  C_25
REMARK    6  A    between atoms: C_20  and  C_21
REMARK    7  A    between atoms: C_20  and  C_27
REMARK    8  A    between atoms: C_30  and  C_31
REMARK    9  A    between atoms: C_31  and  C_32
REMARK   10  A    between atoms: C_32  and  C_33
REMARK                            x       y       z     vdW  Elec       q    Type
REMARK                         _______ _______ _______ _____ _____    ______ ____
ROOT
ATOM      1  O   UNL     1      -2.410   2.615   3.694  0.00  0.00    +0.000 OA
ATOM      2  N   UNL     1      -1.039   3.680   5.235  0.00  0.00    +0.000 N 
ATOM      3  N   UNL     1       0.396   4.315   7.013  0.00  0.00    +0.000 NA
ATOM      4  C   UNL     1      -0.046   2.429   3.332  0.00  0.00    +0.000 C 
ATOM      5  C   UNL     1       0.529   3.584   2.557  0.00  0.00    +0.000 A 
ATOM      6  C   UNL     1       1.124   4.633   3.289  0.00  0.00    +0.000 A 
ATOM      7  C   UNL     1      -1.278   2.912   4.086  0.00  0.00    +0.000 C 
ATOM      8  C   UNL     1       1.260   4.575   4.766  0.00  0.00    +0.000 A 
ATOM      9  C   UNL     1       0.240   4.191   5.662  0.00  0.00    +0.000 A 
ATOM     10  C   UNL     1       0.439   3.674   1.155  0.00  0.00    +0.000 A 
ATOM     11  C   UNL     1       1.600   5.753   2.574  0.00  0.00    +0.000 A 
ATOM     12  C   UNL     1       2.481   4.990   5.345  0.00  0.00    +0.000 A 
ATOM     13  C   UNL     1       0.930   4.786   0.475  0.00  0.00    +0.000 A 
ATOM     14  C   UNL     1       1.508   5.828   1.184  0.00  0.00    +0.000 A 
ATOM     15  C   UNL     1       2.652   5.068   6.719  0.00  0.00    +0.000 A 
ATOM     16  C   UNL     1       1.577   4.736   7.506  0.00  0.00    +0.000 A 
ENDROOT
BRANCH   4  18
ATOM     17  O   UNL     1      -0.417   2.362   0.482  0.00  0.00    +0.000 OA
ATOM     18  N   UNL     1      -0.431   1.288   2.539  0.00  0.00    +0.000 N 
ATOM     19  C   UNL     1      -0.587   1.351   1.160  0.00  0.00    +0.000 C 
ATOM     20  H   UNL     1      -0.611   0.409   3.017  0.00  0.00    +0.000 HD
BRANCH  19  21
ATOM     21  C   UNL     1      -0.951  -0.001   0.561  0.00  0.00    +0.000 C 
ATOM     22  C   UNL     1      -1.388  -0.975   1.644  0.00  0.00    +0.000 C 
BRANCH  21  24
ATOM     23  O   UNL     1      -0.876  -0.911  -2.174  0.00  0.00    +0.000 OA
ATOM     24  N   UNL     1       0.195  -0.494  -0.155  0.00  0.00    +0.000 N 
ATOM     25  C   UNL     1       0.137  -0.912  -1.479  0.00  0.00    +0.000 C 
ATOM     26  H   UNL     1       1.098  -0.472   0.312  0.00  0.00    +0.000 HD
BRANCH  25  27
ATOM     27  C   UNL     1       1.489  -1.384  -1.981  0.00  0.00    +0.000 C 
BRANCH  27  28
ATOM     28  C   UNL     1       1.370  -2.475  -3.041  0.00  0.00    +0.000 C 
BRANCH  28  32
ATOM     29  F   UNL     1      -0.617  -2.852  -4.268  0.00  0.00    +0.000 F 
ATOM     30  F   UNL     1       0.050  -0.784  -4.038  0.00  0.00    +0.000 F 
ATOM     31  F   UNL     1       1.132  -2.140  -5.360  0.00  0.00    +0.000 F 
ATOM     32  C   UNL     1       0.471  -2.058  -4.183  0.00  0.00    +0.000 C 
ENDBRANCH  28  32
ENDBRANCH  27  28
ENDBRANCH  25  27
ENDBRANCH  21  24
ENDBRANCH  19  21
ENDBRANCH   4  18
BRANCH   2  33
ATOM     33  C   UNL     1      -2.154   3.912   6.156  0.00  0.00    +0.000 C 
BRANCH  33  34
ATOM     34  C   UNL     1      -3.424   3.230   5.678  0.00  0.00    +0.000 C 
BRANCH  34  35
ATOM     35  O   UNL     1      -3.877   3.859   4.486  0.00  0.00    +0.000 OA
ATOM     36  H   UNL     1      -3.447   4.729   4.441  0.00  0.00    +0.000 HD
ENDBRANCH  34  35
ENDBRANCH  33  34
ENDBRANCH   2  33
TORSDOF 9
ENDMDL
