MODEL 1
REMARK VINA RESULT:    -8.863      0.000      0.000
REMARK INTER + INTRA:         -14.950
REMARK INTER:                 -11.548
REMARK INTRA:                  -3.402
REMARK CONF_INDEPENDENT:        2.685
REMARK UNBOUND:                 3.402
REMARK  Name = 71236992
REMARK  10 active torsions:
REMARK  status: ('A' for Active; 'I' for Inactive)
REMARK    1  A    between atoms: O_6  and  C_25
REMARK    2  A    between atoms: N_8  and  C_18
REMARK    3  A    between atoms: N_9  and  C_12
REMARK    4  A    between atoms: N_11  and  C_20
REMARK    5  A    between atoms: C_18  and  C_25
REMARK    6  A    between atoms: C_20  and  C_21
REMARK    7  A    between atoms: C_20  and  C_27
REMARK    8  A    between atoms: C_30  and  C_31
REMARK    9  A    between atoms: C_31  and  C_32
REMARK   10  A    between atoms: C_32  and  C_33
REMARK                            x       y       z     vdW  Elec       q    Type
REMARK                         _______ _______ _______ _____ _____    ______ ____
ROOT
ATOM      1  O   UNL     1      -3.855  -3.613  -1.285  0.00  0.00    +0.000 OA
ATOM      2  N   UNL     1      -4.519  -4.416   0.790  0.00  0.00    +0.000 N 
ATOM      3  N   UNL     1      -5.646  -5.266   2.696  0.00  0.00    +0.000 NA
ATOM      4  C   UNL     1      -4.006  -5.996  -1.056  0.00  0.00    +0.000 C 
ATOM      5  C   UNL     1      -2.753  -6.621  -0.499  0.00  0.00    +0.000 A 
ATOM      6  C   UNL     1      -2.715  -6.887   0.885  0.00  0.00    +0.000 A 
ATOM      7  C   UNL     1      -4.108  -4.567  -0.542  0.00  0.00    +0.000 C 
ATOM      8  C   UNL     1      -3.889  -6.645   1.760  0.00  0.00    +0.000 A 
ATOM      9  C   UNL     1      -4.682  -5.478   1.752  0.00  0.00    +0.000 A 
ATOM     10  C   UNL     1      -1.622  -6.884  -1.294  0.00  0.00    +0.000 A 
ATOM     11  C   UNL     1      -1.518  -7.404   1.427  0.00  0.00    +0.000 A 
ATOM     12  C   UNL     1      -4.220  -7.622   2.726  0.00  0.00    +0.000 A 
ATOM     13  C   UNL     1      -0.459  -7.408  -0.734  0.00  0.00    +0.000 A 
ATOM     14  C   UNL     1      -0.405  -7.664   0.628  0.00  0.00    +0.000 A 
ATOM     15  C   UNL     1      -5.234  -7.425   3.652  0.00  0.00    +0.000 A 
ATOM     16  C   UNL     1      -5.904  -6.227   3.605  0.00  0.00    +0.000 A 
ENDROOT
BRANCH   4  18
ATOM     17  O   UNL     1      -6.380  -6.242  -2.658  0.00  0.00    +0.000 OA
ATOM     18  N   UNL     1      -4.084  -5.957  -2.495  0.00  0.00    +0.000 N 
ATOM     19  C   UNL     1      -5.282  -6.085  -3.186  0.00  0.00    +0.000 C 
ATOM     20  H   UNL     1      -3.220  -5.847  -3.020  0.00  0.00    +0.000 HD
BRANCH  19  21
ATOM     21  C   UNL     1      -5.093  -5.960  -4.692  0.00  0.00    +0.000 C 
ATOM     22  C   UNL     1      -4.369  -7.175  -5.251  0.00  0.00    +0.000 C 
BRANCH  21  24
ATOM     23  O   UNL     1      -2.233  -5.613  -4.597  0.00  0.00    +0.000 OA
ATOM     24  N   UNL     1      -4.360  -4.749  -4.950  0.00  0.00    +0.000 N 
ATOM     25  C   UNL     1      -2.974  -4.676  -4.881  0.00  0.00    +0.000 C 
ATOM     26  H   UNL     1      -4.879  -3.932  -5.259  0.00  0.00    +0.000 HD
BRANCH  25  27
ATOM     27  C   UNL     1      -2.468  -3.281  -5.198  0.00  0.00    +0.000 C 
BRANCH  27  28
ATOM     28  C   UNL     1      -2.775  -2.282  -4.085  0.00  0.00    +0.000 C 
BRANCH  28  32
ATOM     29  F   UNL     1      -3.360  -0.020  -4.461  0.00  0.00    +0.000 F 
ATOM     30  F   UNL     1      -4.276  -1.527  -5.751  0.00  0.00    +0.000 F 
ATOM     31  F   UNL     1      -4.897  -1.349  -3.668  0.00  0.00    +0.000 F 
ATOM     32  C   UNL     1      -3.833  -1.284  -4.499  0.00  0.00    +0.000 C 
ENDBRANCH  28  32
ENDBRANCH  27  28
ENDBRANCH  25  27
ENDBRANCH  21  24
ENDBRANCH  19  21
ENDBRANCH   4  18
BRANCH   2  33
ATOM     33  C   UNL     1      -4.925  -3.083   1.242  0.00  0.00    +0.000 C 
BRANCH  33  34
ATOM     34  C   UNL     1      -3.912  -2.487   2.204  0.00  0.00    +0.000 C 
BRANCH  34  35
ATOM     35  O   UNL     1      -4.523  -1.436   2.942  0.00  0.00    +0.000 OA
ATOM     36  H   UNL     1      -4.014  -1.332   3.763  0.00  0.00    +0.000 HD
ENDBRANCH  34  35
ENDBRANCH  33  34
ENDBRANCH   2  33
TORSDOF 9
ENDMDL
MODEL 2
REMARK VINA RESULT:    -8.499      2.729      6.749
REMARK INTER + INTRA:         -14.682
REMARK INTER:                 -11.184
REMARK INTRA:                  -3.498
REMARK CONF_INDEPENDENT:        2.685
REMARK UNBOUND:                 3.498
REMARK  Name = 71236992
REMARK  10 active torsions:
REMARK  status: ('A' for Active; 'I' for Inactive)
REMARK    1  A    between atoms: O_6  and  C_25
REMARK    2  A    between atoms: N_8  and  C_18
REMARK    3  A    between atoms: N_9  and  C_12
REMARK    4  A    between atoms: N_11  and  C_20
REMARK    5  A    between atoms: C_18  and  C_25
REMARK    6  A    between atoms: C_20  and  C_21
REMARK    7  A    between atoms: C_20  and  C_27
REMARK    8  A    between atoms: C_30  and  C_31
REMARK    9  A    between atoms: C_31  and  C_32
REMARK   10  A    between atoms: C_32  and  C_33
REMARK                            x       y       z     vdW  Elec       q    Type
REMARK                         _______ _______ _______ _____ _____    ______ ____
ROOT
ATOM      1  O   UNL     1      -3.045  -3.370  -1.510  0.00  0.00    +0.000 OA
ATOM      2  N   UNL     1      -3.086  -3.533  -3.825  0.00  0.00    +0.000 N 
ATOM      3  N   UNL     1      -2.637  -3.764  -6.143  0.00  0.00    +0.000 NA
ATOM      4  C   UNL     1      -3.062  -5.586  -2.428  0.00  0.00    +0.000 C 
ATOM      5  C   UNL     1      -4.447  -6.097  -2.723  0.00  0.00    +0.000 A 
ATOM      6  C   UNL     1      -4.922  -5.973  -4.045  0.00  0.00    +0.000 A 
ATOM      7  C   UNL     1      -3.070  -4.067  -2.529  0.00  0.00    +0.000 C 
ATOM      8  C   UNL     1      -4.068  -5.438  -5.135  0.00  0.00    +0.000 A 
ATOM      9  C   UNL     1      -3.269  -4.279  -5.046  0.00  0.00    +0.000 A 
ATOM     10  C   UNL     1      -5.286  -6.628  -1.725  0.00  0.00    +0.000 A 
ATOM     11  C   UNL     1      -6.246  -6.382  -4.315  0.00  0.00    +0.000 A 
ATOM     12  C   UNL     1      -4.089  -6.092  -6.388  0.00  0.00    +0.000 A 
ATOM     13  C   UNL     1      -6.583  -7.038  -2.023  0.00  0.00    +0.000 A 
ATOM     14  C   UNL     1      -7.066  -6.911  -3.317  0.00  0.00    +0.000 A 
ATOM     15  C   UNL     1      -3.406  -5.594  -7.487  0.00  0.00    +0.000 A 
ATOM     16  C   UNL     1      -2.710  -4.423  -7.316  0.00  0.00    +0.000 A 
ENDROOT
BRANCH   4  18
ATOM     17  O   UNL     1      -0.783  -4.426  -1.112  0.00  0.00    +0.000 OA
ATOM     18  N   UNL     1      -2.540  -5.941  -1.131  0.00  0.00    +0.000 N 
ATOM     19  C   UNL     1      -1.429  -5.323  -0.573  0.00  0.00    +0.000 C 
ATOM     20  H   UNL     1      -3.000  -6.688  -0.616  0.00  0.00    +0.000 HD
BRANCH  19  21
ATOM     21  C   UNL     1      -1.116  -5.850   0.821  0.00  0.00    +0.000 C 
ATOM     22  C   UNL     1      -0.657  -7.298   0.764  0.00  0.00    +0.000 C 
BRANCH  21  24
ATOM     23  O   UNL     1      -3.398  -7.612   0.873  0.00  0.00    +0.000 OA
ATOM     24  N   UNL     1      -2.300  -5.707   1.626  0.00  0.00    +0.000 N 
ATOM     25  C   UNL     1      -3.355  -6.612   1.585  0.00  0.00    +0.000 C 
ATOM     26  H   UNL     1      -2.333  -4.946   2.299  0.00  0.00    +0.000 HD
BRANCH  25  27
ATOM     27  C   UNL     1      -4.472  -6.217   2.533  0.00  0.00    +0.000 C 
BRANCH  27  28
ATOM     28  C   UNL     1      -4.524  -4.712   2.779  0.00  0.00    +0.000 C 
BRANCH  28  32
ATOM     29  F   UNL     1      -5.646  -2.865   1.817  0.00  0.00    +0.000 F 
ATOM     30  F   UNL     1      -3.795  -3.528   0.865  0.00  0.00    +0.000 F 
ATOM     31  F   UNL     1      -5.607  -4.730   0.687  0.00  0.00    +0.000 F 
ATOM     32  C   UNL     1      -4.894  -3.948   1.528  0.00  0.00    +0.000 C 
ENDBRANCH  28  32
ENDBRANCH  27  28
ENDBRANCH  25  27
ENDBRANCH  21  24
ENDBRANCH  19  21
ENDBRANCH   4  18
BRANCH   2  33
ATOM     33  C   UNL     1      -2.791  -2.108  -3.990  0.00  0.00    +0.000 C 
BRANCH  33  34
ATOM     34  C   UNL     1      -4.050  -1.264  -3.906  0.00  0.00    +0.000 C 
BRANCH  34  35
ATOM     35  O   UNL     1      -3.857  -0.055  -4.630  0.00  0.00    +0.000 OA
ATOM     36  H   UNL     1      -4.234   0.662  -4.093  0.00  0.00    +0.000 HD
ENDBRANCH  34  35
ENDBRANCH  33  34
ENDBRANCH   2  33
TORSDOF 9
ENDMDL
MODEL 3
REMARK VINA RESULT:    -7.241      2.720      6.961
REMARK INTER + INTRA:         -12.776
REMARK INTER:                  -9.926
REMARK INTRA:                  -2.850
REMARK CONF_INDEPENDENT:        2.685
REMARK UNBOUND:                 2.850
REMARK  Name = 71236992
REMARK  10 active torsions:
REMARK  status: ('A' for Active; 'I' for Inactive)
REMARK    1  A    between atoms: O_6  and  C_25
REMARK    2  A    between atoms: N_8  and  C_18
REMARK    3  A    between atoms: N_9  and  C_12
REMARK    4  A    between atoms: N_11  and  C_20
REMARK    5  A    between atoms: C_18  and  C_25
REMARK    6  A    between atoms: C_20  and  C_21
REMARK    7  A    between atoms: C_20  and  C_27
REMARK    8  A    between atoms: C_30  and  C_31
REMARK    9  A    between atoms: C_31  and  C_32
REMARK   10  A    between atoms: C_32  and  C_33
REMARK                            x       y       z     vdW  Elec       q    Type
REMARK                         _______ _______ _______ _____ _____    ______ ____
ROOT
ATOM      1  O   UNL     1      -4.509  -3.391  -2.278  0.00  0.00    +0.000 OA
ATOM      2  N   UNL     1      -3.138  -3.468  -4.149  0.00  0.00    +0.000 N 
ATOM      3  N   UNL     1      -1.388  -3.690  -5.735  0.00  0.00    +0.000 NA
ATOM      4  C   UNL     1      -4.191  -5.545  -3.285  0.00  0.00    +0.000 C 
ATOM      5  C   UNL     1      -5.148  -5.820  -4.415  0.00  0.00    +0.000 A 
ATOM      6  C   UNL     1      -4.695  -5.578  -5.729  0.00  0.00    +0.000 A 
ATOM      7  C   UNL     1      -3.977  -4.041  -3.183  0.00  0.00    +0.000 C 
ATOM      8  C   UNL     1      -3.302  -5.149  -6.009  0.00  0.00    +0.000 A 
ATOM      9  C   UNL     1      -2.610  -4.134  -5.315  0.00  0.00    +0.000 A 
ATOM     10  C   UNL     1      -6.472  -6.245  -4.199  0.00  0.00    +0.000 A 
ATOM     11  C   UNL     1      -5.609  -5.764  -6.789  0.00  0.00    +0.000 A 
ATOM     12  C   UNL     1      -2.618  -5.749  -7.090  0.00  0.00    +0.000 A 
ATOM     13  C   UNL     1      -7.347  -6.434  -5.266  0.00  0.00    +0.000 A 
ATOM     14  C   UNL     1      -6.918  -6.189  -6.562  0.00  0.00    +0.000 A 
ATOM     15  C   UNL     1      -1.356  -5.329  -7.484  0.00  0.00    +0.000 A 
ATOM     16  C   UNL     1      -0.794  -4.289  -6.786  0.00  0.00    +0.000 A 
ENDROOT
BRANCH   4  18
ATOM     17  O   UNL     1      -3.035  -7.706  -1.781  0.00  0.00    +0.000 OA
ATOM     18  N   UNL     1      -4.617  -6.021  -1.992  0.00  0.00    +0.000 N 
ATOM     19  C   UNL     1      -3.994  -7.077  -1.339  0.00  0.00    +0.000 C 
ATOM     20  H   UNL     1      -5.416  -5.571  -1.554  0.00  0.00    +0.000 HD
BRANCH  19  21
ATOM     21  C   UNL     1      -4.606  -7.347   0.029  0.00  0.00    +0.000 C 
ATOM     22  C   UNL     1      -6.095  -7.631  -0.088  0.00  0.00    +0.000 C 
BRANCH  21  24
ATOM     23  O   UNL     1      -2.878  -7.227   2.334  0.00  0.00    +0.000 OA
ATOM     24  N   UNL     1      -4.356  -6.202   0.863  0.00  0.00    +0.000 N 
ATOM     25  C   UNL     1      -3.501  -6.238   1.959  0.00  0.00    +0.000 C 
ATOM     26  H   UNL     1      -4.774  -5.314   0.596  0.00  0.00    +0.000 HD
BRANCH  25  27
ATOM     27  C   UNL     1      -3.426  -4.892   2.658  0.00  0.00    +0.000 C 
BRANCH  27  28
ATOM     28  C   UNL     1      -4.708  -4.079   2.499  0.00  0.00    +0.000 C 
BRANCH  28  32
ATOM     29  F   UNL     1      -3.644  -2.032   1.972  0.00  0.00    +0.000 F 
ATOM     30  F   UNL     1      -4.109  -3.383   0.319  0.00  0.00    +0.000 F 
ATOM     31  F   UNL     1      -5.710  -2.299   1.327  0.00  0.00    +0.000 F 
ATOM     32  C   UNL     1      -4.536  -2.939   1.520  0.00  0.00    +0.000 C 
ENDBRANCH  28  32
ENDBRANCH  27  28
ENDBRANCH  25  27
ENDBRANCH  21  24
ENDBRANCH  19  21
ENDBRANCH   4  18
BRANCH   2  33
ATOM     33  C   UNL     1      -2.656  -2.103  -3.926  0.00  0.00    +0.000 C 
BRANCH  33  34
ATOM     34  C   UNL     1      -3.680  -1.071  -4.364  0.00  0.00    +0.000 C 
BRANCH  34  35
ATOM     35  O   UNL     1      -3.292   0.211  -3.888  0.00  0.00    +0.000 OA
ATOM     36  H   UNL     1      -4.084   0.775  -3.908  0.00  0.00    +0.000 HD
ENDBRANCH  34  35
ENDBRANCH  33  34
ENDBRANCH   2  33
TORSDOF 9
ENDMDL
