MODEL 1
REMARK VINA RESULT:   174.966      0.000      0.000
REMARK INTER + INTRA:         174.124
REMARK INTER:                 174.071
REMARK INTRA:                   0.053
REMARK CONF_INDEPENDENT:        0.895
REMARK UNBOUND:                -0.053
REMARK  Name = 9926791
REMARK  5 active torsions:
REMARK  status: ('A' for Active; 'I' for Inactive)
REMARK    1  A    between atoms: N_3  and  C_8
REMARK    2  A    between atoms: N_3  and  C_16
REMARK    3  A    between atoms: C_9  and  C_13
REMARK    4  A    between atoms: C_15  and  C_18
REMARK    5  A    between atoms: C_18  and  C_23
REMARK                            x       y       z     vdW  Elec       q    Type
REMARK                         _______ _______ _______ _____ _____    ______ ____
ROOT
ATOM      1  N   UNL     1       3.882  -3.381  -0.278  0.00  0.00    +0.000 N 
ATOM      2  N   UNL     1       1.928  -2.564   0.826  0.00  0.00    +0.000 NA
ATOM      3  N   UNL     1       4.272  -1.109   3.779  0.00  0.00    +0.000 N 
ATOM      4  N   UNL     1       2.024  -1.368   2.945  0.00  0.00    +0.000 NA
ATOM      5  C   UNL     1       3.277  -2.713   0.792  0.00  0.00    +0.000 A 
ATOM      6  C   UNL     1       5.228  -3.018  -0.713  0.00  0.00    +0.000 C 
ATOM      7  C   UNL     1       4.042  -2.190   1.839  0.00  0.00    +0.000 A 
ATOM      8  C   UNL     1       3.354  -1.544   2.860  0.00  0.00    +0.000 A 
ATOM      9  C   UNL     1       5.421  -2.135   2.170  0.00  0.00    +0.000 A 
ATOM     10  C   UNL     1       1.394  -1.911   1.883  0.00  0.00    +0.000 A 
ATOM     11  C   UNL     1       5.532  -1.464   3.369  0.00  0.00    +0.000 A 
ATOM     12  H   UNL     1       4.053  -0.608   4.628  0.00  0.00    +0.000 HD
ENDROOT
BRANCH   1  15
ATOM     13  O   UNL     1       0.373  -3.690  -3.752  0.00  0.00    +0.000 OA
ATOM     14  N   UNL     1       2.171  -5.037  -3.156  0.00  0.00    +0.000 N 
ATOM     15  C   UNL     1       3.191  -4.433  -0.990  0.00  0.00    +0.000 C 
ATOM     16  C   UNL     1       4.016  -5.738  -0.989  0.00  0.00    +0.000 C 
ATOM     17  C   UNL     1       3.270  -6.803  -1.814  0.00  0.00    +0.000 C 
ATOM     18  C   UNL     1       2.840  -3.970  -2.406  0.00  0.00    +0.000 C 
ATOM     19  C   UNL     1       2.900  -6.311  -3.214  0.00  0.00    +0.000 C 
ATOM     20  C   UNL     1       5.454  -5.562  -1.496  0.00  0.00    +0.000 C 
ATOM     21  C   UNL     1       0.971  -4.768  -3.814  0.00  0.00    +0.000 C 
BRANCH  21  22
ATOM     22  C   UNL     1       0.387  -5.887  -4.640  0.00  0.00    +0.000 C 
BRANCH  22  24
ATOM     23  N   UNL     1       2.136  -6.617  -6.447  0.00  0.00    +0.000 NA
ATOM     24  C   UNL     1       1.354  -6.300  -5.650  0.00  0.00    +0.000 C 
ENDBRANCH  22  24
ENDBRANCH  21  22
ENDBRANCH   1  15
TORSDOF 3
ENDMDL
