MODEL 1
REMARK VINA RESULT:   271.238      0.000      0.000
REMARK INTER + INTRA:         271.319
REMARK INTER:                 270.343
REMARK INTRA:                   0.975
REMARK CONF_INDEPENDENT:        0.895
REMARK UNBOUND:                -0.975
REMARK  Name = 9926791
REMARK  5 active torsions:
REMARK  status: ('A' for Active; 'I' for Inactive)
REMARK    1  A    between atoms: N_3  and  C_8
REMARK    2  A    between atoms: N_3  and  C_16
REMARK    3  A    between atoms: C_9  and  C_13
REMARK    4  A    between atoms: C_15  and  C_18
REMARK    5  A    between atoms: C_18  and  C_23
REMARK                            x       y       z     vdW  Elec       q    Type
REMARK                         _______ _______ _______ _____ _____    ______ ____
ROOT
ATOM      1  N   UNL     1       3.686   2.794   2.333  0.00  0.00    +0.000 N 
ATOM      2  N   UNL     1       3.680   0.701   1.184  0.00  0.00    +0.000 NA
ATOM      3  N   UNL     1       3.619   2.692  -2.331  0.00  0.00    +0.000 N 
ATOM      4  N   UNL     1       3.645   0.539  -1.245  0.00  0.00    +0.000 NA
ATOM      5  C   UNL     1       3.673   2.057   1.145  0.00  0.00    +0.000 A 
ATOM      6  C   UNL     1       4.322   4.108   2.384  0.00  0.00    +0.000 C 
ATOM      7  C   UNL     1       3.652   2.697  -0.099  0.00  0.00    +0.000 A 
ATOM      8  C   UNL     1       3.640   1.883  -1.226  0.00  0.00    +0.000 A 
ATOM      9  C   UNL     1       3.639   4.039  -0.559  0.00  0.00    +0.000 A 
ATOM     10  C   UNL     1       3.666   0.037   0.007  0.00  0.00    +0.000 A 
ATOM     11  C   UNL     1       3.619   4.005  -1.936  0.00  0.00    +0.000 A 
ATOM     12  H   UNL     1       3.604   2.369  -3.289  0.00  0.00    +0.000 HD
ENDROOT
BRANCH   1  15
ATOM     13  O   UNL     1       3.633  -1.509   4.774  0.00  0.00    +0.000 OA
ATOM     14  N   UNL     1       3.434   0.713   5.424  0.00  0.00    +0.000 N 
ATOM     15  C   UNL     1       3.088   2.274   3.543  0.00  0.00    +0.000 C 
ATOM     16  C   UNL     1       2.737   3.413   4.523  0.00  0.00    +0.000 C 
ATOM     17  C   UNL     1       2.167   2.804   5.816  0.00  0.00    +0.000 C 
ATOM     18  C   UNL     1       4.007   1.226   4.177  0.00  0.00    +0.000 C 
ATOM     19  C   UNL     1       3.083   1.736   6.418  0.00  0.00    +0.000 C 
ATOM     20  C   UNL     1       3.913   4.349   4.831  0.00  0.00    +0.000 C 
ATOM     21  C   UNL     1       3.334  -0.664   5.622  0.00  0.00    +0.000 C 
BRANCH  21  22
ATOM     22  C   UNL     1       2.820  -1.120   6.965  0.00  0.00    +0.000 C 
BRANCH  22  24
ATOM     23  N   UNL     1       3.128  -3.712   7.164  0.00  0.00    +0.000 NA
ATOM     24  C   UNL     1       2.987  -2.563   7.084  0.00  0.00    +0.000 C 
ENDBRANCH  22  24
ENDBRANCH  21  22
ENDBRANCH   1  15
TORSDOF 3
ENDMDL
MODEL 2
REMARK VINA RESULT:   272.813      2.284      3.377
REMARK INTER + INTRA:         272.762
REMARK INTER:                 271.918
REMARK INTRA:                   0.844
REMARK CONF_INDEPENDENT:        0.895
REMARK UNBOUND:                -0.844
REMARK  Name = 9926791
REMARK  5 active torsions:
REMARK  status: ('A' for Active; 'I' for Inactive)
REMARK    1  A    between atoms: N_3  and  C_8
REMARK    2  A    between atoms: N_3  and  C_16
REMARK    3  A    between atoms: C_9  and  C_13
REMARK    4  A    between atoms: C_15  and  C_18
REMARK    5  A    between atoms: C_18  and  C_23
REMARK                            x       y       z     vdW  Elec       q    Type
REMARK                         _______ _______ _______ _____ _____    ______ ____
ROOT
ATOM      1  N   UNL     1       3.191   2.692   2.929  0.00  0.00    +0.000 N 
ATOM      2  N   UNL     1       2.474   4.875   3.579  0.00  0.00    +0.000 NA
ATOM      3  N   UNL     1       5.403   6.459   1.291  0.00  0.00    +0.000 N 
ATOM      4  N   UNL     1       3.560   6.902   2.781  0.00  0.00    +0.000 NA
ATOM      5  C   UNL     1       3.321   4.083   2.873  0.00  0.00    +0.000 A 
ATOM      6  C   UNL     1       3.561   1.866   1.783  0.00  0.00    +0.000 C 
ATOM      7  C   UNL     1       4.317   4.683   2.097  0.00  0.00    +0.000 A 
ATOM      8  C   UNL     1       4.371   6.072   2.103  0.00  0.00    +0.000 A 
ATOM      9  C   UNL     1       5.361   4.233   1.247  0.00  0.00    +0.000 A 
ATOM     10  C   UNL     1       2.643   6.213   3.491  0.00  0.00    +0.000 A 
ATOM     11  C   UNL     1       6.012   5.348   0.765  0.00  0.00    +0.000 A 
ATOM     12  H   UNL     1       5.676   7.415   1.110  0.00  0.00    +0.000 HD
ENDROOT
BRANCH   1  15
ATOM     13  O   UNL     1       3.153  -1.894   4.784  0.00  0.00    +0.000 OA
ATOM     14  N   UNL     1       3.110   0.227   5.734  0.00  0.00    +0.000 N 
ATOM     15  C   UNL     1       2.676   2.035   4.111  0.00  0.00    +0.000 C 
ATOM     16  C   UNL     1       2.462   3.045   5.259  0.00  0.00    +0.000 C 
ATOM     17  C   UNL     1       1.979   2.288   6.508  0.00  0.00    +0.000 C 
ATOM     18  C   UNL     1       3.597   0.882   4.517  0.00  0.00    +0.000 C 
ATOM     19  C   UNL     1       2.894   1.119   6.880  0.00  0.00    +0.000 C 
ATOM     20  C   UNL     1       3.702   3.891   5.578  0.00  0.00    +0.000 C 
ATOM     21  C   UNL     1       2.966  -1.161   5.758  0.00  0.00    +0.000 C 
BRANCH  21  22
ATOM     22  C   UNL     1       2.549  -1.774   7.072  0.00  0.00    +0.000 C 
BRANCH  22  24
ATOM     23  N   UNL     1       0.009  -1.288   7.476  0.00  0.00    +0.000 NA
ATOM     24  C   UNL     1       1.135  -1.509   7.305  0.00  0.00    +0.000 C 
ENDBRANCH  22  24
ENDBRANCH  21  22
ENDBRANCH   1  15
TORSDOF 3
ENDMDL
