MODEL 1
REMARK VINA RESULT:     0.477      0.000      0.000
REMARK INTER + INTRA:          -0.198
REMARK INTER:                  -2.207
REMARK INTRA:                   2.010
REMARK CONF_INDEPENDENT:        2.685
REMARK UNBOUND:                -2.010
REMARK  Name = 
REMARK  12 active torsions:
REMARK  status: ('A' for Active; 'I' for Inactive)
REMARK    1  A    between atoms: CG1_1  and  CB_2
REMARK    2  A    between atoms: CB_2  and  CG2_3
REMARK    3  A    between atoms: CB_2  and  CA_4
REMARK    4  A    between atoms: CA_4  and  N_5
REMARK    5  A    between atoms: CA_4  and  C_6
REMARK    6  A    between atoms: N_8  and  CA_9
REMARK    7  A    between atoms: CA_9  and  CB_10
REMARK    8  A    between atoms: CA_9  and  C_11
REMARK    9  A    between atoms: CA_17  and  C_18
REMARK   10  A    between atoms: N_20  and  CA_21
REMARK   11  A    between atoms: CA_21  and  C_22
REMARK   12  A    between atoms: C_22  and  OXT_24
REMARK                            x       y       z     vdW  Elec       q    Type
REMARK                         _______ _______ _______ _____ _____    ______ ____
ROOT
ATOM      1  C   ALA A   2       6.262   3.338   1.711  0.00  0.00    +0.000 C 
ATOM      2  O   ALA A   2       5.916   2.482   0.816  0.00  0.00    +0.000 OA
ATOM      3  N   PRO A   3       5.694   4.512   1.602  0.00  0.00    +0.000 N 
ATOM      4  CD  PRO A   3       5.906   5.012   0.241  0.00  0.00    +0.000 C 
ATOM      5  CG  PRO A   3       6.793   6.173   0.328  0.00  0.00    +0.000 C 
ATOM      6  CB  PRO A   3       6.884   6.530   1.755  0.00  0.00    +0.000 C 
ATOM      7  CA  PRO A   3       5.489   5.862   2.364  0.00  0.00    +0.000 C 
ENDROOT
BRANCH   7   8
ATOM      8  C   PRO A   3       4.480   6.503   1.266  0.00  0.00    +0.000 C 
ATOM      9  O   PRO A   3       4.893   7.442   0.609  0.00  0.00    +0.000 OA
ATOM     10  N   GLY A   4       3.267   5.934   0.975  0.00  0.00    +0.000 N 
ATOM     11  H   GLY A   4       2.703   5.616   1.717  0.00  0.00    +0.000 HD
BRANCH  10  12
ATOM     12  CA  GLY A   4       2.774   5.780  -0.403  0.00  0.00    +0.000 C 
BRANCH  12  13
ATOM     13  C   GLY A   4       1.698   4.732  -0.304  0.00  0.00    +0.000 C 
ATOM     14  O   GLY A   4       1.095   4.887   0.802  0.00  0.00    +0.000 OA
BRANCH  13  15
ATOM     15  OXT GLY A   4       1.873   3.495  -0.838  0.00  0.00    +0.000 OA
ATOM     16  HXT GLY A   4       2.462   3.374  -1.558  0.00  0.00    +0.000 HD
ENDBRANCH  13  15
ENDBRANCH  12  13
ENDBRANCH  10  12
ENDBRANCH   7   8
BRANCH   1  17
ATOM     17  CA  ALA A   2       7.133   2.647   2.873  0.00  0.00    +0.000 C 
ATOM     18  CB  ALA A   2       5.827   2.016   3.667  0.00  0.00    +0.000 C 
BRANCH  17  21
ATOM     19  C   VAL A   1       6.855   3.886   5.107  0.00  0.00    +0.000 C 
ATOM     20  O   VAL A   1       7.270   2.926   5.712  0.00  0.00    +0.000 OA
ATOM     21  N   ALA A   2       7.132   3.962   3.759  0.00  0.00    +0.000 N 
ATOM     22  H   ALA A   2       7.333   4.834   3.346  0.00  0.00    +0.000 HD
BRANCH  19  23
ATOM     23  CA  VAL A   1       7.171   5.366   5.695  0.00  0.00    +0.000 C 
BRANCH  23  25
ATOM     24  CG1 VAL A   1       5.491   6.455   5.907  0.00  0.00    +0.000 C 
ATOM     25  CB  VAL A   1       5.572   5.775   5.782  0.00  0.00    +0.000 C 
ATOM     26  CG2 VAL A   1       4.889   4.810   4.868  0.00  0.00    +0.000 C 
ENDBRANCH  23  25
BRANCH  23  27
ATOM     27  N   VAL A   1       7.331   5.986   4.246  0.00  0.00    +0.000 NA
ATOM     28  H1  VAL A   1       7.287   7.004   4.306  0.00  0.00    +0.000 HD
ATOM     29  H2  VAL A   1       6.579   5.648   3.646  0.00  0.00    +0.000 HD
ENDBRANCH  23  27
ENDBRANCH  19  23
ENDBRANCH  17  21
ENDBRANCH   1  17
TORSDOF 9
ENDMDL
