MODEL 1
REMARK VINA RESULT:   105.016      0.000      0.000
REMARK INTER + INTRA:         102.061
REMARK INTER:                 103.226
REMARK INTRA:                  -1.166
REMARK CONF_INDEPENDENT:        1.790
REMARK UNBOUND:                 1.166
REMARK  Name = 5318517
REMARK  8 active torsions:
REMARK  status: ('A' for Active; 'I' for Inactive)
REMARK    1  A    between atoms: O_1  and  C_11
REMARK    2  A    between atoms: O_2  and  C_17
REMARK    3  A    between atoms: O_4  and  C_23
REMARK    4  A    between atoms: C_6  and  C_14
REMARK    5  A    between atoms: C_8  and  C_17
REMARK    6  A    between atoms: C_8  and  C_18
REMARK    7  A    between atoms: C_9  and  C_19
REMARK    8  A    between atoms: C_19  and  C_21
REMARK                            x       y       z     vdW  Elec       q    Type
REMARK                         _______ _______ _______ _____ _____    ______ ____
ROOT
ATOM      1  C   UNL     1      -2.211   0.766   3.310  0.00  0.00    +0.000 C 
ATOM      2  C   UNL     1      -2.099   2.065   4.208  0.00  0.00    +0.000 C 
ATOM      3  C   UNL     1      -3.399   2.504   4.982  0.00  0.00    +0.000 C 
ATOM      4  C   UNL     1      -0.909   0.712   2.403  0.00  0.00    +0.000 C 
ATOM      5  C   UNL     1      -3.473   0.884   2.417  0.00  0.00    +0.000 C 
ATOM      6  C   UNL     1      -4.595   2.513   3.985  0.00  0.00    +0.000 C 
ATOM      7  C   UNL     1      -0.817   2.035   5.073  0.00  0.00    +0.000 C 
ATOM      8  C   UNL     1      -4.744   1.221   3.189  0.00  0.00    +0.000 C 
ATOM      9  C   UNL     1      -2.311  -0.546   4.130  0.00  0.00    +0.000 C 
ATOM     10  C   UNL     1       0.441   1.885   4.216  0.00  0.00    +0.000 C 
ATOM     11  C   UNL     1       0.341   0.706   3.281  0.00  0.00    +0.000 C 
ATOM     12  C   UNL     1      -3.224   3.962   5.496  0.00  0.00    +0.000 C 
ATOM     13  C   UNL     1       1.296  -0.239   3.277  0.00  0.00    +0.000 C 
ENDROOT
BRANCH   6  14
ATOM     14  O   UNL     1      -5.828   2.795   4.645  0.00  0.00    +0.000 OA
ATOM     15  H   UNL     1      -5.853   3.750   4.830  0.00  0.00    +0.000 HD
ENDBRANCH   6  14
BRANCH   3  16
ATOM     16  C   UNL     1      -3.708   1.655   6.233  0.00  0.00    +0.000 C 
BRANCH  16  17
ATOM     17  O   UNL     1      -5.056   1.249   6.160  0.00  0.00    +0.000 OA
ATOM     18  H   UNL     1      -5.598   2.053   6.084  0.00  0.00    +0.000 HD
ENDBRANCH  16  17
ENDBRANCH   3  16
BRANCH   4  19
ATOM     19  C   UNL     1      -0.928  -0.384   1.323  0.00  0.00    +0.000 C 
BRANCH  19  22
ATOM     20  O   UNL     1       0.648  -4.748   2.371  0.00  0.00    +0.000 OA
ATOM     21  O   UNL     1      -1.582  -4.484   2.881  0.00  0.00    +0.000 OA
ATOM     22  C   UNL     1      -1.148  -1.727   1.936  0.00  0.00    +0.000 C 
ATOM     23  C   UNL     1      -0.288  -2.741   1.825  0.00  0.00    +0.000 C 
ATOM     24  C   UNL     1       1.045  -2.751   1.182  0.00  0.00    +0.000 C 
ATOM     25  C   UNL     1      -0.533  -4.064   2.430  0.00  0.00    +0.000 C 
ATOM     26  C   UNL     1       1.710  -3.876   1.943  0.00  0.00    +0.000 C 
BRANCH  24  27
ATOM     27  O   UNL     1       0.917  -3.125  -0.184  0.00  0.00    +0.000 OA
ATOM     28  H   UNL     1       0.585  -2.350  -0.669  0.00  0.00    +0.000 HD
ENDBRANCH  24  27
ENDBRANCH  19  22
ENDBRANCH   4  19
TORSDOF 6
ENDMDL
