MODEL 1
REMARK VINA RESULT:    -7.025      0.000      0.000
REMARK INTER + INTRA:         -13.137
REMARK INTER:                  -9.411
REMARK INTRA:                  -3.726
REMARK CONF_INDEPENDENT:        2.386
REMARK UNBOUND:                 3.726
REMARK  Name = 54454
REMARK  13 active torsions:
REMARK  status: ('A' for Active; 'I' for Inactive)
REMARK    1  A    between atoms: O_1  and  C_8
REMARK    2  A    between atoms: O_1  and  C_22
REMARK    3  A    between atoms: O_3  and  C_23
REMARK    4  A    between atoms: C_7  and  C_11
REMARK    5  A    between atoms: C_9  and  C_18
REMARK    6  A    between atoms: C_11  and  C_15
REMARK    7  A    between atoms: C_13  and  C_20
REMARK    8  A    between atoms: C_15  and  C_19
REMARK    9  A    between atoms: C_22  and  C_24
REMARK   10  A    between atoms: C_24  and  C_27
REMARK   11  A    between atoms: C_24  and  C_28
REMARK   12  A    between atoms: C_24  and  C_29
REMARK   13  A    between atoms: C_27  and  C_30
REMARK                            x       y       z     vdW  Elec       q    Type
REMARK                         _______ _______ _______ _____ _____    ______ ____
ROOT
ATOM      1  C   UNL     1      -2.323  -4.458   0.251  0.00  0.00    +0.000 C 
ATOM      2  C   UNL     1      -3.804  -4.343  -0.215  0.00  0.00    +0.000 C 
ATOM      3  C   UNL     1      -2.158  -4.410   1.787  0.00  0.00    +0.000 C 
ATOM      4  C   UNL     1      -3.911  -4.377  -1.768  0.00  0.00    +0.000 C 
ATOM      5  C   UNL     1      -1.661  -5.694  -0.350  0.00  0.00    +0.000 C 
ATOM      6  C   UNL     1      -0.717  -4.720   2.202  0.00  0.00    +0.000 C 
ATOM      7  C   UNL     1      -0.210  -6.078   1.682  0.00  0.00    +0.000 C 
ATOM      8  C   UNL     1      -0.723  -6.403   0.304  0.00  0.00    +0.000 C 
ATOM      9  C   UNL     1      -3.080  -5.494  -2.344  0.00  0.00    +0.000 C 
ATOM     10  C   UNL     1      -2.078  -6.090  -1.684  0.00  0.00    +0.000 C 
ATOM     11  C   UNL     1      -3.529  -3.065  -2.461  0.00  0.00    +0.000 C 
ATOM     12  C   UNL     1      -0.537  -7.224   2.644  0.00  0.00    +0.000 C 
ENDROOT
BRANCH   3  13
ATOM     13  O   UNL     1      -3.059  -5.319   2.413  0.00  0.00    +0.000 OA
BRANCH  13  15
ATOM     14  O   UNL     1      -3.645  -3.840   4.075  0.00  0.00    +0.000 OA
ATOM     15  C   UNL     1      -3.466  -4.986   3.678  0.00  0.00    +0.000 C 
BRANCH  15  16
ATOM     16  C   UNL     1      -3.661  -6.242   4.537  0.00  0.00    +0.000 C 
ATOM     17  C   UNL     1      -2.407  -6.473   5.400  0.00  0.00    +0.000 C 
ATOM     18  C   UNL     1      -3.822  -7.450   3.596  0.00  0.00    +0.000 C 
BRANCH  16  19
ATOM     19  C   UNL     1      -4.924  -6.114   5.424  0.00  0.00    +0.000 C 
ATOM     20  C   UNL     1      -6.157  -5.572   4.710  0.00  0.00    +0.000 C 
ENDBRANCH  16  19
ENDBRANCH  15  16
ENDBRANCH  13  15
ENDBRANCH   3  13
BRANCH   2  21
ATOM     21  C   UNL     1      -4.522  -3.124   0.375  0.00  0.00    +0.000 C 
BRANCH  21  22
ATOM     22  C   UNL     1      -3.560  -1.957   0.553  0.00  0.00    +0.000 C 
BRANCH  22  25
ATOM     23  O   UNL     1      -2.803  -0.217   2.011  0.00  0.00    +0.000 OA
ATOM     24  O   UNL     1      -2.016   1.525   3.198  0.00  0.00    +0.000 OA
ATOM     25  C   UNL     1      -3.637  -1.395   1.967  0.00  0.00    +0.000 C 
ATOM     26  C   UNL     1      -5.076  -1.100   2.363  0.00  0.00    +0.000 C 
ATOM     27  C   UNL     1      -5.093  -0.404   3.711  0.00  0.00    +0.000 C 
ATOM     28  C   UNL     1      -4.265   0.864   3.654  0.00  0.00    +0.000 C 
ATOM     29  C   UNL     1      -2.925   0.730   2.971  0.00  0.00    +0.000 C 
BRANCH  27  30
ATOM     30  O   UNL     1      -4.566  -1.256   4.724  0.00  0.00    +0.000 OA
ATOM     31  H   UNL     1      -3.915  -1.843   4.303  0.00  0.00    +0.000 HD
ENDBRANCH  27  30
ENDBRANCH  22  25
ENDBRANCH  21  22
ENDBRANCH   2  21
TORSDOF 8
ENDMDL
MODEL 2
REMARK VINA RESULT:    -6.833      2.024      5.219
REMARK INTER + INTRA:         -12.711
REMARK INTER:                  -9.220
REMARK INTRA:                  -3.492
REMARK CONF_INDEPENDENT:        2.386
REMARK UNBOUND:                 3.492
REMARK  Name = 54454
REMARK  13 active torsions:
REMARK  status: ('A' for Active; 'I' for Inactive)
REMARK    1  A    between atoms: O_1  and  C_8
REMARK    2  A    between atoms: O_1  and  C_22
REMARK    3  A    between atoms: O_3  and  C_23
REMARK    4  A    between atoms: C_7  and  C_11
REMARK    5  A    between atoms: C_9  and  C_18
REMARK    6  A    between atoms: C_11  and  C_15
REMARK    7  A    between atoms: C_13  and  C_20
REMARK    8  A    between atoms: C_15  and  C_19
REMARK    9  A    between atoms: C_22  and  C_24
REMARK   10  A    between atoms: C_24  and  C_27
REMARK   11  A    between atoms: C_24  and  C_28
REMARK   12  A    between atoms: C_24  and  C_29
REMARK   13  A    between atoms: C_27  and  C_30
REMARK                            x       y       z     vdW  Elec       q    Type
REMARK                         _______ _______ _______ _____ _____    ______ ____
ROOT
ATOM      1  C   UNL     1      -2.502  -5.772   0.079  0.00  0.00    +0.000 C 
ATOM      2  C   UNL     1      -1.629  -4.882   1.013  0.00  0.00    +0.000 C 
ATOM      3  C   UNL     1      -3.999  -5.386   0.089  0.00  0.00    +0.000 C 
ATOM      4  C   UNL     1      -0.136  -5.325   0.980  0.00  0.00    +0.000 C 
ATOM      5  C   UNL     1      -1.932  -5.792  -1.336  0.00  0.00    +0.000 C 
ATOM      6  C   UNL     1      -4.778  -6.154  -0.983  0.00  0.00    +0.000 C 
ATOM      7  C   UNL     1      -4.216  -5.962  -2.403  0.00  0.00    +0.000 C 
ATOM      8  C   UNL     1      -2.712  -5.876  -2.429  0.00  0.00    +0.000 C 
ATOM      9  C   UNL     1       0.337  -5.530  -0.435  0.00  0.00    +0.000 C 
ATOM     10  C   UNL     1      -0.488  -5.723  -1.473  0.00  0.00    +0.000 C 
ATOM     11  C   UNL     1       0.171  -6.585   1.796  0.00  0.00    +0.000 C 
ATOM     12  C   UNL     1      -4.820  -4.741  -3.103  0.00  0.00    +0.000 C 
ENDROOT
BRANCH   3  13
ATOM     13  O   UNL     1      -4.152  -3.982  -0.100  0.00  0.00    +0.000 OA
BRANCH  13  15
ATOM     14  O   UNL     1      -5.524  -3.690   1.724  0.00  0.00    +0.000 OA
ATOM     15  C   UNL     1      -4.648  -3.284   0.969  0.00  0.00    +0.000 C 
BRANCH  15  16
ATOM     16  C   UNL     1      -3.964  -1.916   1.092  0.00  0.00    +0.000 C 
ATOM     17  C   UNL     1      -4.863  -0.834   0.466  0.00  0.00    +0.000 C 
ATOM     18  C   UNL     1      -2.647  -1.962   0.295  0.00  0.00    +0.000 C 
BRANCH  16  19
ATOM     19  C   UNL     1      -3.654  -1.585   2.572  0.00  0.00    +0.000 C 
ATOM     20  C   UNL     1      -2.184  -1.700   2.962  0.00  0.00    +0.000 C 
ENDBRANCH  16  19
ENDBRANCH  15  16
ENDBRANCH  13  15
ENDBRANCH   3  13
BRANCH   2  21
ATOM     21  C   UNL     1      -2.168  -4.814   2.446  0.00  0.00    +0.000 C 
BRANCH  21  22
ATOM     22  C   UNL     1      -2.683  -6.173   2.901  0.00  0.00    +0.000 C 
BRANCH  22  25
ATOM     23  O   UNL     1      -4.457  -4.913   3.897  0.00  0.00    +0.000 OA
ATOM     24  O   UNL     1      -6.156  -3.634   4.633  0.00  0.00    +0.000 OA
ATOM     25  C   UNL     1      -3.579  -6.037   4.126  0.00  0.00    +0.000 C 
ATOM     26  C   UNL     1      -4.344  -7.324   4.393  0.00  0.00    +0.000 C 
ATOM     27  C   UNL     1      -5.332  -7.096   5.523  0.00  0.00    +0.000 C 
ATOM     28  C   UNL     1      -6.270  -5.958   5.173  0.00  0.00    +0.000 C 
ATOM     29  C   UNL     1      -5.608  -4.734   4.585  0.00  0.00    +0.000 C 
BRANCH  27  30
ATOM     30  O   UNL     1      -4.648  -6.778   6.732  0.00  0.00    +0.000 OA
ATOM     31  H   UNL     1      -3.835  -7.311   6.756  0.00  0.00    +0.000 HD
ENDBRANCH  27  30
ENDBRANCH  22  25
ENDBRANCH  21  22
ENDBRANCH   2  21
TORSDOF 8
ENDMDL
MODEL 3
REMARK VINA RESULT:    -6.726      1.909      6.764
REMARK INTER + INTRA:         -12.932
REMARK INTER:                  -9.112
REMARK INTRA:                  -3.820
REMARK CONF_INDEPENDENT:        2.386
REMARK UNBOUND:                 3.820
REMARK  Name = 54454
REMARK  13 active torsions:
REMARK  status: ('A' for Active; 'I' for Inactive)
REMARK    1  A    between atoms: O_1  and  C_8
REMARK    2  A    between atoms: O_1  and  C_22
REMARK    3  A    between atoms: O_3  and  C_23
REMARK    4  A    between atoms: C_7  and  C_11
REMARK    5  A    between atoms: C_9  and  C_18
REMARK    6  A    between atoms: C_11  and  C_15
REMARK    7  A    between atoms: C_13  and  C_20
REMARK    8  A    between atoms: C_15  and  C_19
REMARK    9  A    between atoms: C_22  and  C_24
REMARK   10  A    between atoms: C_24  and  C_27
REMARK   11  A    between atoms: C_24  and  C_28
REMARK   12  A    between atoms: C_24  and  C_29
REMARK   13  A    between atoms: C_27  and  C_30
REMARK                            x       y       z     vdW  Elec       q    Type
REMARK                         _______ _______ _______ _____ _____    ______ ____
ROOT
ATOM      1  C   UNL     1      -3.747  -4.217   3.814  0.00  0.00    +0.000 C 
ATOM      2  C   UNL     1      -3.223  -5.605   3.340  0.00  0.00    +0.000 C 
ATOM      3  C   UNL     1      -3.296  -3.049   2.907  0.00  0.00    +0.000 C 
ATOM      4  C   UNL     1      -3.689  -6.740   4.299  0.00  0.00    +0.000 C 
ATOM      5  C   UNL     1      -5.263  -4.243   3.990  0.00  0.00    +0.000 C 
ATOM      6  C   UNL     1      -3.992  -1.741   3.296  0.00  0.00    +0.000 C 
ATOM      7  C   UNL     1      -5.528  -1.835   3.272  0.00  0.00    +0.000 C 
ATOM      8  C   UNL     1      -6.039  -3.172   3.742  0.00  0.00    +0.000 C 
ATOM      9  C   UNL     1      -5.157  -6.616   4.611  0.00  0.00    +0.000 C 
ATOM     10  C   UNL     1      -5.857  -5.485   4.450  0.00  0.00    +0.000 C 
ATOM     11  C   UNL     1      -2.906  -6.826   5.612  0.00  0.00    +0.000 C 
ATOM     12  C   UNL     1      -6.105  -1.514   1.890  0.00  0.00    +0.000 C 
ENDROOT
BRANCH   3  13
ATOM     13  O   UNL     1      -3.549  -3.355   1.539  0.00  0.00    +0.000 OA
BRANCH  13  15
ATOM     14  O   UNL     1      -1.660  -2.279   0.788  0.00  0.00    +0.000 OA
ATOM     15  C   UNL     1      -2.815  -2.653   0.620  0.00  0.00    +0.000 C 
BRANCH  15  16
ATOM     16  C   UNL     1      -3.637  -2.388  -0.648  0.00  0.00    +0.000 C 
ATOM     17  C   UNL     1      -2.773  -2.678  -1.889  0.00  0.00    +0.000 C 
ATOM     18  C   UNL     1      -4.020  -0.896  -0.671  0.00  0.00    +0.000 C 
BRANCH  16  19
ATOM     19  C   UNL     1      -4.925  -3.246  -0.661  0.00  0.00    +0.000 C 
ATOM     20  C   UNL     1      -4.944  -4.361  -1.701  0.00  0.00    +0.000 C 
ENDBRANCH  16  19
ENDBRANCH  15  16
ENDBRANCH  13  15
ENDBRANCH   3  13
BRANCH   2  21
ATOM     21  C   UNL     1      -1.705  -5.628   3.132  0.00  0.00    +0.000 C 
BRANCH  21  22
ATOM     22  C   UNL     1      -1.257  -6.951   2.524  0.00  0.00    +0.000 C 
BRANCH  22  25
ATOM     23  O   UNL     1      -2.151  -7.267   0.327  0.00  0.00    +0.000 OA
ATOM     24  O   UNL     1      -3.192  -7.597  -1.640  0.00  0.00    +0.000 OA
ATOM     25  C   UNL     1      -0.981  -6.802   1.033  0.00  0.00    +0.000 C 
ATOM     26  C   UNL     1      -0.626  -5.365   0.681  0.00  0.00    +0.000 C 
ATOM     27  C   UNL     1      -0.509  -5.232  -0.827  0.00  0.00    +0.000 C 
ATOM     28  C   UNL     1      -1.803  -5.660  -1.490  0.00  0.00    +0.000 C 
ATOM     29  C   UNL     1      -2.407  -6.939  -0.961  0.00  0.00    +0.000 C 
BRANCH  27  30
ATOM     30  O   UNL     1       0.555  -6.041  -1.322  0.00  0.00    +0.000 OA
ATOM     31  H   UNL     1       0.590  -6.844  -0.776  0.00  0.00    +0.000 HD
ENDBRANCH  27  30
ENDBRANCH  22  25
ENDBRANCH  21  22
ENDBRANCH   2  21
TORSDOF 8
ENDMDL
MODEL 4
REMARK VINA RESULT:    -6.692      2.465      5.587
REMARK INTER + INTRA:         -12.962
REMARK INTER:                  -9.078
REMARK INTRA:                  -3.883
REMARK CONF_INDEPENDENT:        2.386
REMARK UNBOUND:                 3.883
REMARK  Name = 54454
REMARK  13 active torsions:
REMARK  status: ('A' for Active; 'I' for Inactive)
REMARK    1  A    between atoms: O_1  and  C_8
REMARK    2  A    between atoms: O_1  and  C_22
REMARK    3  A    between atoms: O_3  and  C_23
REMARK    4  A    between atoms: C_7  and  C_11
REMARK    5  A    between atoms: C_9  and  C_18
REMARK    6  A    between atoms: C_11  and  C_15
REMARK    7  A    between atoms: C_13  and  C_20
REMARK    8  A    between atoms: C_15  and  C_19
REMARK    9  A    between atoms: C_22  and  C_24
REMARK   10  A    between atoms: C_24  and  C_27
REMARK   11  A    between atoms: C_24  and  C_28
REMARK   12  A    between atoms: C_24  and  C_29
REMARK   13  A    between atoms: C_27  and  C_30
REMARK                            x       y       z     vdW  Elec       q    Type
REMARK                         _______ _______ _______ _____ _____    ______ ____
ROOT
ATOM      1  C   UNL     1      -4.916  -4.623  -1.824  0.00  0.00    +0.000 C 
ATOM      2  C   UNL     1      -4.280  -5.989  -1.430  0.00  0.00    +0.000 C 
ATOM      3  C   UNL     1      -5.077  -3.655  -0.629  0.00  0.00    +0.000 C 
ATOM      4  C   UNL     1      -4.159  -6.931  -2.664  0.00  0.00    +0.000 C 
ATOM      5  C   UNL     1      -4.146  -3.979  -2.973  0.00  0.00    +0.000 C 
ATOM      6  C   UNL     1      -5.521  -2.265  -1.096  0.00  0.00    +0.000 C 
ATOM      7  C   UNL     1      -4.572  -1.635  -2.132  0.00  0.00    +0.000 C 
ATOM      8  C   UNL     1      -4.003  -2.646  -3.092  0.00  0.00    +0.000 C 
ATOM      9  C   UNL     1      -3.576  -6.202  -3.846  0.00  0.00    +0.000 C 
ATOM     10  C   UNL     1      -3.564  -4.867  -3.963  0.00  0.00    +0.000 C 
ATOM     11  C   UNL     1      -5.472  -7.597  -3.087  0.00  0.00    +0.000 C 
ATOM     12  C   UNL     1      -3.438  -0.847  -1.471  0.00  0.00    +0.000 C 
ENDROOT
BRANCH   3  13
ATOM     13  O   UNL     1      -3.860  -3.564   0.105  0.00  0.00    +0.000 OA
BRANCH  13  15
ATOM     14  O   UNL     1      -4.667  -4.504   2.043  0.00  0.00    +0.000 OA
ATOM     15  C   UNL     1      -3.970  -3.678   1.466  0.00  0.00    +0.000 C 
BRANCH  15  16
ATOM     16  C   UNL     1      -3.107  -2.625   2.174  0.00  0.00    +0.000 C 
ATOM     17  C   UNL     1      -2.034  -2.103   1.202  0.00  0.00    +0.000 C 
ATOM     18  C   UNL     1      -2.391  -3.305   3.356  0.00  0.00    +0.000 C 
BRANCH  16  19
ATOM     19  C   UNL     1      -3.980  -1.463   2.706  0.00  0.00    +0.000 C 
ATOM     20  C   UNL     1      -4.065  -0.250   1.787  0.00  0.00    +0.000 C 
ENDBRANCH  16  19
ENDBRANCH  15  16
ENDBRANCH  13  15
ENDBRANCH   3  13
BRANCH   2  21
ATOM     21  C   UNL     1      -5.007  -6.671  -0.266  0.00  0.00    +0.000 C 
BRANCH  21  22
ATOM     22  C   UNL     1      -4.057  -7.561   0.525  0.00  0.00    +0.000 C 
BRANCH  22  25
ATOM     23  O   UNL     1      -2.778  -7.218   2.518  0.00  0.00    +0.000 OA
ATOM     24  O   UNL     1      -1.661  -7.090   4.466  0.00  0.00    +0.000 OA
ATOM     25  C   UNL     1      -2.944  -6.741   1.165  0.00  0.00    +0.000 C 
ATOM     26  C   UNL     1      -1.659  -6.835   0.357  0.00  0.00    +0.000 C 
ATOM     27  C   UNL     1      -0.542  -6.133   1.107  0.00  0.00    +0.000 C 
ATOM     28  C   UNL     1      -0.374  -6.743   2.485  0.00  0.00    +0.000 C 
ATOM     29  C   UNL     1      -1.658  -6.989   3.242  0.00  0.00    +0.000 C 
BRANCH  27  30
ATOM     30  O   UNL     1      -0.826  -4.744   1.248  0.00  0.00    +0.000 OA
ATOM     31  H   UNL     1      -0.121  -4.253   0.791  0.00  0.00    +0.000 HD
ENDBRANCH  27  30
ENDBRANCH  22  25
ENDBRANCH  21  22
ENDBRANCH   2  21
TORSDOF 8
ENDMDL
MODEL 5
REMARK VINA RESULT:    -6.532      1.682      4.611
REMARK INTER + INTRA:         -13.621
REMARK INTER:                  -8.918
REMARK INTRA:                  -4.702
REMARK CONF_INDEPENDENT:        2.386
REMARK UNBOUND:                 4.702
REMARK  Name = 54454
REMARK  13 active torsions:
REMARK  status: ('A' for Active; 'I' for Inactive)
REMARK    1  A    between atoms: O_1  and  C_8
REMARK    2  A    between atoms: O_1  and  C_22
REMARK    3  A    between atoms: O_3  and  C_23
REMARK    4  A    between atoms: C_7  and  C_11
REMARK    5  A    between atoms: C_9  and  C_18
REMARK    6  A    between atoms: C_11  and  C_15
REMARK    7  A    between atoms: C_13  and  C_20
REMARK    8  A    between atoms: C_15  and  C_19
REMARK    9  A    between atoms: C_22  and  C_24
REMARK   10  A    between atoms: C_24  and  C_27
REMARK   11  A    between atoms: C_24  and  C_28
REMARK   12  A    between atoms: C_24  and  C_29
REMARK   13  A    between atoms: C_27  and  C_30
REMARK                            x       y       z     vdW  Elec       q    Type
REMARK                         _______ _______ _______ _____ _____    ______ ____
ROOT
ATOM      1  C   UNL     1      -3.337  -6.312   2.588  0.00  0.00    +0.000 C 
ATOM      2  C   UNL     1      -4.151  -5.343   3.497  0.00  0.00    +0.000 C 
ATOM      3  C   UNL     1      -3.107  -5.766   1.161  0.00  0.00    +0.000 C 
ATOM      4  C   UNL     1      -4.370  -5.950   4.914  0.00  0.00    +0.000 C 
ATOM      5  C   UNL     1      -2.026  -6.709   3.260  0.00  0.00    +0.000 C 
ATOM      6  C   UNL     1      -2.143  -6.657   0.373  0.00  0.00    +0.000 C 
ATOM      7  C   UNL     1      -0.782  -6.849   1.066  0.00  0.00    +0.000 C 
ATOM      8  C   UNL     1      -0.898  -6.942   2.564  0.00  0.00    +0.000 C 
ATOM      9  C   UNL     1      -3.088  -6.515   5.465  0.00  0.00    +0.000 C 
ATOM     10  C   UNL     1      -2.032  -6.837   4.706  0.00  0.00    +0.000 C 
ATOM     11  C   UNL     1      -5.460  -7.026   4.984  0.00  0.00    +0.000 C 
ATOM     12  C   UNL     1       0.218  -5.752   0.688  0.00  0.00    +0.000 C 
ENDROOT
BRANCH   3  13
ATOM     13  O   UNL     1      -2.614  -4.430   1.213  0.00  0.00    +0.000 OA
BRANCH  13  15
ATOM     14  O   UNL     1      -1.024  -3.524  -0.181  0.00  0.00    +0.000 OA
ATOM     15  C   UNL     1      -2.169  -3.907   0.027  0.00  0.00    +0.000 C 
BRANCH  15  16
ATOM     16  C   UNL     1      -3.301  -3.857  -1.007  0.00  0.00    +0.000 C 
ATOM     17  C   UNL     1      -3.138  -5.019  -2.003  0.00  0.00    +0.000 C 
ATOM     18  C   UNL     1      -3.182  -2.536  -1.789  0.00  0.00    +0.000 C 
BRANCH  16  19
ATOM     19  C   UNL     1      -4.685  -3.917  -0.314  0.00  0.00    +0.000 C 
ATOM     20  C   UNL     1      -5.724  -4.775  -1.027  0.00  0.00    +0.000 C 
ENDBRANCH  16  19
ENDBRANCH  15  16
ENDBRANCH  13  15
ENDBRANCH   3  13
BRANCH   2  21
ATOM     21  C   UNL     1      -5.473  -4.900   2.860  0.00  0.00    +0.000 C 
BRANCH  21  22
ATOM     22  C   UNL     1      -5.547  -3.382   2.755  0.00  0.00    +0.000 C 
BRANCH  22  25
ATOM     23  O   UNL     1      -4.394  -1.647   1.577  0.00  0.00    +0.000 OA
ATOM     24  O   UNL     1      -3.511   0.081   0.440  0.00  0.00    +0.000 OA
ATOM     25  C   UNL     1      -4.181  -2.787   2.438  0.00  0.00    +0.000 C 
ATOM     26  C   UNL     1      -3.433  -2.420   3.710  0.00  0.00    +0.000 C 
ATOM     27  C   UNL     1      -2.150  -1.696   3.346  0.00  0.00    +0.000 C 
ATOM     28  C   UNL     1      -2.462  -0.467   2.515  0.00  0.00    +0.000 C 
ATOM     29  C   UNL     1      -3.467  -0.677   1.407  0.00  0.00    +0.000 C 
BRANCH  27  30
ATOM     30  O   UNL     1      -1.283  -2.549   2.604  0.00  0.00    +0.000 OA
ATOM     31  H   UNL     1      -1.608  -2.571   1.688  0.00  0.00    +0.000 HD
ENDBRANCH  27  30
ENDBRANCH  22  25
ENDBRANCH  21  22
ENDBRANCH   2  21
TORSDOF 8
ENDMDL
MODEL 6
REMARK VINA RESULT:    -6.527      1.914      6.670
REMARK INTER + INTRA:         -12.676
REMARK INTER:                  -8.913
REMARK INTRA:                  -3.763
REMARK CONF_INDEPENDENT:        2.386
REMARK UNBOUND:                 3.763
REMARK  Name = 54454
REMARK  13 active torsions:
REMARK  status: ('A' for Active; 'I' for Inactive)
REMARK    1  A    between atoms: O_1  and  C_8
REMARK    2  A    between atoms: O_1  and  C_22
REMARK    3  A    between atoms: O_3  and  C_23
REMARK    4  A    between atoms: C_7  and  C_11
REMARK    5  A    between atoms: C_9  and  C_18
REMARK    6  A    between atoms: C_11  and  C_15
REMARK    7  A    between atoms: C_13  and  C_20
REMARK    8  A    between atoms: C_15  and  C_19
REMARK    9  A    between atoms: C_22  and  C_24
REMARK   10  A    between atoms: C_24  and  C_27
REMARK   11  A    between atoms: C_24  and  C_28
REMARK   12  A    between atoms: C_24  and  C_29
REMARK   13  A    between atoms: C_27  and  C_30
REMARK                            x       y       z     vdW  Elec       q    Type
REMARK                         _______ _______ _______ _____ _____    ______ ____
ROOT
ATOM      1  C   UNL     1      -4.305  -3.395   3.660  0.00  0.00    +0.000 C 
ATOM      2  C   UNL     1      -5.424  -4.429   3.335  0.00  0.00    +0.000 C 
ATOM      3  C   UNL     1      -3.217  -3.305   2.566  0.00  0.00    +0.000 C 
ATOM      4  C   UNL     1      -6.481  -4.492   4.477  0.00  0.00    +0.000 C 
ATOM      5  C   UNL     1      -4.906  -2.028   3.973  0.00  0.00    +0.000 C 
ATOM      6  C   UNL     1      -2.253  -2.146   2.834  0.00  0.00    +0.000 C 
ATOM      7  C   UNL     1      -2.956  -0.782   2.960  0.00  0.00    +0.000 C 
ATOM      8  C   UNL     1      -4.290  -0.876   3.652  0.00  0.00    +0.000 C 
ATOM      9  C   UNL     1      -6.905  -3.111   4.900  0.00  0.00    +0.000 C 
ATOM     10  C   UNL     1      -6.191  -2.006   4.650  0.00  0.00    +0.000 C 
ATOM     11  C   UNL     1      -6.033  -5.277   5.715  0.00  0.00    +0.000 C 
ATOM     12  C   UNL     1      -3.118  -0.089   1.605  0.00  0.00    +0.000 C 
ENDROOT
BRANCH   3  13
ATOM     13  O   UNL     1      -3.815  -3.163   1.280  0.00  0.00    +0.000 OA
BRANCH  13  15
ATOM     14  O   UNL     1      -1.752  -3.183   0.262  0.00  0.00    +0.000 OA
ATOM     15  C   UNL     1      -2.971  -3.292   0.209  0.00  0.00    +0.000 C 
BRANCH  15  16
ATOM     16  C   UNL     1      -3.760  -3.584  -1.075  0.00  0.00    +0.000 C 
ATOM     17  C   UNL     1      -5.129  -4.185  -0.710  0.00  0.00    +0.000 C 
ATOM     18  C   UNL     1      -2.980  -4.632  -1.891  0.00  0.00    +0.000 C 
BRANCH  16  19
ATOM     19  C   UNL     1      -3.930  -2.300  -1.923  0.00  0.00    +0.000 C 
ATOM     20  C   UNL     1      -2.806  -1.280  -1.775  0.00  0.00    +0.000 C 
ENDBRANCH  16  19
ENDBRANCH  15  16
ENDBRANCH  13  15
ENDBRANCH   3  13
BRANCH   2  21
ATOM     21  C   UNL     1      -4.871  -5.817   2.997  0.00  0.00    +0.000 C 
BRANCH  21  22
ATOM     22  C   UNL     1      -3.613  -6.116   3.802  0.00  0.00    +0.000 C 
BRANCH  22  25
ATOM     23  O   UNL     1      -3.089  -6.921   1.610  0.00  0.00    +0.000 OA
ATOM     24  O   UNL     1      -2.796  -7.597  -0.516  0.00  0.00    +0.000 OA
ATOM     25  C   UNL     1      -2.509  -6.665   2.907  0.00  0.00    +0.000 C 
ATOM     26  C   UNL     1      -1.332  -5.704   2.835  0.00  0.00    +0.000 C 
ATOM     27  C   UNL     1      -0.327  -6.217   1.819  0.00  0.00    +0.000 C 
ATOM     28  C   UNL     1      -0.991  -6.381   0.466  0.00  0.00    +0.000 C 
ATOM     29  C   UNL     1      -2.344  -7.051   0.488  0.00  0.00    +0.000 C 
BRANCH  27  30
ATOM     30  O   UNL     1       0.206  -7.473   2.229  0.00  0.00    +0.000 OA
ATOM     31  H   UNL     1       1.053  -7.596   1.767  0.00  0.00    +0.000 HD
ENDBRANCH  27  30
ENDBRANCH  22  25
ENDBRANCH  21  22
ENDBRANCH   2  21
TORSDOF 8
ENDMDL
MODEL 7
REMARK VINA RESULT:    -6.127      2.245      6.596
REMARK INTER + INTRA:         -12.373
REMARK INTER:                  -8.513
REMARK INTRA:                  -3.860
REMARK CONF_INDEPENDENT:        2.386
REMARK UNBOUND:                 3.860
REMARK  Name = 54454
REMARK  13 active torsions:
REMARK  status: ('A' for Active; 'I' for Inactive)
REMARK    1  A    between atoms: O_1  and  C_8
REMARK    2  A    between atoms: O_1  and  C_22
REMARK    3  A    between atoms: O_3  and  C_23
REMARK    4  A    between atoms: C_7  and  C_11
REMARK    5  A    between atoms: C_9  and  C_18
REMARK    6  A    between atoms: C_11  and  C_15
REMARK    7  A    between atoms: C_13  and  C_20
REMARK    8  A    between atoms: C_15  and  C_19
REMARK    9  A    between atoms: C_22  and  C_24
REMARK   10  A    between atoms: C_24  and  C_27
REMARK   11  A    between atoms: C_24  and  C_28
REMARK   12  A    between atoms: C_24  and  C_29
REMARK   13  A    between atoms: C_27  and  C_30
REMARK                            x       y       z     vdW  Elec       q    Type
REMARK                         _______ _______ _______ _____ _____    ______ ____
ROOT
ATOM      1  C   UNL     1      -1.963  -3.223   1.936  0.00  0.00    +0.000 C 
ATOM      2  C   UNL     1      -1.882  -4.525   1.086  0.00  0.00    +0.000 C 
ATOM      3  C   UNL     1      -2.441  -1.993   1.131  0.00  0.00    +0.000 C 
ATOM      4  C   UNL     1      -1.378  -5.726   1.939  0.00  0.00    +0.000 C 
ATOM      5  C   UNL     1      -2.812  -3.445   3.185  0.00  0.00    +0.000 C 
ATOM      6  C   UNL     1      -2.691  -0.791   2.047  0.00  0.00    +0.000 C 
ATOM      7  C   UNL     1      -3.700  -1.080   3.173  0.00  0.00    +0.000 C 
ATOM      8  C   UNL     1      -3.580  -2.478   3.720  0.00  0.00    +0.000 C 
ATOM      9  C   UNL     1      -2.103  -5.795   3.258  0.00  0.00    +0.000 C 
ATOM     10  C   UNL     1      -2.760  -4.760   3.799  0.00  0.00    +0.000 C 
ATOM     11  C   UNL     1       0.132  -5.731   2.200  0.00  0.00    +0.000 C 
ATOM     12  C   UNL     1      -5.144  -0.813   2.738  0.00  0.00    +0.000 C 
ENDROOT
BRANCH   3  13
ATOM     13  O   UNL     1      -3.620  -2.307   0.395  0.00  0.00    +0.000 OA
BRANCH  13  15
ATOM     14  O   UNL     1      -2.533  -2.036  -1.614  0.00  0.00    +0.000 OA
ATOM     15  C   UNL     1      -3.565  -2.076  -0.954  0.00  0.00    +0.000 C 
BRANCH  15  16
ATOM     16  C   UNL     1      -4.971  -1.866  -1.529  0.00  0.00    +0.000 C 
ATOM     17  C   UNL     1      -4.867  -1.520  -3.026  0.00  0.00    +0.000 C 
ATOM     18  C   UNL     1      -5.614  -0.668  -0.806  0.00  0.00    +0.000 C 
BRANCH  16  19
ATOM     19  C   UNL     1      -5.850  -3.123  -1.315  0.00  0.00    +0.000 C 
ATOM     20  C   UNL     1      -6.127  -3.471   0.144  0.00  0.00    +0.000 C 
ENDBRANCH  16  19
ENDBRANCH  15  16
ENDBRANCH  13  15
ENDBRANCH   3  13
BRANCH   2  21
ATOM     21  C   UNL     1      -1.053  -4.351  -0.191  0.00  0.00    +0.000 C 
BRANCH  21  22
ATOM     22  C   UNL     1      -0.741  -5.698  -0.829  0.00  0.00    +0.000 C 
BRANCH  22  25
ATOM     23  O   UNL     1      -2.827  -6.717  -0.248  0.00  0.00    +0.000 OA
ATOM     24  O   UNL     1      -4.756  -7.597   0.505  0.00  0.00    +0.000 OA
ATOM     25  C   UNL     1      -2.004  -6.350  -1.377  0.00  0.00    +0.000 C 
ATOM     26  C   UNL     1      -2.727  -5.422  -2.342  0.00  0.00    +0.000 C 
ATOM     27  C   UNL     1      -4.050  -6.048  -2.743  0.00  0.00    +0.000 C 
ATOM     28  C   UNL     1      -4.890  -6.327  -1.512  0.00  0.00    +0.000 C 
ATOM     29  C   UNL     1      -4.152  -6.967  -0.361  0.00  0.00    +0.000 C 
BRANCH  27  30
ATOM     30  O   UNL     1      -3.837  -7.269  -3.446  0.00  0.00    +0.000 OA
ATOM     31  H   UNL     1      -4.268  -7.186  -4.314  0.00  0.00    +0.000 HD
ENDBRANCH  27  30
ENDBRANCH  22  25
ENDBRANCH  21  22
ENDBRANCH   2  21
TORSDOF 8
ENDMDL
MODEL 8
REMARK VINA RESULT:    -6.100      2.163      3.474
REMARK INTER + INTRA:         -12.639
REMARK INTER:                  -8.486
REMARK INTRA:                  -4.153
REMARK CONF_INDEPENDENT:        2.386
REMARK UNBOUND:                 4.153
REMARK  Name = 54454
REMARK  13 active torsions:
REMARK  status: ('A' for Active; 'I' for Inactive)
REMARK    1  A    between atoms: O_1  and  C_8
REMARK    2  A    between atoms: O_1  and  C_22
REMARK    3  A    between atoms: O_3  and  C_23
REMARK    4  A    between atoms: C_7  and  C_11
REMARK    5  A    between atoms: C_9  and  C_18
REMARK    6  A    between atoms: C_11  and  C_15
REMARK    7  A    between atoms: C_13  and  C_20
REMARK    8  A    between atoms: C_15  and  C_19
REMARK    9  A    between atoms: C_22  and  C_24
REMARK   10  A    between atoms: C_24  and  C_27
REMARK   11  A    between atoms: C_24  and  C_28
REMARK   12  A    between atoms: C_24  and  C_29
REMARK   13  A    between atoms: C_27  and  C_30
REMARK                            x       y       z     vdW  Elec       q    Type
REMARK                         _______ _______ _______ _____ _____    ______ ____
ROOT
ATOM      1  C   UNL     1      -2.189  -5.330  -1.207  0.00  0.00    +0.000 C 
ATOM      2  C   UNL     1      -3.530  -4.775  -1.772  0.00  0.00    +0.000 C 
ATOM      3  C   UNL     1      -1.530  -4.398  -0.165  0.00  0.00    +0.000 C 
ATOM      4  C   UNL     1      -4.139  -5.742  -2.830  0.00  0.00    +0.000 C 
ATOM      5  C   UNL     1      -2.375  -6.744  -0.663  0.00  0.00    +0.000 C 
ATOM      6  C   UNL     1      -0.326  -5.071   0.501  0.00  0.00    +0.000 C 
ATOM      7  C   UNL     1      -0.669  -6.414   1.170  0.00  0.00    +0.000 C 
ATOM      8  C   UNL     1      -1.690  -7.207   0.398  0.00  0.00    +0.000 C 
ATOM      9  C   UNL     1      -4.124  -7.164  -2.335  0.00  0.00    +0.000 C 
ATOM     10  C   UNL     1      -3.333  -7.597  -1.344  0.00  0.00    +0.000 C 
ATOM     11  C   UNL     1      -3.467  -5.685  -4.205  0.00  0.00    +0.000 C 
ATOM     12  C   UNL     1      -1.135  -6.236   2.618  0.00  0.00    +0.000 C 
ENDROOT
BRANCH   3  13
ATOM     13  O   UNL     1      -2.481  -4.001   0.819  0.00  0.00    +0.000 OA
BRANCH  13  15
ATOM     14  O   UNL     1      -1.663  -1.851   0.777  0.00  0.00    +0.000 OA
ATOM     15  C   UNL     1      -2.359  -2.720   1.289  0.00  0.00    +0.000 C 
BRANCH  15  16
ATOM     16  C   UNL     1      -3.206  -2.519   2.553  0.00  0.00    +0.000 C 
ATOM     17  C   UNL     1      -4.699  -2.571   2.183  0.00  0.00    +0.000 C 
ATOM     18  C   UNL     1      -2.902  -1.120   3.119  0.00  0.00    +0.000 C 
BRANCH  16  19
ATOM     19  C   UNL     1      -2.865  -3.587   3.621  0.00  0.00    +0.000 C 
ATOM     20  C   UNL     1      -3.794  -4.797   3.639  0.00  0.00    +0.000 C 
ENDBRANCH  16  19
ENDBRANCH  15  16
ENDBRANCH  13  15
ENDBRANCH   3  13
BRANCH   2  21
ATOM     21  C   UNL     1      -3.401  -3.348  -2.317  0.00  0.00    +0.000 C 
BRANCH  21  22
ATOM     22  C   UNL     1      -4.420  -2.421  -1.668  0.00  0.00    +0.000 C 
BRANCH  22  25
ATOM     23  O   UNL     1      -2.858  -0.656  -2.084  0.00  0.00    +0.000 OA
ATOM     24  O   UNL     1      -1.399   0.945  -2.692  0.00  0.00    +0.000 OA
ATOM     25  C   UNL     1      -3.742  -1.192  -1.075  0.00  0.00    +0.000 C 
ATOM     26  C   UNL     1      -4.768  -0.172  -0.604  0.00  0.00    +0.000 C 
ATOM     27  C   UNL     1      -4.053   1.092  -0.165  0.00  0.00    +0.000 C 
ATOM     28  C   UNL     1      -3.212   1.639  -1.301  0.00  0.00    +0.000 C 
ATOM     29  C   UNL     1      -2.392   0.614  -2.047  0.00  0.00    +0.000 C 
BRANCH  27  30
ATOM     30  O   UNL     1      -3.208   0.830   0.952  0.00  0.00    +0.000 OA
ATOM     31  H   UNL     1      -2.615   0.100   0.705  0.00  0.00    +0.000 HD
ENDBRANCH  27  30
ENDBRANCH  22  25
ENDBRANCH  21  22
ENDBRANCH   2  21
TORSDOF 8
ENDMDL
MODEL 9
REMARK VINA RESULT:    -5.830      1.851      3.986
REMARK INTER + INTRA:         -12.404
REMARK INTER:                  -8.216
REMARK INTRA:                  -4.188
REMARK CONF_INDEPENDENT:        2.386
REMARK UNBOUND:                 4.188
REMARK  Name = 54454
REMARK  13 active torsions:
REMARK  status: ('A' for Active; 'I' for Inactive)
REMARK    1  A    between atoms: O_1  and  C_8
REMARK    2  A    between atoms: O_1  and  C_22
REMARK    3  A    between atoms: O_3  and  C_23
REMARK    4  A    between atoms: C_7  and  C_11
REMARK    5  A    between atoms: C_9  and  C_18
REMARK    6  A    between atoms: C_11  and  C_15
REMARK    7  A    between atoms: C_13  and  C_20
REMARK    8  A    between atoms: C_15  and  C_19
REMARK    9  A    between atoms: C_22  and  C_24
REMARK   10  A    between atoms: C_24  and  C_27
REMARK   11  A    between atoms: C_24  and  C_28
REMARK   12  A    between atoms: C_24  and  C_29
REMARK   13  A    between atoms: C_27  and  C_30
REMARK                            x       y       z     vdW  Elec       q    Type
REMARK                         _______ _______ _______ _____ _____    ______ ____
ROOT
ATOM      1  C   UNL     1      -2.087  -5.129   1.852  0.00  0.00    +0.000 C 
ATOM      2  C   UNL     1      -1.960  -5.558   0.360  0.00  0.00    +0.000 C 
ATOM      3  C   UNL     1      -3.482  -4.569   2.212  0.00  0.00    +0.000 C 
ATOM      4  C   UNL     1      -0.532  -6.096   0.048  0.00  0.00    +0.000 C 
ATOM      5  C   UNL     1      -1.679  -6.270   2.779  0.00  0.00    +0.000 C 
ATOM      6  C   UNL     1      -3.620  -4.345   3.720  0.00  0.00    +0.000 C 
ATOM      7  C   UNL     1      -3.354  -5.613   4.553  0.00  0.00    +0.000 C 
ATOM      8  C   UNL     1      -2.257  -6.469   3.978  0.00  0.00    +0.000 C 
ATOM      9  C   UNL     1      -0.080  -7.075   1.099  0.00  0.00    +0.000 C 
ATOM     10  C   UNL     1      -0.620  -7.152   2.323  0.00  0.00    +0.000 C 
ATOM     11  C   UNL     1       0.535  -5.008  -0.112  0.00  0.00    +0.000 C 
ATOM     12  C   UNL     1      -4.621  -6.451   4.750  0.00  0.00    +0.000 C 
ENDROOT
BRANCH   3  13
ATOM     13  O   UNL     1      -4.505  -5.445   1.746  0.00  0.00    +0.000 OA
BRANCH  13  15
ATOM     14  O   UNL     1      -5.465  -3.863   0.380  0.00  0.00    +0.000 OA
ATOM     15  C   UNL     1      -5.192  -5.030   0.637  0.00  0.00    +0.000 C 
BRANCH  15  16
ATOM     16  C   UNL     1      -5.584  -6.225  -0.242  0.00  0.00    +0.000 C 
ATOM     17  C   UNL     1      -7.116  -6.279  -0.381  0.00  0.00    +0.000 C 
ATOM     18  C   UNL     1      -5.122  -7.514   0.464  0.00  0.00    +0.000 C 
BRANCH  16  19
ATOM     19  C   UNL     1      -4.908  -6.134  -1.632  0.00  0.00    +0.000 C 
ATOM     20  C   UNL     1      -3.857  -7.204  -1.906  0.00  0.00    +0.000 C 
ENDBRANCH  16  19
ENDBRANCH  15  16
ENDBRANCH  13  15
ENDBRANCH   3  13
BRANCH   2  21
ATOM     21  C   UNL     1      -2.374  -4.452  -0.616  0.00  0.00    +0.000 C 
BRANCH  21  22
ATOM     22  C   UNL     1      -1.843  -3.098  -0.164  0.00  0.00    +0.000 C 
BRANCH  22  25
ATOM     23  O   UNL     1      -2.417  -1.413   1.435  0.00  0.00    +0.000 OA
ATOM     24  O   UNL     1      -2.736   0.197   2.974  0.00  0.00    +0.000 OA
ATOM     25  C   UNL     1      -2.967  -2.219   0.371  0.00  0.00    +0.000 C 
ATOM     26  C   UNL     1      -3.580  -1.376  -0.736  0.00  0.00    +0.000 C 
ATOM     27  C   UNL     1      -4.585  -0.411  -0.135  0.00  0.00    +0.000 C 
ATOM     28  C   UNL     1      -3.914   0.455   0.913  0.00  0.00    +0.000 C 
ATOM     29  C   UNL     1      -3.011  -0.279   1.874  0.00  0.00    +0.000 C 
BRANCH  27  30
ATOM     30  O   UNL     1      -5.662  -1.121   0.471  0.00  0.00    +0.000 OA
ATOM     31  H   UNL     1      -5.276  -1.806   1.043  0.00  0.00    +0.000 HD
ENDBRANCH  27  30
ENDBRANCH  22  25
ENDBRANCH  21  22
ENDBRANCH   2  21
TORSDOF 8
ENDMDL
