MODEL 1
REMARK VINA RESULT:    -7.697      0.000      0.000
REMARK INTER + INTRA:         -11.027
REMARK INTER:                  -9.785
REMARK INTRA:                  -1.242
REMARK CONF_INDEPENDENT:        2.088
REMARK UNBOUND:                 1.242
REMARK  Name = 6322
REMARK  7 active torsions:
REMARK  status: ('A' for Active; 'I' for Inactive)
REMARK    1  A    between atoms: O_1  and  C_11
REMARK    2  A    between atoms: N_3  and  CA_9
REMARK    3  A    between atoms: NE_4  and  CD_10
REMARK    4  A    between atoms: CB_7  and  CG_8
REMARK    5  A    between atoms: CB_7  and  CA_9
REMARK    6  A    between atoms: CG_8  and  CD_10
REMARK    7  A    between atoms: CA_9  and  C_11
REMARK                            x       y       z     vdW  Elec       q    Type
REMARK                         _______ _______ _______ _____ _____    ______ ____
ROOT
ATOM      1  CG  ARG A   1      -3.856  -4.508  -3.434  0.00  0.00    +0.000 C 
ENDROOT
BRANCH   1   2
ATOM      2  CB  ARG A   1      -2.570  -3.777  -3.850  0.00  0.00    +0.000 C 
BRANCH   2   3
ATOM      3  CA  ARG A   1      -1.311  -4.457  -3.292  0.00  0.00    +0.000 C 
BRANCH   3   4
ATOM      4  N   ARG A   1      -1.455  -5.908  -3.366  0.00  0.00    +0.000 NA
ATOM      5  H1  ARG A   1      -2.232  -6.145  -3.982  0.00  0.00    +0.000 HD
ATOM      6  H2  ARG A   1      -1.701  -6.276  -2.447  0.00  0.00    +0.000 HD
ENDBRANCH   3   4
BRANCH   3   8
ATOM      7  OXT ARG A   1      -0.020  -3.756  -1.347  0.00  0.00    +0.000 OA
ATOM      8  C   ARG A   1      -1.082  -4.133  -1.827  0.00  0.00    +0.000 C 
BRANCH   8   9
ATOM      9  O   ARG A   1      -2.212  -4.283  -1.087  0.00  0.00    +0.000 OA
ATOM     10  H   ARG A   1      -2.583  -3.419  -0.807  0.00  0.00    +0.000 HD
ENDBRANCH   8   9
ENDBRANCH   3   8
ENDBRANCH   2   3
ENDBRANCH   1   2
BRANCH   1  11
ATOM     11  CD  ARG A   1      -4.992  -3.545  -3.105  0.00  0.00    +0.000 C 
BRANCH  11  12
ATOM     12  NE  ARG A   1      -4.444  -2.254  -2.685  0.00  0.00    +0.000 NA
ATOM     13  NH1 ARG A   1      -3.696  -0.921  -0.942  0.00  0.00    +0.000 N 
ATOM     14  NH2 ARG A   1      -4.413  -3.018  -0.407  0.00  0.00    +0.000 N 
ATOM     15  CZ  ARG A   1      -4.210  -2.105  -1.418  0.00  0.00    +0.000 C 
ATOM     16 HH11 ARG A   1      -3.493  -0.150  -1.568  0.00  0.00    +0.000 HD
ATOM     17 HH12 ARG A   1      -3.505  -0.784   0.045  0.00  0.00    +0.000 HD
ATOM     18 HH21 ARG A   1      -4.191  -2.789   0.555  0.00  0.00    +0.000 HD
ATOM     19 HH22 ARG A   1      -4.790  -3.943  -0.581  0.00  0.00    +0.000 HD
ENDBRANCH  11  12
ENDBRANCH   1  11
TORSDOF 7
ENDMDL
MODEL 2
REMARK VINA RESULT:    -6.853      7.605      8.334
REMARK INTER + INTRA:         -10.607
REMARK INTER:                  -8.941
REMARK INTRA:                  -1.667
REMARK CONF_INDEPENDENT:        2.088
REMARK UNBOUND:                 1.667
REMARK  Name = 6322
REMARK  7 active torsions:
REMARK  status: ('A' for Active; 'I' for Inactive)
REMARK    1  A    between atoms: O_1  and  C_11
REMARK    2  A    between atoms: N_3  and  CA_9
REMARK    3  A    between atoms: NE_4  and  CD_10
REMARK    4  A    between atoms: CB_7  and  CG_8
REMARK    5  A    between atoms: CB_7  and  CA_9
REMARK    6  A    between atoms: CG_8  and  CD_10
REMARK    7  A    between atoms: CA_9  and  C_11
REMARK                            x       y       z     vdW  Elec       q    Type
REMARK                         _______ _______ _______ _____ _____    ______ ____
ROOT
ATOM      1  CG  ARG A   1       3.332   1.815  -1.934  0.00  0.00    +0.000 C 
ENDROOT
BRANCH   1   2
ATOM      2  CB  ARG A   1       3.604   0.351  -2.308  0.00  0.00    +0.000 C 
BRANCH   2   3
ATOM      3  CA  ARG A   1       5.106   0.030  -2.341  0.00  0.00    +0.000 C 
BRANCH   3   4
ATOM      4  N   ARG A   1       5.304  -1.413  -2.459  0.00  0.00    +0.000 NA
ATOM      5  H1  ARG A   1       4.399  -1.881  -2.499  0.00  0.00    +0.000 HD
ATOM      6  H2  ARG A   1       5.767  -1.765  -1.621  0.00  0.00    +0.000 HD
ENDBRANCH   3   4
BRANCH   3   8
ATOM      7  OXT ARG A   1       6.139   1.593  -0.783  0.00  0.00    +0.000 OA
ATOM      8  C   ARG A   1       5.813   0.446  -1.064  0.00  0.00    +0.000 C 
BRANCH   8   9
ATOM      9  O   ARG A   1       6.029  -0.607  -0.232  0.00  0.00    +0.000 OA
ATOM     10  H   ARG A   1       6.575  -1.302  -0.657  0.00  0.00    +0.000 HD
ENDBRANCH   8   9
ENDBRANCH   3   8
ENDBRANCH   2   3
ENDBRANCH   1   2
BRANCH   1  11
ATOM     11  CD  ARG A   1       1.842   2.122  -1.831  0.00  0.00    +0.000 C 
BRANCH  11  12
ATOM     12  NE  ARG A   1       1.169   1.744  -3.074  0.00  0.00    +0.000 NA
ATOM     13  NH1 ARG A   1       0.660   2.294  -5.268  0.00  0.00    +0.000 N 
ATOM     14  NH2 ARG A   1       1.929   3.782  -4.096  0.00  0.00    +0.000 N 
ATOM     15  CZ  ARG A   1       1.265   2.576  -4.065  0.00  0.00    +0.000 C 
ATOM     16 HH11 ARG A   1       0.132   1.439  -5.401  0.00  0.00    +0.000 HD
ATOM     17 HH12 ARG A   1       0.724   2.931  -6.055  0.00  0.00    +0.000 HD
ATOM     18 HH21 ARG A   1       1.937   4.352  -4.934  0.00  0.00    +0.000 HD
ATOM     19 HH22 ARG A   1       2.428   4.146  -3.291  0.00  0.00    +0.000 HD
ENDBRANCH  11  12
ENDBRANCH   1  11
TORSDOF 7
ENDMDL
MODEL 3
REMARK VINA RESULT:    -6.618      8.021      9.301
REMARK INTER + INTRA:         -10.459
REMARK INTER:                  -8.706
REMARK INTRA:                  -1.753
REMARK CONF_INDEPENDENT:        2.088
REMARK UNBOUND:                 1.753
REMARK  Name = 6322
REMARK  7 active torsions:
REMARK  status: ('A' for Active; 'I' for Inactive)
REMARK    1  A    between atoms: O_1  and  C_11
REMARK    2  A    between atoms: N_3  and  CA_9
REMARK    3  A    between atoms: NE_4  and  CD_10
REMARK    4  A    between atoms: CB_7  and  CG_8
REMARK    5  A    between atoms: CB_7  and  CA_9
REMARK    6  A    between atoms: CG_8  and  CD_10
REMARK    7  A    between atoms: CA_9  and  C_11
REMARK                            x       y       z     vdW  Elec       q    Type
REMARK                         _______ _______ _______ _____ _____    ______ ____
ROOT
ATOM      1  CG  ARG A   1       3.415   0.492  -2.321  0.00  0.00    +0.000 C 
ENDROOT
BRANCH   1   2
ATOM      2  CB  ARG A   1       3.668   1.957  -1.934  0.00  0.00    +0.000 C 
BRANCH   2   3
ATOM      3  CA  ARG A   1       2.380   2.793  -1.954  0.00  0.00    +0.000 C 
BRANCH   3   4
ATOM      4  N   ARG A   1       1.387   2.199  -1.062  0.00  0.00    +0.000 NA
ATOM      5  H1  ARG A   1       1.778   1.369  -0.618  0.00  0.00    +0.000 HD
ATOM      6  H2  ARG A   1       0.586   1.878  -1.606  0.00  0.00    +0.000 HD
ENDBRANCH   3   4
BRANCH   3   8
ATOM      7  OXT ARG A   1       1.927   3.700  -4.171  0.00  0.00    +0.000 OA
ATOM      8  C   ARG A   1       1.738   2.830  -3.329  0.00  0.00    +0.000 C 
BRANCH   8   9
ATOM      9  O   ARG A   1       0.931   1.757  -3.547  0.00  0.00    +0.000 OA
ATOM     10  H   ARG A   1       1.002   1.096  -2.826  0.00  0.00    +0.000 HD
ENDBRANCH   8   9
ENDBRANCH   3   8
ENDBRANCH   2   3
ENDBRANCH   1   2
BRANCH   1  11
ATOM     11  CD  ARG A   1       4.680  -0.356  -2.249  0.00  0.00    +0.000 C 
BRANCH  11  12
ATOM     12  NE  ARG A   1       4.948  -0.735  -0.861  0.00  0.00    +0.000 NA
ATOM     13  NH1 ARG A   1       6.408  -0.669   0.938  0.00  0.00    +0.000 N 
ATOM     14  NH2 ARG A   1       7.076   0.375  -0.976  0.00  0.00    +0.000 N 
ATOM     15  CZ  ARG A   1       6.081  -0.352  -0.360  0.00  0.00    +0.000 C 
ATOM     16 HH11 ARG A   1       5.774  -1.203   1.522  0.00  0.00    +0.000 HD
ATOM     17 HH12 ARG A   1       7.289  -0.378   1.349  0.00  0.00    +0.000 HD
ATOM     18 HH21 ARG A   1       7.926   0.619  -0.482  0.00  0.00    +0.000 HD
ATOM     19 HH22 ARG A   1       7.000   0.689  -1.937  0.00  0.00    +0.000 HD
ENDBRANCH  11  12
ENDBRANCH   1  11
TORSDOF 7
ENDMDL
MODEL 4
REMARK VINA RESULT:    -6.554      1.949      4.478
REMARK INTER + INTRA:         -10.244
REMARK INTER:                  -8.642
REMARK INTRA:                  -1.602
REMARK CONF_INDEPENDENT:        2.088
REMARK UNBOUND:                 1.602
REMARK  Name = 6322
REMARK  7 active torsions:
REMARK  status: ('A' for Active; 'I' for Inactive)
REMARK    1  A    between atoms: O_1  and  C_11
REMARK    2  A    between atoms: N_3  and  CA_9
REMARK    3  A    between atoms: NE_4  and  CD_10
REMARK    4  A    between atoms: CB_7  and  CG_8
REMARK    5  A    between atoms: CB_7  and  CA_9
REMARK    6  A    between atoms: CG_8  and  CD_10
REMARK    7  A    between atoms: CA_9  and  C_11
REMARK                            x       y       z     vdW  Elec       q    Type
REMARK                         _______ _______ _______ _____ _____    ______ ____
ROOT
ATOM      1  CG  ARG A   1      -2.574  -4.512  -1.239  0.00  0.00    +0.000 C 
ENDROOT
BRANCH   1   2
ATOM      2  CB  ARG A   1      -3.463  -3.335  -0.809  0.00  0.00    +0.000 C 
BRANCH   2   3
ATOM      3  CA  ARG A   1      -3.952  -2.509  -2.009  0.00  0.00    +0.000 C 
BRANCH   3   4
ATOM      4  N   ARG A   1      -5.121  -1.722  -1.627  0.00  0.00    +0.000 NA
ATOM      5  H1  ARG A   1      -5.171  -1.651  -0.611  0.00  0.00    +0.000 HD
ATOM      6  H2  ARG A   1      -5.970  -2.206  -1.918  0.00  0.00    +0.000 HD
ENDBRANCH   3   4
BRANCH   3   8
ATOM      7  OXT ARG A   1      -5.528  -3.823  -3.324  0.00  0.00    +0.000 OA
ATOM      8  C   ARG A   1      -4.396  -3.383  -3.169  0.00  0.00    +0.000 C 
BRANCH   8   9
ATOM      9  O   ARG A   1      -3.389  -3.609  -4.053  0.00  0.00    +0.000 OA
ATOM     10  H   ARG A   1      -2.553  -3.179  -3.773  0.00  0.00    +0.000 HD
ENDBRANCH   8   9
ENDBRANCH   3   8
ENDBRANCH   2   3
ENDBRANCH   1   2
BRANCH   1  11
ATOM     11  CD  ARG A   1      -1.098  -4.133  -1.301  0.00  0.00    +0.000 C 
BRANCH  11  12
ATOM     12  NE  ARG A   1      -0.719  -3.829  -2.682  0.00  0.00    +0.000 NA
ATOM     13  NH1 ARG A   1      -0.695  -4.508  -4.898  0.00  0.00    +0.000 N 
ATOM     14  NH2 ARG A   1      -1.654  -5.926  -3.391  0.00  0.00    +0.000 N 
ATOM     15  CZ  ARG A   1      -1.018  -4.718  -3.578  0.00  0.00    +0.000 C 
ATOM     16 HH11 ARG A   1      -0.222  -3.661  -5.193  0.00  0.00    +0.000 HD
ATOM     17 HH12 ARG A   1      -0.920  -5.191  -5.614  0.00  0.00    +0.000 HD
ATOM     18 HH21 ARG A   1      -1.836  -6.545  -4.173  0.00  0.00    +0.000 HD
ATOM     19 HH22 ARG A   1      -1.958  -6.241  -2.478  0.00  0.00    +0.000 HD
ENDBRANCH  11  12
ENDBRANCH   1  11
TORSDOF 7
ENDMDL
MODEL 5
REMARK VINA RESULT:    -6.261      2.314      3.805
REMARK INTER + INTRA:         -10.633
REMARK INTER:                  -8.349
REMARK INTRA:                  -2.284
REMARK CONF_INDEPENDENT:        2.088
REMARK UNBOUND:                 2.284
REMARK  Name = 6322
REMARK  7 active torsions:
REMARK  status: ('A' for Active; 'I' for Inactive)
REMARK    1  A    between atoms: O_1  and  C_11
REMARK    2  A    between atoms: N_3  and  CA_9
REMARK    3  A    between atoms: NE_4  and  CD_10
REMARK    4  A    between atoms: CB_7  and  CG_8
REMARK    5  A    between atoms: CB_7  and  CA_9
REMARK    6  A    between atoms: CG_8  and  CD_10
REMARK    7  A    between atoms: CA_9  and  C_11
REMARK                            x       y       z     vdW  Elec       q    Type
REMARK                         _______ _______ _______ _____ _____    ______ ____
ROOT
ATOM      1  CG  ARG A   1      -3.292  -3.885  -4.030  0.00  0.00    +0.000 C 
ENDROOT
BRANCH   1   2
ATOM      2  CB  ARG A   1      -4.409  -3.700  -2.991  0.00  0.00    +0.000 C 
BRANCH   2   3
ATOM      3  CA  ARG A   1      -3.899  -3.030  -1.706  0.00  0.00    +0.000 C 
BRANCH   3   4
ATOM      4  N   ARG A   1      -4.290  -3.824  -0.543  0.00  0.00    +0.000 NA
ATOM      5  H1  ARG A   1      -4.996  -4.506  -0.815  0.00  0.00    +0.000 HD
ATOM      6  H2  ARG A   1      -4.732  -3.220   0.150  0.00  0.00    +0.000 HD
ENDBRANCH   3   4
BRANCH   3   8
ATOM      7  OXT ARG A   1      -5.195  -1.056  -2.309  0.00  0.00    +0.000 OA
ATOM      8  C   ARG A   1      -4.502  -1.653  -1.495  0.00  0.00    +0.000 C 
BRANCH   8   9
ATOM      9  O   ARG A   1      -4.210  -1.149  -0.266  0.00  0.00    +0.000 OA
ATOM     10  H   ARG A   1      -3.753  -1.808   0.299  0.00  0.00    +0.000 HD
ENDBRANCH   8   9
ENDBRANCH   3   8
ENDBRANCH   2   3
ENDBRANCH   1   2
BRANCH   1  11
ATOM     11  CD  ARG A   1      -2.226  -4.873  -3.568  0.00  0.00    +0.000 C 
BRANCH  11  12
ATOM     12  NE  ARG A   1      -1.086  -4.147  -3.004  0.00  0.00    +0.000 NA
ATOM     13  NH1 ARG A   1       0.055  -3.472  -1.103  0.00  0.00    +0.000 N 
ATOM     14  NH2 ARG A   1      -1.827  -4.722  -0.792  0.00  0.00    +0.000 N 
ATOM     15  CZ  ARG A   1      -0.986  -4.133  -1.711  0.00  0.00    +0.000 C 
ATOM     16 HH11 ARG A   1       0.759  -2.989  -1.650  0.00  0.00    +0.000 HD
ATOM     17 HH12 ARG A   1       0.151  -3.450  -0.093  0.00  0.00    +0.000 HD
ATOM     18 HH21 ARG A   1      -1.648  -4.644   0.203  0.00  0.00    +0.000 HD
ATOM     19 HH22 ARG A   1      -2.648  -5.247  -1.068  0.00  0.00    +0.000 HD
ENDBRANCH  11  12
ENDBRANCH   1  11
TORSDOF 7
ENDMDL
