MODEL 1
REMARK VINA RESULT:  3830.184      0.000      0.000
REMARK INTER + INTRA:        3844.739
REMARK INTER:                3828.991
REMARK INTRA:                  15.748
REMARK CONF_INDEPENDENT:        1.193
REMARK UNBOUND:               -15.748
REMARK  Name = 
REMARK  6 active torsions:
REMARK  status: ('A' for Active; 'I' for Inactive)
REMARK    1  A    between atoms: C_1  and  C_2
REMARK    2  A    between atoms: C_15  and  C_16
REMARK    3  A    between atoms: C_20  and  C_21
REMARK    4  A    between atoms: C_21  and  C_23
REMARK    5  A    between atoms: C_23  and  N_24
REMARK    6  A    between atoms: N_27  and  C_28
REMARK                            x       y       z     vdW  Elec       q    Type
REMARK                         _______ _______ _______ _____ _____    ______ ____
ROOT
ATOM      1  C   UNL     1      -0.336   4.552   0.737  0.00  0.00    +0.000 C 
ENDROOT
BRANCH   1   2
ATOM      2  N   UNL     1       0.765   3.911   0.169  0.00  0.00    +0.000 NA
ATOM      3  C   UNL     1       2.066   4.341   0.481  0.00  0.00    +0.000 C 
ATOM      4  C   UNL     1       2.852   3.136   0.988  0.00  0.00    +0.000 C 
ATOM      5  N   UNL     1       2.658   2.052   0.031  0.00  0.00    +0.000 N 
ATOM      6  C   UNL     1       1.304   1.639  -0.310  0.00  0.00    +0.000 C 
ATOM      7  C   UNL     1       0.583   2.891  -0.776  0.00  0.00    +0.000 C 
BRANCH   5   8
ATOM      8  C   UNL     1       3.659   1.855  -0.968  0.00  0.00    +0.000 A 
ATOM      9  C   UNL     1       4.145   0.560  -1.084  0.00  0.00    +0.000 A 
ATOM     10  C   UNL     1       5.403   0.340  -1.611  0.00  0.00    +0.000 A 
ATOM     11  N   UNL     1       5.719  -0.955  -2.147  0.00  0.00    +0.000 N 
ATOM     12  C   UNL     1       5.365  -1.265  -3.532  0.00  0.00    +0.000 C 
ATOM     13  C   UNL     1       6.634  -0.899  -4.293  0.00  0.00    +0.000 C 
ATOM     14  C   UNL     1       7.719  -0.762  -3.231  0.00  0.00    +0.000 C 
ATOM     15  C   UNL     1       7.085  -1.466  -2.036  0.00  0.00    +0.000 C 
ATOM     16  N   UNL     1       6.082   1.447  -1.999  0.00  0.00    +0.000 NA
ATOM     17  C   UNL     1       5.513   2.655  -2.140  0.00  0.00    +0.000 A 
ATOM     18  N   UNL     1       5.872   3.551  -3.198  0.00  0.00    +0.000 N 
ATOM     19  C   UNL     1       5.709   3.217  -4.611  0.00  0.00    +0.000 C 
ATOM     20  C   UNL     1       6.526   4.238  -5.346  0.00  0.00    +0.000 C 
ATOM     21  C   UNL     1       6.388   5.453  -4.463  0.00  0.00    +0.000 C 
ATOM     22  C   UNL     1       5.987   4.979  -3.098  0.00  0.00    +0.000 C 
ATOM     23  N   UNL     1       4.416   2.891  -1.379  0.00  0.00    +0.000 NA
ENDBRANCH   5   8
ENDBRANCH   1   2
BRANCH   1  24
ATOM     24  C   UNL     1      -1.376   3.646   1.328  0.00  0.00    +0.000 C 
ATOM     25  O   UNL     1      -2.563   3.908   1.139  0.00  0.00    +0.000 OA
BRANCH  24  45
ATOM     26  C   UNL     1      -3.443   4.131   2.743  0.00  0.00    +0.000 C 
ATOM     27  C   UNL     1      -2.597   3.150   3.276  0.00  0.00    +0.000 C 
ATOM     28  C   UNL     1      -2.846   1.725   3.126  0.00  0.00    +0.000 C 
ATOM     29  C   UNL     1      -4.043   1.453   3.994  0.00  0.00    +0.000 C 
ATOM     30  C   UNL     1      -4.072   2.006   5.189  0.00  0.00    +0.000 C 
ATOM     31  C   UNL     1      -3.868   3.587   5.269  0.00  0.00    +0.000 C 
ATOM     32  C   UNL     1      -3.464   3.625   6.847  0.00  0.00    +0.000 C 
ATOM     33  C   UNL     1      -2.566   2.455   7.116  0.00  0.00    +0.000 C 
ATOM     34  C   UNL     1      -3.338   1.162   7.187  0.00  0.00    +0.000 C 
ATOM     35  C   UNL     1      -2.612   0.080   6.899  0.00  0.00    +0.000 C 
ATOM     36  C   UNL     1      -3.089  -1.041   6.122  0.00  0.00    +0.000 C 
ATOM     37  O   UNL     1      -2.356  -1.927   5.609  0.00  0.00    +0.000 OA
ATOM     38  C   UNL     1      -4.501  -1.067   5.719  0.00  0.00    +0.000 C 
ATOM     39  C   UNL     1      -5.178   0.030   5.970  0.00  0.00    +0.000 C 
ATOM     40  C   UNL     1      -4.599   1.300   6.379  0.00  0.00    +0.000 C 
ATOM     41  C   UNL     1      -5.659   2.069   7.115  0.00  0.00    +0.000 C 
ATOM     42  C   UNL     1      -2.231   3.478   4.818  0.00  0.00    +0.000 C 
ATOM     43  C   UNL     1      -2.128   5.053   4.462  0.00  0.00    +0.000 C 
ATOM     44  C   UNL     1      -1.342   5.085   3.198  0.00  0.00    +0.000 C 
ATOM     45  C   UNL     1      -1.046   3.502   2.904  0.00  0.00    +0.000 C 
ENDBRANCH  24  45
ENDBRANCH   1  24
TORSDOF 4
ENDMDL
