MODEL 1
REMARK VINA RESULT:  1490.541      0.000      0.000
REMARK INTER + INTRA:        1482.096
REMARK INTER:                1486.066
REMARK INTRA:                  -3.970
REMARK CONF_INDEPENDENT:        4.474
REMARK UNBOUND:                 3.970
REMARK  Name = 60823
REMARK  17 active torsions:
REMARK  status: ('A' for Active; 'I' for Inactive)
REMARK    1  A    between atoms: O_2  and  C_16
REMARK    2  A    between atoms: O_3  and  C_22
REMARK    3  A    between atoms: O_5  and  C_35
REMARK    4  A    between atoms: N_7  and  C_10
REMARK    5  A    between atoms: N_8  and  C_34
REMARK    6  A    between atoms: C_9  and  C_12
REMARK    7  A    between atoms: C_10  and  C_13
REMARK    8  A    between atoms: C_11  and  C_18
REMARK    9  A    between atoms: C_12  and  C_19
REMARK   10  A    between atoms: C_12  and  C_20
REMARK   11  A    between atoms: C_13  and  C_16
REMARK   12  A    between atoms: C_14  and  C_23
REMARK   13  A    between atoms: C_15  and  C_21
REMARK   14  A    between atoms: C_16  and  C_17
REMARK   15  A    between atoms: C_17  and  C_22
REMARK   16  A    between atoms: C_22  and  C_24
REMARK   17  A    between atoms: C_24  and  C_35
REMARK                            x       y       z     vdW  Elec       q    Type
REMARK                         _______ _______ _______ _____ _____    ______ ____
ROOT
ATOM      1  N   UNL     1       0.344   1.539   3.100  0.00  0.00    +0.000 N 
ATOM      2  C   UNL     1       1.350   0.715   2.666  0.00  0.00    +0.000 A 
ATOM      3  C   UNL     1       0.273   2.642   2.290  0.00  0.00    +0.000 A 
ATOM      4  C   UNL     1       1.929   1.301   1.562  0.00  0.00    +0.000 A 
ATOM      5  C   UNL     1       1.247   2.520   1.323  0.00  0.00    +0.000 A 
ENDROOT
BRANCH   3   7
ATOM      6  F   UNL     1      -3.465   6.702   3.102  0.00  0.00    +0.000 F 
ATOM      7  C   UNL     1      -0.699   3.697   2.501  0.00  0.00    +0.000 A 
ATOM      8  C   UNL     1      -0.766   4.347   3.734  0.00  0.00    +0.000 A 
ATOM      9  C   UNL     1      -1.567   4.062   1.472  0.00  0.00    +0.000 A 
ATOM     10  C   UNL     1      -1.700   5.362   3.936  0.00  0.00    +0.000 A 
ATOM     11  C   UNL     1      -2.501   5.078   1.675  0.00  0.00    +0.000 A 
ATOM     12  C   UNL     1      -2.568   5.728   2.907  0.00  0.00    +0.000 A 
ENDBRANCH   3   7
BRANCH   5  13
ATOM     13  C   UNL     1       1.469   3.497   0.293  0.00  0.00    +0.000 A 
ATOM     14  C   UNL     1       2.694   4.161   0.213  0.00  0.00    +0.000 A 
ATOM     15  C   UNL     1       0.461   3.782  -0.628  0.00  0.00    +0.000 A 
ATOM     16  C   UNL     1       2.910   5.109  -0.787  0.00  0.00    +0.000 A 
ATOM     17  C   UNL     1       0.677   4.730  -1.627  0.00  0.00    +0.000 A 
ATOM     18  C   UNL     1       1.901   5.394  -1.707  0.00  0.00    +0.000 A 
ENDBRANCH   5  13
BRANCH   4  21
ATOM     19  O   UNL     1       4.078   0.388   1.384  0.00  0.00    +0.000 OA
ATOM     20  N   UNL     1       2.831   0.648  -0.571  0.00  0.00    +0.000 N 
ATOM     21  C   UNL     1       3.023   0.738   0.821  0.00  0.00    +0.000 C 
ATOM     22  H   UNL     1       1.932   0.967  -0.928  0.00  0.00    +0.000 HD
BRANCH  20  23
ATOM     23  C   UNL     1       3.727   0.178  -1.564  0.00  0.00    +0.000 A 
ATOM     24  C   UNL     1       3.766   0.792  -2.815  0.00  0.00    +0.000 A 
ATOM     25  C   UNL     1       4.571  -0.899  -1.288  0.00  0.00    +0.000 A 
ATOM     26  C   UNL     1       4.649   0.329  -3.792  0.00  0.00    +0.000 A 
ATOM     27  C   UNL     1       5.453  -1.361  -2.265  0.00  0.00    +0.000 A 
ATOM     28  C   UNL     1       5.492  -0.747  -3.517  0.00  0.00    +0.000 A 
ENDBRANCH  20  23
ENDBRANCH   4  21
BRANCH   2  29
ATOM     29  C   UNL     1       1.667  -0.558   3.349  0.00  0.00    +0.000 C 
ATOM     30  C   UNL     1       3.183  -0.759   3.584  0.00  0.00    +0.000 C 
ATOM     31  C   UNL     1       1.093  -1.795   2.621  0.00  0.00    +0.000 C 
ENDBRANCH   2  29
BRANCH   1  32
ATOM     32  C   UNL     1      -0.510   1.275   4.252  0.00  0.00    +0.000 C 
BRANCH  32  33
ATOM     33  C   UNL     1      -1.652   0.292   3.958  0.00  0.00    +0.000 C 
BRANCH  33  34
ATOM     34  C   UNL     1      -3.052   0.919   4.032  0.00  0.00    +0.000 C 
BRANCH  34  35
ATOM     35  O   UNL     1      -3.845   0.360   2.981  0.00  0.00    +0.000 OA
ATOM     36  H   UNL     1      -4.361  -0.372   3.361  0.00  0.00    +0.000 HD
ENDBRANCH  34  35
BRANCH  34  37
ATOM     37  C   UNL     1      -3.786   0.657   5.360  0.00  0.00    +0.000 C 
BRANCH  37  38
ATOM     38  C   UNL     1      -4.038   1.866   6.273  0.00  0.00    +0.000 C 
BRANCH  38  39
ATOM     39  O   UNL     1      -5.385   1.827   6.736  0.00  0.00    +0.000 OA
ATOM     40  H   UNL     1      -5.896   2.471   6.219  0.00  0.00    +0.000 HD
ENDBRANCH  38  39
BRANCH  38  41
ATOM     41  C   UNL     1      -3.079   1.934   7.461  0.00  0.00    +0.000 C 
BRANCH  41  43
ATOM     42  O   UNL     1      -1.729   3.938   7.462  0.00  0.00    +0.000 OA
ATOM     43  C   UNL     1      -1.862   2.766   7.135  0.00  0.00    +0.000 C 
BRANCH  43  44
ATOM     44  O   UNL     1      -0.936   2.078   6.423  0.00  0.00    +0.000 OA
ATOM     45  H   UNL     1      -0.895   1.135   6.690  0.00  0.00    +0.000 HD
ENDBRANCH  43  44
ENDBRANCH  41  43
ENDBRANCH  38  41
ENDBRANCH  37  38
ENDBRANCH  34  37
ENDBRANCH  33  34
ENDBRANCH  32  33
ENDBRANCH   1  32
TORSDOF 15
ENDMDL
