MODEL 1
REMARK VINA RESULT:    -4.871      0.000      0.000
REMARK INTER + INTRA:          -5.797
REMARK INTER:                  -5.468
REMARK INTRA:                  -0.329
REMARK CONF_INDEPENDENT:        0.597
REMARK UNBOUND:                 0.329
REMARK  Name = 2353
REMARK  4 active torsions:
REMARK  status: ('A' for Active; 'I' for Inactive)
REMARK    1  A    between atoms: O_3  and  C_19
REMARK    2  A    between atoms: O_3  and  C_24
REMARK    3  A    between atoms: O_4  and  C_21
REMARK    4  A    between atoms: O_4  and  C_25
REMARK                            x       y       z     vdW  Elec       q    Type
REMARK                         _______ _______ _______ _____ _____    ______ ____
ROOT
ATOM      1  O   UNL     1      -0.821  -5.379   5.949  0.00  0.00    +0.000 OA
ATOM      2  O   UNL     1      -3.111  -6.117   6.059  0.00  0.00    +0.000 OA
ATOM      3  N   UNL     1      -2.714  -6.728   0.016  0.00  0.00    +0.000 N 
ATOM      4  C   UNL     1      -1.233  -6.790   0.102  0.00  0.00    +0.000 C 
ATOM      5  C   UNL     1      -0.726  -5.682   1.006  0.00  0.00    +0.000 C 
ATOM      6  C   UNL     1      -3.477  -6.485   1.121  0.00  0.00    +0.000 A 
ATOM      7  C   UNL     1      -1.397  -5.806   2.345  0.00  0.00    +0.000 A 
ATOM      8  C   UNL     1      -2.758  -6.219   2.382  0.00  0.00    +0.000 A 
ATOM      9  C   UNL     1      -3.284  -6.974  -1.186  0.00  0.00    +0.000 A 
ATOM     10  C   UNL     1      -4.876  -6.469   0.990  0.00  0.00    +0.000 A 
ATOM     11  C   UNL     1      -4.667  -6.973  -1.359  0.00  0.00    +0.000 A 
ATOM     12  C   UNL     1      -5.483  -6.712  -0.247  0.00  0.00    +0.000 A 
ATOM     13  C   UNL     1      -0.689  -5.492   3.516  0.00  0.00    +0.000 A 
ATOM     14  C   UNL     1      -3.376  -6.346   3.642  0.00  0.00    +0.000 A 
ATOM     15  C   UNL     1      -1.346  -5.626   4.718  0.00  0.00    +0.000 A 
ATOM     16  C   UNL     1      -2.651  -6.046   4.779  0.00  0.00    +0.000 A 
ATOM     17  C   UNL     1      -5.257  -7.224  -2.609  0.00  0.00    +0.000 A 
ATOM     18  C   UNL     1      -6.879  -6.703  -0.406  0.00  0.00    +0.000 A 
ATOM     19  C   UNL     1      -6.645  -7.212  -2.752  0.00  0.00    +0.000 A 
ATOM     20  C   UNL     1      -1.946  -5.694   6.795  0.00  0.00    +0.000 C 
ATOM     21  C   UNL     1      -7.456  -6.952  -1.652  0.00  0.00    +0.000 A 
ENDROOT
BRANCH  17  22
ATOM     22  O   UNL     1      -4.486  -7.481  -3.707  0.00  0.00    +0.000 OA
ATOM     23  C   UNL     1      -3.807  -6.373  -4.291  0.00  0.00    +0.000 C 
ENDBRANCH  17  22
BRANCH  19  24
ATOM     24  O   UNL     1      -7.220  -7.454  -3.963  0.00  0.00    +0.000 OA
ATOM     25  C   UNL     1      -7.136  -6.417  -4.940  0.00  0.00    +0.000 C 
ENDBRANCH  19  24
TORSDOF 2
ENDMDL
MODEL 2
REMARK VINA RESULT:    -4.449      1.211      7.692
REMARK INTER + INTRA:          -5.401
REMARK INTER:                  -5.046
REMARK INTRA:                  -0.355
REMARK CONF_INDEPENDENT:        0.597
REMARK UNBOUND:                 0.355
REMARK  Name = 2353
REMARK  4 active torsions:
REMARK  status: ('A' for Active; 'I' for Inactive)
REMARK    1  A    between atoms: O_3  and  C_19
REMARK    2  A    between atoms: O_3  and  C_24
REMARK    3  A    between atoms: O_4  and  C_21
REMARK    4  A    between atoms: O_4  and  C_25
REMARK                            x       y       z     vdW  Elec       q    Type
REMARK                         _______ _______ _______ _____ _____    ______ ____
ROOT
ATOM      1  O   UNL     1      -6.087  -7.500  -3.848  0.00  0.00    +0.000 OA
ATOM      2  O   UNL     1      -7.304  -6.673  -1.941  0.00  0.00    +0.000 OA
ATOM      3  N   UNL     1      -1.858  -6.174   0.731  0.00  0.00    +0.000 N 
ATOM      4  C   UNL     1      -1.189  -6.168  -0.595  0.00  0.00    +0.000 C 
ATOM      5  C   UNL     1      -1.754  -7.280  -1.459  0.00  0.00    +0.000 C 
ATOM      6  C   UNL     1      -3.203  -6.371   0.842  0.00  0.00    +0.000 A 
ATOM      7  C   UNL     1      -3.243  -7.108  -1.554  0.00  0.00    +0.000 A 
ATOM      8  C   UNL     1      -3.943  -6.643  -0.405  0.00  0.00    +0.000 A 
ATOM      9  C   UNL     1      -1.095  -5.926   1.820  0.00  0.00    +0.000 A 
ATOM     10  C   UNL     1      -3.791  -6.336   2.119  0.00  0.00    +0.000 A 
ATOM     11  C   UNL     1      -1.638  -5.878   3.103  0.00  0.00    +0.000 A 
ATOM     12  C   UNL     1      -3.017  -6.089   3.258  0.00  0.00    +0.000 A 
ATOM     13  C   UNL     1      -3.913  -7.430  -2.745  0.00  0.00    +0.000 A 
ATOM     14  C   UNL     1      -5.338  -6.474  -0.505  0.00  0.00    +0.000 A 
ATOM     15  C   UNL     1      -5.277  -7.253  -2.783  0.00  0.00    +0.000 A 
ATOM     16  C   UNL     1      -5.969  -6.783  -1.696  0.00  0.00    +0.000 A 
ATOM     17  C   UNL     1      -0.844  -5.625   4.234  0.00  0.00    +0.000 A 
ATOM     18  C   UNL     1      -3.579  -6.048   4.545  0.00  0.00    +0.000 A 
ATOM     19  C   UNL     1      -1.415  -5.586   5.506  0.00  0.00    +0.000 A 
ATOM     20  C   UNL     1      -7.371  -7.129  -3.307  0.00  0.00    +0.000 C 
ATOM     21  C   UNL     1      -2.781  -5.797   5.662  0.00  0.00    +0.000 A 
ENDROOT
BRANCH  17  22
ATOM     22  O   UNL     1       0.501  -5.415   4.111  0.00  0.00    +0.000 OA
ATOM     23  C   UNL     1       0.954  -4.068   4.204  0.00  0.00    +0.000 C 
ENDBRANCH  17  22
BRANCH  19  24
ATOM     24  O   UNL     1      -0.647  -5.342   6.605  0.00  0.00    +0.000 OA
ATOM     25  C   UNL     1      -1.092  -4.317   7.493  0.00  0.00    +0.000 C 
ENDBRANCH  19  24
TORSDOF 2
ENDMDL
MODEL 3
REMARK VINA RESULT:    -4.330      2.142      7.963
REMARK INTER + INTRA:          -5.291
REMARK INTER:                  -4.926
REMARK INTRA:                  -0.365
REMARK CONF_INDEPENDENT:        0.597
REMARK UNBOUND:                 0.365
REMARK  Name = 2353
REMARK  4 active torsions:
REMARK  status: ('A' for Active; 'I' for Inactive)
REMARK    1  A    between atoms: O_3  and  C_19
REMARK    2  A    between atoms: O_3  and  C_24
REMARK    3  A    between atoms: O_4  and  C_21
REMARK    4  A    between atoms: O_4  and  C_25
REMARK                            x       y       z     vdW  Elec       q    Type
REMARK                         _______ _______ _______ _____ _____    ______ ____
ROOT
ATOM      1  O   UNL     1      -6.406  -7.495  -1.349  0.00  0.00    +0.000 OA
ATOM      2  O   UNL     1      -7.060  -6.199   0.572  0.00  0.00    +0.000 OA
ATOM      3  N   UNL     1      -1.110  -5.909   1.820  0.00  0.00    +0.000 N 
ATOM      4  C   UNL     1      -0.781  -6.221   0.406  0.00  0.00    +0.000 C 
ATOM      5  C   UNL     1      -1.622  -7.391  -0.069  0.00  0.00    +0.000 C 
ATOM      6  C   UNL     1      -2.401  -5.915   2.263  0.00  0.00    +0.000 A 
ATOM      7  C   UNL     1      -3.073  -7.056   0.134  0.00  0.00    +0.000 A 
ATOM      8  C   UNL     1      -3.438  -6.312   1.291  0.00  0.00    +0.000 A 
ATOM      9  C   UNL     1      -0.092  -5.567   2.642  0.00  0.00    +0.000 A 
ATOM     10  C   UNL     1      -2.660  -5.582   3.604  0.00  0.00    +0.000 A 
ATOM     11  C   UNL     1      -0.305  -5.225   3.976  0.00  0.00    +0.000 A 
ATOM     12  C   UNL     1      -1.618  -5.234   4.471  0.00  0.00    +0.000 A 
ATOM     13  C   UNL     1      -4.032  -7.500  -0.790  0.00  0.00    +0.000 A 
ATOM     14  C   UNL     1      -4.798  -5.991   1.469  0.00  0.00    +0.000 A 
ATOM     15  C   UNL     1      -5.347  -7.165  -0.562  0.00  0.00    +0.000 A 
ATOM     16  C   UNL     1      -5.719  -6.427   0.534  0.00  0.00    +0.000 A 
ATOM     17  C   UNL     1       0.755  -4.875   4.829  0.00  0.00    +0.000 A 
ATOM     18  C   UNL     1      -1.850  -4.895   5.814  0.00  0.00    +0.000 A 
ATOM     19  C   UNL     1       0.511  -4.540   6.161  0.00  0.00    +0.000 A 
ATOM     20  C   UNL     1      -7.489  -6.879  -0.624  0.00  0.00    +0.000 C 
ATOM     21  C   UNL     1      -0.790  -4.550   6.654  0.00  0.00    +0.000 A 
ENDROOT
BRANCH  17  22
ATOM     22  O   UNL     1       2.043  -4.858   4.373  0.00  0.00    +0.000 OA
ATOM     23  C   UNL     1       2.476  -3.674   3.709  0.00  0.00    +0.000 C 
ENDBRANCH  17  22
BRANCH  19  24
ATOM     24  O   UNL     1       1.537  -4.201   6.991  0.00  0.00    +0.000 OA
ATOM     25  C   UNL     1       1.746  -2.810   7.230  0.00  0.00    +0.000 C 
ENDBRANCH  19  24
TORSDOF 2
ENDMDL
MODEL 4
REMARK VINA RESULT:    -4.271      2.549      4.065
REMARK INTER + INTRA:          -5.205
REMARK INTER:                  -4.868
REMARK INTRA:                  -0.337
REMARK CONF_INDEPENDENT:        0.597
REMARK UNBOUND:                 0.337
REMARK  Name = 2353
REMARK  4 active torsions:
REMARK  status: ('A' for Active; 'I' for Inactive)
REMARK    1  A    between atoms: O_3  and  C_19
REMARK    2  A    between atoms: O_3  and  C_24
REMARK    3  A    between atoms: O_4  and  C_21
REMARK    4  A    between atoms: O_4  and  C_25
REMARK                            x       y       z     vdW  Elec       q    Type
REMARK                         _______ _______ _______ _____ _____    ______ ____
ROOT
ATOM      1  O   UNL     1       3.216  -4.615   3.888  0.00  0.00    +0.000 OA
ATOM      2  O   UNL     1       2.971  -4.792   1.499  0.00  0.00    +0.000 OA
ATOM      3  N   UNL     1      -2.970  -5.488   2.627  0.00  0.00    +0.000 N 
ATOM      4  C   UNL     1      -2.808  -4.853   3.960  0.00  0.00    +0.000 C 
ATOM      5  C   UNL     1      -1.605  -5.447   4.667  0.00  0.00    +0.000 C 
ATOM      6  C   UNL     1      -1.892  -5.739   1.829  0.00  0.00    +0.000 A 
ATOM      7  C   UNL     1      -0.397  -5.280   3.789  0.00  0.00    +0.000 A 
ATOM      8  C   UNL     1      -0.563  -5.415   2.382  0.00  0.00    +0.000 A 
ATOM      9  C   UNL     1      -4.227  -5.760   2.209  0.00  0.00    +0.000 A 
ATOM     10  C   UNL     1      -2.103  -6.313   0.563  0.00  0.00    +0.000 A 
ATOM     11  C   UNL     1      -4.482  -6.323   0.960  0.00  0.00    +0.000 A 
ATOM     12  C   UNL     1      -3.397  -6.609   0.117  0.00  0.00    +0.000 A 
ATOM     13  C   UNL     1       0.858  -5.024   4.363  0.00  0.00    +0.000 A 
ATOM     14  C   UNL     1       0.572  -5.245   1.564  0.00  0.00    +0.000 A 
ATOM     15  C   UNL     1       1.933  -4.875   3.516  0.00  0.00    +0.000 A 
ATOM     16  C   UNL     1       1.792  -4.978   2.155  0.00  0.00    +0.000 A 
ATOM     17  C   UNL     1      -5.788  -6.610   0.529  0.00  0.00    +0.000 A 
ATOM     18  C   UNL     1      -3.636  -7.181  -1.143  0.00  0.00    +0.000 A 
ATOM     19  C   UNL     1      -6.012  -7.177  -0.725  0.00  0.00    +0.000 A 
ATOM     20  C   UNL     1       3.868  -4.562   2.603  0.00  0.00    +0.000 C 
ATOM     21  C   UNL     1      -4.937  -7.463  -1.561  0.00  0.00    +0.000 A 
ENDROOT
BRANCH  17  22
ATOM     22  O   UNL     1      -6.863  -6.341   1.329  0.00  0.00    +0.000 OA
ATOM     23  C   UNL     1      -7.302  -4.987   1.385  0.00  0.00    +0.000 C 
ENDBRANCH  17  22
BRANCH  19  24
ATOM     24  O   UNL     1      -7.278  -7.457  -1.145  0.00  0.00    +0.000 OA
ATOM     25  C   UNL     1      -7.500  -7.496  -2.554  0.00  0.00    +0.000 C 
ENDBRANCH  19  24
TORSDOF 2
ENDMDL
MODEL 5
REMARK VINA RESULT:    -4.137      2.356      7.900
REMARK INTER + INTRA:          -5.079
REMARK INTER:                  -4.733
REMARK INTRA:                  -0.346
REMARK CONF_INDEPENDENT:        0.597
REMARK UNBOUND:                 0.346
REMARK  Name = 2353
REMARK  4 active torsions:
REMARK  status: ('A' for Active; 'I' for Inactive)
REMARK    1  A    between atoms: O_3  and  C_19
REMARK    2  A    between atoms: O_3  and  C_24
REMARK    3  A    between atoms: O_4  and  C_21
REMARK    4  A    between atoms: O_4  and  C_25
REMARK                            x       y       z     vdW  Elec       q    Type
REMARK                         _______ _______ _______ _____ _____    ______ ____
ROOT
ATOM      1  O   UNL     1      -7.500  -6.980  -0.782  0.00  0.00    +0.000 OA
ATOM      2  O   UNL     1      -5.610  -7.449  -2.199  0.00  0.00    +0.000 OA
ATOM      3  N   UNL     1      -2.212  -5.889   2.604  0.00  0.00    +0.000 N 
ATOM      4  C   UNL     1      -3.356  -6.142   3.517  0.00  0.00    +0.000 C 
ATOM      5  C   UNL     1      -4.610  -5.496   2.958  0.00  0.00    +0.000 C 
ATOM      6  C   UNL     1      -2.356  -5.976   1.250  0.00  0.00    +0.000 A 
ATOM      7  C   UNL     1      -4.843  -6.018   1.568  0.00  0.00    +0.000 A 
ATOM      8  C   UNL     1      -3.712  -6.262   0.740  0.00  0.00    +0.000 A 
ATOM      9  C   UNL     1      -1.010  -5.622   3.162  0.00  0.00    +0.000 A 
ATOM     10  C   UNL     1      -1.234  -5.758   0.432  0.00  0.00    +0.000 A 
ATOM     11  C   UNL     1       0.129  -5.405   2.389  0.00  0.00    +0.000 A 
ATOM     12  C   UNL     1       0.016  -5.472   0.992  0.00  0.00    +0.000 A 
ATOM     13  C   UNL     1      -6.153  -6.226   1.107  0.00  0.00    +0.000 A 
ATOM     14  C   UNL     1      -3.938  -6.763  -0.557  0.00  0.00    +0.000 A 
ATOM     15  C   UNL     1      -6.314  -6.708  -0.172  0.00  0.00    +0.000 A 
ATOM     16  C   UNL     1      -5.237  -6.974  -0.979  0.00  0.00    +0.000 A 
ATOM     17  C   UNL     1       1.376  -5.122   2.971  0.00  0.00    +0.000 A 
ATOM     18  C   UNL     1       1.154  -5.251   0.198  0.00  0.00    +0.000 A 
ATOM     19  C   UNL     1       2.499  -4.906   2.171  0.00  0.00    +0.000 A 
ATOM     20  C   UNL     1      -7.045  -7.450  -2.067  0.00  0.00    +0.000 C 
ATOM     21  C   UNL     1       2.388  -4.970   0.786  0.00  0.00    +0.000 A 
ENDROOT
BRANCH  17  22
ATOM     22  O   UNL     1       1.515  -5.052   4.329  0.00  0.00    +0.000 OA
ATOM     23  C   UNL     1       1.211  -3.804   4.944  0.00  0.00    +0.000 C 
ENDBRANCH  17  22
BRANCH  19  24
ATOM     24  O   UNL     1       3.709  -4.631   2.733  0.00  0.00    +0.000 OA
ATOM     25  C   UNL     1       4.304  -5.657   3.526  0.00  0.00    +0.000 C 
ENDBRANCH  19  24
TORSDOF 2
ENDMDL
MODEL 6
REMARK VINA RESULT:    -4.130      2.032      8.022
REMARK INTER + INTRA:          -5.065
REMARK INTER:                  -4.726
REMARK INTRA:                  -0.338
REMARK CONF_INDEPENDENT:        0.597
REMARK UNBOUND:                 0.338
REMARK  Name = 2353
REMARK  4 active torsions:
REMARK  status: ('A' for Active; 'I' for Inactive)
REMARK    1  A    between atoms: O_3  and  C_19
REMARK    2  A    between atoms: O_3  and  C_24
REMARK    3  A    between atoms: O_4  and  C_21
REMARK    4  A    between atoms: O_4  and  C_25
REMARK                            x       y       z     vdW  Elec       q    Type
REMARK                         _______ _______ _______ _____ _____    ______ ____
ROOT
ATOM      1  O   UNL     1      -1.757  -7.415  -5.792  0.00  0.00    +0.000 OA
ATOM      2  O   UNL     1       0.298  -7.367  -4.539  0.00  0.00    +0.000 OA
ATOM      3  N   UNL     1      -3.255  -6.911   0.382  0.00  0.00    +0.000 N 
ATOM      4  C   UNL     1      -4.404  -7.470  -0.375  0.00  0.00    +0.000 C 
ATOM      5  C   UNL     1      -4.512  -6.784  -1.724  0.00  0.00    +0.000 C 
ATOM      6  C   UNL     1      -2.066  -6.646  -0.233  0.00  0.00    +0.000 A 
ATOM      7  C   UNL     1      -3.204  -6.935  -2.448  0.00  0.00    +0.000 A 
ATOM      8  C   UNL     1      -2.002  -6.877  -1.689  0.00  0.00    +0.000 A 
ATOM      9  C   UNL     1      -3.411  -6.722   1.712  0.00  0.00    +0.000 A 
ATOM     10  C   UNL     1      -1.001  -6.147   0.536  0.00  0.00    +0.000 A 
ATOM     11  C   UNL     1      -2.380  -6.234   2.512  0.00  0.00    +0.000 A 
ATOM     12  C   UNL     1      -1.147  -5.937   1.912  0.00  0.00    +0.000 A 
ATOM     13  C   UNL     1      -3.189  -7.099  -3.842  0.00  0.00    +0.000 A 
ATOM     14  C   UNL     1      -0.780  -7.031  -2.374  0.00  0.00    +0.000 A 
ATOM     15  C   UNL     1      -1.967  -7.237  -4.459  0.00  0.00    +0.000 A 
ATOM     16  C   UNL     1      -0.796  -7.208  -3.744  0.00  0.00    +0.000 A 
ATOM     17  C   UNL     1      -2.545  -6.034   3.893  0.00  0.00    +0.000 A 
ATOM     18  C   UNL     1      -0.098  -5.440   2.704  0.00  0.00    +0.000 A 
ATOM     19  C   UNL     1      -1.496  -5.541   4.668  0.00  0.00    +0.000 A 
ATOM     20  C   UNL     1      -0.319  -7.498  -5.835  0.00  0.00    +0.000 C 
ATOM     21  C   UNL     1      -0.273  -5.244   4.075  0.00  0.00    +0.000 A 
ENDROOT
BRANCH  17  22
ATOM     22  O   UNL     1      -3.736  -6.316   4.503  0.00  0.00    +0.000 OA
ATOM     23  C   UNL     1      -4.538  -5.205   4.894  0.00  0.00    +0.000 C 
ENDBRANCH  17  22
BRANCH  19  24
ATOM     24  O   UNL     1      -1.654  -5.345   6.007  0.00  0.00    +0.000 OA
ATOM     25  C   UNL     1      -0.550  -4.783   6.715  0.00  0.00    +0.000 C 
ENDBRANCH  19  24
TORSDOF 2
ENDMDL
MODEL 7
REMARK VINA RESULT:    -3.828      2.198      7.379
REMARK INTER + INTRA:          -4.788
REMARK INTER:                  -4.424
REMARK INTRA:                  -0.364
REMARK CONF_INDEPENDENT:        0.597
REMARK UNBOUND:                 0.364
REMARK  Name = 2353
REMARK  4 active torsions:
REMARK  status: ('A' for Active; 'I' for Inactive)
REMARK    1  A    between atoms: O_3  and  C_19
REMARK    2  A    between atoms: O_3  and  C_24
REMARK    3  A    between atoms: O_4  and  C_21
REMARK    4  A    between atoms: O_4  and  C_25
REMARK                            x       y       z     vdW  Elec       q    Type
REMARK                         _______ _______ _______ _____ _____    ______ ____
ROOT
ATOM      1  O   UNL     1      -3.114  -6.887  -4.409  0.00  0.00    +0.000 OA
ATOM      2  O   UNL     1      -4.968  -5.458  -3.844  0.00  0.00    +0.000 OA
ATOM      3  N   UNL     1      -3.077  -6.062   1.910  0.00  0.00    +0.000 N 
ATOM      4  C   UNL     1      -1.724  -6.456   1.442  0.00  0.00    +0.000 C 
ATOM      5  C   UNL     1      -1.845  -7.492   0.341  0.00  0.00    +0.000 C 
ATOM      6  C   UNL     1      -4.098  -5.856   1.028  0.00  0.00    +0.000 A 
ATOM      7  C   UNL     1      -2.705  -6.932  -0.757  0.00  0.00    +0.000 A 
ATOM      8  C   UNL     1      -3.810  -6.112  -0.397  0.00  0.00    +0.000 A 
ATOM      9  C   UNL     1      -3.250  -5.861   3.237  0.00  0.00    +0.000 A 
ATOM     10  C   UNL     1      -5.351  -5.454   1.522  0.00  0.00    +0.000 A 
ATOM     11  C   UNL     1      -4.473  -5.457   3.768  0.00  0.00    +0.000 A 
ATOM     12  C   UNL     1      -5.550  -5.250   2.892  0.00  0.00    +0.000 A 
ATOM     13  C   UNL     1      -2.424  -7.245  -2.096  0.00  0.00    +0.000 A 
ATOM     14  C   UNL     1      -4.604  -5.581  -1.432  0.00  0.00    +0.000 A 
ATOM     15  C   UNL     1      -3.238  -6.705  -3.066  0.00  0.00    +0.000 A 
ATOM     16  C   UNL     1      -4.295  -5.892  -2.742  0.00  0.00    +0.000 A 
ATOM     17  C   UNL     1      -4.652  -5.255   5.146  0.00  0.00    +0.000 A 
ATOM     18  C   UNL     1      -6.792  -4.847   3.411  0.00  0.00    +0.000 A 
ATOM     19  C   UNL     1      -5.890  -4.853   5.649  0.00  0.00    +0.000 A 
ATOM     20  C   UNL     1      -4.214  -6.092  -4.895  0.00  0.00    +0.000 C 
ATOM     21  C   UNL     1      -6.959  -4.650   4.782  0.00  0.00    +0.000 A 
ENDROOT
BRANCH  17  22
ATOM     22  O   UNL     1      -3.620  -5.448   6.021  0.00  0.00    +0.000 OA
ATOM     23  C   UNL     1      -3.447  -6.766   6.532  0.00  0.00    +0.000 C 
ENDBRANCH  17  22
BRANCH  19  24
ATOM     24  O   UNL     1      -6.066  -4.657   6.985  0.00  0.00    +0.000 OA
ATOM     25  C   UNL     1      -6.121  -3.306   7.441  0.00  0.00    +0.000 C 
ENDBRANCH  19  24
TORSDOF 2
ENDMDL
MODEL 8
REMARK VINA RESULT:    -3.690      3.137      5.055
REMARK INTER + INTRA:          -4.622
REMARK INTER:                  -4.287
REMARK INTRA:                  -0.336
REMARK CONF_INDEPENDENT:        0.597
REMARK UNBOUND:                 0.336
REMARK  Name = 2353
REMARK  4 active torsions:
REMARK  status: ('A' for Active; 'I' for Inactive)
REMARK    1  A    between atoms: O_3  and  C_19
REMARK    2  A    between atoms: O_3  and  C_24
REMARK    3  A    between atoms: O_4  and  C_21
REMARK    4  A    between atoms: O_4  and  C_25
REMARK                            x       y       z     vdW  Elec       q    Type
REMARK                         _______ _______ _______ _____ _____    ______ ____
ROOT
ATOM      1  O   UNL     1       4.327  -4.293   5.739  0.00  0.00    +0.000 OA
ATOM      2  O   UNL     1       4.366  -5.397   3.599  0.00  0.00    +0.000 OA
ATOM      3  N   UNL     1      -1.635  -4.387   3.488  0.00  0.00    +0.000 N 
ATOM      4  C   UNL     1      -1.488  -3.300   4.490  0.00  0.00    +0.000 C 
ATOM      5  C   UNL     1      -0.598  -3.768   5.626  0.00  0.00    +0.000 C 
ATOM      6  C   UNL     1      -0.569  -5.152   3.114  0.00  0.00    +0.000 A 
ATOM      7  C   UNL     1       0.716  -4.220   5.055  0.00  0.00    +0.000 A 
ATOM      8  C   UNL     1       0.712  -4.893   3.801  0.00  0.00    +0.000 A 
ATOM      9  C   UNL     1      -2.850  -4.557   2.920  0.00  0.00    +0.000 A 
ATOM     10  C   UNL     1      -0.756  -6.147   2.139  0.00  0.00    +0.000 A 
ATOM     11  C   UNL     1      -3.078  -5.528   1.946  0.00  0.00    +0.000 A 
ATOM     12  C   UNL     1      -2.009  -6.343   1.546  0.00  0.00    +0.000 A 
ATOM     13  C   UNL     1       1.905  -3.999   5.768  0.00  0.00    +0.000 A 
ATOM     14  C   UNL     1       1.949  -5.304   3.266  0.00  0.00    +0.000 A 
ATOM     15  C   UNL     1       3.083  -4.429   5.202  0.00  0.00    +0.000 A 
ATOM     16  C   UNL     1       3.105  -5.059   3.983  0.00  0.00    +0.000 A 
ATOM     17  C   UNL     1      -4.343  -5.706   1.360  0.00  0.00    +0.000 A 
ATOM     18  C   UNL     1      -2.223  -7.329   0.569  0.00  0.00    +0.000 A 
ATOM     19  C   UNL     1      -4.542  -6.688   0.390  0.00  0.00    +0.000 A 
ATOM     20  C   UNL     1       5.135  -4.908   4.716  0.00  0.00    +0.000 C 
ATOM     21  C   UNL     1      -3.483  -7.500  -0.006  0.00  0.00    +0.000 A 
ENDROOT
BRANCH  17  22
ATOM     22  O   UNL     1      -5.402  -4.925   1.730  0.00  0.00    +0.000 OA
ATOM     23  C   UNL     1      -6.068  -5.274   2.939  0.00  0.00    +0.000 C 
ENDBRANCH  17  22
BRANCH  19  24
ATOM     24  O   UNL     1      -5.767  -6.865  -0.179  0.00  0.00    +0.000 OA
ATOM     25  C   UNL     1      -5.797  -7.387  -1.506  0.00  0.00    +0.000 C 
ENDBRANCH  19  24
TORSDOF 2
ENDMDL
MODEL 9
REMARK VINA RESULT:    -3.566      1.929      3.874
REMARK INTER + INTRA:          -4.520
REMARK INTER:                  -4.163
REMARK INTRA:                  -0.357
REMARK CONF_INDEPENDENT:        0.597
REMARK UNBOUND:                 0.357
REMARK  Name = 2353
REMARK  4 active torsions:
REMARK  status: ('A' for Active; 'I' for Inactive)
REMARK    1  A    between atoms: O_3  and  C_19
REMARK    2  A    between atoms: O_3  and  C_24
REMARK    3  A    between atoms: O_4  and  C_21
REMARK    4  A    between atoms: O_4  and  C_25
REMARK                            x       y       z     vdW  Elec       q    Type
REMARK                         _______ _______ _______ _____ _____    ______ ____
ROOT
ATOM      1  O   UNL     1      -0.343  -4.917   6.096  0.00  0.00    +0.000 OA
ATOM      2  O   UNL     1       1.309  -4.283   4.462  0.00  0.00    +0.000 OA
ATOM      3  N   UNL     1      -2.682  -6.297   0.331  0.00  0.00    +0.000 N 
ATOM      4  C   UNL     1      -3.792  -6.153   1.308  0.00  0.00    +0.000 C 
ATOM      5  C   UNL     1      -3.382  -6.751   2.640  0.00  0.00    +0.000 C 
ATOM      6  C   UNL     1      -1.387  -6.072   0.695  0.00  0.00    +0.000 A 
ATOM      7  C   UNL     1      -2.111  -6.090   3.095  0.00  0.00    +0.000 A 
ATOM      8  C   UNL     1      -1.140  -5.748   2.114  0.00  0.00    +0.000 A 
ATOM      9  C   UNL     1      -3.005  -6.608  -0.945  0.00  0.00    +0.000 A 
ATOM     10  C   UNL     1      -0.378  -6.192  -0.276  0.00  0.00    +0.000 A 
ATOM     11  C   UNL     1      -2.037  -6.732  -1.940  0.00  0.00    +0.000 A 
ATOM     12  C   UNL     1      -0.692  -6.521  -1.599  0.00  0.00    +0.000 A 
ATOM     13  C   UNL     1      -1.896  -5.849   4.462  0.00  0.00    +0.000 A 
ATOM     14  C   UNL     1       0.044  -5.118   2.547  0.00  0.00    +0.000 A 
ATOM     15  C   UNL     1      -0.718  -5.238   4.828  0.00  0.00    +0.000 A 
ATOM     16  C   UNL     1       0.222  -4.878   3.896  0.00  0.00    +0.000 A 
ATOM     17  C   UNL     1      -2.374  -7.060  -3.264  0.00  0.00    +0.000 A 
ATOM     18  C   UNL     1       0.296  -6.646  -2.590  0.00  0.00    +0.000 A 
ATOM     19  C   UNL     1      -1.382  -7.180  -4.238  0.00  0.00    +0.000 A 
ATOM     20  C   UNL     1       0.943  -4.311   5.856  0.00  0.00    +0.000 C 
ATOM     21  C   UNL     1      -0.048  -6.973  -3.902  0.00  0.00    +0.000 A 
ENDROOT
BRANCH  17  22
ATOM     22  O   UNL     1      -3.676  -7.269  -3.623  0.00  0.00    +0.000 OA
ATOM     23  C   UNL     1      -4.451  -6.117  -3.938  0.00  0.00    +0.000 C 
ENDBRANCH  17  22
BRANCH  19  24
ATOM     24  O   UNL     1      -1.706  -7.499  -5.522  0.00  0.00    +0.000 OA
ATOM     25  C   UNL     1      -1.139  -6.691  -6.554  0.00  0.00    +0.000 C 
ENDBRANCH  19  24
TORSDOF 2
ENDMDL
