MODEL 1
REMARK VINA RESULT:   604.336      0.000      0.000
REMARK INTER + INTRA:         605.229
REMARK INTER:                 599.861
REMARK INTRA:                   5.368
REMARK CONF_INDEPENDENT:        4.474
REMARK UNBOUND:                -5.368
REMARK  Name = 60823
REMARK  17 active torsions:
REMARK  status: ('A' for Active; 'I' for Inactive)
REMARK    1  A    between atoms: O_2  and  C_16
REMARK    2  A    between atoms: O_3  and  C_22
REMARK    3  A    between atoms: O_5  and  C_35
REMARK    4  A    between atoms: N_7  and  C_10
REMARK    5  A    between atoms: N_8  and  C_34
REMARK    6  A    between atoms: C_9  and  C_12
REMARK    7  A    between atoms: C_10  and  C_13
REMARK    8  A    between atoms: C_11  and  C_18
REMARK    9  A    between atoms: C_12  and  C_19
REMARK   10  A    between atoms: C_12  and  C_20
REMARK   11  A    between atoms: C_13  and  C_16
REMARK   12  A    between atoms: C_14  and  C_23
REMARK   13  A    between atoms: C_15  and  C_21
REMARK   14  A    between atoms: C_16  and  C_17
REMARK   15  A    between atoms: C_17  and  C_22
REMARK   16  A    between atoms: C_22  and  C_24
REMARK   17  A    between atoms: C_24  and  C_35
REMARK                            x       y       z     vdW  Elec       q    Type
REMARK                         _______ _______ _______ _____ _____    ______ ____
ROOT
ATOM      1  N   UNL     1       0.440  -1.590   0.878  0.00  0.00    +0.000 N 
ATOM      2  C   UNL     1      -0.057  -1.175  -0.331  0.00  0.00    +0.000 A 
ATOM      3  C   UNL     1       0.197  -0.632   1.827  0.00  0.00    +0.000 A 
ATOM      4  C   UNL     1      -0.626   0.066  -0.149  0.00  0.00    +0.000 A 
ATOM      5  C   UNL     1      -0.466   0.410   1.216  0.00  0.00    +0.000 A 
ENDROOT
BRANCH   3   7
ATOM      6  F   UNL     1       1.780  -1.231   7.142  0.00  0.00    +0.000 F 
ATOM      7  C   UNL     1       0.609  -0.788   3.208  0.00  0.00    +0.000 A 
ATOM      8  C   UNL     1       1.960  -0.940   3.521  0.00  0.00    +0.000 A 
ATOM      9  C   UNL     1      -0.346  -0.786   4.225  0.00  0.00    +0.000 A 
ATOM     10  C   UNL     1       2.356  -1.090   4.850  0.00  0.00    +0.000 A 
ATOM     11  C   UNL     1       0.050  -0.935   5.554  0.00  0.00    +0.000 A 
ATOM     12  C   UNL     1       1.401  -1.087   5.867  0.00  0.00    +0.000 A 
ENDBRANCH   3   7
BRANCH   5  13
ATOM     13  C   UNL     1      -0.886   1.597   1.908  0.00  0.00    +0.000 A 
ATOM     14  C   UNL     1      -1.612   1.493   3.094  0.00  0.00    +0.000 A 
ATOM     15  C   UNL     1      -0.569   2.854   1.393  0.00  0.00    +0.000 A 
ATOM     16  C   UNL     1      -2.021   2.645   3.766  0.00  0.00    +0.000 A 
ATOM     17  C   UNL     1      -0.978   4.006   2.064  0.00  0.00    +0.000 A 
ATOM     18  C   UNL     1      -1.704   3.902   3.251  0.00  0.00    +0.000 A 
ENDBRANCH   5  13
BRANCH   4  21
ATOM     19  O   UNL     1      -1.804   1.926  -0.949  0.00  0.00    +0.000 OA
ATOM     20  N   UNL     1      -1.244   0.246  -2.468  0.00  0.00    +0.000 N 
ATOM     21  C   UNL     1      -1.257   0.832  -1.188  0.00  0.00    +0.000 C 
ATOM     22  H   UNL     1      -0.773  -0.654  -2.551  0.00  0.00    +0.000 HD
BRANCH  20  23
ATOM     23  C   UNL     1      -1.808   0.731  -3.674  0.00  0.00    +0.000 A 
ATOM     24  C   UNL     1      -1.557   2.041  -4.083  0.00  0.00    +0.000 A 
ATOM     25  C   UNL     1      -2.612  -0.101  -4.453  0.00  0.00    +0.000 A 
ATOM     26  C   UNL     1      -2.112   2.518  -5.272  0.00  0.00    +0.000 A 
ATOM     27  C   UNL     1      -3.167   0.377  -5.640  0.00  0.00    +0.000 A 
ATOM     28  C   UNL     1      -2.916   1.687  -6.050  0.00  0.00    +0.000 A 
ENDBRANCH  20  23
ENDBRANCH   4  21
BRANCH   2  29
ATOM     29  C   UNL     1       0.060  -2.004  -1.550  0.00  0.00    +0.000 C 
ATOM     30  C   UNL     1      -0.070  -3.519  -1.267  0.00  0.00    +0.000 C 
ATOM     31  C   UNL     1       1.362  -1.740  -2.340  0.00  0.00    +0.000 C 
ENDBRANCH   2  29
BRANCH   1  32
ATOM     32  C   UNL     1       1.126  -2.856   1.106  0.00  0.00    +0.000 C 
BRANCH  32  33
ATOM     33  C   UNL     1       2.037  -2.850   2.341  0.00  0.00    +0.000 C 
BRANCH  33  34
ATOM     34  C   UNL     1       2.927  -4.095   2.469  0.00  0.00    +0.000 C 
BRANCH  34  35
ATOM     35  O   UNL     1       4.211  -3.781   1.923  0.00  0.00    +0.000 OA
ATOM     36  H   UNL     1       4.207  -2.838   1.688  0.00  0.00    +0.000 HD
ENDBRANCH  34  35
BRANCH  34  37
ATOM     37  C   UNL     1       3.138  -4.566   3.919  0.00  0.00    +0.000 C 
BRANCH  37  38
ATOM     38  C   UNL     1       1.882  -4.842   4.758  0.00  0.00    +0.000 C 
BRANCH  38  39
ATOM     39  O   UNL     1       1.456  -6.184   4.532  0.00  0.00    +0.000 OA
ATOM     40  H   UNL     1       0.745  -6.380   5.163  0.00  0.00    +0.000 HD
ENDBRANCH  38  39
BRANCH  38  41
ATOM     41  C   UNL     1       2.094  -4.607   6.254  0.00  0.00    +0.000 C 
BRANCH  41  43
ATOM     42  O   UNL     1       4.397  -4.497   6.977  0.00  0.00    +0.000 OA
ATOM     43  C   UNL     1       3.415  -3.928   6.518  0.00  0.00    +0.000 C 
BRANCH  43  44
ATOM     44  O   UNL     1       3.394  -2.608   6.208  0.00  0.00    +0.000 OA
ATOM     45  H   UNL     1       4.254  -2.302   5.848  0.00  0.00    +0.000 HD
ENDBRANCH  43  44
ENDBRANCH  41  43
ENDBRANCH  38  41
ENDBRANCH  37  38
ENDBRANCH  34  37
ENDBRANCH  33  34
ENDBRANCH  32  33
ENDBRANCH   1  32
TORSDOF 15
ENDMDL
