MODEL 1
REMARK VINA RESULT:    -8.499      0.000      0.000
REMARK INTER + INTRA:          -9.548
REMARK INTER:                  -8.797
REMARK INTRA:                  -0.751
REMARK CONF_INDEPENDENT:        0.298
REMARK UNBOUND:                 0.751
REMARK  Name = 4091
REMARK  3 active torsions:
REMARK  status: ('A' for Active; 'I' for Inactive)
REMARK    1  A    between atoms: N_1  and  C_6
REMARK    2  A    between atoms: N_1  and  C_7
REMARK    3  A    between atoms: N_2  and  C_8
REMARK                            x       y       z     vdW  Elec       q    Type
REMARK                         _______ _______ _______ _____ _____    ______ ____
ROOT
ATOM      1  N   UNL     1       0.554   1.024  -4.184  0.00  0.00    +0.000 NA
ATOM      2  N   UNL     1      -1.585   1.726  -3.570  0.00  0.00    +0.000 N 
ATOM      3  N   UNL     1      -1.413  -0.279  -4.651  0.00  0.00    +0.000 N 
ATOM      4  C   UNL     1      -0.737   0.812  -4.150  0.00  0.00    +0.000 C 
ATOM      5  H   UNL     1      -2.587   1.573  -3.537  0.00  0.00    +0.000 HD
ATOM      6  H   UNL     1      -1.229   2.581  -3.159  0.00  0.00    +0.000 HD
ATOM      7  H   UNL     1      -0.931  -1.045  -5.108  0.00  0.00    +0.000 HD
ATOM      8  H   UNL     1      -2.422  -0.351  -4.574  0.00  0.00    +0.000 HD
ENDROOT
BRANCH   1  13
ATOM      9  N   UNL     1       2.448  -0.482  -4.116  0.00  0.00    +0.000 N 
ATOM     10  N   UNL     1       0.956  -0.281  -5.977  0.00  0.00    +0.000 NA
ATOM     11  C   UNL     1       2.830  -0.050  -2.776  0.00  0.00    +0.000 C 
ATOM     12  C   UNL     1       3.209  -1.594  -4.675  0.00  0.00    +0.000 C 
ATOM     13  C   UNL     1       1.345   0.062  -4.784  0.00  0.00    +0.000 C 
ATOM     14  H   UNL     1       1.576  -0.996  -6.365  0.00  0.00    +0.000 HD
ENDBRANCH   1  13
TORSDOF 1
ENDMDL
MODEL 2
REMARK VINA RESULT:    -8.192      1.458      3.739
REMARK INTER + INTRA:          -8.720
REMARK INTER:                  -8.491
REMARK INTRA:                  -0.230
REMARK CONF_INDEPENDENT:        0.298
REMARK UNBOUND:                 0.230
REMARK  Name = 4091
REMARK  3 active torsions:
REMARK  status: ('A' for Active; 'I' for Inactive)
REMARK    1  A    between atoms: N_1  and  C_6
REMARK    2  A    between atoms: N_1  and  C_7
REMARK    3  A    between atoms: N_2  and  C_8
REMARK                            x       y       z     vdW  Elec       q    Type
REMARK                         _______ _______ _______ _____ _____    ______ ____
ROOT
ATOM      1  N   UNL     1       1.448  -0.313  -3.425  0.00  0.00    +0.000 NA
ATOM      2  N   UNL     1       3.661  -0.666  -2.777  0.00  0.00    +0.000 N 
ATOM      3  N   UNL     1       3.304   0.701  -4.572  0.00  0.00    +0.000 N 
ATOM      4  C   UNL     1       2.725  -0.090  -3.602  0.00  0.00    +0.000 C 
ATOM      5  H   UNL     1       4.653  -0.501  -2.903  0.00  0.00    +0.000 HD
ATOM      6  H   UNL     1       3.383  -1.276  -2.016  0.00  0.00    +0.000 HD
ATOM      7  H   UNL     1       2.748   1.198  -5.259  0.00  0.00    +0.000 HD
ATOM      8  H   UNL     1       4.310   0.811  -4.626  0.00  0.00    +0.000 HD
ENDROOT
BRANCH   1  13
ATOM      9  N   UNL     1       0.476  -0.100  -5.633  0.00  0.00    +0.000 N 
ATOM     10  N   UNL     1      -0.160   1.233  -3.749  0.00  0.00    +0.000 NA
ATOM     11  C   UNL     1       1.320  -1.156  -6.180  0.00  0.00    +0.000 C 
ATOM     12  C   UNL     1      -0.544   0.437  -6.526  0.00  0.00    +0.000 C 
ATOM     13  C   UNL     1       0.564   0.300  -4.294  0.00  0.00    +0.000 C 
ATOM     14  H   UNL     1      -0.794   1.644  -4.438  0.00  0.00    +0.000 HD
ENDBRANCH   1  13
TORSDOF 1
ENDMDL
MODEL 3
REMARK VINA RESULT:    -7.944      1.494      3.656
REMARK INTER + INTRA:          -8.990
REMARK INTER:                  -8.242
REMARK INTRA:                  -0.749
REMARK CONF_INDEPENDENT:        0.298
REMARK UNBOUND:                 0.749
REMARK  Name = 4091
REMARK  3 active torsions:
REMARK  status: ('A' for Active; 'I' for Inactive)
REMARK    1  A    between atoms: N_1  and  C_6
REMARK    2  A    between atoms: N_1  and  C_7
REMARK    3  A    between atoms: N_2  and  C_8
REMARK                            x       y       z     vdW  Elec       q    Type
REMARK                         _______ _______ _______ _____ _____    ______ ____
ROOT
ATOM      1  N   UNL     1       2.222   0.307  -3.619  0.00  0.00    +0.000 NA
ATOM      2  N   UNL     1       3.461  -0.526  -1.826  0.00  0.00    +0.000 N 
ATOM      3  N   UNL     1       3.206  -1.888  -3.642  0.00  0.00    +0.000 N 
ATOM      4  C   UNL     1       2.919  -0.662  -3.082  0.00  0.00    +0.000 C 
ATOM      5  H   UNL     1       4.004  -1.269  -1.400  0.00  0.00    +0.000 HD
ATOM      6  H   UNL     1       3.332   0.325  -1.290  0.00  0.00    +0.000 HD
ATOM      7  H   UNL     1       2.879  -2.144  -4.567  0.00  0.00    +0.000 HD
ATOM      8  H   UNL     1       3.759  -2.576  -3.143  0.00  0.00    +0.000 HD
ENDROOT
BRANCH   1  13
ATOM      9  N   UNL     1       0.357   0.349  -5.163  0.00  0.00    +0.000 N 
ATOM     10  N   UNL     1       2.580  -0.314  -5.756  0.00  0.00    +0.000 NA
ATOM     11  C   UNL     1      -0.570   0.813  -4.137  0.00  0.00    +0.000 C 
ATOM     12  C   UNL     1      -0.171   0.270  -6.520  0.00  0.00    +0.000 C 
ATOM     13  C   UNL     1       1.706   0.100  -4.885  0.00  0.00    +0.000 C 
ATOM     14  H   UNL     1       2.141  -0.445  -6.670  0.00  0.00    +0.000 HD
ENDBRANCH   1  13
TORSDOF 1
ENDMDL
MODEL 4
REMARK VINA RESULT:    -7.776      1.589      4.280
REMARK INTER + INTRA:          -8.826
REMARK INTER:                  -8.074
REMARK INTRA:                  -0.753
REMARK CONF_INDEPENDENT:        0.298
REMARK UNBOUND:                 0.753
REMARK  Name = 4091
REMARK  3 active torsions:
REMARK  status: ('A' for Active; 'I' for Inactive)
REMARK    1  A    between atoms: N_1  and  C_6
REMARK    2  A    between atoms: N_1  and  C_7
REMARK    3  A    between atoms: N_2  and  C_8
REMARK                            x       y       z     vdW  Elec       q    Type
REMARK                         _______ _______ _______ _____ _____    ______ ____
ROOT
ATOM      1  N   UNL     1       1.917  -0.690  -5.139  0.00  0.00    +0.000 NA
ATOM      2  N   UNL     1       3.955  -1.155  -6.174  0.00  0.00    +0.000 N 
ATOM      3  N   UNL     1       3.792   0.812  -5.024  0.00  0.00    +0.000 N 
ATOM      4  C   UNL     1       3.147  -0.341  -5.416  0.00  0.00    +0.000 C 
ATOM      5  H   UNL     1       4.910  -0.897  -6.395  0.00  0.00    +0.000 HD
ATOM      6  H   UNL     1       3.615  -2.040  -6.534  0.00  0.00    +0.000 HD
ATOM      7  H   UNL     1       3.334   1.516  -4.457  0.00  0.00    +0.000 HD
ATOM      8  H   UNL     1       4.754   0.991  -5.291  0.00  0.00    +0.000 HD
ENDROOT
BRANCH   1  13
ATOM      9  N   UNL     1      -0.130   0.550  -4.764  0.00  0.00    +0.000 N 
ATOM     10  N   UNL     1       1.752   0.580  -3.284  0.00  0.00    +0.000 NA
ATOM     11  C   UNL     1      -0.731   0.062  -6.000  0.00  0.00    +0.000 C 
ATOM     12  C   UNL     1      -0.990   1.352  -3.901  0.00  0.00    +0.000 C 
ATOM     13  C   UNL     1       1.162   0.179  -4.372  0.00  0.00    +0.000 C 
ATOM     14  H   UNL     1       1.145   1.215  -2.760  0.00  0.00    +0.000 HD
ENDBRANCH   1  13
TORSDOF 1
ENDMDL
MODEL 5
REMARK VINA RESULT:    -7.652      1.204      2.036
REMARK INTER + INTRA:          -8.702
REMARK INTER:                  -7.950
REMARK INTRA:                  -0.752
REMARK CONF_INDEPENDENT:        0.298
REMARK UNBOUND:                 0.752
REMARK  Name = 4091
REMARK  3 active torsions:
REMARK  status: ('A' for Active; 'I' for Inactive)
REMARK    1  A    between atoms: N_1  and  C_6
REMARK    2  A    between atoms: N_1  and  C_7
REMARK    3  A    between atoms: N_2  and  C_8
REMARK                            x       y       z     vdW  Elec       q    Type
REMARK                         _______ _______ _______ _____ _____    ______ ____
ROOT
ATOM      1  N   UNL     1       1.113   0.426  -5.297  0.00  0.00    +0.000 NA
ATOM      2  N   UNL     1      -0.920   0.861  -6.355  0.00  0.00    +0.000 N 
ATOM      3  N   UNL     1      -0.926   0.784  -4.072  0.00  0.00    +0.000 N 
ATOM      4  C   UNL     1      -0.169   0.675  -5.219  0.00  0.00    +0.000 C 
ATOM      5  H   UNL     1      -1.914   1.055  -6.308  0.00  0.00    +0.000 HD
ATOM      6  H   UNL     1      -0.498   0.809  -7.275  0.00  0.00    +0.000 HD
ATOM      7  H   UNL     1      -0.520   0.675  -3.150  0.00  0.00    +0.000 HD
ATOM      8  H   UNL     1      -1.920   0.981  -4.117  0.00  0.00    +0.000 HD
ENDROOT
BRANCH   1  13
ATOM      9  N   UNL     1       2.651  -0.851  -3.930  0.00  0.00    +0.000 N 
ATOM     10  N   UNL     1       1.605   1.187  -3.234  0.00  0.00    +0.000 NA
ATOM     11  C   UNL     1       2.828  -1.868  -4.960  0.00  0.00    +0.000 C 
ATOM     12  C   UNL     1       3.493  -0.980  -2.746  0.00  0.00    +0.000 C 
ATOM     13  C   UNL     1       1.804   0.249  -4.113  0.00  0.00    +0.000 C 
ATOM     14  H   UNL     1       2.145   1.003  -2.384  0.00  0.00    +0.000 HD
ENDBRANCH   1  13
TORSDOF 1
ENDMDL
MODEL 6
REMARK VINA RESULT:    -7.411      1.785      2.756
REMARK INTER + INTRA:          -7.930
REMARK INTER:                  -7.709
REMARK INTRA:                  -0.221
REMARK CONF_INDEPENDENT:        0.298
REMARK UNBOUND:                 0.221
REMARK  Name = 4091
REMARK  3 active torsions:
REMARK  status: ('A' for Active; 'I' for Inactive)
REMARK    1  A    between atoms: N_1  and  C_6
REMARK    2  A    between atoms: N_1  and  C_7
REMARK    3  A    between atoms: N_2  and  C_8
REMARK                            x       y       z     vdW  Elec       q    Type
REMARK                         _______ _______ _______ _____ _____    ______ ____
ROOT
ATOM      1  N   UNL     1       0.985  -0.325  -4.870  0.00  0.00    +0.000 NA
ATOM      2  N   UNL     1      -0.320   1.183  -3.660  0.00  0.00    +0.000 N 
ATOM      3  N   UNL     1       1.856   1.761  -4.047  0.00  0.00    +0.000 N 
ATOM      4  C   UNL     1       0.873   0.813  -4.234  0.00  0.00    +0.000 C 
ATOM      5  H   UNL     1      -0.420   2.063  -3.165  0.00  0.00    +0.000 HD
ATOM      6  H   UNL     1      -1.135   0.584  -3.716  0.00  0.00    +0.000 HD
ATOM      7  H   UNL     1       2.794   1.639  -4.412  0.00  0.00    +0.000 HD
ATOM      8  H   UNL     1       1.668   2.617  -3.537  0.00  0.00    +0.000 HD
ENDROOT
BRANCH   1  13
ATOM      9  N   UNL     1       2.330  -1.580  -6.445  0.00  0.00    +0.000 N 
ATOM     10  N   UNL     1       3.208   0.044  -4.921  0.00  0.00    +0.000 NA
ATOM     11  C   UNL     1       1.173  -2.303  -6.960  0.00  0.00    +0.000 C 
ATOM     12  C   UNL     1       3.595  -1.815  -7.133  0.00  0.00    +0.000 C 
ATOM     13  C   UNL     1       2.216  -0.632  -5.422  0.00  0.00    +0.000 C 
ATOM     14  H   UNL     1       4.087  -0.223  -5.371  0.00  0.00    +0.000 HD
ENDBRANCH   1  13
TORSDOF 1
ENDMDL
MODEL 7
REMARK VINA RESULT:    -7.373      2.659      4.021
REMARK INTER + INTRA:          -8.411
REMARK INTER:                  -7.671
REMARK INTRA:                  -0.740
REMARK CONF_INDEPENDENT:        0.298
REMARK UNBOUND:                 0.740
REMARK  Name = 4091
REMARK  3 active torsions:
REMARK  status: ('A' for Active; 'I' for Inactive)
REMARK    1  A    between atoms: N_1  and  C_6
REMARK    2  A    between atoms: N_1  and  C_7
REMARK    3  A    between atoms: N_2  and  C_8
REMARK                            x       y       z     vdW  Elec       q    Type
REMARK                         _______ _______ _______ _____ _____    ______ ____
ROOT
ATOM      1  N   UNL     1       2.924  -2.550  -5.523  0.00  0.00    +0.000 NA
ATOM      2  N   UNL     1       2.317  -4.696  -6.207  0.00  0.00    +0.000 N 
ATOM      3  N   UNL     1       0.941  -2.977  -6.815  0.00  0.00    +0.000 N 
ATOM      4  C   UNL     1       2.093  -3.341  -6.152  0.00  0.00    +0.000 C 
ATOM      5  H   UNL     1       1.681  -5.319  -6.692  0.00  0.00    +0.000 HD
ATOM      6  H   UNL     1       3.128  -5.110  -5.762  0.00  0.00    +0.000 HD
ATOM      7  H   UNL     1       0.636  -2.012  -6.869  0.00  0.00    +0.000 HD
ATOM      8  H   UNL     1       0.360  -3.670  -7.276  0.00  0.00    +0.000 HD
ENDROOT
BRANCH   1  13
ATOM      9  N   UNL     1       2.613  -0.478  -4.308  0.00  0.00    +0.000 N 
ATOM     10  N   UNL     1       2.415  -0.686  -6.684  0.00  0.00    +0.000 NA
ATOM     11  C   UNL     1       2.868  -1.117  -3.021  0.00  0.00    +0.000 C 
ATOM     12  C   UNL     1       2.447   0.971  -4.287  0.00  0.00    +0.000 C 
ATOM     13  C   UNL     1       2.635  -1.198  -5.508  0.00  0.00    +0.000 C 
ATOM     14  H   UNL     1       2.212   0.313  -6.609  0.00  0.00    +0.000 HD
ENDBRANCH   1  13
TORSDOF 1
ENDMDL
MODEL 8
REMARK VINA RESULT:    -7.225      1.951      2.738
REMARK INTER + INTRA:          -7.682
REMARK INTER:                  -7.523
REMARK INTRA:                  -0.159
REMARK CONF_INDEPENDENT:        0.298
REMARK UNBOUND:                 0.159
REMARK  Name = 4091
REMARK  3 active torsions:
REMARK  status: ('A' for Active; 'I' for Inactive)
REMARK    1  A    between atoms: N_1  and  C_6
REMARK    2  A    between atoms: N_1  and  C_7
REMARK    3  A    between atoms: N_2  and  C_8
REMARK                            x       y       z     vdW  Elec       q    Type
REMARK                         _______ _______ _______ _____ _____    ______ ____
ROOT
ATOM      1  N   UNL     1       1.178   0.292  -5.229  0.00  0.00    +0.000 NA
ATOM      2  N   UNL     1       1.755   1.432  -3.277  0.00  0.00    +0.000 N 
ATOM      3  N   UNL     1       2.465  -0.730  -3.473  0.00  0.00    +0.000 N 
ATOM      4  C   UNL     1       1.773   0.305  -4.063  0.00  0.00    +0.000 C 
ATOM      5  H   UNL     1       2.213   1.455  -2.373  0.00  0.00    +0.000 HD
ATOM      6  H   UNL     1       1.281   2.275  -3.582  0.00  0.00    +0.000 HD
ATOM      7  H   UNL     1       2.572  -1.630  -3.926  0.00  0.00    +0.000 HD
ATOM      8  H   UNL     1       2.895  -0.620  -2.560  0.00  0.00    +0.000 HD
ENDROOT
BRANCH   1  13
ATOM      9  N   UNL     1       2.458  -1.372  -6.435  0.00  0.00    +0.000 N 
ATOM     10  N   UNL     1       0.083  -1.451  -6.146  0.00  0.00    +0.000 NA
ATOM     11  C   UNL     1       3.717  -0.676  -6.195  0.00  0.00    +0.000 C 
ATOM     12  C   UNL     1       2.555  -2.672  -7.090  0.00  0.00    +0.000 C 
ATOM     13  C   UNL     1       1.236  -0.877  -5.965  0.00  0.00    +0.000 C 
ATOM     14  H   UNL     1       0.191  -2.310  -6.691  0.00  0.00    +0.000 HD
ENDBRANCH   1  13
TORSDOF 1
ENDMDL
MODEL 9
REMARK VINA RESULT:    -7.041      1.747      3.777
REMARK INTER + INTRA:          -8.083
REMARK INTER:                  -7.340
REMARK INTRA:                  -0.743
REMARK CONF_INDEPENDENT:        0.298
REMARK UNBOUND:                 0.743
REMARK  Name = 4091
REMARK  3 active torsions:
REMARK  status: ('A' for Active; 'I' for Inactive)
REMARK    1  A    between atoms: N_1  and  C_6
REMARK    2  A    between atoms: N_1  and  C_7
REMARK    3  A    between atoms: N_2  and  C_8
REMARK                            x       y       z     vdW  Elec       q    Type
REMARK                         _______ _______ _______ _____ _____    ______ ____
ROOT
ATOM      1  N   UNL     1       1.675  -0.414  -6.126  0.00  0.00    +0.000 NA
ATOM      2  N   UNL     1       3.054  -2.097  -6.968  0.00  0.00    +0.000 N 
ATOM      3  N   UNL     1       0.874  -2.642  -6.551  0.00  0.00    +0.000 N 
ATOM      4  C   UNL     1       1.832  -1.652  -6.520  0.00  0.00    +0.000 C 
ATOM      5  H   UNL     1       3.188  -3.054  -7.276  0.00  0.00    +0.000 HD
ATOM      6  H   UNL     1       3.856  -1.479  -7.001  0.00  0.00    +0.000 HD
ATOM      7  H   UNL     1      -0.080  -2.473  -6.255  0.00  0.00    +0.000 HD
ATOM      8  H   UNL     1       1.097  -3.576  -6.877  0.00  0.00    +0.000 HD
ENDROOT
BRANCH   1  13
ATOM      9  N   UNL     1       0.258   0.688  -4.501  0.00  0.00    +0.000 N 
ATOM     10  N   UNL     1      -0.551  -0.393  -6.477  0.00  0.00    +0.000 NA
ATOM     11  C   UNL     1       1.392   1.056  -3.661  0.00  0.00    +0.000 C 
ATOM     12  C   UNL     1      -1.041   1.214  -4.096  0.00  0.00    +0.000 C 
ATOM     13  C   UNL     1       0.419  -0.036  -5.688  0.00  0.00    +0.000 C 
ATOM     14  H   UNL     1      -1.451  -0.083  -6.103  0.00  0.00    +0.000 HD
ENDBRANCH   1  13
TORSDOF 1
ENDMDL
