MODEL 1
REMARK VINA RESULT:    -8.433      0.000      0.000
REMARK INTER + INTRA:          -9.482
REMARK INTER:                  -8.731
REMARK INTRA:                  -0.751
REMARK CONF_INDEPENDENT:        0.298
REMARK UNBOUND:                 0.751
REMARK  Name = 4091
REMARK  3 active torsions:
REMARK  status: ('A' for Active; 'I' for Inactive)
REMARK    1  A    between atoms: N_1  and  C_6
REMARK    2  A    between atoms: N_1  and  C_7
REMARK    3  A    between atoms: N_2  and  C_8
REMARK                            x       y       z     vdW  Elec       q    Type
REMARK                         _______ _______ _______ _____ _____    ______ ____
ROOT
ATOM      1  N   UNL     1       3.955   2.881   1.839  0.00  0.00    +0.000 NA
ATOM      2  N   UNL     1       3.929   0.875   3.029  0.00  0.00    +0.000 N 
ATOM      3  N   UNL     1       2.830   2.652   3.953  0.00  0.00    +0.000 N 
ATOM      4  C   UNL     1       3.580   2.197   2.890  0.00  0.00    +0.000 C 
ATOM      5  H   UNL     1       3.644   0.334   3.837  0.00  0.00    +0.000 HD
ATOM      6  H   UNL     1       4.483   0.403   2.322  0.00  0.00    +0.000 HD
ATOM      7  H   UNL     1       2.492   3.606   4.000  0.00  0.00    +0.000 HD
ATOM      8  H   UNL     1       2.589   2.039   4.724  0.00  0.00    +0.000 HD
ENDROOT
BRANCH   1  13
ATOM      9  N   UNL     1       2.915   4.707   0.635  0.00  0.00    +0.000 N 
ATOM     10  N   UNL     1       3.849   4.903   2.830  0.00  0.00    +0.000 NA
ATOM     11  C   UNL     1       2.631   3.869  -0.525  0.00  0.00    +0.000 C 
ATOM     12  C   UNL     1       2.377   6.062   0.597  0.00  0.00    +0.000 C 
ATOM     13  C   UNL     1       3.568   4.207   1.767  0.00  0.00    +0.000 C 
ATOM     14  H   UNL     1       3.536   5.870   2.718  0.00  0.00    +0.000 HD
ENDBRANCH   1  13
TORSDOF 1
ENDMDL
MODEL 2
REMARK VINA RESULT:    -8.205      1.365      3.776
REMARK INTER + INTRA:          -9.259
REMARK INTER:                  -8.503
REMARK INTRA:                  -0.756
REMARK CONF_INDEPENDENT:        0.298
REMARK UNBOUND:                 0.756
REMARK  Name = 4091
REMARK  3 active torsions:
REMARK  status: ('A' for Active; 'I' for Inactive)
REMARK    1  A    between atoms: N_1  and  C_6
REMARK    2  A    between atoms: N_1  and  C_7
REMARK    3  A    between atoms: N_2  and  C_8
REMARK                            x       y       z     vdW  Elec       q    Type
REMARK                         _______ _______ _______ _____ _____    ______ ____
ROOT
ATOM      1  N   UNL     1       2.687   3.964   0.806  0.00  0.00    +0.000 NA
ATOM      2  N   UNL     1       2.431   4.179  -1.503  0.00  0.00    +0.000 N 
ATOM      3  N   UNL     1       4.128   5.355  -0.526  0.00  0.00    +0.000 N 
ATOM      4  C   UNL     1       3.080   4.483  -0.329  0.00  0.00    +0.000 C 
ATOM      5  H   UNL     1       2.725   4.574  -2.389  0.00  0.00    +0.000 HD
ATOM      6  H   UNL     1       1.637   3.549  -1.513  0.00  0.00    +0.000 HD
ATOM      7  H   UNL     1       4.709   5.676   0.241  0.00  0.00    +0.000 HD
ATOM      8  H   UNL     1       4.354   5.702  -1.452  0.00  0.00    +0.000 HD
ENDROOT
BRANCH   1  13
ATOM      9  N   UNL     1       3.840   3.341   2.843  0.00  0.00    +0.000 N 
ATOM     10  N   UNL     1       3.586   5.595   2.077  0.00  0.00    +0.000 NA
ATOM     11  C   UNL     1       3.580   1.921   2.635  0.00  0.00    +0.000 C 
ATOM     12  C   UNL     1       4.696   3.681   3.974  0.00  0.00    +0.000 C 
ATOM     13  C   UNL     1       3.387   4.316   1.947  0.00  0.00    +0.000 C 
ATOM     14  H   UNL     1       4.110   5.791   2.933  0.00  0.00    +0.000 HD
ENDBRANCH   1  13
TORSDOF 1
ENDMDL
MODEL 3
REMARK VINA RESULT:    -7.707      2.821      3.946
REMARK INTER + INTRA:          -8.761
REMARK INTER:                  -8.005
REMARK INTRA:                  -0.756
REMARK CONF_INDEPENDENT:        0.298
REMARK UNBOUND:                 0.756
REMARK  Name = 4091
REMARK  3 active torsions:
REMARK  status: ('A' for Active; 'I' for Inactive)
REMARK    1  A    between atoms: N_1  and  C_6
REMARK    2  A    between atoms: N_1  and  C_7
REMARK    3  A    between atoms: N_2  and  C_8
REMARK                            x       y       z     vdW  Elec       q    Type
REMARK                         _______ _______ _______ _____ _____    ______ ____
ROOT
ATOM      1  N   UNL     1       1.570   4.199   0.224  0.00  0.00    +0.000 NA
ATOM      2  N   UNL     1       0.205   3.068  -1.293  0.00  0.00    +0.000 N 
ATOM      3  N   UNL     1       2.155   3.946  -2.095  0.00  0.00    +0.000 N 
ATOM      4  C   UNL     1       1.346   3.773  -0.993  0.00  0.00    +0.000 C 
ATOM      5  H   UNL     1       0.020   2.732  -2.231  0.00  0.00    +0.000 HD
ATOM      6  H   UNL     1      -0.487   2.864  -0.580  0.00  0.00    +0.000 HD
ATOM      7  H   UNL     1       3.036   4.444  -2.040  0.00  0.00    +0.000 HD
ATOM      8  H   UNL     1       1.892   3.574  -3.002  0.00  0.00    +0.000 HD
ENDROOT
BRANCH   1  13
ATOM      9  N   UNL     1       2.722   6.125   1.133  0.00  0.00    +0.000 N 
ATOM     10  N   UNL     1       3.809   4.318   0.001  0.00  0.00    +0.000 NA
ATOM     11  C   UNL     1       1.482   6.726   1.612  0.00  0.00    +0.000 C 
ATOM     12  C   UNL     1       3.955   6.811   1.504  0.00  0.00    +0.000 C 
ATOM     13  C   UNL     1       2.738   4.903   0.452  0.00  0.00    +0.000 C 
ATOM     14  H   UNL     1       4.638   4.882   0.203  0.00  0.00    +0.000 HD
ENDBRANCH   1  13
TORSDOF 1
ENDMDL
MODEL 4
REMARK VINA RESULT:    -7.707      1.402      2.167
REMARK INTER + INTRA:          -8.140
REMARK INTER:                  -8.005
REMARK INTRA:                  -0.135
REMARK CONF_INDEPENDENT:        0.298
REMARK UNBOUND:                 0.135
REMARK  Name = 4091
REMARK  3 active torsions:
REMARK  status: ('A' for Active; 'I' for Inactive)
REMARK    1  A    between atoms: N_1  and  C_6
REMARK    2  A    between atoms: N_1  and  C_7
REMARK    3  A    between atoms: N_2  and  C_8
REMARK                            x       y       z     vdW  Elec       q    Type
REMARK                         _______ _______ _______ _____ _____    ______ ____
ROOT
ATOM      1  N   UNL     1       2.830   3.428   1.730  0.00  0.00    +0.000 NA
ATOM      2  N   UNL     1       3.265   2.033   3.548  0.00  0.00    +0.000 N 
ATOM      3  N   UNL     1       4.705   3.771   3.196  0.00  0.00    +0.000 N 
ATOM      4  C   UNL     1       3.574   3.116   2.760  0.00  0.00    +0.000 C 
ATOM      5  H   UNL     1       3.833   1.781   4.349  0.00  0.00    +0.000 HD
ATOM      6  H   UNL     1       2.458   1.453   3.347  0.00  0.00    +0.000 HD
ATOM      7  H   UNL     1       5.064   4.593   2.724  0.00  0.00    +0.000 HD
ATOM      8  H   UNL     1       5.215   3.449   4.012  0.00  0.00    +0.000 HD
ENDROOT
BRANCH   1  13
ATOM      9  N   UNL     1       3.219   5.811   1.547  0.00  0.00    +0.000 N 
ATOM     10  N   UNL     1       3.537   4.255  -0.244  0.00  0.00    +0.000 NA
ATOM     11  C   UNL     1       2.829   6.050   2.932  0.00  0.00    +0.000 C 
ATOM     12  C   UNL     1       3.740   6.962   0.817  0.00  0.00    +0.000 C 
ATOM     13  C   UNL     1       3.201   4.531   0.982  0.00  0.00    +0.000 C 
ATOM     14  H   UNL     1       3.804   5.107  -0.743  0.00  0.00    +0.000 HD
ENDBRANCH   1  13
TORSDOF 1
ENDMDL
MODEL 5
REMARK VINA RESULT:    -7.557      1.279      2.066
REMARK INTER + INTRA:          -8.282
REMARK INTER:                  -7.855
REMARK INTRA:                  -0.426
REMARK CONF_INDEPENDENT:        0.298
REMARK UNBOUND:                 0.426
REMARK  Name = 4091
REMARK  3 active torsions:
REMARK  status: ('A' for Active; 'I' for Inactive)
REMARK    1  A    between atoms: N_1  and  C_6
REMARK    2  A    between atoms: N_1  and  C_7
REMARK    3  A    between atoms: N_2  and  C_8
REMARK                            x       y       z     vdW  Elec       q    Type
REMARK                         _______ _______ _______ _____ _____    ______ ____
ROOT
ATOM      1  N   UNL     1       4.242   4.097   1.924  0.00  0.00    +0.000 NA
ATOM      2  N   UNL     1       4.946   3.690   4.110  0.00  0.00    +0.000 N 
ATOM      3  N   UNL     1       2.908   2.860   3.497  0.00  0.00    +0.000 N 
ATOM      4  C   UNL     1       4.020   3.570   3.101  0.00  0.00    +0.000 C 
ATOM      5  H   UNL     1       4.787   3.286   5.026  0.00  0.00    +0.000 HD
ATOM      6  H   UNL     1       5.817   4.189   3.965  0.00  0.00    +0.000 HD
ATOM      7  H   UNL     1       2.133   2.682   2.867  0.00  0.00    +0.000 HD
ATOM      8  H   UNL     1       2.831   2.489   4.438  0.00  0.00    +0.000 HD
ENDROOT
BRANCH   1  13
ATOM      9  N   UNL     1       2.436   5.003   0.587  0.00  0.00    +0.000 N 
ATOM     10  N   UNL     1       3.220   2.746   0.437  0.00  0.00    +0.000 NA
ATOM     11  C   UNL     1       2.542   6.316   1.214  0.00  0.00    +0.000 C 
ATOM     12  C   UNL     1       1.499   4.893  -0.525  0.00  0.00    +0.000 C 
ATOM     13  C   UNL     1       3.266   3.938   0.957  0.00  0.00    +0.000 C 
ATOM     14  H   UNL     1       2.484   2.692  -0.272  0.00  0.00    +0.000 HD
ENDBRANCH   1  13
TORSDOF 1
ENDMDL
MODEL 6
REMARK VINA RESULT:    -7.453      1.399      4.157
REMARK INTER + INTRA:          -8.509
REMARK INTER:                  -7.751
REMARK INTRA:                  -0.758
REMARK CONF_INDEPENDENT:        0.298
REMARK UNBOUND:                 0.758
REMARK  Name = 4091
REMARK  3 active torsions:
REMARK  status: ('A' for Active; 'I' for Inactive)
REMARK    1  A    between atoms: N_1  and  C_6
REMARK    2  A    between atoms: N_1  and  C_7
REMARK    3  A    between atoms: N_2  and  C_8
REMARK                            x       y       z     vdW  Elec       q    Type
REMARK                         _______ _______ _______ _____ _____    ______ ____
ROOT
ATOM      1  N   UNL     1       3.147   4.837   1.112  0.00  0.00    +0.000 NA
ATOM      2  N   UNL     1       1.700   6.437   0.224  0.00  0.00    +0.000 N 
ATOM      3  N   UNL     1       1.353   4.262  -0.383  0.00  0.00    +0.000 N 
ATOM      4  C   UNL     1       2.122   5.135   0.355  0.00  0.00    +0.000 C 
ATOM      5  H   UNL     1       0.908   6.681  -0.359  0.00  0.00    +0.000 HD
ATOM      6  H   UNL     1       2.173   7.191   0.710  0.00  0.00    +0.000 HD
ATOM      7  H   UNL     1       1.533   3.265  -0.392  0.00  0.00    +0.000 HD
ATOM      8  H   UNL     1       0.574   4.594  -0.942  0.00  0.00    +0.000 HD
ENDROOT
BRANCH   1  13
ATOM      9  N   UNL     1       3.703   2.887   2.437  0.00  0.00    +0.000 N 
ATOM     10  N   UNL     1       3.644   2.916   0.044  0.00  0.00    +0.000 NA
ATOM     11  C   UNL     1       3.543   3.611   3.693  0.00  0.00    +0.000 C 
ATOM     12  C   UNL     1       3.955   1.454   2.547  0.00  0.00    +0.000 C 
ATOM     13  C   UNL     1       3.516   3.507   1.195  0.00  0.00    +0.000 C 
ATOM     14  H   UNL     1       3.913   1.937   0.170  0.00  0.00    +0.000 HD
ENDBRANCH   1  13
TORSDOF 1
ENDMDL
MODEL 7
REMARK VINA RESULT:    -7.319      2.008      2.584
REMARK INTER + INTRA:          -7.868
REMARK INTER:                  -7.617
REMARK INTRA:                  -0.250
REMARK CONF_INDEPENDENT:        0.298
REMARK UNBOUND:                 0.250
REMARK  Name = 4091
REMARK  3 active torsions:
REMARK  status: ('A' for Active; 'I' for Inactive)
REMARK    1  A    between atoms: N_1  and  C_6
REMARK    2  A    between atoms: N_1  and  C_7
REMARK    3  A    between atoms: N_2  and  C_8
REMARK                            x       y       z     vdW  Elec       q    Type
REMARK                         _______ _______ _______ _____ _____    ______ ____
ROOT
ATOM      1  N   UNL     1       4.125   5.481   0.772  0.00  0.00    +0.000 NA
ATOM      2  N   UNL     1       4.727   3.295   0.225  0.00  0.00    +0.000 N 
ATOM      3  N   UNL     1       3.070   3.566   1.774  0.00  0.00    +0.000 N 
ATOM      4  C   UNL     1       3.964   4.193   0.933  0.00  0.00    +0.000 C 
ATOM      5  H   UNL     1       4.611   2.294   0.340  0.00  0.00    +0.000 HD
ATOM      6  H   UNL     1       5.429   3.611  -0.435  0.00  0.00    +0.000 HD
ATOM      7  H   UNL     1       2.433   4.089   2.365  0.00  0.00    +0.000 HD
ATOM      8  H   UNL     1       3.021   2.554   1.827  0.00  0.00    +0.000 HD
ENDROOT
BRANCH   1  13
ATOM      9  N   UNL     1       1.954   6.441   1.252  0.00  0.00    +0.000 N 
ATOM     10  N   UNL     1       3.951   6.956   2.468  0.00  0.00    +0.000 NA
ATOM     11  C   UNL     1       1.313   5.703   0.169  0.00  0.00    +0.000 C 
ATOM     12  C   UNL     1       1.069   7.216   2.114  0.00  0.00    +0.000 C 
ATOM     13  C   UNL     1       3.323   6.325   1.519  0.00  0.00    +0.000 C 
ATOM     14  H   UNL     1       3.306   7.559   2.985  0.00  0.00    +0.000 HD
ENDBRANCH   1  13
TORSDOF 1
ENDMDL
MODEL 8
REMARK VINA RESULT:    -6.825      2.336      3.308
REMARK INTER + INTRA:          -7.770
REMARK INTER:                  -7.123
REMARK INTRA:                  -0.647
REMARK CONF_INDEPENDENT:        0.298
REMARK UNBOUND:                 0.647
REMARK  Name = 4091
REMARK  3 active torsions:
REMARK  status: ('A' for Active; 'I' for Inactive)
REMARK    1  A    between atoms: N_1  and  C_6
REMARK    2  A    between atoms: N_1  and  C_7
REMARK    3  A    between atoms: N_2  and  C_8
REMARK                            x       y       z     vdW  Elec       q    Type
REMARK                         _______ _______ _______ _____ _____    ______ ____
ROOT
ATOM      1  N   UNL     1       3.853   4.631   1.060  0.00  0.00    +0.000 NA
ATOM      2  N   UNL     1       3.737   2.686  -0.223  0.00  0.00    +0.000 N 
ATOM      3  N   UNL     1       2.033   4.191  -0.450  0.00  0.00    +0.000 N 
ATOM      4  C   UNL     1       3.224   3.897   0.178  0.00  0.00    +0.000 C 
ATOM      5  H   UNL     1       3.260   2.109  -0.906  0.00  0.00    +0.000 HD
ATOM      6  H   UNL     1       4.610   2.337   0.155  0.00  0.00    +0.000 HD
ATOM      7  H   UNL     1       1.527   5.050  -0.265  0.00  0.00    +0.000 HD
ATOM      8  H   UNL     1       1.624   3.553  -1.124  0.00  0.00    +0.000 HD
ENDROOT
BRANCH   1  13
ATOM      9  N   UNL     1       2.964   6.119   2.751  0.00  0.00    +0.000 N 
ATOM     10  N   UNL     1       3.088   6.653   0.421  0.00  0.00    +0.000 NA
ATOM     11  C   UNL     1       3.204   5.156   3.820  0.00  0.00    +0.000 C 
ATOM     12  C   UNL     1       2.488   7.435   3.164  0.00  0.00    +0.000 C 
ATOM     13  C   UNL     1       3.277   5.837   1.416  0.00  0.00    +0.000 C 
ATOM     14  H   UNL     1       2.665   7.525   0.747  0.00  0.00    +0.000 HD
ENDBRANCH   1  13
TORSDOF 1
ENDMDL
MODEL 9
REMARK VINA RESULT:    -6.268      2.105      4.049
REMARK INTER + INTRA:          -6.975
REMARK INTER:                  -6.566
REMARK INTRA:                  -0.409
REMARK CONF_INDEPENDENT:        0.298
REMARK UNBOUND:                 0.409
REMARK  Name = 4091
REMARK  3 active torsions:
REMARK  status: ('A' for Active; 'I' for Inactive)
REMARK    1  A    between atoms: N_1  and  C_6
REMARK    2  A    between atoms: N_1  and  C_7
REMARK    3  A    between atoms: N_2  and  C_8
REMARK                            x       y       z     vdW  Elec       q    Type
REMARK                         _______ _______ _______ _____ _____    ______ ____
ROOT
ATOM      1  N   UNL     1       1.118   4.215  -0.041  0.00  0.00    +0.000 NA
ATOM      2  N   UNL     1       0.467   3.063  -1.962  0.00  0.00    +0.000 N 
ATOM      3  N   UNL     1       2.453   4.189  -2.042  0.00  0.00    +0.000 N 
ATOM      4  C   UNL     1       1.356   3.857  -1.277  0.00  0.00    +0.000 C 
ATOM      5  H   UNL     1       0.640   2.778  -2.920  0.00  0.00    +0.000 HD
ATOM      6  H   UNL     1      -0.389   2.739  -1.526  0.00  0.00    +0.000 HD
ATOM      7  H   UNL     1       3.201   4.769  -1.681  0.00  0.00    +0.000 HD
ATOM      8  H   UNL     1       2.545   3.859  -2.997  0.00  0.00    +0.000 HD
ENDROOT
BRANCH   1  13
ATOM      9  N   UNL     1       2.978   4.474   1.487  0.00  0.00    +0.000 N 
ATOM     10  N   UNL     1       2.001   6.270   0.242  0.00  0.00    +0.000 NA
ATOM     11  C   UNL     1       2.983   3.056   1.828  0.00  0.00    +0.000 C 
ATOM     12  C   UNL     1       4.060   5.275   2.049  0.00  0.00    +0.000 C 
ATOM     13  C   UNL     1       2.055   5.016   0.585  0.00  0.00    +0.000 C 
ATOM     14  H   UNL     1       2.718   6.808   0.733  0.00  0.00    +0.000 HD
ENDBRANCH   1  13
TORSDOF 1
ENDMDL
