MODEL 1
REMARK VINA RESULT:    -7.179      0.000      0.000
REMARK INTER + INTRA:          -8.188
REMARK INTER:                  -7.477
REMARK INTRA:                  -0.711
REMARK CONF_INDEPENDENT:        0.298
REMARK UNBOUND:                 0.711
REMARK  Name = 4091
REMARK  3 active torsions:
REMARK  status: ('A' for Active; 'I' for Inactive)
REMARK    1  A    between atoms: N_1  and  C_6
REMARK    2  A    between atoms: N_1  and  C_7
REMARK    3  A    between atoms: N_2  and  C_8
REMARK                            x       y       z     vdW  Elec       q    Type
REMARK                         _______ _______ _______ _____ _____    ______ ____
ROOT
ATOM      1  N   UNL     1       2.972  -4.072   4.506  0.00  0.00    +0.000 NA
ATOM      2  N   UNL     1       1.496  -4.624   6.225  0.00  0.00    +0.000 N 
ATOM      3  N   UNL     1       2.888  -6.272   5.474  0.00  0.00    +0.000 N 
ATOM      4  C   UNL     1       2.497  -4.957   5.343  0.00  0.00    +0.000 C 
ATOM      5  H   UNL     1       1.119  -5.300   6.880  0.00  0.00    +0.000 HD
ATOM      6  H   UNL     1       1.106  -3.688   6.245  0.00  0.00    +0.000 HD
ATOM      7  H   UNL     1       3.618  -6.673   4.897  0.00  0.00    +0.000 HD
ATOM      8  H   UNL     1       2.455  -6.882   6.159  0.00  0.00    +0.000 HD
ENDROOT
BRANCH   1  13
ATOM      9  N   UNL     1       3.962  -4.113   2.296  0.00  0.00    +0.000 N 
ATOM     10  N   UNL     1       4.909  -5.188   4.214  0.00  0.00    +0.000 NA
ATOM     11  C   UNL     1       2.884  -3.314   1.724  0.00  0.00    +0.000 C 
ATOM     12  C   UNL     1       5.081  -4.414   1.409  0.00  0.00    +0.000 C 
ATOM     13  C   UNL     1       3.978  -4.478   3.647  0.00  0.00    +0.000 C 
ATOM     14  H   UNL     1       5.623  -5.454   3.532  0.00  0.00    +0.000 HD
ENDBRANCH   1  13
TORSDOF 1
ENDMDL
MODEL 2
REMARK VINA RESULT:    -6.494      1.352      2.150
REMARK INTER + INTRA:          -7.164
REMARK INTER:                  -6.793
REMARK INTRA:                  -0.372
REMARK CONF_INDEPENDENT:        0.298
REMARK UNBOUND:                 0.372
REMARK  Name = 4091
REMARK  3 active torsions:
REMARK  status: ('A' for Active; 'I' for Inactive)
REMARK    1  A    between atoms: N_1  and  C_6
REMARK    2  A    between atoms: N_1  and  C_7
REMARK    3  A    between atoms: N_2  and  C_8
REMARK                            x       y       z     vdW  Elec       q    Type
REMARK                         _______ _______ _______ _____ _____    ______ ____
ROOT
ATOM      1  N   UNL     1       3.077  -5.254   3.411  0.00  0.00    +0.000 NA
ATOM      2  N   UNL     1       2.830  -6.234   5.513  0.00  0.00    +0.000 N 
ATOM      3  N   UNL     1       3.580  -4.078   5.448  0.00  0.00    +0.000 N 
ATOM      4  C   UNL     1       3.166  -5.168   4.714  0.00  0.00    +0.000 C 
ATOM      5  H   UNL     1       2.894  -6.180   6.523  0.00  0.00    +0.000 HD
ATOM      6  H   UNL     1       2.508  -7.108   5.112  0.00  0.00    +0.000 HD
ATOM      7  H   UNL     1       3.861  -3.209   5.006  0.00  0.00    +0.000 HD
ATOM      8  H   UNL     1       3.614  -4.110   6.461  0.00  0.00    +0.000 HD
ENDROOT
BRANCH   1  13
ATOM      9  N   UNL     1       4.705  -4.035   2.095  0.00  0.00    +0.000 N 
ATOM     10  N   UNL     1       2.489  -3.254   2.554  0.00  0.00    +0.000 NA
ATOM     11  C   UNL     1       5.718  -5.070   2.266  0.00  0.00    +0.000 C 
ATOM     12  C   UNL     1       5.050  -2.938   1.198  0.00  0.00    +0.000 C 
ATOM     13  C   UNL     1       3.433  -4.141   2.670  0.00  0.00    +0.000 C 
ATOM     14  H   UNL     1       2.810  -2.460   1.994  0.00  0.00    +0.000 HD
ENDBRANCH   1  13
TORSDOF 1
ENDMDL
MODEL 3
REMARK VINA RESULT:    -6.413      2.059      4.233
REMARK INTER + INTRA:          -6.803
REMARK INTER:                  -6.711
REMARK INTRA:                  -0.092
REMARK CONF_INDEPENDENT:        0.298
REMARK UNBOUND:                 0.092
REMARK  Name = 4091
REMARK  3 active torsions:
REMARK  status: ('A' for Active; 'I' for Inactive)
REMARK    1  A    between atoms: N_1  and  C_6
REMARK    2  A    between atoms: N_1  and  C_7
REMARK    3  A    between atoms: N_2  and  C_8
REMARK                            x       y       z     vdW  Elec       q    Type
REMARK                         _______ _______ _______ _____ _____    ______ ____
ROOT
ATOM      1  N   UNL     1       2.946  -3.111   2.093  0.00  0.00    +0.000 NA
ATOM      2  N   UNL     1       2.464  -1.814   0.214  0.00  0.00    +0.000 N 
ATOM      3  N   UNL     1       0.728  -2.316   1.611  0.00  0.00    +0.000 N 
ATOM      4  C   UNL     1       2.076  -2.458   1.365  0.00  0.00    +0.000 C 
ATOM      5  H   UNL     1       1.800  -1.304  -0.358  0.00  0.00    +0.000 HD
ATOM      6  H   UNL     1       3.429  -1.832  -0.095  0.00  0.00    +0.000 HD
ATOM      7  H   UNL     1       0.285  -2.730   2.424  0.00  0.00    +0.000 HD
ATOM      8  H   UNL     1       0.133  -1.785   0.983  0.00  0.00    +0.000 HD
ENDROOT
BRANCH   1  13
ATOM      9  N   UNL     1       3.276  -4.666   3.920  0.00  0.00    +0.000 N 
ATOM     10  N   UNL     1       1.293  -3.362   3.604  0.00  0.00    +0.000 NA
ATOM     11  C   UNL     1       4.606  -5.039   3.451  0.00  0.00    +0.000 C 
ATOM     12  C   UNL     1       2.863  -5.228   5.201  0.00  0.00    +0.000 C 
ATOM     13  C   UNL     1       2.484  -3.735   3.237  0.00  0.00    +0.000 C 
ATOM     14  H   UNL     1       1.010  -3.853   4.455  0.00  0.00    +0.000 HD
ENDBRANCH   1  13
TORSDOF 1
ENDMDL
MODEL 4
REMARK VINA RESULT:    -6.347      1.964      3.612
REMARK INTER + INTRA:          -6.648
REMARK INTER:                  -6.645
REMARK INTRA:                  -0.003
REMARK CONF_INDEPENDENT:        0.298
REMARK UNBOUND:                 0.003
REMARK  Name = 4091
REMARK  3 active torsions:
REMARK  status: ('A' for Active; 'I' for Inactive)
REMARK    1  A    between atoms: N_1  and  C_6
REMARK    2  A    between atoms: N_1  and  C_7
REMARK    3  A    between atoms: N_2  and  C_8
REMARK                            x       y       z     vdW  Elec       q    Type
REMARK                         _______ _______ _______ _____ _____    ______ ____
ROOT
ATOM      1  N   UNL     1       2.080  -3.263   3.151  0.00  0.00    +0.000 NA
ATOM      2  N   UNL     1       0.450  -1.982   2.083  0.00  0.00    +0.000 N 
ATOM      3  N   UNL     1       2.417  -2.311   0.968  0.00  0.00    +0.000 N 
ATOM      4  C   UNL     1       1.695  -2.563   2.115  0.00  0.00    +0.000 C 
ATOM      5  H   UNL     1       0.139  -1.438   1.286  0.00  0.00    +0.000 HD
ATOM      6  H   UNL     1      -0.194  -2.082   2.859  0.00  0.00    +0.000 HD
ATOM      7  H   UNL     1       3.355  -2.671   0.835  0.00  0.00    +0.000 HD
ATOM      8  H   UNL     1       2.027  -1.753   0.216  0.00  0.00    +0.000 HD
ENDROOT
BRANCH   1  13
ATOM      9  N   UNL     1       3.753  -4.750   4.076  0.00  0.00    +0.000 N 
ATOM     10  N   UNL     1       4.078  -3.412   2.118  0.00  0.00    +0.000 NA
ATOM     11  C   UNL     1       2.880  -5.161   5.170  0.00  0.00    +0.000 C 
ATOM     12  C   UNL     1       5.030  -5.448   3.974  0.00  0.00    +0.000 C 
ATOM     13  C   UNL     1       3.347  -3.818   3.114  0.00  0.00    +0.000 C 
ATOM     14  H   UNL     1       4.998  -3.859   2.142  0.00  0.00    +0.000 HD
ENDBRANCH   1  13
TORSDOF 1
ENDMDL
MODEL 5
REMARK VINA RESULT:    -6.162      1.436      4.086
REMARK INTER + INTRA:          -6.833
REMARK INTER:                  -6.460
REMARK INTRA:                  -0.374
REMARK CONF_INDEPENDENT:        0.298
REMARK UNBOUND:                 0.374
REMARK  Name = 4091
REMARK  3 active torsions:
REMARK  status: ('A' for Active; 'I' for Inactive)
REMARK    1  A    between atoms: N_1  and  C_6
REMARK    2  A    between atoms: N_1  and  C_7
REMARK    3  A    between atoms: N_2  and  C_8
REMARK                            x       y       z     vdW  Elec       q    Type
REMARK                         _______ _______ _______ _____ _____    ______ ____
ROOT
ATOM      1  N   UNL     1       4.094  -4.139   2.826  0.00  0.00    +0.000 NA
ATOM      2  N   UNL     1       5.141  -4.927   0.896  0.00  0.00    +0.000 N 
ATOM      3  N   UNL     1       2.974  -5.563   1.244  0.00  0.00    +0.000 N 
ATOM      4  C   UNL     1       4.046  -4.843   1.724  0.00  0.00    +0.000 C 
ATOM      5  H   UNL     1       5.117  -5.468   0.039  0.00  0.00    +0.000 HD
ATOM      6  H   UNL     1       6.005  -4.448   1.121  0.00  0.00    +0.000 HD
ATOM      7  H   UNL     1       2.090  -5.601   1.738  0.00  0.00    +0.000 HD
ATOM      8  H   UNL     1       3.038  -6.079   0.372  0.00  0.00    +0.000 HD
ENDROOT
BRANCH   1  13
ATOM      9  N   UNL     1       2.820  -4.937   4.725  0.00  0.00    +0.000 N 
ATOM     10  N   UNL     1       2.073  -3.225   3.228  0.00  0.00    +0.000 NA
ATOM     11  C   UNL     1       3.851  -5.898   5.099  0.00  0.00    +0.000 C 
ATOM     12  C   UNL     1       1.692  -4.813   5.642  0.00  0.00    +0.000 C 
ATOM     13  C   UNL     1       2.956  -4.101   3.611  0.00  0.00    +0.000 C 
ATOM     14  H   UNL     1       1.259  -3.241   3.847  0.00  0.00    +0.000 HD
ENDBRANCH   1  13
TORSDOF 1
ENDMDL
MODEL 6
REMARK VINA RESULT:    -5.500      1.792      4.165
REMARK INTER + INTRA:          -6.159
REMARK INTER:                  -5.798
REMARK INTRA:                  -0.361
REMARK CONF_INDEPENDENT:        0.298
REMARK UNBOUND:                 0.361
REMARK  Name = 4091
REMARK  3 active torsions:
REMARK  status: ('A' for Active; 'I' for Inactive)
REMARK    1  A    between atoms: N_1  and  C_6
REMARK    2  A    between atoms: N_1  and  C_7
REMARK    3  A    between atoms: N_2  and  C_8
REMARK                            x       y       z     vdW  Elec       q    Type
REMARK                         _______ _______ _______ _____ _____    ______ ____
ROOT
ATOM      1  N   UNL     1       4.315  -3.500   1.940  0.00  0.00    +0.000 NA
ATOM      2  N   UNL     1       5.427  -2.175   0.375  0.00  0.00    +0.000 N 
ATOM      3  N   UNL     1       6.710  -3.499   1.724  0.00  0.00    +0.000 N 
ATOM      4  C   UNL     1       5.434  -3.098   1.395  0.00  0.00    +0.000 C 
ATOM      5  H   UNL     1       6.287  -1.856  -0.057  0.00  0.00    +0.000 HD
ATOM      6  H   UNL     1       4.558  -1.788   0.026  0.00  0.00    +0.000 HD
ATOM      7  H   UNL     1       6.886  -4.178   2.456  0.00  0.00    +0.000 HD
ATOM      8  H   UNL     1       7.519  -3.126   1.238  0.00  0.00    +0.000 HD
ENDROOT
BRANCH   1  13
ATOM      9  N   UNL     1       3.381  -4.543   3.917  0.00  0.00    +0.000 N 
ATOM     10  N   UNL     1       5.469  -5.167   2.925  0.00  0.00    +0.000 NA
ATOM     11  C   UNL     1       2.205  -3.680   3.898  0.00  0.00    +0.000 C 
ATOM     12  C   UNL     1       3.385  -5.606   4.915  0.00  0.00    +0.000 C 
ATOM     13  C   UNL     1       4.398  -4.429   2.962  0.00  0.00    +0.000 C 
ATOM     14  H   UNL     1       5.471  -5.834   3.701  0.00  0.00    +0.000 HD
ENDBRANCH   1  13
TORSDOF 1
ENDMDL
MODEL 7
REMARK VINA RESULT:    -5.201      1.649      3.091
REMARK INTER + INTRA:          -5.620
REMARK INTER:                  -5.499
REMARK INTRA:                  -0.121
REMARK CONF_INDEPENDENT:        0.298
REMARK UNBOUND:                 0.121
REMARK  Name = 4091
REMARK  3 active torsions:
REMARK  status: ('A' for Active; 'I' for Inactive)
REMARK    1  A    between atoms: N_1  and  C_6
REMARK    2  A    between atoms: N_1  and  C_7
REMARK    3  A    between atoms: N_2  and  C_8
REMARK                            x       y       z     vdW  Elec       q    Type
REMARK                         _______ _______ _______ _____ _____    ______ ____
ROOT
ATOM      1  N   UNL     1       3.623  -3.772   2.908  0.00  0.00    +0.000 NA
ATOM      2  N   UNL     1       5.291  -5.236   3.628  0.00  0.00    +0.000 N 
ATOM      3  N   UNL     1       3.264  -5.365   4.673  0.00  0.00    +0.000 N 
ATOM      4  C   UNL     1       4.012  -4.736   3.702  0.00  0.00    +0.000 C 
ATOM      5  H   UNL     1       5.604  -5.983   4.237  0.00  0.00    +0.000 HD
ATOM      6  H   UNL     1       5.957  -4.869   2.958  0.00  0.00    +0.000 HD
ATOM      7  H   UNL     1       2.298  -5.113   4.853  0.00  0.00    +0.000 HD
ATOM      8  H   UNL     1       3.659  -6.107   5.241  0.00  0.00    +0.000 HD
ENDROOT
BRANCH   1  13
ATOM      9  N   UNL     1       1.720  -2.555   2.033  0.00  0.00    +0.000 N 
ATOM     10  N   UNL     1       1.742  -3.681   4.146  0.00  0.00    +0.000 NA
ATOM     11  C   UNL     1       2.433  -2.183   0.816  0.00  0.00    +0.000 C 
ATOM     12  C   UNL     1       0.310  -2.187   2.092  0.00  0.00    +0.000 C 
ATOM     13  C   UNL     1       2.323  -3.318   3.040  0.00  0.00    +0.000 C 
ATOM     14  H   UNL     1       0.785  -3.320   4.183  0.00  0.00    +0.000 HD
ENDBRANCH   1  13
TORSDOF 1
ENDMDL
MODEL 8
REMARK VINA RESULT:    -4.765      2.073      3.030
REMARK INTER + INTRA:          -5.409
REMARK INTER:                  -5.064
REMARK INTRA:                  -0.345
REMARK CONF_INDEPENDENT:        0.298
REMARK UNBOUND:                 0.345
REMARK  Name = 4091
REMARK  3 active torsions:
REMARK  status: ('A' for Active; 'I' for Inactive)
REMARK    1  A    between atoms: N_1  and  C_6
REMARK    2  A    between atoms: N_1  and  C_7
REMARK    3  A    between atoms: N_2  and  C_8
REMARK                            x       y       z     vdW  Elec       q    Type
REMARK                         _______ _______ _______ _____ _____    ______ ____
ROOT
ATOM      1  N   UNL     1       4.218  -3.592   1.729  0.00  0.00    +0.000 NA
ATOM      2  N   UNL     1       2.459  -3.920   3.225  0.00  0.00    +0.000 N 
ATOM      3  N   UNL     1       4.527  -4.643   3.870  0.00  0.00    +0.000 N 
ATOM      4  C   UNL     1       3.785  -4.035   2.882  0.00  0.00    +0.000 C 
ATOM      5  H   UNL     1       2.110  -4.258   4.115  0.00  0.00    +0.000 HD
ATOM      6  H   UNL     1       1.790  -3.493   2.594  0.00  0.00    +0.000 HD
ATOM      7  H   UNL     1       5.524  -4.800   3.772  0.00  0.00    +0.000 HD
ATOM      8  H   UNL     1       4.096  -4.952   4.735  0.00  0.00    +0.000 HD
ENDROOT
BRANCH   1  13
ATOM      9  N   UNL     1       6.215  -2.884   0.557  0.00  0.00    +0.000 N 
ATOM     10  N   UNL     1       6.138  -4.713   2.099  0.00  0.00    +0.000 NA
ATOM     11  C   UNL     1       5.509  -1.813  -0.138  0.00  0.00    +0.000 C 
ATOM     12  C   UNL     1       7.659  -2.938   0.358  0.00  0.00    +0.000 C 
ATOM     13  C   UNL     1       5.565  -3.742   1.451  0.00  0.00    +0.000 C 
ATOM     14  H   UNL     1       7.130  -4.770   1.855  0.00  0.00    +0.000 HD
ENDBRANCH   1  13
TORSDOF 1
ENDMDL
MODEL 9
REMARK VINA RESULT:    -4.656      1.514      2.059
REMARK INTER + INTRA:          -5.547
REMARK INTER:                  -4.954
REMARK INTRA:                  -0.593
REMARK CONF_INDEPENDENT:        0.298
REMARK UNBOUND:                 0.593
REMARK  Name = 4091
REMARK  3 active torsions:
REMARK  status: ('A' for Active; 'I' for Inactive)
REMARK    1  A    between atoms: N_1  and  C_6
REMARK    2  A    between atoms: N_1  and  C_7
REMARK    3  A    between atoms: N_2  and  C_8
REMARK                            x       y       z     vdW  Elec       q    Type
REMARK                         _______ _______ _______ _____ _____    ______ ____
ROOT
ATOM      1  N   UNL     1       2.557  -3.694   4.105  0.00  0.00    +0.000 NA
ATOM      2  N   UNL     1       2.602  -5.163   5.917  0.00  0.00    +0.000 N 
ATOM      3  N   UNL     1       3.580  -5.867   3.976  0.00  0.00    +0.000 N 
ATOM      4  C   UNL     1       2.904  -4.849   4.613  0.00  0.00    +0.000 C 
ATOM      5  H   UNL     1       2.867  -6.053   6.322  0.00  0.00    +0.000 HD
ATOM      6  H   UNL     1       2.105  -4.508   6.511  0.00  0.00    +0.000 HD
ATOM      7  H   UNL     1       3.877  -5.790   3.010  0.00  0.00    +0.000 HD
ATOM      8  H   UNL     1       3.805  -6.729   4.460  0.00  0.00    +0.000 HD
ENDROOT
BRANCH   1  13
ATOM      9  N   UNL     1       2.044  -2.709   1.953  0.00  0.00    +0.000 N 
ATOM     10  N   UNL     1       4.043  -3.937   2.429  0.00  0.00    +0.000 NA
ATOM     11  C   UNL     1       0.764  -2.188   2.420  0.00  0.00    +0.000 C 
ATOM     12  C   UNL     1       2.444  -2.321   0.605  0.00  0.00    +0.000 C 
ATOM     13  C   UNL     1       2.893  -3.447   2.786  0.00  0.00    +0.000 C 
ATOM     14  H   UNL     1       4.237  -3.719   1.448  0.00  0.00    +0.000 HD
ENDBRANCH   1  13
TORSDOF 1
ENDMDL
