MODEL 1
REMARK VINA RESULT:    -6.515      0.000      0.000
REMARK INTER + INTRA:          -7.569
REMARK INTER:                  -6.813
REMARK INTRA:                  -0.756
REMARK CONF_INDEPENDENT:        0.298
REMARK UNBOUND:                 0.756
REMARK  Name = 4091
REMARK  3 active torsions:
REMARK  status: ('A' for Active; 'I' for Inactive)
REMARK    1  A    between atoms: N_1  and  C_6
REMARK    2  A    between atoms: N_1  and  C_7
REMARK    3  A    between atoms: N_2  and  C_8
REMARK                            x       y       z     vdW  Elec       q    Type
REMARK                         _______ _______ _______ _____ _____    ______ ____
ROOT
ATOM      1  N   UNL     1       1.231  -1.657  -1.741  0.00  0.00    +0.000 NA
ATOM      2  N   UNL     1       0.678  -3.431  -3.151  0.00  0.00    +0.000 N 
ATOM      3  N   UNL     1      -1.044  -2.180  -2.321  0.00  0.00    +0.000 N 
ATOM      4  C   UNL     1       0.321  -2.366  -2.358  0.00  0.00    +0.000 C 
ATOM      5  H   UNL     1      -0.018  -3.988  -3.635  0.00  0.00    +0.000 HD
ATOM      6  H   UNL     1       1.650  -3.690  -3.273  0.00  0.00    +0.000 HD
ATOM      7  H   UNL     1      -1.468  -1.433  -1.782  0.00  0.00    +0.000 HD
ATOM      8  H   UNL     1      -1.670  -2.787  -2.839  0.00  0.00    +0.000 HD
ENDROOT
BRANCH   1  13
ATOM      9  N   UNL     1       1.370   0.671  -1.089  0.00  0.00    +0.000 N 
ATOM     10  N   UNL     1      -0.168  -0.901  -0.144  0.00  0.00    +0.000 NA
ATOM     11  C   UNL     1       2.455   0.939  -2.026  0.00  0.00    +0.000 C 
ATOM     12  C   UNL     1       0.835   1.826  -0.376  0.00  0.00    +0.000 C 
ATOM     13  C   UNL     1       0.799  -0.600  -0.960  0.00  0.00    +0.000 C 
ATOM     14  H   UNL     1      -0.446  -0.081   0.401  0.00  0.00    +0.000 HD
ENDBRANCH   1  13
TORSDOF 1
ENDMDL
MODEL 2
REMARK VINA RESULT:    -6.348      1.289      3.622
REMARK INTER + INTRA:          -7.403
REMARK INTER:                  -6.647
REMARK INTRA:                  -0.756
REMARK CONF_INDEPENDENT:        0.298
REMARK UNBOUND:                 0.756
REMARK  Name = 4091
REMARK  3 active torsions:
REMARK  status: ('A' for Active; 'I' for Inactive)
REMARK    1  A    between atoms: N_1  and  C_6
REMARK    2  A    between atoms: N_1  and  C_7
REMARK    3  A    between atoms: N_2  and  C_8
REMARK                            x       y       z     vdW  Elec       q    Type
REMARK                         _______ _______ _______ _____ _____    ______ ____
ROOT
ATOM      1  N   UNL     1       1.711  -0.691  -1.494  0.00  0.00    +0.000 NA
ATOM      2  N   UNL     1       3.187   1.036  -2.026  0.00  0.00    +0.000 N 
ATOM      3  N   UNL     1       0.955   1.520  -2.061  0.00  0.00    +0.000 N 
ATOM      4  C   UNL     1       1.912   0.554  -1.841  0.00  0.00    +0.000 C 
ATOM      5  H   UNL     1       3.356   1.998  -2.294  0.00  0.00    +0.000 HD
ATOM      6  H   UNL     1       3.995   0.437  -1.899  0.00  0.00    +0.000 HD
ATOM      7  H   UNL     1      -0.035   1.326  -1.963  0.00  0.00    +0.000 HD
ATOM      8  H   UNL     1       1.214   2.464  -2.328  0.00  0.00    +0.000 HD
ENDROOT
BRANCH   1  13
ATOM      9  N   UNL     1      -0.065  -2.279  -1.929  0.00  0.00    +0.000 N 
ATOM     10  N   UNL     1      -0.309  -0.329  -0.562  0.00  0.00    +0.000 NA
ATOM     11  C   UNL     1       0.789  -3.104  -2.776  0.00  0.00    +0.000 C 
ATOM     12  C   UNL     1      -1.397  -2.805  -1.651  0.00  0.00    +0.000 C 
ATOM     13  C   UNL     1       0.402  -1.106  -1.326  0.00  0.00    +0.000 C 
ATOM     14  H   UNL     1      -1.263  -0.689  -0.473  0.00  0.00    +0.000 HD
ENDBRANCH   1  13
TORSDOF 1
ENDMDL
MODEL 3
REMARK VINA RESULT:    -6.304      1.552      4.138
REMARK INTER + INTRA:          -7.358
REMARK INTER:                  -6.603
REMARK INTRA:                  -0.756
REMARK CONF_INDEPENDENT:        0.298
REMARK UNBOUND:                 0.756
REMARK  Name = 4091
REMARK  3 active torsions:
REMARK  status: ('A' for Active; 'I' for Inactive)
REMARK    1  A    between atoms: N_1  and  C_6
REMARK    2  A    between atoms: N_1  and  C_7
REMARK    3  A    between atoms: N_2  and  C_8
REMARK                            x       y       z     vdW  Elec       q    Type
REMARK                         _______ _______ _______ _____ _____    ______ ____
ROOT
ATOM      1  N   UNL     1       0.661   0.690  -1.037  0.00  0.00    +0.000 NA
ATOM      2  N   UNL     1       2.275   2.210  -0.312  0.00  0.00    +0.000 N 
ATOM      3  N   UNL     1       2.850   0.813  -2.025  0.00  0.00    +0.000 N 
ATOM      4  C   UNL     1       1.865   1.191  -1.139  0.00  0.00    +0.000 C 
ATOM      5  H   UNL     1       3.205   2.608  -0.382  0.00  0.00    +0.000 HD
ATOM      6  H   UNL     1       1.655   2.593   0.393  0.00  0.00    +0.000 HD
ATOM      7  H   UNL     1       2.704   0.074  -2.705  0.00  0.00    +0.000 HD
ATOM      8  H   UNL     1       3.757   1.266  -2.026  0.00  0.00    +0.000 HD
ENDROOT
BRANCH   1  13
ATOM      9  N   UNL     1      -0.280  -1.507  -1.427  0.00  0.00    +0.000 N 
ATOM     10  N   UNL     1       0.580  -0.087  -3.151  0.00  0.00    +0.000 NA
ATOM     11  C   UNL     1      -0.547  -1.719  -0.009  0.00  0.00    +0.000 C 
ATOM     12  C   UNL     1      -0.775  -2.535  -2.336  0.00  0.00    +0.000 C 
ATOM     13  C   UNL     1       0.317  -0.333  -1.901  0.00  0.00    +0.000 C 
ATOM     14  H   UNL     1       0.301  -0.876  -3.739  0.00  0.00    +0.000 HD
ENDBRANCH   1  13
TORSDOF 1
ENDMDL
MODEL 4
REMARK VINA RESULT:    -6.188      1.294      2.163
REMARK INTER + INTRA:          -7.242
REMARK INTER:                  -6.486
REMARK INTRA:                  -0.756
REMARK CONF_INDEPENDENT:        0.298
REMARK UNBOUND:                 0.756
REMARK  Name = 4091
REMARK  3 active torsions:
REMARK  status: ('A' for Active; 'I' for Inactive)
REMARK    1  A    between atoms: N_1  and  C_6
REMARK    2  A    between atoms: N_1  and  C_7
REMARK    3  A    between atoms: N_2  and  C_8
REMARK                            x       y       z     vdW  Elec       q    Type
REMARK                         _______ _______ _______ _____ _____    ______ ____
ROOT
ATOM      1  N   UNL     1      -0.692  -1.501  -1.948  0.00  0.00    +0.000 NA
ATOM      2  N   UNL     1      -1.070  -3.694  -2.647  0.00  0.00    +0.000 N 
ATOM      3  N   UNL     1       1.073  -2.913  -2.769  0.00  0.00    +0.000 N 
ATOM      4  C   UNL     1      -0.231  -2.628  -2.428  0.00  0.00    +0.000 C 
ATOM      5  H   UNL     1      -0.725  -4.573  -3.018  0.00  0.00    +0.000 HD
ATOM      6  H   UNL     1      -2.061  -3.631  -2.442  0.00  0.00    +0.000 HD
ATOM      7  H   UNL     1       1.816  -2.231  -2.666  0.00  0.00    +0.000 HD
ATOM      8  H   UNL     1       1.332  -3.823  -3.136  0.00  0.00    +0.000 HD
ENDROOT
BRANCH   1  13
ATOM      9  N   UNL     1       0.291   0.195  -0.526  0.00  0.00    +0.000 N 
ATOM     10  N   UNL     1       0.955  -0.213  -2.789  0.00  0.00    +0.000 NA
ATOM     11  C   UNL     1      -0.579  -0.145   0.595  0.00  0.00    +0.000 C 
ATOM     12  C   UNL     1       1.327   1.186  -0.259  0.00  0.00    +0.000 C 
ATOM     13  C   UNL     1       0.209  -0.470  -1.754  0.00  0.00    +0.000 C 
ATOM     14  H   UNL     1       1.602   0.552  -2.584  0.00  0.00    +0.000 HD
ENDBRANCH   1  13
TORSDOF 1
ENDMDL
MODEL 5
REMARK VINA RESULT:    -5.686      6.258      6.773
REMARK INTER + INTRA:          -6.745
REMARK INTER:                  -5.985
REMARK INTRA:                  -0.760
REMARK CONF_INDEPENDENT:        0.298
REMARK UNBOUND:                 0.760
REMARK  Name = 4091
REMARK  3 active torsions:
REMARK  status: ('A' for Active; 'I' for Inactive)
REMARK    1  A    between atoms: N_1  and  C_6
REMARK    2  A    between atoms: N_1  and  C_7
REMARK    3  A    between atoms: N_2  and  C_8
REMARK                            x       y       z     vdW  Elec       q    Type
REMARK                         _______ _______ _______ _____ _____    ______ ____
ROOT
ATOM      1  N   UNL     1      -2.469   1.104   3.047  0.00  0.00    +0.000 NA
ATOM      2  N   UNL     1      -4.563   0.757   2.080  0.00  0.00    +0.000 N 
ATOM      3  N   UNL     1      -3.922  -0.687   3.730  0.00  0.00    +0.000 N 
ATOM      4  C   UNL     1      -3.578   0.414   2.976  0.00  0.00    +0.000 C 
ATOM      5  H   UNL     1      -5.427   0.231   2.015  0.00  0.00    +0.000 HD
ATOM      6  H   UNL     1      -4.450   1.548   1.456  0.00  0.00    +0.000 HD
ATOM      7  H   UNL     1      -3.303  -1.065   4.438  0.00  0.00    +0.000 HD
ATOM      8  H   UNL     1      -4.812  -1.155   3.599  0.00  0.00    +0.000 HD
ENDROOT
BRANCH   1  13
ATOM      9  N   UNL     1      -0.950   1.617   4.862  0.00  0.00    +0.000 N 
ATOM     10  N   UNL     1      -1.251  -0.571   3.937  0.00  0.00    +0.000 NA
ATOM     11  C   UNL     1      -1.300   3.033   4.845  0.00  0.00    +0.000 C 
ATOM     12  C   UNL     1      -0.057   1.187   5.933  0.00  0.00    +0.000 C 
ATOM     13  C   UNL     1      -1.522   0.701   3.971  0.00  0.00    +0.000 C 
ATOM     14  H   UNL     1      -0.550  -0.807   4.644  0.00  0.00    +0.000 HD
ENDBRANCH   1  13
TORSDOF 1
ENDMDL
MODEL 6
REMARK VINA RESULT:    -5.534      7.099      8.388
REMARK INTER + INTRA:          -6.558
REMARK INTER:                  -5.833
REMARK INTRA:                  -0.725
REMARK CONF_INDEPENDENT:        0.298
REMARK UNBOUND:                 0.725
REMARK  Name = 4091
REMARK  3 active torsions:
REMARK  status: ('A' for Active; 'I' for Inactive)
REMARK    1  A    between atoms: N_1  and  C_6
REMARK    2  A    between atoms: N_1  and  C_7
REMARK    3  A    between atoms: N_2  and  C_8
REMARK                            x       y       z     vdW  Elec       q    Type
REMARK                         _______ _______ _______ _____ _____    ______ ____
ROOT
ATOM      1  N   UNL     1       3.515   1.906   4.905  0.00  0.00    +0.000 NA
ATOM      2  N   UNL     1       2.696   3.812   5.972  0.00  0.00    +0.000 N 
ATOM      3  N   UNL     1       1.897   1.793   6.681  0.00  0.00    +0.000 N 
ATOM      4  C   UNL     1       2.738   2.448   5.808  0.00  0.00    +0.000 C 
ATOM      5  H   UNL     1       2.100   4.244   6.668  0.00  0.00    +0.000 HD
ATOM      6  H   UNL     1       3.264   4.425   5.397  0.00  0.00    +0.000 HD
ATOM      7  H   UNL     1       1.814   0.783   6.689  0.00  0.00    +0.000 HD
ATOM      8  H   UNL     1       1.332   2.307   7.349  0.00  0.00    +0.000 HD
ENDROOT
BRANCH   1  13
ATOM      9  N   UNL     1       4.700  -0.198   4.711  0.00  0.00    +0.000 N 
ATOM     10  N   UNL     1       2.316  -0.000   4.802  0.00  0.00    +0.000 NA
ATOM     11  C   UNL     1       6.002   0.459   4.709  0.00  0.00    +0.000 C 
ATOM     12  C   UNL     1       4.714  -1.656   4.736  0.00  0.00    +0.000 C 
ATOM     13  C   UNL     1       3.505   0.527   4.796  0.00  0.00    +0.000 C 
ATOM     14  H   UNL     1       2.374  -1.018   4.724  0.00  0.00    +0.000 HD
ENDBRANCH   1  13
TORSDOF 1
ENDMDL
MODEL 7
REMARK VINA RESULT:    -5.495      7.614      8.260
REMARK INTER + INTRA:          -6.531
REMARK INTER:                  -5.793
REMARK INTRA:                  -0.738
REMARK CONF_INDEPENDENT:        0.298
REMARK UNBOUND:                 0.738
REMARK  Name = 4091
REMARK  3 active torsions:
REMARK  status: ('A' for Active; 'I' for Inactive)
REMARK    1  A    between atoms: N_1  and  C_6
REMARK    2  A    between atoms: N_1  and  C_7
REMARK    3  A    between atoms: N_2  and  C_8
REMARK                            x       y       z     vdW  Elec       q    Type
REMARK                         _______ _______ _______ _____ _____    ______ ____
ROOT
ATOM      1  N   UNL     1       2.105   1.204   6.152  0.00  0.00    +0.000 NA
ATOM      2  N   UNL     1       3.826  -0.371   6.113  0.00  0.00    +0.000 N 
ATOM      3  N   UNL     1       4.248   1.661   5.159  0.00  0.00    +0.000 N 
ATOM      4  C   UNL     1       3.327   0.875   5.816  0.00  0.00    +0.000 C 
ATOM      5  H   UNL     1       4.770  -0.638   5.859  0.00  0.00    +0.000 HD
ATOM      6  H   UNL     1       3.260  -1.060   6.596  0.00  0.00    +0.000 HD
ATOM      7  H   UNL     1       4.035   2.610   4.872  0.00  0.00    +0.000 HD
ATOM      8  H   UNL     1       5.176   1.312   4.943  0.00  0.00    +0.000 HD
ENDROOT
BRANCH   1  13
ATOM      9  N   UNL     1       0.469   2.666   5.127  0.00  0.00    +0.000 N 
ATOM     10  N   UNL     1       2.456   3.429   6.223  0.00  0.00    +0.000 NA
ATOM     11  C   UNL     1      -0.365   1.547   4.703  0.00  0.00    +0.000 C 
ATOM     12  C   UNL     1      -0.074   4.000   4.892  0.00  0.00    +0.000 C 
ATOM     13  C   UNL     1       1.670   2.474   5.820  0.00  0.00    +0.000 C 
ATOM     14  H   UNL     1       2.080   4.341   5.953  0.00  0.00    +0.000 HD
ENDBRANCH   1  13
TORSDOF 1
ENDMDL
MODEL 8
REMARK VINA RESULT:    -5.482      6.569      7.835
REMARK INTER + INTRA:          -6.537
REMARK INTER:                  -5.780
REMARK INTRA:                  -0.757
REMARK CONF_INDEPENDENT:        0.298
REMARK UNBOUND:                 0.757
REMARK  Name = 4091
REMARK  3 active torsions:
REMARK  status: ('A' for Active; 'I' for Inactive)
REMARK    1  A    between atoms: N_1  and  C_6
REMARK    2  A    between atoms: N_1  and  C_7
REMARK    3  A    between atoms: N_2  and  C_8
REMARK                            x       y       z     vdW  Elec       q    Type
REMARK                         _______ _______ _______ _____ _____    ______ ____
ROOT
ATOM      1  N   UNL     1       2.014   2.400   4.064  0.00  0.00    +0.000 NA
ATOM      2  N   UNL     1       4.103   2.398   5.103  0.00  0.00    +0.000 N 
ATOM      3  N   UNL     1       2.528   3.832   5.927  0.00  0.00    +0.000 N 
ATOM      4  C   UNL     1       2.816   2.867   4.987  0.00  0.00    +0.000 C 
ATOM      5  H   UNL     1       4.734   2.751   5.814  0.00  0.00    +0.000 HD
ATOM      6  H   UNL     1       4.458   1.683   4.477  0.00  0.00    +0.000 HD
ATOM      7  H   UNL     1       1.618   4.278   5.976  0.00  0.00    +0.000 HD
ATOM      8  H   UNL     1       3.222   4.127   6.605  0.00  0.00    +0.000 HD
ENDROOT
BRANCH   1  13
ATOM      9  N   UNL     1      -0.385   2.078   4.003  0.00  0.00    +0.000 N 
ATOM     10  N   UNL     1       0.686   4.219   3.976  0.00  0.00    +0.000 NA
ATOM     11  C   UNL     1      -0.259   0.625   4.038  0.00  0.00    +0.000 C 
ATOM     12  C   UNL     1      -1.741   2.609   4.084  0.00  0.00    +0.000 C 
ATOM     13  C   UNL     1       0.734   2.919   4.006  0.00  0.00    +0.000 C 
ATOM     14  H   UNL     1      -0.284   4.541   3.938  0.00  0.00    +0.000 HD
ENDBRANCH   1  13
TORSDOF 1
ENDMDL
MODEL 9
REMARK VINA RESULT:    -5.466      6.797      8.169
REMARK INTER + INTRA:          -6.522
REMARK INTER:                  -5.764
REMARK INTRA:                  -0.758
REMARK CONF_INDEPENDENT:        0.298
REMARK UNBOUND:                 0.758
REMARK  Name = 4091
REMARK  3 active torsions:
REMARK  status: ('A' for Active; 'I' for Inactive)
REMARK    1  A    between atoms: N_1  and  C_6
REMARK    2  A    between atoms: N_1  and  C_7
REMARK    3  A    between atoms: N_2  and  C_8
REMARK                            x       y       z     vdW  Elec       q    Type
REMARK                         _______ _______ _______ _____ _____    ______ ____
ROOT
ATOM      1  N   UNL     1       1.282   2.447   5.887  0.00  0.00    +0.000 NA
ATOM      2  N   UNL     1       3.166   3.811   6.060  0.00  0.00    +0.000 N 
ATOM      3  N   UNL     1       3.058   2.402   4.265  0.00  0.00    +0.000 N 
ATOM      4  C   UNL     1       2.433   2.846   5.410  0.00  0.00    +0.000 C 
ATOM      5  H   UNL     1       4.059   4.130   5.701  0.00  0.00    +0.000 HD
ATOM      6  H   UNL     1       2.831   4.232   6.920  0.00  0.00    +0.000 HD
ATOM      7  H   UNL     1       2.645   1.692   3.671  0.00  0.00    +0.000 HD
ATOM      8  H   UNL     1       3.955   2.778   3.979  0.00  0.00    +0.000 HD
ENDROOT
BRANCH   1  13
ATOM      9  N   UNL     1      -0.746   1.641   4.836  0.00  0.00    +0.000 N 
ATOM     10  N   UNL     1       1.323   0.437   4.868  0.00  0.00    +0.000 NA
ATOM     11  C   UNL     1      -1.498   2.830   5.221  0.00  0.00    +0.000 C 
ATOM     12  C   UNL     1      -1.440   0.690   3.975  0.00  0.00    +0.000 C 
ATOM     13  C   UNL     1       0.600   1.472   5.181  0.00  0.00    +0.000 C 
ATOM     14  H   UNL     1       0.767  -0.244   4.345  0.00  0.00    +0.000 HD
ENDBRANCH   1  13
TORSDOF 1
ENDMDL
