MODEL 1
REMARK VINA RESULT:    -6.899      0.000      0.000
REMARK INTER + INTRA:          -7.946
REMARK INTER:                  -7.197
REMARK INTRA:                  -0.749
REMARK CONF_INDEPENDENT:        0.298
REMARK UNBOUND:                 0.749
REMARK  Name = 4091
REMARK  3 active torsions:
REMARK  status: ('A' for Active; 'I' for Inactive)
REMARK    1  A    between atoms: N_1  and  C_6
REMARK    2  A    between atoms: N_1  and  C_7
REMARK    3  A    between atoms: N_2  and  C_8
REMARK                            x       y       z     vdW  Elec       q    Type
REMARK                         _______ _______ _______ _____ _____    ______ ____
ROOT
ATOM      1  N   UNL     1       4.358   0.890   5.082  0.00  0.00    +0.000 NA
ATOM      2  N   UNL     1       4.387   2.157   3.123  0.00  0.00    +0.000 N 
ATOM      3  N   UNL     1       2.427   2.089   4.295  0.00  0.00    +0.000 N 
ATOM      4  C   UNL     1       3.737   1.666   4.231  0.00  0.00    +0.000 C 
ATOM      5  H   UNL     1       3.917   2.759   2.457  0.00  0.00    +0.000 HD
ATOM      6  H   UNL     1       5.358   1.929   2.943  0.00  0.00    +0.000 HD
ATOM      7  H   UNL     1       1.813   1.815   5.054  0.00  0.00    +0.000 HD
ATOM      8  H   UNL     1       2.036   2.694   3.581  0.00  0.00    +0.000 HD
ENDROOT
BRANCH   1  13
ATOM      9  N   UNL     1       3.617  -0.928   6.499  0.00  0.00    +0.000 N 
ATOM     10  N   UNL     1       3.037   1.368   6.844  0.00  0.00    +0.000 NA
ATOM     11  C   UNL     1       4.320  -1.926   5.700  0.00  0.00    +0.000 C 
ATOM     12  C   UNL     1       2.984  -1.411   7.721  0.00  0.00    +0.000 C 
ATOM     13  C   UNL     1       3.642   0.433   6.173  0.00  0.00    +0.000 C 
ATOM     14  H   UNL     1       2.529   0.970   7.637  0.00  0.00    +0.000 HD
ENDBRANCH   1  13
TORSDOF 1
ENDMDL
MODEL 2
REMARK VINA RESULT:    -6.478      1.601      2.171
REMARK INTER + INTRA:          -7.476
REMARK INTER:                  -6.777
REMARK INTRA:                  -0.699
REMARK CONF_INDEPENDENT:        0.298
REMARK UNBOUND:                 0.699
REMARK  Name = 4091
REMARK  3 active torsions:
REMARK  status: ('A' for Active; 'I' for Inactive)
REMARK    1  A    between atoms: N_1  and  C_6
REMARK    2  A    between atoms: N_1  and  C_7
REMARK    3  A    between atoms: N_2  and  C_8
REMARK                            x       y       z     vdW  Elec       q    Type
REMARK                         _______ _______ _______ _____ _____    ______ ____
ROOT
ATOM      1  N   UNL     1       3.032  -0.184   4.898  0.00  0.00    +0.000 NA
ATOM      2  N   UNL     1       2.498   1.701   3.631  0.00  0.00    +0.000 N 
ATOM      3  N   UNL     1       4.713   1.282   4.000  0.00  0.00    +0.000 N 
ATOM      4  C   UNL     1       3.418   0.866   4.221  0.00  0.00    +0.000 C 
ATOM      5  H   UNL     1       2.785   2.517   3.103  0.00  0.00    +0.000 HD
ATOM      6  H   UNL     1       1.504   1.521   3.710  0.00  0.00    +0.000 HD
ATOM      7  H   UNL     1       5.509   0.772   4.367  0.00  0.00    +0.000 HD
ATOM      8  H   UNL     1       4.911   2.115   3.456  0.00  0.00    +0.000 HD
ENDROOT
BRANCH   1  13
ATOM      9  N   UNL     1       3.947  -2.374   5.382  0.00  0.00    +0.000 N 
ATOM     10  N   UNL     1       4.972  -0.312   6.039  0.00  0.00    +0.000 NA
ATOM     11  C   UNL     1       2.840  -3.057   4.722  0.00  0.00    +0.000 C 
ATOM     12  C   UNL     1       5.039  -3.220   5.849  0.00  0.00    +0.000 C 
ATOM     13  C   UNL     1       4.013  -0.978   5.464  0.00  0.00    +0.000 C 
ATOM     14  H   UNL     1       5.666  -0.952   6.433  0.00  0.00    +0.000 HD
ENDBRANCH   1  13
TORSDOF 1
ENDMDL
MODEL 3
REMARK VINA RESULT:    -6.076     12.536     13.523
REMARK INTER + INTRA:          -7.025
REMARK INTER:                  -6.375
REMARK INTRA:                  -0.650
REMARK CONF_INDEPENDENT:        0.298
REMARK UNBOUND:                 0.650
REMARK  Name = 4091
REMARK  3 active torsions:
REMARK  status: ('A' for Active; 'I' for Inactive)
REMARK    1  A    between atoms: N_1  and  C_6
REMARK    2  A    between atoms: N_1  and  C_7
REMARK    3  A    between atoms: N_2  and  C_8
REMARK                            x       y       z     vdW  Elec       q    Type
REMARK                         _______ _______ _______ _____ _____    ______ ____
ROOT
ATOM      1  N   UNL     1      -5.144   1.968  -5.057  0.00  0.00    +0.000 NA
ATOM      2  N   UNL     1      -4.950   0.067  -6.396  0.00  0.00    +0.000 N 
ATOM      3  N   UNL     1      -5.746  -0.226  -4.275  0.00  0.00    +0.000 N 
ATOM      4  C   UNL     1      -5.281   0.675  -5.208  0.00  0.00    +0.000 C 
ATOM      5  H   UNL     1      -5.053  -0.933  -6.526  0.00  0.00    +0.000 HD
ATOM      6  H   UNL     1      -4.593   0.605  -7.177  0.00  0.00    +0.000 HD
ATOM      7  H   UNL     1      -6.034   0.065  -3.347  0.00  0.00    +0.000 HD
ATOM      8  H   UNL     1      -5.817  -1.214  -4.491  0.00  0.00    +0.000 HD
ENDROOT
BRANCH   1  13
ATOM      9  N   UNL     1      -4.742   3.541  -3.260  0.00  0.00    +0.000 N 
ATOM     10  N   UNL     1      -6.569   1.995  -3.311  0.00  0.00    +0.000 NA
ATOM     11  C   UNL     1      -3.546   4.073  -3.903  0.00  0.00    +0.000 C 
ATOM     12  C   UNL     1      -5.175   4.219  -2.043  0.00  0.00    +0.000 C 
ATOM     13  C   UNL     1      -5.495   2.511  -3.835  0.00  0.00    +0.000 C 
ATOM     14  H   UNL     1      -6.779   2.438  -2.414  0.00  0.00    +0.000 HD
ENDBRANCH   1  13
TORSDOF 1
ENDMDL
MODEL 4
REMARK VINA RESULT:    -5.841      8.373      9.484
REMARK INTER + INTRA:          -6.895
REMARK INTER:                  -6.139
REMARK INTRA:                  -0.756
REMARK CONF_INDEPENDENT:        0.298
REMARK UNBOUND:                 0.756
REMARK  Name = 4091
REMARK  3 active torsions:
REMARK  status: ('A' for Active; 'I' for Inactive)
REMARK    1  A    between atoms: N_1  and  C_6
REMARK    2  A    between atoms: N_1  and  C_7
REMARK    3  A    between atoms: N_2  and  C_8
REMARK                            x       y       z     vdW  Elec       q    Type
REMARK                         _______ _______ _______ _____ _____    ______ ____
ROOT
ATOM      1  N   UNL     1      -5.167   3.262   3.615  0.00  0.00    +0.000 NA
ATOM      2  N   UNL     1      -5.763   5.514   3.487  0.00  0.00    +0.000 N 
ATOM      3  N   UNL     1      -6.206   4.211   1.664  0.00  0.00    +0.000 N 
ATOM      4  C   UNL     1      -5.687   4.255   2.940  0.00  0.00    +0.000 C 
ATOM      5  H   UNL     1      -6.164   6.292   2.975  0.00  0.00    +0.000 HD
ATOM      6  H   UNL     1      -5.418   5.699   4.423  0.00  0.00    +0.000 HD
ATOM      7  H   UNL     1      -6.227   3.354   1.123  0.00  0.00    +0.000 HD
ATOM      8  H   UNL     1      -6.589   5.042   1.225  0.00  0.00    +0.000 HD
ENDROOT
BRANCH   1  13
ATOM      9  N   UNL     1      -3.946   1.266   2.990  0.00  0.00    +0.000 N 
ATOM     10  N   UNL     1      -6.252   1.649   2.474  0.00  0.00    +0.000 NA
ATOM     11  C   UNL     1      -2.712   1.749   3.600  0.00  0.00    +0.000 C 
ATOM     12  C   UNL     1      -3.918  -0.097   2.470  0.00  0.00    +0.000 C 
ATOM     13  C   UNL     1      -5.123   2.024   3.000  0.00  0.00    +0.000 C 
ATOM     14  H   UNL     1      -6.158   0.728   2.040  0.00  0.00    +0.000 HD
ENDBRANCH   1  13
TORSDOF 1
ENDMDL
MODEL 5
REMARK VINA RESULT:    -5.812      5.415      6.635
REMARK INTER + INTRA:          -6.827
REMARK INTER:                  -6.110
REMARK INTRA:                  -0.717
REMARK CONF_INDEPENDENT:        0.298
REMARK UNBOUND:                 0.717
REMARK  Name = 4091
REMARK  3 active torsions:
REMARK  status: ('A' for Active; 'I' for Inactive)
REMARK    1  A    between atoms: N_1  and  C_6
REMARK    2  A    between atoms: N_1  and  C_7
REMARK    3  A    between atoms: N_2  and  C_8
REMARK                            x       y       z     vdW  Elec       q    Type
REMARK                         _______ _______ _______ _____ _____    ______ ____
ROOT
ATOM      1  N   UNL     1      -1.830   0.060   2.849  0.00  0.00    +0.000 NA
ATOM      2  N   UNL     1      -3.458  -1.609   2.769  0.00  0.00    +0.000 N 
ATOM      3  N   UNL     1      -4.114   0.458   3.490  0.00  0.00    +0.000 N 
ATOM      4  C   UNL     1      -3.069  -0.317   3.034  0.00  0.00    +0.000 C 
ATOM      5  H   UNL     1      -4.415  -1.913   2.907  0.00  0.00    +0.000 HD
ATOM      6  H   UNL     1      -2.795  -2.295   2.427  0.00  0.00    +0.000 HD
ATOM      7  H   UNL     1      -3.992   1.435   3.728  0.00  0.00    +0.000 HD
ATOM      8  H   UNL     1      -5.045   0.070   3.599  0.00  0.00    +0.000 HD
ENDROOT
BRANCH   1  13
ATOM      9  N   UNL     1      -0.452   1.686   3.998  0.00  0.00    +0.000 N 
ATOM     10  N   UNL     1      -2.257   2.250   2.530  0.00  0.00    +0.000 NA
ATOM     11  C   UNL     1       0.346   0.652   4.647  0.00  0.00    +0.000 C 
ATOM     12  C   UNL     1      -0.013   3.062   4.204  0.00  0.00    +0.000 C 
ATOM     13  C   UNL     1      -1.511   1.374   3.137  0.00  0.00    +0.000 C 
ATOM     14  H   UNL     1      -1.970   3.200   2.779  0.00  0.00    +0.000 HD
ENDBRANCH   1  13
TORSDOF 1
ENDMDL
MODEL 6
REMARK VINA RESULT:    -5.799      2.316      3.497
REMARK INTER + INTRA:          -6.845
REMARK INTER:                  -6.098
REMARK INTRA:                  -0.747
REMARK CONF_INDEPENDENT:        0.298
REMARK UNBOUND:                 0.747
REMARK  Name = 4091
REMARK  3 active torsions:
REMARK  status: ('A' for Active; 'I' for Inactive)
REMARK    1  A    between atoms: N_1  and  C_6
REMARK    2  A    between atoms: N_1  and  C_7
REMARK    3  A    between atoms: N_2  and  C_8
REMARK                            x       y       z     vdW  Elec       q    Type
REMARK                         _______ _______ _______ _____ _____    ______ ____
ROOT
ATOM      1  N   UNL     1       2.603   1.658   5.340  0.00  0.00    +0.000 NA
ATOM      2  N   UNL     1       4.932   1.560   5.448  0.00  0.00    +0.000 N 
ATOM      3  N   UNL     1       4.005   2.254   3.479  0.00  0.00    +0.000 N 
ATOM      4  C   UNL     1       3.767   1.823   4.765  0.00  0.00    +0.000 C 
ATOM      5  H   UNL     1       5.840   1.684   5.015  0.00  0.00    +0.000 HD
ATOM      6  H   UNL     1       4.913   1.234   6.408  0.00  0.00    +0.000 HD
ATOM      7  H   UNL     1       3.250   2.492   2.845  0.00  0.00    +0.000 HD
ATOM      8  H   UNL     1       4.951   2.350   3.125  0.00  0.00    +0.000 HD
ENDROOT
BRANCH   1  13
ATOM      9  N   UNL     1       0.394   1.052   4.554  0.00  0.00    +0.000 N 
ATOM     10  N   UNL     1       1.518   3.084   3.973  0.00  0.00    +0.000 NA
ATOM     11  C   UNL     1       0.413  -0.217   5.274  0.00  0.00    +0.000 C 
ATOM     12  C   UNL     1      -0.856   1.395   3.886  0.00  0.00    +0.000 C 
ATOM     13  C   UNL     1       1.475   1.941   4.592  0.00  0.00    +0.000 C 
ATOM     14  H   UNL     1       0.657   3.238   3.443  0.00  0.00    +0.000 HD
ENDBRANCH   1  13
TORSDOF 1
ENDMDL
MODEL 7
REMARK VINA RESULT:    -5.738      6.300      7.644
REMARK INTER + INTRA:          -6.791
REMARK INTER:                  -6.036
REMARK INTRA:                  -0.755
REMARK CONF_INDEPENDENT:        0.298
REMARK UNBOUND:                 0.755
REMARK  Name = 4091
REMARK  3 active torsions:
REMARK  status: ('A' for Active; 'I' for Inactive)
REMARK    1  A    between atoms: N_1  and  C_6
REMARK    2  A    between atoms: N_1  and  C_7
REMARK    3  A    between atoms: N_2  and  C_8
REMARK                            x       y       z     vdW  Elec       q    Type
REMARK                         _______ _______ _______ _____ _____    ______ ____
ROOT
ATOM      1  N   UNL     1      -1.878   2.111   2.474  0.00  0.00    +0.000 NA
ATOM      2  N   UNL     1       0.372   2.071   3.089  0.00  0.00    +0.000 N 
ATOM      3  N   UNL     1      -0.995   0.500   4.027  0.00  0.00    +0.000 N 
ATOM      4  C   UNL     1      -0.907   1.574   3.168  0.00  0.00    +0.000 C 
ATOM      5  H   UNL     1       1.133   1.663   3.620  0.00  0.00    +0.000 HD
ATOM      6  H   UNL     1       0.590   2.863   2.494  0.00  0.00    +0.000 HD
ATOM      7  H   UNL     1      -1.871   0.019   4.195  0.00  0.00    +0.000 HD
ATOM      8  H   UNL     1      -0.179   0.156   4.521  0.00  0.00    +0.000 HD
ENDROOT
BRANCH   1  13
ATOM      9  N   UNL     1      -4.259   2.366   2.832  0.00  0.00    +0.000 N 
ATOM     10  N   UNL     1      -3.170   0.265   2.474  0.00  0.00    +0.000 NA
ATOM     11  C   UNL     1      -4.152   3.815   2.968  0.00  0.00    +0.000 C 
ATOM     12  C   UNL     1      -5.611   1.818   2.833  0.00  0.00    +0.000 C 
ATOM     13  C   UNL     1      -3.139   1.559   2.604  0.00  0.00    +0.000 C 
ATOM     14  H   UNL     1      -4.127  -0.083   2.575  0.00  0.00    +0.000 HD
ENDBRANCH   1  13
TORSDOF 1
ENDMDL
MODEL 8
REMARK VINA RESULT:    -5.675      2.131      4.164
REMARK INTER + INTRA:          -6.662
REMARK INTER:                  -5.973
REMARK INTRA:                  -0.689
REMARK CONF_INDEPENDENT:        0.298
REMARK UNBOUND:                 0.689
REMARK  Name = 4091
REMARK  3 active torsions:
REMARK  status: ('A' for Active; 'I' for Inactive)
REMARK    1  A    between atoms: N_1  and  C_6
REMARK    2  A    between atoms: N_1  and  C_7
REMARK    3  A    between atoms: N_2  and  C_8
REMARK                            x       y       z     vdW  Elec       q    Type
REMARK                         _______ _______ _______ _____ _____    ______ ____
ROOT
ATOM      1  N   UNL     1       3.434  -2.192   5.011  0.00  0.00    +0.000 NA
ATOM      2  N   UNL     1       3.663  -4.269   3.973  0.00  0.00    +0.000 N 
ATOM      3  N   UNL     1       5.239  -3.695   5.524  0.00  0.00    +0.000 N 
ATOM      4  C   UNL     1       4.093  -3.313   4.863  0.00  0.00    +0.000 C 
ATOM      5  H   UNL     1       4.164  -5.141   3.850  0.00  0.00    +0.000 HD
ATOM      6  H   UNL     1       2.830  -4.125   3.414  0.00  0.00    +0.000 HD
ATOM      7  H   UNL     1       5.682  -3.102   6.216  0.00  0.00    +0.000 HD
ATOM      8  H   UNL     1       5.677  -4.592   5.339  0.00  0.00    +0.000 HD
ENDROOT
BRANCH   1  13
ATOM      9  N   UNL     1       3.948   0.093   5.629  0.00  0.00    +0.000 N 
ATOM     10  N   UNL     1       4.325  -1.802   7.044  0.00  0.00    +0.000 NA
ATOM     11  C   UNL     1       3.482   0.615   4.350  0.00  0.00    +0.000 C 
ATOM     12  C   UNL     1       4.331   1.084   6.629  0.00  0.00    +0.000 C 
ATOM     13  C   UNL     1       3.925  -1.276   5.923  0.00  0.00    +0.000 C 
ATOM     14  H   UNL     1       4.672  -1.077   7.677  0.00  0.00    +0.000 HD
ENDBRANCH   1  13
TORSDOF 1
ENDMDL
MODEL 9
REMARK VINA RESULT:    -5.647     12.725     13.612
REMARK INTER + INTRA:          -6.701
REMARK INTER:                  -5.946
REMARK INTRA:                  -0.756
REMARK CONF_INDEPENDENT:        0.298
REMARK UNBOUND:                 0.756
REMARK  Name = 4091
REMARK  3 active torsions:
REMARK  status: ('A' for Active; 'I' for Inactive)
REMARK    1  A    between atoms: N_1  and  C_6
REMARK    2  A    between atoms: N_1  and  C_7
REMARK    3  A    between atoms: N_2  and  C_8
REMARK                            x       y       z     vdW  Elec       q    Type
REMARK                         _______ _______ _______ _____ _____    ______ ____
ROOT
ATOM      1  N   UNL     1      -5.322   3.127  -4.954  0.00  0.00    +0.000 NA
ATOM      2  N   UNL     1      -3.943   5.001  -4.796  0.00  0.00    +0.000 N 
ATOM      3  N   UNL     1      -4.252   3.769  -2.898  0.00  0.00    +0.000 N 
ATOM      4  C   UNL     1      -4.555   3.905  -4.235  0.00  0.00    +0.000 C 
ATOM      5  H   UNL     1      -3.345   5.612  -4.250  0.00  0.00    +0.000 HD
ATOM      6  H   UNL     1      -4.074   5.229  -5.775  0.00  0.00    +0.000 HD
ATOM      7  H   UNL     1      -4.624   3.008  -2.339  0.00  0.00    +0.000 HD
ATOM      8  H   UNL     1      -3.642   4.429  -2.428  0.00  0.00    +0.000 HD
ENDROOT
BRANCH   1  13
ATOM      9  N   UNL     1      -5.836   0.761  -4.881  0.00  0.00    +0.000 N 
ATOM     10  N   UNL     1      -6.482   2.331  -3.193  0.00  0.00    +0.000 NA
ATOM     11  C   UNL     1      -5.172   0.509  -6.155  0.00  0.00    +0.000 C 
ATOM     12  C   UNL     1      -6.322  -0.413  -4.164  0.00  0.00    +0.000 C 
ATOM     13  C   UNL     1      -5.906   2.043  -4.323  0.00  0.00    +0.000 C 
ATOM     14  H   UNL     1      -6.889   1.491  -2.774  0.00  0.00    +0.000 HD
ENDBRANCH   1  13
TORSDOF 1
ENDMDL
