MODEL 1
REMARK VINA RESULT:    -6.869      0.000      0.000
REMARK INTER + INTRA:         -11.200
REMARK INTER:                  -8.659
REMARK INTRA:                  -2.541
REMARK CONF_INDEPENDENT:        1.790
REMARK UNBOUND:                 2.541
REMARK  Name = 5318517
REMARK  8 active torsions:
REMARK  status: ('A' for Active; 'I' for Inactive)
REMARK    1  A    between atoms: O_1  and  C_11
REMARK    2  A    between atoms: O_2  and  C_17
REMARK    3  A    between atoms: O_4  and  C_23
REMARK    4  A    between atoms: C_6  and  C_14
REMARK    5  A    between atoms: C_8  and  C_17
REMARK    6  A    between atoms: C_8  and  C_18
REMARK    7  A    between atoms: C_9  and  C_19
REMARK    8  A    between atoms: C_19  and  C_21
REMARK                            x       y       z     vdW  Elec       q    Type
REMARK                         _______ _______ _______ _____ _____    ______ ____
ROOT
ATOM      1  C   UNL     1       1.470  -1.589  -5.490  0.00  0.00    +0.000 C 
ATOM      2  C   UNL     1       0.345  -1.375  -4.398  0.00  0.00    +0.000 C 
ATOM      3  C   UNL     1      -1.074  -0.930  -4.921  0.00  0.00    +0.000 C 
ATOM      4  C   UNL     1       2.852  -1.712  -4.718  0.00  0.00    +0.000 C 
ATOM      5  C   UNL     1       1.496  -0.354  -6.428  0.00  0.00    +0.000 C 
ATOM      6  C   UNL     1      -0.893   0.266  -5.901  0.00  0.00    +0.000 C 
ATOM      7  C   UNL     1       0.317  -2.547  -3.389  0.00  0.00    +0.000 C 
ATOM      8  C   UNL     1       0.132   0.012  -7.001  0.00  0.00    +0.000 C 
ATOM      9  C   UNL     1       1.259  -2.858  -6.355  0.00  0.00    +0.000 C 
ATOM     10  C   UNL     1       1.674  -2.739  -2.708  0.00  0.00    +0.000 C 
ATOM     11  C   UNL     1       2.790  -2.861  -3.713  0.00  0.00    +0.000 C 
ATOM     12  C   UNL     1      -1.925  -0.415  -3.725  0.00  0.00    +0.000 C 
ATOM     13  C   UNL     1       3.618  -3.919  -3.682  0.00  0.00    +0.000 C 
ENDROOT
BRANCH   6  14
ATOM     14  O   UNL     1      -2.131   0.649  -6.499  0.00  0.00    +0.000 OA
ATOM     15  H   UNL     1      -2.433  -0.092  -7.051  0.00  0.00    +0.000 HD
ENDBRANCH   6  14
BRANCH   3  16
ATOM     16  C   UNL     1      -1.898  -2.069  -5.559  0.00  0.00    +0.000 C 
BRANCH  16  17
ATOM     17  O   UNL     1      -1.619  -2.084  -6.941  0.00  0.00    +0.000 OA
ATOM     18  H   UNL     1      -2.121  -1.355  -7.346  0.00  0.00    +0.000 HD
ENDBRANCH  16  17
ENDBRANCH   3  16
BRANCH   4  19
ATOM     19  C   UNL     1       4.092  -1.734  -5.629  0.00  0.00    +0.000 C 
BRANCH  19  22
ATOM     20  O   UNL     1       6.547   2.095  -4.234  0.00  0.00    +0.000 OA
ATOM     21  O   UNL     1       5.384   2.472  -6.185  0.00  0.00    +0.000 OA
ATOM     22  C   UNL     1       4.586  -0.349  -5.885  0.00  0.00    +0.000 C 
ATOM     23  C   UNL     1       5.230   0.388  -4.977  0.00  0.00    +0.000 C 
ATOM     24  C   UNL     1       5.657   0.000  -3.614  0.00  0.00    +0.000 C 
ATOM     25  C   UNL     1       5.698   1.760  -5.250  0.00  0.00    +0.000 C 
ATOM     26  C   UNL     1       6.820   0.945  -3.411  0.00  0.00    +0.000 C 
BRANCH  24  27
ATOM     27  O   UNL     1       4.632   0.317  -2.681  0.00  0.00    +0.000 OA
ATOM     28  H   UNL     1       3.779   0.141  -3.114  0.00  0.00    +0.000 HD
ENDBRANCH  24  27
ENDBRANCH  19  22
ENDBRANCH   4  19
TORSDOF 6
ENDMDL
MODEL 2
REMARK VINA RESULT:    -6.141      3.326      7.773
REMARK INTER + INTRA:         -10.343
REMARK INTER:                  -7.931
REMARK INTRA:                  -2.412
REMARK CONF_INDEPENDENT:        1.790
REMARK UNBOUND:                 2.412
REMARK  Name = 5318517
REMARK  8 active torsions:
REMARK  status: ('A' for Active; 'I' for Inactive)
REMARK    1  A    between atoms: O_1  and  C_11
REMARK    2  A    between atoms: O_2  and  C_17
REMARK    3  A    between atoms: O_4  and  C_23
REMARK    4  A    between atoms: C_6  and  C_14
REMARK    5  A    between atoms: C_8  and  C_17
REMARK    6  A    between atoms: C_8  and  C_18
REMARK    7  A    between atoms: C_9  and  C_19
REMARK    8  A    between atoms: C_19  and  C_21
REMARK                            x       y       z     vdW  Elec       q    Type
REMARK                         _______ _______ _______ _____ _____    ______ ____
ROOT
ATOM      1  C   UNL     1      -1.380  -1.106  -4.498  0.00  0.00    +0.000 C 
ATOM      2  C   UNL     1      -0.233  -0.470  -5.384  0.00  0.00    +0.000 C 
ATOM      3  C   UNL     1       0.912  -1.440  -5.864  0.00  0.00    +0.000 C 
ATOM      4  C   UNL     1      -2.217   0.095  -3.884  0.00  0.00    +0.000 C 
ATOM      5  C   UNL     1      -0.730  -1.934  -3.360  0.00  0.00    +0.000 C 
ATOM      6  C   UNL     1       1.423  -2.254  -4.639  0.00  0.00    +0.000 C 
ATOM      7  C   UNL     1      -0.823   0.426  -6.499  0.00  0.00    +0.000 C 
ATOM      8  C   UNL     1       0.313  -2.935  -3.845  0.00  0.00    +0.000 C 
ATOM      9  C   UNL     1      -2.335  -2.033  -5.295  0.00  0.00    +0.000 C 
ATOM     10  C   UNL     1      -1.712   1.532  -5.925  0.00  0.00    +0.000 C 
ATOM     11  C   UNL     1      -2.768   0.976  -5.005  0.00  0.00    +0.000 C 
ATOM     12  C   UNL     1       2.113  -0.601  -6.386  0.00  0.00    +0.000 C 
ATOM     13  C   UNL     1      -4.065   1.259  -5.211  0.00  0.00    +0.000 C 
ENDROOT
BRANCH   6  14
ATOM     14  O   UNL     1       2.386  -3.234  -5.023  0.00  0.00    +0.000 OA
ATOM     15  H   UNL     1       1.913  -3.953  -5.476  0.00  0.00    +0.000 HD
ENDBRANCH   6  14
BRANCH   3  16
ATOM     16  C   UNL     1       0.510  -2.364  -7.033  0.00  0.00    +0.000 C 
BRANCH  16  17
ATOM     17  O   UNL     1       1.633  -3.146  -7.374  0.00  0.00    +0.000 OA
ATOM     18  H   UNL     1       1.570  -3.977  -6.873  0.00  0.00    +0.000 HD
ENDBRANCH  16  17
ENDBRANCH   3  16
BRANCH   4  19
ATOM     19  C   UNL     1      -3.263  -0.325  -2.837  0.00  0.00    +0.000 C 
BRANCH  19  22
ATOM     20  O   UNL     1      -5.802  -4.346  -2.986  0.00  0.00    +0.000 OA
ATOM     21  O   UNL     1      -6.236  -2.977  -4.786  0.00  0.00    +0.000 OA
ATOM     22  C   UNL     1      -4.332  -1.159  -3.462  0.00  0.00    +0.000 C 
ATOM     23  C   UNL     1      -4.580  -2.424  -3.118  0.00  0.00    +0.000 C 
ATOM     24  C   UNL     1      -3.951  -3.226  -2.044  0.00  0.00    +0.000 C 
ATOM     25  C   UNL     1      -5.635  -3.232  -3.759  0.00  0.00    +0.000 C 
ATOM     26  C   UNL     1      -5.056  -4.220  -1.761  0.00  0.00    +0.000 C 
BRANCH  24  27
ATOM     27  O   UNL     1      -2.823  -3.919  -2.560  0.00  0.00    +0.000 OA
ATOM     28  H   UNL     1      -3.155  -4.640  -3.123  0.00  0.00    +0.000 HD
ENDBRANCH  24  27
ENDBRANCH  19  22
ENDBRANCH   4  19
TORSDOF 6
ENDMDL
MODEL 3
REMARK VINA RESULT:    -5.804      2.906      6.718
REMARK INTER + INTRA:          -9.718
REMARK INTER:                  -7.594
REMARK INTRA:                  -2.124
REMARK CONF_INDEPENDENT:        1.790
REMARK UNBOUND:                 2.124
REMARK  Name = 5318517
REMARK  8 active torsions:
REMARK  status: ('A' for Active; 'I' for Inactive)
REMARK    1  A    between atoms: O_1  and  C_11
REMARK    2  A    between atoms: O_2  and  C_17
REMARK    3  A    between atoms: O_4  and  C_23
REMARK    4  A    between atoms: C_6  and  C_14
REMARK    5  A    between atoms: C_8  and  C_17
REMARK    6  A    between atoms: C_8  and  C_18
REMARK    7  A    between atoms: C_9  and  C_19
REMARK    8  A    between atoms: C_19  and  C_21
REMARK                            x       y       z     vdW  Elec       q    Type
REMARK                         _______ _______ _______ _____ _____    ______ ____
ROOT
ATOM      1  C   UNL     1       1.412  -2.132  -4.055  0.00  0.00    +0.000 C 
ATOM      2  C   UNL     1       2.954  -1.909  -3.774  0.00  0.00    +0.000 C 
ATOM      3  C   UNL     1       3.579  -2.720  -2.576  0.00  0.00    +0.000 C 
ATOM      4  C   UNL     1       0.955  -0.998  -5.068  0.00  0.00    +0.000 C 
ATOM      5  C   UNL     1       0.636  -1.994  -2.720  0.00  0.00    +0.000 C 
ATOM      6  C   UNL     1       2.666  -2.550  -1.326  0.00  0.00    +0.000 C 
ATOM      7  C   UNL     1       3.775  -1.967  -5.084  0.00  0.00    +0.000 C 
ATOM      8  C   UNL     1       1.195  -2.853  -1.592  0.00  0.00    +0.000 C 
ATOM      9  C   UNL     1       1.090  -3.518  -4.670  0.00  0.00    +0.000 C 
ATOM     10  C   UNL     1       3.279  -0.943  -6.107  0.00  0.00    +0.000 C 
ATOM     11  C   UNL     1       1.795  -1.063  -6.342  0.00  0.00    +0.000 C 
ATOM     12  C   UNL     1       4.965  -2.116  -2.212  0.00  0.00    +0.000 C 
ATOM     13  C   UNL     1       1.317  -1.223  -7.588  0.00  0.00    +0.000 C 
ENDROOT
BRANCH   6  14
ATOM     14  O   UNL     1       3.114  -3.350  -0.233  0.00  0.00    +0.000 OA
ATOM     15  H   UNL     1       2.935  -4.280  -0.455  0.00  0.00    +0.000 HD
ENDBRANCH   6  14
BRANCH   3  16
ATOM     16  C   UNL     1       3.843  -4.208  -2.889  0.00  0.00    +0.000 C 
BRANCH  16  17
ATOM     17  O   UNL     1       4.552  -4.761  -1.803  0.00  0.00    +0.000 OA
ATOM     18  H   UNL     1       3.896  -5.061  -1.150  0.00  0.00    +0.000 HD
ENDBRANCH  16  17
ENDBRANCH   3  16
BRANCH   4  19
ATOM     19  C   UNL     1      -0.563  -0.936  -5.313  0.00  0.00    +0.000 C 
BRANCH  19  22
ATOM     20  O   UNL     1      -4.013   2.280  -5.934  0.00  0.00    +0.000 OA
ATOM     21  O   UNL     1      -1.941   3.107  -6.506  0.00  0.00    +0.000 OA
ATOM     22  C   UNL     1      -0.991   0.458  -5.632  0.00  0.00    +0.000 C 
ATOM     23  C   UNL     1      -2.264   0.823  -5.796  0.00  0.00    +0.000 C 
ATOM     24  C   UNL     1      -3.485   0.002  -5.628  0.00  0.00    +0.000 C 
ATOM     25  C   UNL     1      -2.662   2.205  -6.124  0.00  0.00    +0.000 C 
ATOM     26  C   UNL     1      -4.498   1.078  -5.307  0.00  0.00    +0.000 C 
BRANCH  24  27
ATOM     27  O   UNL     1      -3.829  -0.607  -6.866  0.00  0.00    +0.000 OA
ATOM     28  H   UNL     1      -3.064  -0.514  -7.460  0.00  0.00    +0.000 HD
ENDBRANCH  24  27
ENDBRANCH  19  22
ENDBRANCH   4  19
TORSDOF 6
ENDMDL
MODEL 4
REMARK VINA RESULT:    -5.766      4.043      6.655
REMARK INTER + INTRA:          -9.945
REMARK INTER:                  -7.555
REMARK INTRA:                  -2.390
REMARK CONF_INDEPENDENT:        1.790
REMARK UNBOUND:                 2.390
REMARK  Name = 5318517
REMARK  8 active torsions:
REMARK  status: ('A' for Active; 'I' for Inactive)
REMARK    1  A    between atoms: O_1  and  C_11
REMARK    2  A    between atoms: O_2  and  C_17
REMARK    3  A    between atoms: O_4  and  C_23
REMARK    4  A    between atoms: C_6  and  C_14
REMARK    5  A    between atoms: C_8  and  C_17
REMARK    6  A    between atoms: C_8  and  C_18
REMARK    7  A    between atoms: C_9  and  C_19
REMARK    8  A    between atoms: C_19  and  C_21
REMARK                            x       y       z     vdW  Elec       q    Type
REMARK                         _______ _______ _______ _____ _____    ______ ____
ROOT
ATOM      1  C   UNL     1      -4.161  -2.281  -3.504  0.00  0.00    +0.000 C 
ATOM      2  C   UNL     1      -4.791  -3.694  -3.838  0.00  0.00    +0.000 C 
ATOM      3  C   UNL     1      -5.583  -4.408  -2.677  0.00  0.00    +0.000 C 
ATOM      4  C   UNL     1      -3.168  -1.922  -4.689  0.00  0.00    +0.000 C 
ATOM      5  C   UNL     1      -3.376  -2.387  -2.171  0.00  0.00    +0.000 C 
ATOM      6  C   UNL     1      -4.711  -4.381  -1.387  0.00  0.00    +0.000 C 
ATOM      7  C   UNL     1      -5.531  -3.668  -5.196  0.00  0.00    +0.000 C 
ATOM      8  C   UNL     1      -4.182  -2.997  -1.029  0.00  0.00    +0.000 C 
ATOM      9  C   UNL     1      -5.214  -1.151  -3.366  0.00  0.00    +0.000 C 
ATOM     10  C   UNL     1      -4.608  -3.228  -6.334  0.00  0.00    +0.000 C 
ATOM     11  C   UNL     1      -3.919  -1.925  -6.020  0.00  0.00    +0.000 C 
ATOM     12  C   UNL     1      -5.803  -5.903  -3.047  0.00  0.00    +0.000 C 
ATOM     13  C   UNL     1      -4.004  -0.890  -6.873  0.00  0.00    +0.000 C 
ENDROOT
BRANCH   6  14
ATOM     14  O   UNL     1      -5.414  -4.914  -0.265  0.00  0.00    +0.000 OA
ATOM     15  H   UNL     1      -5.799  -4.167   0.224  0.00  0.00    +0.000 HD
ENDBRANCH   6  14
BRANCH   3  16
ATOM     16  C   UNL     1      -6.991  -3.830  -2.423  0.00  0.00    +0.000 C 
BRANCH  16  17
ATOM     17  O   UNL     1      -6.993  -3.237  -1.144  0.00  0.00    +0.000 OA
ATOM     18  H   UNL     1      -7.035  -3.957  -0.491  0.00  0.00    +0.000 HD
ENDBRANCH  16  17
ENDBRANCH   3  16
BRANCH   4  19
ATOM     19  C   UNL     1      -2.314  -0.665  -4.448  0.00  0.00    +0.000 C 
BRANCH  19  22
ATOM     20  O   UNL     1       2.000  -1.934  -6.001  0.00  0.00    +0.000 OA
ATOM     21  O   UNL     1       1.089  -0.234  -7.258  0.00  0.00    +0.000 OA
ATOM     22  C   UNL     1      -1.221  -0.565  -5.460  0.00  0.00    +0.000 C 
ATOM     23  C   UNL     1      -0.023  -1.136  -5.315  0.00  0.00    +0.000 C 
ATOM     24  C   UNL     1       0.449  -2.019  -4.225  0.00  0.00    +0.000 C 
ATOM     25  C   UNL     1       1.046  -1.012  -6.324  0.00  0.00    +0.000 C 
ATOM     26  C   UNL     1       1.527  -2.796  -4.949  0.00  0.00    +0.000 C 
BRANCH  24  27
ATOM     27  O   UNL     1       1.048  -1.239  -3.199  0.00  0.00    +0.000 OA
ATOM     28  H   UNL     1       1.653  -0.609  -3.627  0.00  0.00    +0.000 HD
ENDBRANCH  24  27
ENDBRANCH  19  22
ENDBRANCH   4  19
TORSDOF 6
ENDMDL
MODEL 5
REMARK VINA RESULT:    -5.690      5.195      7.964
REMARK INTER + INTRA:          -9.786
REMARK INTER:                  -7.480
REMARK INTRA:                  -2.306
REMARK CONF_INDEPENDENT:        1.790
REMARK UNBOUND:                 2.306
REMARK  Name = 5318517
REMARK  8 active torsions:
REMARK  status: ('A' for Active; 'I' for Inactive)
REMARK    1  A    between atoms: O_1  and  C_11
REMARK    2  A    between atoms: O_2  and  C_17
REMARK    3  A    between atoms: O_4  and  C_23
REMARK    4  A    between atoms: C_6  and  C_14
REMARK    5  A    between atoms: C_8  and  C_17
REMARK    6  A    between atoms: C_8  and  C_18
REMARK    7  A    between atoms: C_9  and  C_19
REMARK    8  A    between atoms: C_19  and  C_21
REMARK                            x       y       z     vdW  Elec       q    Type
REMARK                         _______ _______ _______ _____ _____    ______ ____
ROOT
ATOM      1  C   UNL     1      -4.181  -2.800  -1.148  0.00  0.00    +0.000 C 
ATOM      2  C   UNL     1      -4.741  -4.258  -0.887  0.00  0.00    +0.000 C 
ATOM      3  C   UNL     1      -5.211  -4.583   0.582  0.00  0.00    +0.000 C 
ATOM      4  C   UNL     1      -3.489  -2.815  -2.576  0.00  0.00    +0.000 C 
ATOM      5  C   UNL     1      -3.134  -2.464  -0.055  0.00  0.00    +0.000 C 
ATOM      6  C   UNL     1      -4.099  -4.133   1.574  0.00  0.00    +0.000 C 
ATOM      7  C   UNL     1      -5.743  -4.676  -1.988  0.00  0.00    +0.000 C 
ATOM      8  C   UNL     1      -3.631  -2.697   1.367  0.00  0.00    +0.000 C 
ATOM      9  C   UNL     1      -5.279  -1.705  -1.129  0.00  0.00    +0.000 C 
ATOM     10  C   UNL     1      -5.116  -4.601  -3.382  0.00  0.00    +0.000 C 
ATOM     11  C   UNL     1      -4.494  -3.253  -3.641  0.00  0.00    +0.000 C 
ATOM     12  C   UNL     1      -5.370  -6.121   0.743  0.00  0.00    +0.000 C 
ATOM     13  C   UNL     1      -4.843  -2.542  -4.727  0.00  0.00    +0.000 C 
ENDROOT
BRANCH   6  14
ATOM     14  O   UNL     1      -4.506  -4.297   2.932  0.00  0.00    +0.000 OA
ATOM     15  H   UNL     1      -5.010  -5.127   2.991  0.00  0.00    +0.000 HD
ENDBRANCH   6  14
BRANCH   3  16
ATOM     16  C   UNL     1      -6.583  -3.981   0.954  0.00  0.00    +0.000 C 
BRANCH  16  17
ATOM     17  O   UNL     1      -6.901  -4.403   2.262  0.00  0.00    +0.000 OA
ATOM     18  H   UNL     1      -6.274  -5.109   2.499  0.00  0.00    +0.000 HD
ENDBRANCH  16  17
ENDBRANCH   3  16
BRANCH   4  19
ATOM     19  C   UNL     1      -2.717  -1.531  -2.925  0.00  0.00    +0.000 C 
BRANCH  19  22
ATOM     20  O   UNL     1       0.400  -0.894  -6.462  0.00  0.00    +0.000 OA
ATOM     21  O   UNL     1       1.008  -2.624  -5.068  0.00  0.00    +0.000 OA
ATOM     22  C   UNL     1      -1.414  -1.856  -3.576  0.00  0.00    +0.000 C 
ATOM     23  C   UNL     1      -1.051  -1.398  -4.776  0.00  0.00    +0.000 C 
ATOM     24  C   UNL     1      -1.771  -0.450  -5.656  0.00  0.00    +0.000 C 
ATOM     25  C   UNL     1       0.238  -1.744  -5.405  0.00  0.00    +0.000 C 
ATOM     26  C   UNL     1      -0.616   0.125  -6.444  0.00  0.00    +0.000 C 
BRANCH  24  27
ATOM     27  O   UNL     1      -2.626  -1.167  -6.537  0.00  0.00    +0.000 OA
ATOM     28  H   UNL     1      -2.118  -1.359  -7.344  0.00  0.00    +0.000 HD
ENDBRANCH  24  27
ENDBRANCH  19  22
ENDBRANCH   4  19
TORSDOF 6
ENDMDL
MODEL 6
REMARK VINA RESULT:    -5.564      1.693      2.447
REMARK INTER + INTRA:          -9.966
REMARK INTER:                  -7.354
REMARK INTRA:                  -2.612
REMARK CONF_INDEPENDENT:        1.790
REMARK UNBOUND:                 2.612
REMARK  Name = 5318517
REMARK  8 active torsions:
REMARK  status: ('A' for Active; 'I' for Inactive)
REMARK    1  A    between atoms: O_1  and  C_11
REMARK    2  A    between atoms: O_2  and  C_17
REMARK    3  A    between atoms: O_4  and  C_23
REMARK    4  A    between atoms: C_6  and  C_14
REMARK    5  A    between atoms: C_8  and  C_17
REMARK    6  A    between atoms: C_8  and  C_18
REMARK    7  A    between atoms: C_9  and  C_19
REMARK    8  A    between atoms: C_19  and  C_21
REMARK                            x       y       z     vdW  Elec       q    Type
REMARK                         _______ _______ _______ _____ _____    ______ ____
ROOT
ATOM      1  C   UNL     1       1.575  -2.117  -3.897  0.00  0.00    +0.000 C 
ATOM      2  C   UNL     1       0.456  -0.998  -3.876  0.00  0.00    +0.000 C 
ATOM      3  C   UNL     1      -0.233  -0.660  -5.252  0.00  0.00    +0.000 C 
ATOM      4  C   UNL     1       2.326  -2.051  -2.499  0.00  0.00    +0.000 C 
ATOM      5  C   UNL     1       2.568  -1.808  -5.046  0.00  0.00    +0.000 C 
ATOM      6  C   UNL     1       0.874  -0.443  -6.326  0.00  0.00    +0.000 C 
ATOM      7  C   UNL     1      -0.529  -1.216  -2.703  0.00  0.00    +0.000 C 
ATOM      8  C   UNL     1       1.896  -1.572  -6.394  0.00  0.00    +0.000 C 
ATOM      9  C   UNL     1       1.015  -3.548  -4.103  0.00  0.00    +0.000 C 
ATOM     10  C   UNL     1       0.196  -1.252  -1.356  0.00  0.00    +0.000 C 
ATOM     11  C   UNL     1       1.328  -2.247  -1.359  0.00  0.00    +0.000 C 
ATOM     12  C   UNL     1      -1.012   0.680  -5.124  0.00  0.00    +0.000 C 
ATOM     13  C   UNL     1       1.392  -3.205  -0.419  0.00  0.00    +0.000 C 
ENDROOT
BRANCH   6  14
ATOM     14  O   UNL     1       0.317  -0.242  -7.624  0.00  0.00    +0.000 OA
ATOM     15  H   UNL     1      -0.577  -0.625  -7.624  0.00  0.00    +0.000 HD
ENDBRANCH   6  14
BRANCH   3  16
ATOM     16  C   UNL     1      -1.273  -1.704  -5.712  0.00  0.00    +0.000 C 
BRANCH  16  17
ATOM     17  O   UNL     1      -2.248  -1.035  -6.481  0.00  0.00    +0.000 OA
ATOM     18  H   UNL     1      -1.784  -0.582  -7.206  0.00  0.00    +0.000 HD
ENDBRANCH  16  17
ENDBRANCH   3  16
BRANCH   4  19
ATOM     19  C   UNL     1       3.577  -2.942  -2.405  0.00  0.00    +0.000 C 
BRANCH  19  22
ATOM     20  O   UNL     1       6.833   0.520  -2.619  0.00  0.00    +0.000 OA
ATOM     21  O   UNL     1       6.856  -0.812  -4.497  0.00  0.00    +0.000 OA
ATOM     22  C   UNL     1       4.738  -2.297  -3.086  0.00  0.00    +0.000 C 
ATOM     23  C   UNL     1       5.254  -1.122  -2.719  0.00  0.00    +0.000 C 
ATOM     24  C   UNL     1       4.876  -0.271  -1.568  0.00  0.00    +0.000 C 
ATOM     25  C   UNL     1       6.395  -0.499  -3.416  0.00  0.00    +0.000 C 
ATOM     26  C   UNL     1       6.171   0.476  -1.341  0.00  0.00    +0.000 C 
BRANCH  24  27
ATOM     27  O   UNL     1       3.869   0.651  -1.963  0.00  0.00    +0.000 OA
ATOM     28  H   UNL     1       3.228   0.167  -2.511  0.00  0.00    +0.000 HD
ENDBRANCH  24  27
ENDBRANCH  19  22
ENDBRANCH   4  19
TORSDOF 6
ENDMDL
MODEL 7
REMARK VINA RESULT:    -5.453      3.193      6.381
REMARK INTER + INTRA:          -9.698
REMARK INTER:                  -7.243
REMARK INTRA:                  -2.455
REMARK CONF_INDEPENDENT:        1.790
REMARK UNBOUND:                 2.455
REMARK  Name = 5318517
REMARK  8 active torsions:
REMARK  status: ('A' for Active; 'I' for Inactive)
REMARK    1  A    between atoms: O_1  and  C_11
REMARK    2  A    between atoms: O_2  and  C_17
REMARK    3  A    between atoms: O_4  and  C_23
REMARK    4  A    between atoms: C_6  and  C_14
REMARK    5  A    between atoms: C_8  and  C_17
REMARK    6  A    between atoms: C_8  and  C_18
REMARK    7  A    between atoms: C_9  and  C_19
REMARK    8  A    between atoms: C_19  and  C_21
REMARK                            x       y       z     vdW  Elec       q    Type
REMARK                         _______ _______ _______ _____ _____    ______ ____
ROOT
ATOM      1  C   UNL     1      -0.485  -1.352  -3.735  0.00  0.00    +0.000 C 
ATOM      2  C   UNL     1       0.783  -1.792  -4.576  0.00  0.00    +0.000 C 
ATOM      3  C   UNL     1       1.780  -2.794  -3.881  0.00  0.00    +0.000 C 
ATOM      4  C   UNL     1      -1.147  -0.126  -4.496  0.00  0.00    +0.000 C 
ATOM      5  C   UNL     1      -0.018  -0.910  -2.324  0.00  0.00    +0.000 C 
ATOM      6  C   UNL     1       2.108  -2.265  -2.454  0.00  0.00    +0.000 C 
ATOM      7  C   UNL     1       0.386  -2.180  -6.020  0.00  0.00    +0.000 C 
ATOM      8  C   UNL     1       0.874  -1.928  -1.624  0.00  0.00    +0.000 C 
ATOM      9  C   UNL     1      -1.540  -2.477  -3.574  0.00  0.00    +0.000 C 
ATOM     10  C   UNL     1      -0.341  -1.038  -6.733  0.00  0.00    +0.000 C 
ATOM     11  C   UNL     1      -1.508  -0.530  -5.925  0.00  0.00    +0.000 C 
ATOM     12  C   UNL     1       3.118  -2.822  -4.674  0.00  0.00    +0.000 C 
ATOM     13  C   UNL     1      -2.735  -0.471  -6.469  0.00  0.00    +0.000 C 
ENDROOT
BRANCH   6  14
ATOM     14  O   UNL     1       2.921  -3.184  -1.725  0.00  0.00    +0.000 OA
ATOM     15  H   UNL     1       2.393  -3.986  -1.570  0.00  0.00    +0.000 HD
ENDBRANCH   6  14
BRANCH   3  16
ATOM     16  C   UNL     1       1.286  -4.256  -3.847  0.00  0.00    +0.000 C 
BRANCH  16  17
ATOM     17  O   UNL     1       0.552  -4.437  -2.657  0.00  0.00    +0.000 OA
ATOM     18  H   UNL     1       1.173  -4.339  -1.914  0.00  0.00    +0.000 HD
ENDBRANCH  16  17
ENDBRANCH   3  16
BRANCH   4  19
ATOM     19  C   UNL     1      -2.288   0.562  -3.726  0.00  0.00    +0.000 C 
BRANCH  19  22
ATOM     20  O   UNL     1      -2.241   4.975  -5.503  0.00  0.00    +0.000 OA
ATOM     21  O   UNL     1      -1.255   4.864  -3.425  0.00  0.00    +0.000 OA
ATOM     22  C   UNL     1      -2.013   2.020  -3.564  0.00  0.00    +0.000 C 
ATOM     23  C   UNL     1      -2.086   2.903  -4.562  0.00  0.00    +0.000 C 
ATOM     24  C   UNL     1      -2.512   2.676  -5.961  0.00  0.00    +0.000 C 
ATOM     25  C   UNL     1      -1.797   4.338  -4.379  0.00  0.00    +0.000 C 
ATOM     26  C   UNL     1      -2.988   4.064  -6.331  0.00  0.00    +0.000 C 
BRANCH  24  27
ATOM     27  O   UNL     1      -1.384   2.343  -6.759  0.00  0.00    +0.000 OA
ATOM     28  H   UNL     1      -0.624   2.237  -6.161  0.00  0.00    +0.000 HD
ENDBRANCH  24  27
ENDBRANCH  19  22
ENDBRANCH   4  19
TORSDOF 6
ENDMDL
MODEL 8
REMARK VINA RESULT:    -5.343      3.509      6.374
REMARK INTER + INTRA:          -9.635
REMARK INTER:                  -7.133
REMARK INTRA:                  -2.502
REMARK CONF_INDEPENDENT:        1.790
REMARK UNBOUND:                 2.502
REMARK  Name = 5318517
REMARK  8 active torsions:
REMARK  status: ('A' for Active; 'I' for Inactive)
REMARK    1  A    between atoms: O_1  and  C_11
REMARK    2  A    between atoms: O_2  and  C_17
REMARK    3  A    between atoms: O_4  and  C_23
REMARK    4  A    between atoms: C_6  and  C_14
REMARK    5  A    between atoms: C_8  and  C_17
REMARK    6  A    between atoms: C_8  and  C_18
REMARK    7  A    between atoms: C_9  and  C_19
REMARK    8  A    between atoms: C_19  and  C_21
REMARK                            x       y       z     vdW  Elec       q    Type
REMARK                         _______ _______ _______ _____ _____    ______ ____
ROOT
ATOM      1  C   UNL     1      -3.394  -2.018  -3.763  0.00  0.00    +0.000 C 
ATOM      2  C   UNL     1      -4.442  -2.732  -4.711  0.00  0.00    +0.000 C 
ATOM      3  C   UNL     1      -5.481  -3.694  -4.019  0.00  0.00    +0.000 C 
ATOM      4  C   UNL     1      -2.282  -1.377  -4.697  0.00  0.00    +0.000 C 
ATOM      5  C   UNL     1      -2.756  -3.082  -2.834  0.00  0.00    +0.000 C 
ATOM      6  C   UNL     1      -4.714  -4.658  -3.067  0.00  0.00    +0.000 C 
ATOM      7  C   UNL     1      -5.064  -1.729  -5.710  0.00  0.00    +0.000 C 
ATOM      8  C   UNL     1      -3.773  -3.948  -2.099  0.00  0.00    +0.000 C 
ATOM      9  C   UNL     1      -4.017  -0.905  -2.881  0.00  0.00    +0.000 C 
ATOM     10  C   UNL     1      -3.993  -1.031  -6.551  0.00  0.00    +0.000 C 
ATOM     11  C   UNL     1      -2.926  -0.408  -5.688  0.00  0.00    +0.000 C 
ATOM     12  C   UNL     1      -6.168  -4.575  -5.102  0.00  0.00    +0.000 C 
ATOM     13  C   UNL     1      -2.620   0.894  -5.821  0.00  0.00    +0.000 C 
ENDROOT
BRANCH   6  14
ATOM     14  O   UNL     1      -5.608  -5.484  -2.322  0.00  0.00    +0.000 OA
ATOM     15  H   UNL     1      -6.421  -5.585  -2.845  0.00  0.00    +0.000 HD
ENDBRANCH   6  14
BRANCH   3  16
ATOM     16  C   UNL     1      -6.628  -2.965  -3.287  0.00  0.00    +0.000 C 
BRANCH  16  17
ATOM     17  O   UNL     1      -7.458  -3.942  -2.700  0.00  0.00    +0.000 OA
ATOM     18  H   UNL     1      -7.131  -4.095  -1.796  0.00  0.00    +0.000 HD
ENDBRANCH  16  17
ENDBRANCH   3  16
BRANCH   4  19
ATOM     19  C   UNL     1      -1.072  -0.799  -3.943  0.00  0.00    +0.000 C 
BRANCH  19  22
ATOM     20  O   UNL     1       2.214  -1.942  -7.189  0.00  0.00    +0.000 OA
ATOM     21  O   UNL     1       2.489  -3.112  -5.225  0.00  0.00    +0.000 OA
ATOM     22  C   UNL     1       0.180  -1.520  -4.320  0.00  0.00    +0.000 C 
ATOM     23  C   UNL     1       0.649  -1.587  -5.568  0.00  0.00    +0.000 C 
ATOM     24  C   UNL     1       0.120  -0.932  -6.786  0.00  0.00    +0.000 C 
ATOM     25  C   UNL     1       1.883  -2.316  -5.918  0.00  0.00    +0.000 C 
ATOM     26  C   UNL     1       1.378  -0.853  -7.623  0.00  0.00    +0.000 C 
BRANCH  24  27
ATOM     27  O   UNL     1      -0.812  -1.792  -7.427  0.00  0.00    +0.000 OA
ATOM     28  H   UNL     1      -1.682  -1.357  -7.393  0.00  0.00    +0.000 HD
ENDBRANCH  24  27
ENDBRANCH  19  22
ENDBRANCH   4  19
TORSDOF 6
ENDMDL
MODEL 9
REMARK VINA RESULT:    -5.328      3.303      6.531
REMARK INTER + INTRA:          -9.834
REMARK INTER:                  -7.117
REMARK INTRA:                  -2.717
REMARK CONF_INDEPENDENT:        1.790
REMARK UNBOUND:                 2.717
REMARK  Name = 5318517
REMARK  8 active torsions:
REMARK  status: ('A' for Active; 'I' for Inactive)
REMARK    1  A    between atoms: O_1  and  C_11
REMARK    2  A    between atoms: O_2  and  C_17
REMARK    3  A    between atoms: O_4  and  C_23
REMARK    4  A    between atoms: C_6  and  C_14
REMARK    5  A    between atoms: C_8  and  C_17
REMARK    6  A    between atoms: C_8  and  C_18
REMARK    7  A    between atoms: C_9  and  C_19
REMARK    8  A    between atoms: C_19  and  C_21
REMARK                            x       y       z     vdW  Elec       q    Type
REMARK                         _______ _______ _______ _____ _____    ______ ____
ROOT
ATOM      1  C   UNL     1      -1.034  -0.896  -4.297  0.00  0.00    +0.000 C 
ATOM      2  C   UNL     1       0.013  -0.403  -5.377  0.00  0.00    +0.000 C 
ATOM      3  C   UNL     1       1.057  -1.467  -5.887  0.00  0.00    +0.000 C 
ATOM      4  C   UNL     1      -1.749   0.397  -3.715  0.00  0.00    +0.000 C 
ATOM      5  C   UNL     1      -0.274  -1.634  -3.165  0.00  0.00    +0.000 C 
ATOM      6  C   UNL     1       1.691  -2.177  -4.655  0.00  0.00    +0.000 C 
ATOM      7  C   UNL     1      -0.682   0.403  -6.500  0.00  0.00    +0.000 C 
ATOM      8  C   UNL     1       0.667  -2.724  -3.665  0.00  0.00    +0.000 C 
ATOM      9  C   UNL     1      -2.111  -1.853  -4.871  0.00  0.00    +0.000 C 
ATOM     10  C   UNL     1      -1.456   1.599  -5.941  0.00  0.00    +0.000 C 
ATOM     11  C   UNL     1      -2.406   1.186  -4.847  0.00  0.00    +0.000 C 
ATOM     12  C   UNL     1       2.210  -0.739  -6.635  0.00  0.00    +0.000 C 
ATOM     13  C   UNL     1      -3.709   1.505  -4.924  0.00  0.00    +0.000 C 
ENDROOT
BRANCH   6  14
ATOM     14  O   UNL     1       2.566  -3.233  -5.047  0.00  0.00    +0.000 OA
ATOM     15  H   UNL     1       2.029  -3.915  -5.485  0.00  0.00    +0.000 HD
ENDBRANCH   6  14
BRANCH   3  16
ATOM     16  C   UNL     1       0.483  -2.484  -6.896  0.00  0.00    +0.000 C 
BRANCH  16  17
ATOM     17  O   UNL     1       1.561  -3.209  -7.442  0.00  0.00    +0.000 OA
ATOM     18  H   UNL     1       1.704  -3.987  -6.875  0.00  0.00    +0.000 HD
ENDBRANCH  16  17
ENDBRANCH   3  16
BRANCH   4  19
ATOM     19  C   UNL     1      -2.669   0.131  -2.512  0.00  0.00    +0.000 C 
BRANCH  19  22
ATOM     20  O   UNL     1      -1.747   4.045   0.031  0.00  0.00    +0.000 OA
ATOM     21  O   UNL     1      -0.852   2.154   0.992  0.00  0.00    +0.000 OA
ATOM     22  C   UNL     1      -2.128   0.777  -1.279  0.00  0.00    +0.000 C 
ATOM     23  C   UNL     1      -2.008   2.097  -1.126  0.00  0.00    +0.000 C 
ATOM     24  C   UNL     1      -2.434   3.173  -2.050  0.00  0.00    +0.000 C 
ATOM     25  C   UNL     1      -1.459   2.711   0.098  0.00  0.00    +0.000 C 
ATOM     26  C   UNL     1      -2.631   4.311  -1.074  0.00  0.00    +0.000 C 
BRANCH  24  27
ATOM     27  O   UNL     1      -1.369   3.496  -2.934  0.00  0.00    +0.000 OA
ATOM     28  H   UNL     1      -0.566   3.605  -2.397  0.00  0.00    +0.000 HD
ENDBRANCH  24  27
ENDBRANCH  19  22
ENDBRANCH   4  19
TORSDOF 6
ENDMDL
