MODEL 1
REMARK VINA RESULT:    -4.763      0.000      0.000
REMARK INTER + INTRA:          -5.813
REMARK INTER:                  -5.061
REMARK INTRA:                  -0.752
REMARK CONF_INDEPENDENT:        0.298
REMARK UNBOUND:                 0.752
REMARK  Name = 4091
REMARK  3 active torsions:
REMARK  status: ('A' for Active; 'I' for Inactive)
REMARK    1  A    between atoms: N_1  and  C_6
REMARK    2  A    between atoms: N_1  and  C_7
REMARK    3  A    between atoms: N_2  and  C_8
REMARK                            x       y       z     vdW  Elec       q    Type
REMARK                         _______ _______ _______ _____ _____    ______ ____
ROOT
ATOM      1  N   UNL     1       1.187  -2.262  -3.573  0.00  0.00    +0.000 NA
ATOM      2  N   UNL     1       0.744  -3.310  -1.537  0.00  0.00    +0.000 N 
ATOM      3  N   UNL     1       0.967  -4.649  -3.373  0.00  0.00    +0.000 N 
ATOM      4  C   UNL     1       0.981  -3.359  -2.890  0.00  0.00    +0.000 C 
ATOM      5  H   UNL     1       0.583  -4.152  -0.996  0.00  0.00    +0.000 HD
ATOM      6  H   UNL     1       0.723  -2.425  -1.041  0.00  0.00    +0.000 HD
ATOM      7  H   UNL     1       1.127  -4.856  -4.353  0.00  0.00    +0.000 HD
ATOM      8  H   UNL     1       0.797  -5.438  -2.758  0.00  0.00    +0.000 HD
ENDROOT
BRANCH   1  13
ATOM      9  N   UNL     1       0.735  -1.589  -5.855  0.00  0.00    +0.000 N 
ATOM     10  N   UNL     1       2.316  -3.278  -5.239  0.00  0.00    +0.000 NA
ATOM     11  C   UNL     1      -0.262  -0.609  -5.440  0.00  0.00    +0.000 C 
ATOM     12  C   UNL     1       1.066  -1.609  -7.276  0.00  0.00    +0.000 C 
ATOM     13  C   UNL     1       1.418  -2.388  -4.931  0.00  0.00    +0.000 C 
ATOM     14  H   UNL     1       2.445  -3.321  -6.253  0.00  0.00    +0.000 HD
ENDBRANCH   1  13
TORSDOF 1
ENDMDL
MODEL 2
REMARK VINA RESULT:    -4.688      1.442      1.756
REMARK INTER + INTRA:          -5.734
REMARK INTER:                  -4.987
REMARK INTRA:                  -0.747
REMARK CONF_INDEPENDENT:        0.298
REMARK UNBOUND:                 0.747
REMARK  Name = 4091
REMARK  3 active torsions:
REMARK  status: ('A' for Active; 'I' for Inactive)
REMARK    1  A    between atoms: N_1  and  C_6
REMARK    2  A    between atoms: N_1  and  C_7
REMARK    3  A    between atoms: N_2  and  C_8
REMARK                            x       y       z     vdW  Elec       q    Type
REMARK                         _______ _______ _______ _____ _____    ______ ____
ROOT
ATOM      1  N   UNL     1       0.653  -2.934  -4.398  0.00  0.00    +0.000 NA
ATOM      2  N   UNL     1       0.254  -4.871  -3.160  0.00  0.00    +0.000 N 
ATOM      3  N   UNL     1       2.349  -3.967  -3.041  0.00  0.00    +0.000 N 
ATOM      4  C   UNL     1       1.085  -3.859  -3.580  0.00  0.00    +0.000 C 
ATOM      5  H   UNL     1       0.577  -5.593  -2.526  0.00  0.00    +0.000 HD
ATOM      6  H   UNL     1      -0.708  -4.922  -3.476  0.00  0.00    +0.000 HD
ATOM      7  H   UNL     1       3.080  -3.296  -3.251  0.00  0.00    +0.000 HD
ATOM      8  H   UNL     1       2.587  -4.726  -2.411  0.00  0.00    +0.000 HD
ENDROOT
BRANCH   1  13
ATOM      9  N   UNL     1       1.680  -1.578  -6.122  0.00  0.00    +0.000 N 
ATOM     10  N   UNL     1       2.199  -1.411  -3.791  0.00  0.00    +0.000 NA
ATOM     11  C   UNL     1       0.913  -2.224  -7.181  0.00  0.00    +0.000 C 
ATOM     12  C   UNL     1       2.510  -0.448  -6.524  0.00  0.00    +0.000 C 
ATOM     13  C   UNL     1       1.545  -1.948  -4.779  0.00  0.00    +0.000 C 
ATOM     14  H   UNL     1       2.837  -0.689  -4.134  0.00  0.00    +0.000 HD
ENDBRANCH   1  13
TORSDOF 1
ENDMDL
MODEL 3
REMARK VINA RESULT:    -4.668      2.413      3.678
REMARK INTER + INTRA:          -5.723
REMARK INTER:                  -4.966
REMARK INTRA:                  -0.756
REMARK CONF_INDEPENDENT:        0.298
REMARK UNBOUND:                 0.756
REMARK  Name = 4091
REMARK  3 active torsions:
REMARK  status: ('A' for Active; 'I' for Inactive)
REMARK    1  A    between atoms: N_1  and  C_6
REMARK    2  A    between atoms: N_1  and  C_7
REMARK    3  A    between atoms: N_2  and  C_8
REMARK                            x       y       z     vdW  Elec       q    Type
REMARK                         _______ _______ _______ _____ _____    ______ ____
ROOT
ATOM      1  N   UNL     1       0.062  -1.726  -6.442  0.00  0.00    +0.000 NA
ATOM      2  N   UNL     1       1.700  -3.313  -5.948  0.00  0.00    +0.000 N 
ATOM      3  N   UNL     1       2.176  -1.133  -5.459  0.00  0.00    +0.000 N 
ATOM      4  C   UNL     1       1.249  -2.014  -5.971  0.00  0.00    +0.000 C 
ATOM      5  H   UNL     1       2.616  -3.549  -5.585  0.00  0.00    +0.000 HD
ATOM      6  H   UNL     1       1.124  -4.072  -6.295  0.00  0.00    +0.000 HD
ATOM      7  H   UNL     1       1.995  -0.137  -5.404  0.00  0.00    +0.000 HD
ATOM      8  H   UNL     1       3.074  -1.457  -5.116  0.00  0.00    +0.000 HD
ENDROOT
BRANCH   1  13
ATOM      9  N   UNL     1      -1.561  -0.011  -5.908  0.00  0.00    +0.000 N 
ATOM     10  N   UNL     1       0.560   0.417  -6.932  0.00  0.00    +0.000 NA
ATOM     11  C   UNL     1      -2.507  -0.980  -5.366  0.00  0.00    +0.000 C 
ATOM     12  C   UNL     1      -1.926   1.394  -5.765  0.00  0.00    +0.000 C 
ATOM     13  C   UNL     1      -0.324  -0.398  -6.435  0.00  0.00    +0.000 C 
ATOM     14  H   UNL     1       0.219   1.381  -6.895  0.00  0.00    +0.000 HD
ENDBRANCH   1  13
TORSDOF 1
ENDMDL
MODEL 4
REMARK VINA RESULT:    -4.284      2.329      4.053
REMARK INTER + INTRA:          -5.338
REMARK INTER:                  -4.583
REMARK INTRA:                  -0.756
REMARK CONF_INDEPENDENT:        0.298
REMARK UNBOUND:                 0.756
REMARK  Name = 4091
REMARK  3 active torsions:
REMARK  status: ('A' for Active; 'I' for Inactive)
REMARK    1  A    between atoms: N_1  and  C_6
REMARK    2  A    between atoms: N_1  and  C_7
REMARK    3  A    between atoms: N_2  and  C_8
REMARK                            x       y       z     vdW  Elec       q    Type
REMARK                         _______ _______ _______ _____ _____    ______ ____
ROOT
ATOM      1  N   UNL     1       3.122  -1.792  -6.137  0.00  0.00    +0.000 NA
ATOM      2  N   UNL     1       5.378  -1.351  -5.741  0.00  0.00    +0.000 N 
ATOM      3  N   UNL     1       3.956   0.435  -5.776  0.00  0.00    +0.000 N 
ATOM      4  C   UNL     1       4.079  -0.931  -5.899  0.00  0.00    +0.000 C 
ATOM      5  H   UNL     1       6.129  -0.695  -5.556  0.00  0.00    +0.000 HD
ATOM      6  H   UNL     1       5.622  -2.333  -5.806  0.00  0.00    +0.000 HD
ATOM      7  H   UNL     1       3.060   0.903  -5.865  0.00  0.00    +0.000 HD
ATOM      8  H   UNL     1       4.764   1.020  -5.590  0.00  0.00    +0.000 HD
ENDROOT
BRANCH   1  13
ATOM      9  N   UNL     1       0.773  -1.827  -5.549  0.00  0.00    +0.000 N 
ATOM     10  N   UNL     1       1.741  -0.315  -7.132  0.00  0.00    +0.000 NA
ATOM     11  C   UNL     1       0.954  -2.932  -4.614  0.00  0.00    +0.000 C 
ATOM     12  C   UNL     1      -0.557  -1.228  -5.588  0.00  0.00    +0.000 C 
ATOM     13  C   UNL     1       1.839  -1.297  -6.285  0.00  0.00    +0.000 C 
ATOM     14  H   UNL     1       0.773   0.009  -7.195  0.00  0.00    +0.000 HD
ENDBRANCH   1  13
TORSDOF 1
ENDMDL
MODEL 5
REMARK VINA RESULT:    -4.158      2.334      3.393
REMARK INTER + INTRA:          -5.208
REMARK INTER:                  -4.456
REMARK INTRA:                  -0.752
REMARK CONF_INDEPENDENT:        0.298
REMARK UNBOUND:                 0.752
REMARK  Name = 4091
REMARK  3 active torsions:
REMARK  status: ('A' for Active; 'I' for Inactive)
REMARK    1  A    between atoms: N_1  and  C_6
REMARK    2  A    between atoms: N_1  and  C_7
REMARK    3  A    between atoms: N_2  and  C_8
REMARK                            x       y       z     vdW  Elec       q    Type
REMARK                         _______ _______ _______ _____ _____    ______ ____
ROOT
ATOM      1  N   UNL     1       2.302  -2.993  -4.129  0.00  0.00    +0.000 NA
ATOM      2  N   UNL     1       1.007  -4.835  -3.519  0.00  0.00    +0.000 N 
ATOM      3  N   UNL     1       1.677  -3.429  -1.848  0.00  0.00    +0.000 N 
ATOM      4  C   UNL     1       1.705  -3.694  -3.200  0.00  0.00    +0.000 C 
ATOM      5  H   UNL     1       0.539  -5.386  -2.808  0.00  0.00    +0.000 HD
ATOM      6  H   UNL     1       0.940  -5.156  -4.478  0.00  0.00    +0.000 HD
ATOM      7  H   UNL     1       2.144  -2.621  -1.451  0.00  0.00    +0.000 HD
ATOM      8  H   UNL     1       1.183  -4.037  -1.204  0.00  0.00    +0.000 HD
ENDROOT
BRANCH   1  13
ATOM      9  N   UNL     1       4.299  -1.624  -4.161  0.00  0.00    +0.000 N 
ATOM     10  N   UNL     1       2.298  -1.057  -2.975  0.00  0.00    +0.000 NA
ATOM     11  C   UNL     1       5.014  -2.567  -5.014  0.00  0.00    +0.000 C 
ATOM     12  C   UNL     1       4.986  -0.370  -3.871  0.00  0.00    +0.000 C 
ATOM     13  C   UNL     1       2.987  -1.858  -3.735  0.00  0.00    +0.000 C 
ATOM     14  H   UNL     1       2.855  -0.237  -2.721  0.00  0.00    +0.000 HD
ENDBRANCH   1  13
TORSDOF 1
ENDMDL
MODEL 6
REMARK VINA RESULT:    -3.962      1.853      3.330
REMARK INTER + INTRA:          -5.021
REMARK INTER:                  -4.260
REMARK INTRA:                  -0.761
REMARK CONF_INDEPENDENT:        0.298
REMARK UNBOUND:                 0.761
REMARK  Name = 4091
REMARK  3 active torsions:
REMARK  status: ('A' for Active; 'I' for Inactive)
REMARK    1  A    between atoms: N_1  and  C_6
REMARK    2  A    between atoms: N_1  and  C_7
REMARK    3  A    between atoms: N_2  and  C_8
REMARK                            x       y       z     vdW  Elec       q    Type
REMARK                         _______ _______ _______ _____ _____    ______ ____
ROOT
ATOM      1  N   UNL     1       0.939  -1.648  -4.144  0.00  0.00    +0.000 NA
ATOM      2  N   UNL     1       2.601  -1.239  -5.729  0.00  0.00    +0.000 N 
ATOM      3  N   UNL     1       1.644  -3.313  -5.729  0.00  0.00    +0.000 N 
ATOM      4  C   UNL     1       1.674  -2.067  -5.142  0.00  0.00    +0.000 C 
ATOM      5  H   UNL     1       3.176  -1.551  -6.503  0.00  0.00    +0.000 HD
ATOM      6  H   UNL     1       2.736  -0.289  -5.401  0.00  0.00    +0.000 HD
ATOM      7  H   UNL     1       1.012  -4.040  -5.413  0.00  0.00    +0.000 HD
ATOM      8  H   UNL     1       2.258  -3.542  -6.504  0.00  0.00    +0.000 HD
ENDROOT
BRANCH   1  13
ATOM      9  N   UNL     1      -1.311  -2.171  -3.418  0.00  0.00    +0.000 N 
ATOM     10  N   UNL     1       0.526  -3.703  -3.316  0.00  0.00    +0.000 NA
ATOM     11  C   UNL     1      -1.803  -0.842  -3.761  0.00  0.00    +0.000 C 
ATOM     12  C   UNL     1      -2.314  -3.136  -2.980  0.00  0.00    +0.000 C 
ATOM     13  C   UNL     1       0.028  -2.536  -3.602  0.00  0.00    +0.000 C 
ATOM     14  H   UNL     1      -0.195  -4.314  -2.924  0.00  0.00    +0.000 HD
ENDBRANCH   1  13
TORSDOF 1
ENDMDL
MODEL 7
REMARK VINA RESULT:    -3.943      2.261      4.636
REMARK INTER + INTRA:          -4.997
REMARK INTER:                  -4.242
REMARK INTRA:                  -0.755
REMARK CONF_INDEPENDENT:        0.298
REMARK UNBOUND:                 0.755
REMARK  Name = 4091
REMARK  3 active torsions:
REMARK  status: ('A' for Active; 'I' for Inactive)
REMARK    1  A    between atoms: N_1  and  C_6
REMARK    2  A    between atoms: N_1  and  C_7
REMARK    3  A    between atoms: N_2  and  C_8
REMARK                            x       y       z     vdW  Elec       q    Type
REMARK                         _______ _______ _______ _____ _____    ______ ____
ROOT
ATOM      1  N   UNL     1       2.103  -2.675  -2.923  0.00  0.00    +0.000 NA
ATOM      2  N   UNL     1       1.664  -3.078  -5.179  0.00  0.00    +0.000 N 
ATOM      3  N   UNL     1       1.204  -4.764  -3.707  0.00  0.00    +0.000 N 
ATOM      4  C   UNL     1       1.677  -3.479  -3.864  0.00  0.00    +0.000 C 
ATOM      5  H   UNL     1       1.336  -3.691  -5.916  0.00  0.00    +0.000 HD
ATOM      6  H   UNL     1       1.985  -2.154  -5.447  0.00  0.00    +0.000 HD
ATOM      7  H   UNL     1       1.148  -5.207  -2.797  0.00  0.00    +0.000 HD
ATOM      8  H   UNL     1       0.894  -5.309  -4.505  0.00  0.00    +0.000 HD
ENDROOT
BRANCH   1  13
ATOM      9  N   UNL     1       3.209  -3.014  -0.795  0.00  0.00    +0.000 N 
ATOM     10  N   UNL     1       0.959  -3.684  -1.263  0.00  0.00    +0.000 NA
ATOM     11  C   UNL     1       4.446  -2.399  -1.264  0.00  0.00    +0.000 C 
ATOM     12  C   UNL     1       3.165  -3.377   0.617  0.00  0.00    +0.000 C 
ATOM     13  C   UNL     1       2.088  -3.147  -1.623  0.00  0.00    +0.000 C 
ATOM     14  H   UNL     1       1.008  -4.008  -0.295  0.00  0.00    +0.000 HD
ENDBRANCH   1  13
TORSDOF 1
ENDMDL
MODEL 8
REMARK VINA RESULT:    -3.771      2.669      4.391
REMARK INTER + INTRA:          -4.820
REMARK INTER:                  -4.070
REMARK INTRA:                  -0.751
REMARK CONF_INDEPENDENT:        0.298
REMARK UNBOUND:                 0.751
REMARK  Name = 4091
REMARK  3 active torsions:
REMARK  status: ('A' for Active; 'I' for Inactive)
REMARK    1  A    between atoms: N_1  and  C_6
REMARK    2  A    between atoms: N_1  and  C_7
REMARK    3  A    between atoms: N_2  and  C_8
REMARK                            x       y       z     vdW  Elec       q    Type
REMARK                         _______ _______ _______ _____ _____    ______ ____
ROOT
ATOM      1  N   UNL     1       3.105  -2.400  -5.330  0.00  0.00    +0.000 NA
ATOM      2  N   UNL     1       1.352  -3.007  -6.745  0.00  0.00    +0.000 N 
ATOM      3  N   UNL     1       1.461  -0.820  -6.096  0.00  0.00    +0.000 N 
ATOM      4  C   UNL     1       2.036  -2.069  -6.009  0.00  0.00    +0.000 C 
ATOM      5  H   UNL     1       0.524  -2.764  -7.276  0.00  0.00    +0.000 HD
ATOM      6  H   UNL     1       1.660  -3.973  -6.776  0.00  0.00    +0.000 HD
ATOM      7  H   UNL     1       1.847  -0.017  -5.612  0.00  0.00    +0.000 HD
ATOM      8  H   UNL     1       0.628  -0.664  -6.653  0.00  0.00    +0.000 HD
ENDROOT
BRANCH   1  13
ATOM      9  N   UNL     1       4.125  -1.607  -3.282  0.00  0.00    +0.000 N 
ATOM     10  N   UNL     1       3.954  -0.312  -5.288  0.00  0.00    +0.000 NA
ATOM     11  C   UNL     1       3.854  -2.859  -2.584  0.00  0.00    +0.000 C 
ATOM     12  C   UNL     1       4.919  -0.622  -2.555  0.00  0.00    +0.000 C 
ATOM     13  C   UNL     1       3.741  -1.404  -4.613  0.00  0.00    +0.000 C 
ATOM     14  H   UNL     1       4.429   0.383  -4.707  0.00  0.00    +0.000 HD
ENDBRANCH   1  13
TORSDOF 1
ENDMDL
MODEL 9
REMARK VINA RESULT:    -3.716      2.320      3.658
REMARK INTER + INTRA:          -4.672
REMARK INTER:                  -4.015
REMARK INTRA:                  -0.657
REMARK CONF_INDEPENDENT:        0.298
REMARK UNBOUND:                 0.657
REMARK  Name = 4091
REMARK  3 active torsions:
REMARK  status: ('A' for Active; 'I' for Inactive)
REMARK    1  A    between atoms: N_1  and  C_6
REMARK    2  A    between atoms: N_1  and  C_7
REMARK    3  A    between atoms: N_2  and  C_8
REMARK                            x       y       z     vdW  Elec       q    Type
REMARK                         _______ _______ _______ _____ _____    ______ ____
ROOT
ATOM      1  N   UNL     1       1.674  -3.143  -2.326  0.00  0.00    +0.000 NA
ATOM      2  N   UNL     1       0.969  -4.991  -3.563  0.00  0.00    +0.000 N 
ATOM      3  N   UNL     1       1.550  -3.113  -4.728  0.00  0.00    +0.000 N 
ATOM      4  C   UNL     1       1.419  -3.694  -3.485  0.00  0.00    +0.000 C 
ATOM      5  H   UNL     1       0.769  -5.430  -4.455  0.00  0.00    +0.000 HD
ATOM      6  H   UNL     1       0.824  -5.545  -2.727  0.00  0.00    +0.000 HD
ATOM      7  H   UNL     1       1.874  -2.160  -4.842  0.00  0.00    +0.000 HD
ATOM      8  H   UNL     1       1.326  -3.628  -5.573  0.00  0.00    +0.000 HD
ENDROOT
BRANCH   1  13
ATOM      9  N   UNL     1       1.680  -0.923  -1.359  0.00  0.00    +0.000 N 
ATOM     10  N   UNL     1       2.980  -1.563  -3.264  0.00  0.00    +0.000 NA
ATOM     11  C   UNL     1       0.715  -1.294  -0.330  0.00  0.00    +0.000 C 
ATOM     12  C   UNL     1       2.246   0.418  -1.256  0.00  0.00    +0.000 C 
ATOM     13  C   UNL     1       2.123  -1.835  -2.324  0.00  0.00    +0.000 C 
ATOM     14  H   UNL     1       3.277  -0.586  -3.208  0.00  0.00    +0.000 HD
ENDBRANCH   1  13
TORSDOF 1
ENDMDL
