MODEL 1
REMARK VINA RESULT:    81.384      0.000      0.000
REMARK INTER + INTRA:          77.935
REMARK INTER:                  78.699
REMARK INTRA:                  -0.764
REMARK CONF_INDEPENDENT:        2.685
REMARK UNBOUND:                 0.764
REMARK  Name = 71236992
REMARK  10 active torsions:
REMARK  status: ('A' for Active; 'I' for Inactive)
REMARK    1  A    between atoms: O_6  and  C_25
REMARK    2  A    between atoms: N_8  and  C_18
REMARK    3  A    between atoms: N_9  and  C_12
REMARK    4  A    between atoms: N_11  and  C_20
REMARK    5  A    between atoms: C_18  and  C_25
REMARK    6  A    between atoms: C_20  and  C_21
REMARK    7  A    between atoms: C_20  and  C_27
REMARK    8  A    between atoms: C_30  and  C_31
REMARK    9  A    between atoms: C_31  and  C_32
REMARK   10  A    between atoms: C_32  and  C_33
REMARK                            x       y       z     vdW  Elec       q    Type
REMARK                         _______ _______ _______ _____ _____    ______ ____
ROOT
ATOM      1  O   UNL     1      -4.330   3.080   7.373  0.00  0.00    +0.000 OA
ATOM      2  N   UNL     1      -2.844   1.504   6.537  0.00  0.00    +0.000 N 
ATOM      3  N   UNL     1      -1.678  -0.176   5.337  0.00  0.00    +0.000 NA
ATOM      4  C   UNL     1      -2.935   3.783   5.552  0.00  0.00    +0.000 C 
ATOM      5  C   UNL     1      -1.590   4.293   5.996  0.00  0.00    +0.000 A 
ATOM      6  C   UNL     1      -0.504   3.392   5.960  0.00  0.00    +0.000 A 
ATOM      7  C   UNL     1      -3.438   2.774   6.576  0.00  0.00    +0.000 C 
ATOM      8  C   UNL     1      -0.650   2.015   5.427  0.00  0.00    +0.000 A 
ATOM      9  C   UNL     1      -1.700   1.128   5.743  0.00  0.00    +0.000 A 
ATOM     10  C   UNL     1      -1.401   5.596   6.492  0.00  0.00    +0.000 A 
ATOM     11  C   UNL     1       0.744   3.840   6.444  0.00  0.00    +0.000 A 
ATOM     12  C   UNL     1       0.365   1.511   4.582  0.00  0.00    +0.000 A 
ATOM     13  C   UNL     1      -0.154   6.015   6.949  0.00  0.00    +0.000 A 
ATOM     14  C   UNL     1       0.919   5.136   6.930  0.00  0.00    +0.000 A 
ATOM     15  C   UNL     1       0.359   0.199   4.130  0.00  0.00    +0.000 A 
ATOM     16  C   UNL     1      -0.673  -0.605   4.548  0.00  0.00    +0.000 A 
ENDROOT
BRANCH   4  18
ATOM     17  O   UNL     1      -3.771   5.713   7.512  0.00  0.00    +0.000 OA
ATOM     18  N   UNL     1      -3.951   4.793   5.390  0.00  0.00    +0.000 N 
ATOM     19  C   UNL     1      -4.289   5.687   6.398  0.00  0.00    +0.000 C 
ATOM     20  H   UNL     1      -4.449   4.837   4.504  0.00  0.00    +0.000 HD
BRANCH  19  21
ATOM     21  C   UNL     1      -5.356   6.678   5.954  0.00  0.00    +0.000 C 
ATOM     22  C   UNL     1      -6.648   6.471   6.728  0.00  0.00    +0.000 C 
BRANCH  21  24
ATOM     23  O   UNL     1      -3.328   6.614   3.905  0.00  0.00    +0.000 OA
ATOM     24  N   UNL     1      -5.560   6.508   4.540  0.00  0.00    +0.000 N 
ATOM     25  C   UNL     1      -4.516   6.489   3.622  0.00  0.00    +0.000 C 
ATOM     26  H   UNL     1      -6.505   6.329   4.210  0.00  0.00    +0.000 HD
BRANCH  25  27
ATOM     27  C   UNL     1      -5.018   6.297   2.203  0.00  0.00    +0.000 C 
BRANCH  27  28
ATOM     28  C   UNL     1      -4.470   5.027   1.557  0.00  0.00    +0.000 C 
BRANCH  28  32
ATOM     29  F   UNL     1      -2.638   4.327   2.882  0.00  0.00    +0.000 F 
ATOM     30  F   UNL     1      -2.424   4.194   0.712  0.00  0.00    +0.000 F 
ATOM     31  F   UNL     1      -2.400   6.141   1.694  0.00  0.00    +0.000 F 
ATOM     32  C   UNL     1      -2.970   4.916   1.713  0.00  0.00    +0.000 C 
ENDBRANCH  28  32
ENDBRANCH  27  28
ENDBRANCH  25  27
ENDBRANCH  21  24
ENDBRANCH  19  21
ENDBRANCH   4  18
BRANCH   2  33
ATOM     33  C   UNL     1      -3.487   0.417   7.279  0.00  0.00    +0.000 C 
BRANCH  33  34
ATOM     34  C   UNL     1      -4.817   0.028   6.661  0.00  0.00    +0.000 C 
BRANCH  34  35
ATOM     35  O   UNL     1      -5.483   1.197   6.197  0.00  0.00    +0.000 OA
ATOM     36  H   UNL     1      -4.814   1.900   6.138  0.00  0.00    +0.000 HD
ENDBRANCH  34  35
ENDBRANCH  33  34
ENDBRANCH   2  33
TORSDOF 9
ENDMDL
