MODEL 1
REMARK VINA RESULT:    -7.657      0.000      0.000
REMARK INTER + INTRA:         -13.486
REMARK INTER:                 -10.640
REMARK INTRA:                  -2.846
REMARK CONF_INDEPENDENT:        2.983
REMARK UNBOUND:                 2.846
REMARK  Name = 969516
REMARK  12 active torsions:
REMARK  status: ('A' for Active; 'I' for Inactive)
REMARK    1  A    between atoms: O_1  and  C_12
REMARK    2  A    between atoms: O_1  and  C_26
REMARK    3  A    between atoms: O_2  and  C_13
REMARK    4  A    between atoms: O_2  and  C_27
REMARK    5  A    between atoms: O_3  and  C_18
REMARK    6  A    between atoms: O_4  and  C_19
REMARK    7  A    between atoms: C_7  and  C_16
REMARK    8  A    between atoms: C_8  and  C_17
REMARK    9  A    between atoms: C_9  and  C_20
REMARK   10  A    between atoms: C_9  and  C_21
REMARK   11  A    between atoms: C_20  and  C_24
REMARK   12  A    between atoms: C_21  and  C_25
REMARK                            x       y       z     vdW  Elec       q    Type
REMARK                         _______ _______ _______ _____ _____    ______ ____
ROOT
ATOM      1  C   UNL     1      -4.911  -2.115  -1.765  0.00  0.00    +0.000 C 
ENDROOT
BRANCH   1   3
ATOM      2  O   UNL     1      -3.800  -0.093  -2.458  0.00  0.00    +0.000 OA
ATOM      3  C   UNL     1      -3.716  -1.198  -1.929  0.00  0.00    +0.000 C 
BRANCH   3   5
ATOM      4  C   UNL     1      -1.292  -1.592  -2.063  0.00  0.00    +0.000 C 
ATOM      5  C   UNL     1      -2.430  -1.702  -1.364  0.00  0.00    +0.000 C 
BRANCH   4   6
ATOM      6  C   UNL     1       0.024  -2.066  -1.601  0.00  0.00    +0.000 A 
ATOM      7  C   UNL     1       0.771  -2.899  -2.419  0.00  0.00    +0.000 A 
ATOM      8  C   UNL     1       2.017  -3.348  -1.980  0.00  0.00    +0.000 A 
ATOM      9  C   UNL     1       0.488  -1.672  -0.357  0.00  0.00    +0.000 A 
ATOM     10  C   UNL     1       2.498  -2.960  -0.730  0.00  0.00    +0.000 A 
ATOM     11  C   UNL     1       1.734  -2.121   0.082  0.00  0.00    +0.000 A 
BRANCH   8  12
ATOM     12  O   UNL     1       2.753  -4.167  -2.782  0.00  0.00    +0.000 OA
ATOM     13  C   UNL     1       4.114  -3.803  -3.006  0.00  0.00    +0.000 C 
ENDBRANCH   8  12
BRANCH  10  14
ATOM     14  O   UNL     1       3.713  -3.392  -0.292  0.00  0.00    +0.000 OA
ATOM     15  H   UNL     1       4.072  -2.726   0.319  0.00  0.00    +0.000 HD
ENDBRANCH  10  14
ENDBRANCH   4   6
ENDBRANCH   3   5
ENDBRANCH   1   3
BRANCH   1  17
ATOM     16  O   UNL     1      -5.680  -4.310  -2.403  0.00  0.00    +0.000 OA
ATOM     17  C   UNL     1      -4.830  -3.430  -2.517  0.00  0.00    +0.000 C 
BRANCH  17  19
ATOM     18  C   UNL     1      -2.588  -4.273  -3.077  0.00  0.00    +0.000 C 
ATOM     19  C   UNL     1      -3.670  -3.574  -3.446  0.00  0.00    +0.000 C 
BRANCH  18  20
ATOM     20  C   UNL     1      -1.391  -4.466  -3.913  0.00  0.00    +0.000 A 
ATOM     21  C   UNL     1      -1.265  -3.751  -5.094  0.00  0.00    +0.000 A 
ATOM     22  C   UNL     1      -0.131  -3.935  -5.886  0.00  0.00    +0.000 A 
ATOM     23  C   UNL     1      -0.413  -5.359  -3.503  0.00  0.00    +0.000 A 
ATOM     24  C   UNL     1       0.861  -4.830  -5.486  0.00  0.00    +0.000 A 
ATOM     25  C   UNL     1       0.720  -5.543  -4.295  0.00  0.00    +0.000 A 
BRANCH  22  26
ATOM     26  O   UNL     1      -0.004  -3.233  -7.046  0.00  0.00    +0.000 OA
ATOM     27  C   UNL     1      -0.924  -2.164  -7.262  0.00  0.00    +0.000 C 
ENDBRANCH  22  26
BRANCH  24  28
ATOM     28  O   UNL     1       1.974  -5.017  -6.250  0.00  0.00    +0.000 OA
ATOM     29  H   UNL     1       1.909  -4.461  -7.045  0.00  0.00    +0.000 HD
ENDBRANCH  24  28
ENDBRANCH  18  20
ENDBRANCH  17  19
ENDBRANCH   1  17
TORSDOF 10
ENDMDL
MODEL 2
REMARK VINA RESULT:    -7.422      2.926      5.711
REMARK INTER + INTRA:         -13.296
REMARK INTER:                 -10.405
REMARK INTRA:                  -2.891
REMARK CONF_INDEPENDENT:        2.983
REMARK UNBOUND:                 2.891
REMARK  Name = 969516
REMARK  12 active torsions:
REMARK  status: ('A' for Active; 'I' for Inactive)
REMARK    1  A    between atoms: O_1  and  C_12
REMARK    2  A    between atoms: O_1  and  C_26
REMARK    3  A    between atoms: O_2  and  C_13
REMARK    4  A    between atoms: O_2  and  C_27
REMARK    5  A    between atoms: O_3  and  C_18
REMARK    6  A    between atoms: O_4  and  C_19
REMARK    7  A    between atoms: C_7  and  C_16
REMARK    8  A    between atoms: C_8  and  C_17
REMARK    9  A    between atoms: C_9  and  C_20
REMARK   10  A    between atoms: C_9  and  C_21
REMARK   11  A    between atoms: C_20  and  C_24
REMARK   12  A    between atoms: C_21  and  C_25
REMARK                            x       y       z     vdW  Elec       q    Type
REMARK                         _______ _______ _______ _____ _____    ______ ____
ROOT
ATOM      1  C   UNL     1      -4.164  -4.000  -2.753  0.00  0.00    +0.000 C 
ENDROOT
BRANCH   1   3
ATOM      2  O   UNL     1      -4.000  -2.954  -0.589  0.00  0.00    +0.000 OA
ATOM      3  C   UNL     1      -3.804  -2.879  -1.799  0.00  0.00    +0.000 C 
BRANCH   3   5
ATOM      4  C   UNL     1      -3.653  -1.137  -3.528  0.00  0.00    +0.000 C 
ATOM      5  C   UNL     1      -3.148  -1.688  -2.416  0.00  0.00    +0.000 C 
BRANCH   4   6
ATOM      6  C   UNL     1      -3.076   0.029  -4.221  0.00  0.00    +0.000 A 
ATOM      7  C   UNL     1      -3.740   0.567  -5.312  0.00  0.00    +0.000 A 
ATOM      8  C   UNL     1      -3.193   1.671  -5.966  0.00  0.00    +0.000 A 
ATOM      9  C   UNL     1      -1.881   0.563  -3.768  0.00  0.00    +0.000 A 
ATOM     10  C   UNL     1      -1.991   2.220  -5.523  0.00  0.00    +0.000 A 
ATOM     11  C   UNL     1      -1.334   1.667  -4.423  0.00  0.00    +0.000 A 
BRANCH   8  12
ATOM     12  O   UNL     1      -3.844   2.203  -7.039  0.00  0.00    +0.000 OA
ATOM     13  C   UNL     1      -5.179   2.657  -6.828  0.00  0.00    +0.000 C 
ENDBRANCH   8  12
BRANCH  10  14
ATOM     14  O   UNL     1      -1.448   3.299  -6.154  0.00  0.00    +0.000 OA
ATOM     15  H   UNL     1      -2.037   3.554  -6.885  0.00  0.00    +0.000 HD
ENDBRANCH  10  14
ENDBRANCH   4   6
ENDBRANCH   3   5
ENDBRANCH   1   3
BRANCH   1  17
ATOM     16  O   UNL     1      -3.353  -4.475  -4.974  0.00  0.00    +0.000 OA
ATOM     17  C   UNL     1      -3.101  -4.347  -3.778  0.00  0.00    +0.000 C 
BRANCH  17  19
ATOM     18  C   UNL     1      -0.740  -3.662  -3.683  0.00  0.00    +0.000 C 
ATOM     19  C   UNL     1      -1.710  -4.480  -3.251  0.00  0.00    +0.000 C 
BRANCH  18  20
ATOM     20  C   UNL     1       0.662  -3.717  -3.235  0.00  0.00    +0.000 A 
ATOM     21  C   UNL     1       1.093  -2.850  -2.244  0.00  0.00    +0.000 A 
ATOM     22  C   UNL     1       2.421  -2.902  -1.821  0.00  0.00    +0.000 A 
ATOM     23  C   UNL     1       1.524  -4.636  -3.814  0.00  0.00    +0.000 A 
ATOM     24  C   UNL     1       3.300  -3.821  -2.394  0.00  0.00    +0.000 A 
ATOM     25  C   UNL     1       2.852  -4.688  -3.391  0.00  0.00    +0.000 A 
BRANCH  22  26
ATOM     26  O   UNL     1       2.847  -2.052  -0.846  0.00  0.00    +0.000 OA
ATOM     27  C   UNL     1       1.901  -1.689   0.158  0.00  0.00    +0.000 C 
ENDBRANCH  22  26
BRANCH  24  28
ATOM     28  O   UNL     1       4.599  -3.883  -1.988  0.00  0.00    +0.000 OA
ATOM     29  H   UNL     1       4.792  -3.115  -1.424  0.00  0.00    +0.000 HD
ENDBRANCH  24  28
ENDBRANCH  18  20
ENDBRANCH  17  19
ENDBRANCH   1  17
TORSDOF 10
ENDMDL
MODEL 3
REMARK VINA RESULT:    -7.414      2.571      6.603
REMARK INTER + INTRA:         -13.064
REMARK INTER:                 -10.397
REMARK INTRA:                  -2.668
REMARK CONF_INDEPENDENT:        2.983
REMARK UNBOUND:                 2.668
REMARK  Name = 969516
REMARK  12 active torsions:
REMARK  status: ('A' for Active; 'I' for Inactive)
REMARK    1  A    between atoms: O_1  and  C_12
REMARK    2  A    between atoms: O_1  and  C_26
REMARK    3  A    between atoms: O_2  and  C_13
REMARK    4  A    between atoms: O_2  and  C_27
REMARK    5  A    between atoms: O_3  and  C_18
REMARK    6  A    between atoms: O_4  and  C_19
REMARK    7  A    between atoms: C_7  and  C_16
REMARK    8  A    between atoms: C_8  and  C_17
REMARK    9  A    between atoms: C_9  and  C_20
REMARK   10  A    between atoms: C_9  and  C_21
REMARK   11  A    between atoms: C_20  and  C_24
REMARK   12  A    between atoms: C_21  and  C_25
REMARK                            x       y       z     vdW  Elec       q    Type
REMARK                         _______ _______ _______ _____ _____    ______ ____
ROOT
ATOM      1  C   UNL     1      -1.509  -3.687  -6.524  0.00  0.00    +0.000 C 
ENDROOT
BRANCH   1   3
ATOM      2  O   UNL     1      -0.964  -1.517  -7.420  0.00  0.00    +0.000 OA
ATOM      3  C   UNL     1      -1.652  -2.183  -6.651  0.00  0.00    +0.000 C 
BRANCH   3   5
ATOM      4  C   UNL     1      -2.493  -0.406  -5.174  0.00  0.00    +0.000 C 
ATOM      5  C   UNL     1      -2.720  -1.561  -5.814  0.00  0.00    +0.000 C 
BRANCH   4   6
ATOM      6  C   UNL     1      -3.475   0.283  -4.317  0.00  0.00    +0.000 A 
ATOM      7  C   UNL     1      -4.273   1.276  -4.862  0.00  0.00    +0.000 A 
ATOM      8  C   UNL     1      -5.201   1.928  -4.050  0.00  0.00    +0.000 A 
ATOM      9  C   UNL     1      -3.577  -0.074  -2.982  0.00  0.00    +0.000 A 
ATOM     10  C   UNL     1      -5.317   1.580  -2.705  0.00  0.00    +0.000 A 
ATOM     11  C   UNL     1      -4.506   0.579  -2.170  0.00  0.00    +0.000 A 
BRANCH   8  12
ATOM     12  O   UNL     1      -5.989   2.904  -4.583  0.00  0.00    +0.000 OA
ATOM     13  C   UNL     1      -6.748   2.564  -5.742  0.00  0.00    +0.000 C 
ENDBRANCH   8  12
BRANCH  10  14
ATOM     14  O   UNL     1      -6.220   2.209  -1.902  0.00  0.00    +0.000 OA
ATOM     15  H   UNL     1      -6.690   2.874  -2.433  0.00  0.00    +0.000 HD
ENDBRANCH  10  14
ENDBRANCH   4   6
ENDBRANCH   3   5
ENDBRANCH   1   3
BRANCH   1  17
ATOM     16  O   UNL     1      -3.097  -4.699  -5.018  0.00  0.00    +0.000 OA
ATOM     17  C   UNL     1      -1.959  -4.272  -5.199  0.00  0.00    +0.000 C 
BRANCH  17  19
ATOM     18  C   UNL     1       0.304  -3.827  -4.343  0.00  0.00    +0.000 C 
ATOM     19  C   UNL     1      -0.916  -4.341  -4.133  0.00  0.00    +0.000 C 
BRANCH  18  20
ATOM     20  C   UNL     1       1.403  -3.853  -3.362  0.00  0.00    +0.000 A 
ATOM     21  C   UNL     1       1.253  -3.190  -2.156  0.00  0.00    +0.000 A 
ATOM     22  C   UNL     1       2.295  -3.214  -1.228  0.00  0.00    +0.000 A 
ATOM     23  C   UNL     1       2.567  -4.542  -3.667  0.00  0.00    +0.000 A 
ATOM     24  C   UNL     1       3.472  -3.903  -1.520  0.00  0.00    +0.000 A 
ATOM     25  C   UNL     1       3.609  -4.566  -2.740  0.00  0.00    +0.000 A 
BRANCH  22  26
ATOM     26  O   UNL     1       2.150  -2.563  -0.041  0.00  0.00    +0.000 OA
ATOM     27  C   UNL     1       1.051  -1.661   0.075  0.00  0.00    +0.000 C 
ENDBRANCH  22  26
BRANCH  24  28
ATOM     28  O   UNL     1       4.496  -3.936  -0.622  0.00  0.00    +0.000 OA
ATOM     29  H   UNL     1       4.224  -3.467   0.185  0.00  0.00    +0.000 HD
ENDBRANCH  24  28
ENDBRANCH  18  20
ENDBRANCH  17  19
ENDBRANCH   1  17
TORSDOF 10
ENDMDL
MODEL 4
REMARK VINA RESULT:    -7.205      1.942      5.951
REMARK INTER + INTRA:         -12.637
REMARK INTER:                 -10.188
REMARK INTRA:                  -2.449
REMARK CONF_INDEPENDENT:        2.983
REMARK UNBOUND:                 2.449
REMARK  Name = 969516
REMARK  12 active torsions:
REMARK  status: ('A' for Active; 'I' for Inactive)
REMARK    1  A    between atoms: O_1  and  C_12
REMARK    2  A    between atoms: O_1  and  C_26
REMARK    3  A    between atoms: O_2  and  C_13
REMARK    4  A    between atoms: O_2  and  C_27
REMARK    5  A    between atoms: O_3  and  C_18
REMARK    6  A    between atoms: O_4  and  C_19
REMARK    7  A    between atoms: C_7  and  C_16
REMARK    8  A    between atoms: C_8  and  C_17
REMARK    9  A    between atoms: C_9  and  C_20
REMARK   10  A    between atoms: C_9  and  C_21
REMARK   11  A    between atoms: C_20  and  C_24
REMARK   12  A    between atoms: C_21  and  C_25
REMARK                            x       y       z     vdW  Elec       q    Type
REMARK                         _______ _______ _______ _____ _____    ______ ____
ROOT
ATOM      1  C   UNL     1      -1.684  -3.578  -6.686  0.00  0.00    +0.000 C 
ENDROOT
BRANCH   1   3
ATOM      2  O   UNL     1      -1.108  -1.321  -7.302  0.00  0.00    +0.000 OA
ATOM      3  C   UNL     1      -1.811  -2.069  -6.628  0.00  0.00    +0.000 C 
BRANCH   3   5
ATOM      4  C   UNL     1      -2.607  -1.221  -4.461  0.00  0.00    +0.000 C 
ATOM      5  C   UNL     1      -2.884  -1.543  -5.732  0.00  0.00    +0.000 C 
BRANCH   4   6
ATOM      6  C   UNL     1      -3.594  -0.706  -3.494  0.00  0.00    +0.000 A 
ATOM      7  C   UNL     1      -4.121  -1.563  -2.541  0.00  0.00    +0.000 A 
ATOM      8  C   UNL     1      -5.055  -1.075  -1.628  0.00  0.00    +0.000 A 
ATOM      9  C   UNL     1      -3.975   0.624  -3.559  0.00  0.00    +0.000 A 
ATOM     10  C   UNL     1      -5.449   0.262  -1.680  0.00  0.00    +0.000 A 
ATOM     11  C   UNL     1      -4.909   1.112  -2.645  0.00  0.00    +0.000 A 
BRANCH   8  12
ATOM     12  O   UNL     1      -5.575  -1.914  -0.689  0.00  0.00    +0.000 OA
ATOM     13  C   UNL     1      -4.757  -3.005  -0.269  0.00  0.00    +0.000 C 
ENDBRANCH   8  12
BRANCH  10  14
ATOM     14  O   UNL     1      -6.360   0.750  -0.792  0.00  0.00    +0.000 OA
ATOM     15  H   UNL     1      -7.108   1.118  -1.292  0.00  0.00    +0.000 HD
ENDBRANCH  10  14
ENDBRANCH   4   6
ENDBRANCH   3   5
ENDBRANCH   1   3
BRANCH   1  17
ATOM     16  O   UNL     1      -3.174  -4.922  -5.349  0.00  0.00    +0.000 OA
ATOM     17  C   UNL     1      -2.109  -4.314  -5.430  0.00  0.00    +0.000 C 
BRANCH  17  19
ATOM     18  C   UNL     1       0.136  -3.905  -4.511  0.00  0.00    +0.000 C 
ATOM     19  C   UNL     1      -1.130  -4.295  -4.304  0.00  0.00    +0.000 C 
BRANCH  18  20
ATOM     20  C   UNL     1       1.179  -3.860  -3.473  0.00  0.00    +0.000 A 
ATOM     21  C   UNL     1       1.065  -2.950  -2.434  0.00  0.00    +0.000 A 
ATOM     22  C   UNL     1       2.054  -2.908  -1.451  0.00  0.00    +0.000 A 
ATOM     23  C   UNL     1       2.256  -4.729  -3.555  0.00  0.00    +0.000 A 
ATOM     24  C   UNL     1       3.143  -3.776  -1.520  0.00  0.00    +0.000 A 
ATOM     25  C   UNL     1       3.245  -4.687  -2.572  0.00  0.00    +0.000 A 
BRANCH  22  26
ATOM     26  O   UNL     1       1.944  -2.015  -0.428  0.00  0.00    +0.000 OA
ATOM     27  C   UNL     1       0.626  -1.691   0.011  0.00  0.00    +0.000 C 
ENDBRANCH  22  26
BRANCH  24  28
ATOM     28  O   UNL     1       4.115  -3.746  -0.566  0.00  0.00    +0.000 OA
ATOM     29  H   UNL     1       3.818  -3.185   0.171  0.00  0.00    +0.000 HD
ENDBRANCH  24  28
ENDBRANCH  18  20
ENDBRANCH  17  19
ENDBRANCH   1  17
TORSDOF 10
ENDMDL
MODEL 5
REMARK VINA RESULT:    -7.161      2.210      5.121
REMARK INTER + INTRA:         -12.641
REMARK INTER:                 -10.144
REMARK INTRA:                  -2.496
REMARK CONF_INDEPENDENT:        2.983
REMARK UNBOUND:                 2.496
REMARK  Name = 969516
REMARK  12 active torsions:
REMARK  status: ('A' for Active; 'I' for Inactive)
REMARK    1  A    between atoms: O_1  and  C_12
REMARK    2  A    between atoms: O_1  and  C_26
REMARK    3  A    between atoms: O_2  and  C_13
REMARK    4  A    between atoms: O_2  and  C_27
REMARK    5  A    between atoms: O_3  and  C_18
REMARK    6  A    between atoms: O_4  and  C_19
REMARK    7  A    between atoms: C_7  and  C_16
REMARK    8  A    between atoms: C_8  and  C_17
REMARK    9  A    between atoms: C_9  and  C_20
REMARK   10  A    between atoms: C_9  and  C_21
REMARK   11  A    between atoms: C_20  and  C_24
REMARK   12  A    between atoms: C_21  and  C_25
REMARK                            x       y       z     vdW  Elec       q    Type
REMARK                         _______ _______ _______ _____ _____    ______ ____
ROOT
ATOM      1  C   UNL     1       1.573  -1.327   0.077  0.00  0.00    +0.000 C 
ENDROOT
BRANCH   1   3
ATOM      2  O   UNL     1       3.371  -2.871   0.511  0.00  0.00    +0.000 OA
ATOM      3  C   UNL     1       2.584  -2.391  -0.300  0.00  0.00    +0.000 C 
BRANCH   3   5
ATOM      4  C   UNL     1       1.492  -3.576  -2.158  0.00  0.00    +0.000 C 
ATOM      5  C   UNL     1       2.534  -2.858  -1.718  0.00  0.00    +0.000 C 
BRANCH   4   6
ATOM      6  C   UNL     1       1.353  -4.093  -3.531  0.00  0.00    +0.000 A 
ATOM      7  C   UNL     1       2.375  -4.852  -4.078  0.00  0.00    +0.000 A 
ATOM      8  C   UNL     1       2.243  -5.341  -5.377  0.00  0.00    +0.000 A 
ATOM      9  C   UNL     1       0.203  -3.808  -4.249  0.00  0.00    +0.000 A 
ATOM     10  C   UNL     1       1.092  -5.062  -6.113  0.00  0.00    +0.000 A 
ATOM     11  C   UNL     1       0.071  -4.296  -5.550  0.00  0.00    +0.000 A 
BRANCH   8  12
ATOM     12  O   UNL     1       3.246  -6.088  -5.917  0.00  0.00    +0.000 OA
ATOM     13  C   UNL     1       4.119  -5.435  -6.837  0.00  0.00    +0.000 C 
ENDBRANCH   8  12
BRANCH  10  14
ATOM     14  O   UNL     1       0.951  -5.535  -7.383  0.00  0.00    +0.000 OA
ATOM     15  H   UNL     1       1.120  -6.492  -7.374  0.00  0.00    +0.000 HD
ENDBRANCH  10  14
ENDBRANCH   4   6
ENDBRANCH   3   5
ENDBRANCH   1   3
BRANCH   1  17
ATOM     16  O   UNL     1      -0.561  -2.062   0.926  0.00  0.00    +0.000 OA
ATOM     17  C   UNL     1       0.119  -1.740  -0.045  0.00  0.00    +0.000 C 
BRANCH  17  19
ATOM     18  C   UNL     1      -1.731  -2.040  -1.639  0.00  0.00    +0.000 C 
ATOM     19  C   UNL     1      -0.456  -1.687  -1.422  0.00  0.00    +0.000 C 
BRANCH  18  20
ATOM     20  C   UNL     1      -2.389  -2.033  -2.957  0.00  0.00    +0.000 A 
ATOM     21  C   UNL     1      -2.240  -0.933  -3.785  0.00  0.00    +0.000 A 
ATOM     22  C   UNL     1      -2.864  -0.926  -5.033  0.00  0.00    +0.000 A 
ATOM     23  C   UNL     1      -3.144  -3.129  -3.343  0.00  0.00    +0.000 A 
ATOM     24  C   UNL     1      -3.627  -2.022  -5.435  0.00  0.00    +0.000 A 
ATOM     25  C   UNL     1      -3.768  -3.123  -4.591  0.00  0.00    +0.000 A 
BRANCH  22  26
ATOM     26  O   UNL     1      -2.718   0.154  -5.849  0.00  0.00    +0.000 OA
ATOM     27  C   UNL     1      -2.271   1.367  -5.246  0.00  0.00    +0.000 C 
ENDBRANCH  22  26
BRANCH  24  28
ATOM     28  O   UNL     1      -4.240  -2.029  -6.652  0.00  0.00    +0.000 OA
ATOM     29  H   UNL     1      -4.356  -1.112  -6.954  0.00  0.00    +0.000 HD
ENDBRANCH  24  28
ENDBRANCH  18  20
ENDBRANCH  17  19
ENDBRANCH   1  17
TORSDOF 10
ENDMDL
MODEL 6
REMARK VINA RESULT:    -6.956      3.016      6.079
REMARK INTER + INTRA:         -12.881
REMARK INTER:                  -9.939
REMARK INTRA:                  -2.942
REMARK CONF_INDEPENDENT:        2.983
REMARK UNBOUND:                 2.942
REMARK  Name = 969516
REMARK  12 active torsions:
REMARK  status: ('A' for Active; 'I' for Inactive)
REMARK    1  A    between atoms: O_1  and  C_12
REMARK    2  A    between atoms: O_1  and  C_26
REMARK    3  A    between atoms: O_2  and  C_13
REMARK    4  A    between atoms: O_2  and  C_27
REMARK    5  A    between atoms: O_3  and  C_18
REMARK    6  A    between atoms: O_4  and  C_19
REMARK    7  A    between atoms: C_7  and  C_16
REMARK    8  A    between atoms: C_8  and  C_17
REMARK    9  A    between atoms: C_9  and  C_20
REMARK   10  A    between atoms: C_9  and  C_21
REMARK   11  A    between atoms: C_20  and  C_24
REMARK   12  A    between atoms: C_21  and  C_25
REMARK                            x       y       z     vdW  Elec       q    Type
REMARK                         _______ _______ _______ _____ _____    ______ ____
ROOT
ATOM      1  C   UNL     1      -4.196  -4.426  -4.217  0.00  0.00    +0.000 C 
ENDROOT
BRANCH   1   3
ATOM      2  O   UNL     1      -6.119  -3.031  -3.818  0.00  0.00    +0.000 OA
ATOM      3  C   UNL     1      -4.983  -3.132  -4.271  0.00  0.00    +0.000 C 
BRANCH   3   5
ATOM      4  C   UNL     1      -3.758  -1.007  -4.088  0.00  0.00    +0.000 C 
ATOM      5  C   UNL     1      -4.270  -1.965  -4.872  0.00  0.00    +0.000 C 
BRANCH   4   6
ATOM      6  C   UNL     1      -3.049   0.187  -4.581  0.00  0.00    +0.000 A 
ATOM      7  C   UNL     1      -3.565   0.885  -5.661  0.00  0.00    +0.000 A 
ATOM      8  C   UNL     1      -2.892   2.015  -6.127  0.00  0.00    +0.000 A 
ATOM      9  C   UNL     1      -1.880   0.587  -3.955  0.00  0.00    +0.000 A 
ATOM     10  C   UNL     1      -1.714   2.430  -5.508  0.00  0.00    +0.000 A 
ATOM     11  C   UNL     1      -1.207   1.717  -4.422  0.00  0.00    +0.000 A 
BRANCH   8  12
ATOM     12  O   UNL     1      -3.397   2.704  -7.189  0.00  0.00    +0.000 OA
ATOM     13  C   UNL     1      -4.699   3.267  -7.038  0.00  0.00    +0.000 C 
ENDBRANCH   8  12
BRANCH  10  14
ATOM     14  O   UNL     1      -1.050   3.533  -5.954  0.00  0.00    +0.000 OA
ATOM     15  H   UNL     1      -1.630   4.012  -6.570  0.00  0.00    +0.000 HD
ENDBRANCH  10  14
ENDBRANCH   4   6
ENDBRANCH   3   5
ENDBRANCH   1   3
BRANCH   1  17
ATOM     16  O   UNL     1      -2.336  -4.364  -5.750  0.00  0.00    +0.000 OA
ATOM     17  C   UNL     1      -2.729  -4.311  -4.587  0.00  0.00    +0.000 C 
BRANCH  17  19
ATOM     18  C   UNL     1      -0.800  -3.183  -3.558  0.00  0.00    +0.000 C 
ATOM     19  C   UNL     1      -1.790  -4.081  -3.450  0.00  0.00    +0.000 C 
BRANCH  18  20
ATOM     20  C   UNL     1       0.183  -2.890  -2.502  0.00  0.00    +0.000 A 
ATOM     21  C   UNL     1       1.450  -3.446  -2.580  0.00  0.00    +0.000 A 
ATOM     22  C   UNL     1       2.381  -3.169  -1.579  0.00  0.00    +0.000 A 
ATOM     23  C   UNL     1      -0.178  -2.064  -1.449  0.00  0.00    +0.000 A 
ATOM     24  C   UNL     1       2.032  -2.339  -0.513  0.00  0.00    +0.000 A 
ATOM     25  C   UNL     1       0.753  -1.787  -0.448  0.00  0.00    +0.000 A 
BRANCH  22  26
ATOM     26  O   UNL     1       3.627  -3.713  -1.653  0.00  0.00    +0.000 OA
ATOM     27  C   UNL     1       4.041  -4.215  -2.923  0.00  0.00    +0.000 C 
ENDBRANCH  22  26
BRANCH  24  28
ATOM     28  O   UNL     1       2.933  -2.059   0.470  0.00  0.00    +0.000 OA
ATOM     29  H   UNL     1       3.772  -2.506   0.268  0.00  0.00    +0.000 HD
ENDBRANCH  24  28
ENDBRANCH  18  20
ENDBRANCH  17  19
ENDBRANCH   1  17
TORSDOF 10
ENDMDL
MODEL 7
REMARK VINA RESULT:    -6.879      1.763      5.620
REMARK INTER + INTRA:         -12.890
REMARK INTER:                  -9.862
REMARK INTRA:                  -3.028
REMARK CONF_INDEPENDENT:        2.983
REMARK UNBOUND:                 3.028
REMARK  Name = 969516
REMARK  12 active torsions:
REMARK  status: ('A' for Active; 'I' for Inactive)
REMARK    1  A    between atoms: O_1  and  C_12
REMARK    2  A    between atoms: O_1  and  C_26
REMARK    3  A    between atoms: O_2  and  C_13
REMARK    4  A    between atoms: O_2  and  C_27
REMARK    5  A    between atoms: O_3  and  C_18
REMARK    6  A    between atoms: O_4  and  C_19
REMARK    7  A    between atoms: C_7  and  C_16
REMARK    8  A    between atoms: C_8  and  C_17
REMARK    9  A    between atoms: C_9  and  C_20
REMARK   10  A    between atoms: C_9  and  C_21
REMARK   11  A    between atoms: C_20  and  C_24
REMARK   12  A    between atoms: C_21  and  C_25
REMARK                            x       y       z     vdW  Elec       q    Type
REMARK                         _______ _______ _______ _____ _____    ______ ____
ROOT
ATOM      1  C   UNL     1       1.324  -4.409  -6.668  0.00  0.00    +0.000 C 
ENDROOT
BRANCH   1   3
ATOM      2  O   UNL     1       1.925  -6.711  -6.283  0.00  0.00    +0.000 OA
ATOM      3  C   UNL     1       1.835  -5.570  -5.838  0.00  0.00    +0.000 C 
BRANCH   3   5
ATOM      4  C   UNL     1       1.892  -4.078  -3.884  0.00  0.00    +0.000 C 
ATOM      5  C   UNL     1       2.269  -5.233  -4.450  0.00  0.00    +0.000 C 
BRANCH   4   6
ATOM      6  C   UNL     1       2.275  -3.647  -2.527  0.00  0.00    +0.000 A 
ATOM      7  C   UNL     1       1.423  -2.819  -1.813  0.00  0.00    +0.000 A 
ATOM      8  C   UNL     1       1.787  -2.411  -0.530  0.00  0.00    +0.000 A 
ATOM      9  C   UNL     1       3.479  -4.076  -1.994  0.00  0.00    +0.000 A 
ATOM     10  C   UNL     1       2.996  -2.834   0.021  0.00  0.00    +0.000 A 
ATOM     11  C   UNL     1       3.842  -3.667  -0.710  0.00  0.00    +0.000 A 
BRANCH   8  12
ATOM     12  O   UNL     1       0.952  -1.597   0.176  0.00  0.00    +0.000 OA
ATOM     13  C   UNL     1      -0.442  -1.689  -0.114  0.00  0.00    +0.000 C 
ENDBRANCH   8  12
BRANCH  10  14
ATOM     14  O   UNL     1       3.360  -2.443   1.274  0.00  0.00    +0.000 OA
ATOM     15  H   UNL     1       2.576  -2.085   1.723  0.00  0.00    +0.000 HD
ENDBRANCH  10  14
ENDBRANCH   4   6
ENDBRANCH   3   5
ENDBRANCH   1   3
BRANCH   1  17
ATOM     16  O   UNL     1      -0.927  -4.835  -7.420  0.00  0.00    +0.000 OA
ATOM     17  C   UNL     1      -0.180  -4.219  -6.663  0.00  0.00    +0.000 C 
BRANCH  17  19
ATOM     18  C   UNL     1      -2.030  -3.154  -5.439  0.00  0.00    +0.000 C 
ATOM     19  C   UNL     1      -0.710  -3.266  -5.643  0.00  0.00    +0.000 C 
BRANCH  18  20
ATOM     20  C   UNL     1      -2.653  -2.239  -4.467  0.00  0.00    +0.000 A 
ATOM     21  C   UNL     1      -2.967  -2.704  -3.201  0.00  0.00    +0.000 A 
ATOM     22  C   UNL     1      -3.557  -1.837  -2.281  0.00  0.00    +0.000 A 
ATOM     23  C   UNL     1      -2.913  -0.929  -4.840  0.00  0.00    +0.000 A 
ATOM     24  C   UNL     1      -3.825  -0.517  -2.641  0.00  0.00    +0.000 A 
ATOM     25  C   UNL     1      -3.503  -0.063  -3.920  0.00  0.00    +0.000 A 
BRANCH  22  26
ATOM     26  O   UNL     1      -3.866  -2.292  -1.035  0.00  0.00    +0.000 OA
ATOM     27  C   UNL     1      -4.142  -3.685  -0.902  0.00  0.00    +0.000 C 
ENDBRANCH  22  26
BRANCH  24  28
ATOM     28  O   UNL     1      -4.399   0.341  -1.751  0.00  0.00    +0.000 OA
ATOM     29  H   UNL     1      -4.716  -0.165  -0.984  0.00  0.00    +0.000 HD
ENDBRANCH  24  28
ENDBRANCH  18  20
ENDBRANCH  17  19
ENDBRANCH   1  17
TORSDOF 10
ENDMDL
MODEL 8
REMARK VINA RESULT:    -6.594      2.913      5.331
REMARK INTER + INTRA:         -12.790
REMARK INTER:                  -9.577
REMARK INTRA:                  -3.213
REMARK CONF_INDEPENDENT:        2.983
REMARK UNBOUND:                 3.213
REMARK  Name = 969516
REMARK  12 active torsions:
REMARK  status: ('A' for Active; 'I' for Inactive)
REMARK    1  A    between atoms: O_1  and  C_12
REMARK    2  A    between atoms: O_1  and  C_26
REMARK    3  A    between atoms: O_2  and  C_13
REMARK    4  A    between atoms: O_2  and  C_27
REMARK    5  A    between atoms: O_3  and  C_18
REMARK    6  A    between atoms: O_4  and  C_19
REMARK    7  A    between atoms: C_7  and  C_16
REMARK    8  A    between atoms: C_8  and  C_17
REMARK    9  A    between atoms: C_9  and  C_20
REMARK   10  A    between atoms: C_9  and  C_21
REMARK   11  A    between atoms: C_20  and  C_24
REMARK   12  A    between atoms: C_21  and  C_25
REMARK                            x       y       z     vdW  Elec       q    Type
REMARK                         _______ _______ _______ _____ _____    ______ ____
ROOT
ATOM      1  C   UNL     1      -5.442  -2.369  -0.438  0.00  0.00    +0.000 C 
ENDROOT
BRANCH   1   3
ATOM      2  O   UNL     1      -6.945  -2.195  -2.313  0.00  0.00    +0.000 OA
ATOM      3  C   UNL     1      -5.924  -1.800  -1.757  0.00  0.00    +0.000 C 
BRANCH   3   5
ATOM      4  C   UNL     1      -4.486  -0.833  -3.502  0.00  0.00    +0.000 C 
ATOM      5  C   UNL     1      -5.103  -0.688  -2.322  0.00  0.00    +0.000 C 
BRANCH   4   6
ATOM      6  C   UNL     1      -3.646   0.197  -4.140  0.00  0.00    +0.000 A 
ATOM      7  C   UNL     1      -4.218   1.073  -5.049  0.00  0.00    +0.000 A 
ATOM      8  C   UNL     1      -3.421   2.047  -5.652  0.00  0.00    +0.000 A 
ATOM      9  C   UNL     1      -2.300   0.268  -3.818  0.00  0.00    +0.000 A 
ATOM     10  C   UNL     1      -2.065   2.131  -5.339  0.00  0.00    +0.000 A 
ATOM     11  C   UNL     1      -1.504   1.242  -4.422  0.00  0.00    +0.000 A 
BRANCH   8  12
ATOM     12  O   UNL     1      -3.981   2.909  -6.546  0.00  0.00    +0.000 OA
ATOM     13  C   UNL     1      -5.295   2.603  -7.008  0.00  0.00    +0.000 C 
ENDBRANCH   8  12
BRANCH  10  14
ATOM     14  O   UNL     1      -1.278   3.078  -5.920  0.00  0.00    +0.000 OA
ATOM     15  H   UNL     1      -1.843   3.653  -6.465  0.00  0.00    +0.000 HD
ENDBRANCH  10  14
ENDBRANCH   4   6
ENDBRANCH   3   5
ENDBRANCH   1   3
BRANCH   1  17
ATOM     16  O   UNL     1      -4.728  -4.613   0.078  0.00  0.00    +0.000 OA
ATOM     17  C   UNL     1      -4.528  -3.574  -0.545  0.00  0.00    +0.000 C 
BRANCH  17  19
ATOM     18  C   UNL     1      -3.387  -4.105  -2.660  0.00  0.00    +0.000 C 
ATOM     19  C   UNL     1      -3.386  -3.438  -1.497  0.00  0.00    +0.000 C 
BRANCH  18  20
ATOM     20  C   UNL     1      -2.308  -4.048  -3.660  0.00  0.00    +0.000 A 
ATOM     21  C   UNL     1      -1.027  -4.432  -3.299  0.00  0.00    +0.000 A 
ATOM     22  C   UNL     1      -0.004  -4.376  -4.246  0.00  0.00    +0.000 A 
ATOM     23  C   UNL     1      -2.595  -3.609  -4.943  0.00  0.00    +0.000 A 
ATOM     24  C   UNL     1      -0.277  -3.938  -5.541  0.00  0.00    +0.000 A 
ATOM     25  C   UNL     1      -1.572  -3.554  -5.890  0.00  0.00    +0.000 A 
BRANCH  22  26
ATOM     26  O   UNL     1       1.256  -4.754  -3.894  0.00  0.00    +0.000 OA
ATOM     27  C   UNL     1       2.075  -3.774  -3.259  0.00  0.00    +0.000 C 
ENDBRANCH  22  26
BRANCH  24  28
ATOM     28  O   UNL     1       0.713  -3.881  -6.476  0.00  0.00    +0.000 OA
ATOM     29  H   UNL     1       1.551  -4.154  -6.067  0.00  0.00    +0.000 HD
ENDBRANCH  24  28
ENDBRANCH  18  20
ENDBRANCH  17  19
ENDBRANCH   1  17
TORSDOF 10
ENDMDL
MODEL 9
REMARK VINA RESULT:    -6.194      1.653      6.820
REMARK INTER + INTRA:         -12.779
REMARK INTER:                  -9.177
REMARK INTRA:                  -3.602
REMARK CONF_INDEPENDENT:        2.983
REMARK UNBOUND:                 3.602
REMARK  Name = 969516
REMARK  12 active torsions:
REMARK  status: ('A' for Active; 'I' for Inactive)
REMARK    1  A    between atoms: O_1  and  C_12
REMARK    2  A    between atoms: O_1  and  C_26
REMARK    3  A    between atoms: O_2  and  C_13
REMARK    4  A    between atoms: O_2  and  C_27
REMARK    5  A    between atoms: O_3  and  C_18
REMARK    6  A    between atoms: O_4  and  C_19
REMARK    7  A    between atoms: C_7  and  C_16
REMARK    8  A    between atoms: C_8  and  C_17
REMARK    9  A    between atoms: C_9  and  C_20
REMARK   10  A    between atoms: C_9  and  C_21
REMARK   11  A    between atoms: C_20  and  C_24
REMARK   12  A    between atoms: C_21  and  C_25
REMARK                            x       y       z     vdW  Elec       q    Type
REMARK                         _______ _______ _______ _____ _____    ______ ____
ROOT
ATOM      1  C   UNL     1       2.906  -2.438  -1.638  0.00  0.00    +0.000 C 
ENDROOT
BRANCH   1   3
ATOM      2  O   UNL     1       3.248  -4.769  -2.143  0.00  0.00    +0.000 OA
ATOM      3  C   UNL     1       2.656  -3.724  -2.399  0.00  0.00    +0.000 C 
BRANCH   3   5
ATOM      4  C   UNL     1       0.440  -4.300  -3.297  0.00  0.00    +0.000 C 
ATOM      5  C   UNL     1       1.604  -3.656  -3.457  0.00  0.00    +0.000 C 
BRANCH   4   6
ATOM      6  C   UNL     1      -0.656  -4.306  -4.284  0.00  0.00    +0.000 A 
ATOM      7  C   UNL     1      -1.928  -4.681  -3.882  0.00  0.00    +0.000 A 
ATOM      8  C   UNL     1      -2.964  -4.686  -4.816  0.00  0.00    +0.000 A 
ATOM      9  C   UNL     1      -0.391  -3.937  -5.592  0.00  0.00    +0.000 A 
ATOM     10  C   UNL     1      -2.714  -4.318  -6.137  0.00  0.00    +0.000 A 
ATOM     11  C   UNL     1      -1.428  -3.943  -6.526  0.00  0.00    +0.000 A 
BRANCH   8  12
ATOM     12  O   UNL     1      -4.216  -5.055  -4.425  0.00  0.00    +0.000 OA
ATOM     13  C   UNL     1      -4.890  -4.193  -3.510  0.00  0.00    +0.000 C 
ENDBRANCH   8  12
BRANCH  10  14
ATOM     14  O   UNL     1      -3.718  -4.319  -7.058  0.00  0.00    +0.000 OA
ATOM     15  H   UNL     1      -4.488  -4.768  -6.670  0.00  0.00    +0.000 HD
ENDBRANCH  10  14
ENDBRANCH   4   6
ENDBRANCH   3   5
ENDBRANCH   1   3
BRANCH   1  17
ATOM     16  O   UNL     1       2.818  -2.427   0.772  0.00  0.00    +0.000 OA
ATOM     17  C   UNL     1       2.213  -2.333  -0.293  0.00  0.00    +0.000 C 
BRANCH  17  19
ATOM     18  C   UNL     1       0.103  -2.003  -1.515  0.00  0.00    +0.000 C 
ATOM     19  C   UNL     1       0.746  -2.062  -0.340  0.00  0.00    +0.000 C 
BRANCH  18  20
ATOM     20  C   UNL     1      -1.337  -1.732  -1.670  0.00  0.00    +0.000 A 
ATOM     21  C   UNL     1      -2.247  -2.437  -0.900  0.00  0.00    +0.000 A 
ATOM     22  C   UNL     1      -3.610  -2.180  -1.047  0.00  0.00    +0.000 A 
ATOM     23  C   UNL     1      -1.752  -0.776  -2.584  0.00  0.00    +0.000 A 
ATOM     24  C   UNL     1      -4.044  -1.222  -1.962  0.00  0.00    +0.000 A 
ATOM     25  C   UNL     1      -3.115  -0.520  -2.731  0.00  0.00    +0.000 A 
BRANCH  22  26
ATOM     26  O   UNL     1      -4.508  -2.871  -0.290  0.00  0.00    +0.000 OA
ATOM     27  C   UNL     1      -4.230  -4.250  -0.052  0.00  0.00    +0.000 C 
ENDBRANCH  22  26
BRANCH  24  28
ATOM     28  O   UNL     1      -5.372  -0.960  -2.114  0.00  0.00    +0.000 OA
ATOM     29  H   UNL     1      -5.868  -1.422  -1.417  0.00  0.00    +0.000 HD
ENDBRANCH  24  28
ENDBRANCH  18  20
ENDBRANCH  17  19
ENDBRANCH   1  17
TORSDOF 10
ENDMDL
