MODEL 1
REMARK VINA RESULT:    -8.890      0.000      0.000
REMARK INTER + INTRA:         -13.241
REMARK INTER:                 -10.680
REMARK INTRA:                  -2.561
REMARK CONF_INDEPENDENT:        1.790
REMARK UNBOUND:                 2.561
REMARK  Name = 5318517
REMARK  8 active torsions:
REMARK  status: ('A' for Active; 'I' for Inactive)
REMARK    1  A    between atoms: O_1  and  C_11
REMARK    2  A    between atoms: O_2  and  C_17
REMARK    3  A    between atoms: O_4  and  C_23
REMARK    4  A    between atoms: C_6  and  C_14
REMARK    5  A    between atoms: C_8  and  C_17
REMARK    6  A    between atoms: C_8  and  C_18
REMARK    7  A    between atoms: C_9  and  C_19
REMARK    8  A    between atoms: C_19  and  C_21
REMARK                            x       y       z     vdW  Elec       q    Type
REMARK                         _______ _______ _______ _____ _____    ______ ____
ROOT
ATOM      1  C   UNL     1      -1.774   3.198   1.189  0.00  0.00    +0.000 C 
ATOM      2  C   UNL     1      -0.946   3.764   2.414  0.00  0.00    +0.000 C 
ATOM      3  C   UNL     1      -1.693   4.769   3.369  0.00  0.00    +0.000 C 
ATOM      4  C   UNL     1      -0.741   2.484   0.217  0.00  0.00    +0.000 C 
ATOM      5  C   UNL     1      -2.456   4.382   0.458  0.00  0.00    +0.000 C 
ATOM      6  C   UNL     1      -2.387   5.861   2.503  0.00  0.00    +0.000 C 
ATOM      7  C   UNL     1      -0.185   2.632   3.143  0.00  0.00    +0.000 C 
ATOM      8  C   UNL     1      -3.253   5.299   1.380  0.00  0.00    +0.000 C 
ATOM      9  C   UNL     1      -2.868   2.179   1.601  0.00  0.00    +0.000 C 
ATOM     10  C   UNL     1       0.744   1.871   2.194  0.00  0.00    +0.000 C 
ATOM     11  C   UNL     1       0.012   1.387   0.969  0.00  0.00    +0.000 C 
ATOM     12  C   UNL     1      -0.653   5.495   4.269  0.00  0.00    +0.000 C 
ATOM     13  C   UNL     1       0.049   0.088   0.626  0.00  0.00    +0.000 C 
ENDROOT
BRANCH   6  14
ATOM     14  O   UNL     1      -3.177   6.743   3.299  0.00  0.00    +0.000 OA
ATOM     15  H   UNL     1      -3.613   6.210   3.986  0.00  0.00    +0.000 HD
ENDBRANCH   6  14
BRANCH   3  16
ATOM     16  C   UNL     1      -2.687   4.098   4.341  0.00  0.00    +0.000 C 
BRANCH  16  17
ATOM     17  O   UNL     1      -3.993   4.406   3.908  0.00  0.00    +0.000 OA
ATOM     18  H   UNL     1      -4.273   5.210   4.379  0.00  0.00    +0.000 HD
ENDBRANCH  16  17
ENDBRANCH   3  16
BRANCH   4  19
ATOM     19  C   UNL     1      -1.336   2.035  -1.128  0.00  0.00    +0.000 C 
BRANCH  19  22
ATOM     20  O   UNL     1       2.660   3.380  -3.332  0.00  0.00    +0.000 OA
ATOM     21  O   UNL     1       1.767   1.464  -4.244  0.00  0.00    +0.000 OA
ATOM     22  C   UNL     1      -0.255   1.772  -2.124  0.00  0.00    +0.000 C 
ATOM     23  C   UNL     1       0.679   2.665  -2.456  0.00  0.00    +0.000 C 
ATOM     24  C   UNL     1       0.905   4.014  -1.890  0.00  0.00    +0.000 C 
ATOM     25  C   UNL     1       1.731   2.386  -3.452  0.00  0.00    +0.000 C 
ATOM     26  C   UNL     1       2.380   4.189  -2.174  0.00  0.00    +0.000 C 
BRANCH  24  27
ATOM     27  O   UNL     1       0.170   4.977  -2.634  0.00  0.00    +0.000 OA
ATOM     28  H   UNL     1       0.432   4.886  -3.567  0.00  0.00    +0.000 HD
ENDBRANCH  24  27
ENDBRANCH  19  22
ENDBRANCH   4  19
TORSDOF 6
ENDMDL
MODEL 2
REMARK VINA RESULT:    -8.720      1.636      5.986
REMARK INTER + INTRA:         -12.160
REMARK INTER:                 -10.510
REMARK INTRA:                  -1.649
REMARK CONF_INDEPENDENT:        1.790
REMARK UNBOUND:                 1.649
REMARK  Name = 5318517
REMARK  8 active torsions:
REMARK  status: ('A' for Active; 'I' for Inactive)
REMARK    1  A    between atoms: O_1  and  C_11
REMARK    2  A    between atoms: O_2  and  C_17
REMARK    3  A    between atoms: O_4  and  C_23
REMARK    4  A    between atoms: C_6  and  C_14
REMARK    5  A    between atoms: C_8  and  C_17
REMARK    6  A    between atoms: C_8  and  C_18
REMARK    7  A    between atoms: C_9  and  C_19
REMARK    8  A    between atoms: C_19  and  C_21
REMARK                            x       y       z     vdW  Elec       q    Type
REMARK                         _______ _______ _______ _____ _____    ______ ____
ROOT
ATOM      1  C   UNL     1       0.110   2.077  -0.321  0.00  0.00    +0.000 C 
ATOM      2  C   UNL     1       1.633   1.798  -0.651  0.00  0.00    +0.000 C 
ATOM      3  C   UNL     1       2.131   2.204  -2.090  0.00  0.00    +0.000 C 
ATOM      4  C   UNL     1      -0.223   1.309   1.028  0.00  0.00    +0.000 C 
ATOM      5  C   UNL     1      -0.762   1.520  -1.476  0.00  0.00    +0.000 C 
ATOM      6  C   UNL     1       1.131   1.641  -3.143  0.00  0.00    +0.000 C 
ATOM      7  C   UNL     1       2.549   2.272   0.501  0.00  0.00    +0.000 C 
ATOM      8  C   UNL     1      -0.326   1.992  -2.859  0.00  0.00    +0.000 C 
ATOM      9  C   UNL     1      -0.217   3.582  -0.140  0.00  0.00    +0.000 C 
ATOM     10  C   UNL     1       2.175   1.611   1.830  0.00  0.00    +0.000 C 
ATOM     11  C   UNL     1       0.711   1.779   2.143  0.00  0.00    +0.000 C 
ATOM     12  C   UNL     1       3.507   1.534  -2.367  0.00  0.00    +0.000 C 
ATOM     13  C   UNL     1       0.324   2.313   3.314  0.00  0.00    +0.000 C 
ENDROOT
BRANCH   6  14
ATOM     14  O   UNL     1       1.461   2.067  -4.464  0.00  0.00    +0.000 OA
ATOM     15  H   UNL     1       1.788   2.980  -4.406  0.00  0.00    +0.000 HD
ENDBRANCH   6  14
BRANCH   3  16
ATOM     16  C   UNL     1       2.360   3.719  -2.276  0.00  0.00    +0.000 C 
BRANCH  16  17
ATOM     17  O   UNL     1       1.157   4.284  -2.749  0.00  0.00    +0.000 OA
ATOM     18  H   UNL     1       0.976   3.892  -3.621  0.00  0.00    +0.000 HD
ENDBRANCH  16  17
ENDBRANCH   3  16
BRANCH   4  19
ATOM     19  C   UNL     1      -1.713   1.307   1.410  0.00  0.00    +0.000 C 
BRANCH  19  22
ATOM     20  O   UNL     1      -3.595   5.652   0.947  0.00  0.00    +0.000 OA
ATOM     21  O   UNL     1      -4.169   4.266  -0.800  0.00  0.00    +0.000 OA
ATOM     22  C   UNL     1      -2.468   2.312   0.604  0.00  0.00    +0.000 C 
ATOM     23  C   UNL     1      -2.860   3.497   1.077  0.00  0.00    +0.000 C 
ATOM     24  C   UNL     1      -2.584   4.095   2.402  0.00  0.00    +0.000 C 
ATOM     25  C   UNL     1      -3.616   4.469   0.264  0.00  0.00    +0.000 C 
ATOM     26  C   UNL     1      -2.696   5.566   2.069  0.00  0.00    +0.000 C 
BRANCH  24  27
ATOM     27  O   UNL     1      -3.618   3.744   3.312  0.00  0.00    +0.000 OA
ATOM     28  H   UNL     1      -4.439   4.160   2.996  0.00  0.00    +0.000 HD
ENDBRANCH  24  27
ENDBRANCH  19  22
ENDBRANCH   4  19
TORSDOF 6
ENDMDL
MODEL 3
REMARK VINA RESULT:    -8.657      1.800      3.900
REMARK INTER + INTRA:         -12.289
REMARK INTER:                 -10.447
REMARK INTRA:                  -1.842
REMARK CONF_INDEPENDENT:        1.790
REMARK UNBOUND:                 1.842
REMARK  Name = 5318517
REMARK  8 active torsions:
REMARK  status: ('A' for Active; 'I' for Inactive)
REMARK    1  A    between atoms: O_1  and  C_11
REMARK    2  A    between atoms: O_2  and  C_17
REMARK    3  A    between atoms: O_4  and  C_23
REMARK    4  A    between atoms: C_6  and  C_14
REMARK    5  A    between atoms: C_8  and  C_17
REMARK    6  A    between atoms: C_8  and  C_18
REMARK    7  A    between atoms: C_9  and  C_19
REMARK    8  A    between atoms: C_19  and  C_21
REMARK                            x       y       z     vdW  Elec       q    Type
REMARK                         _______ _______ _______ _____ _____    ______ ____
ROOT
ATOM      1  C   UNL     1       0.220   4.034   0.136  0.00  0.00    +0.000 C 
ATOM      2  C   UNL     1      -1.340   4.151  -0.104  0.00  0.00    +0.000 C 
ATOM      3  C   UNL     1      -2.272   3.414   0.932  0.00  0.00    +0.000 C 
ATOM      4  C   UNL     1       0.936   4.566  -1.177  0.00  0.00    +0.000 C 
ATOM      5  C   UNL     1       0.580   2.544   0.368  0.00  0.00    +0.000 C 
ATOM      6  C   UNL     1      -1.758   1.957   1.119  0.00  0.00    +0.000 C 
ATOM      7  C   UNL     1      -1.750   5.611  -0.409  0.00  0.00    +0.000 C 
ATOM      8  C   UNL     1      -0.269   1.865   1.437  0.00  0.00    +0.000 C 
ATOM      9  C   UNL     1       0.722   4.855   1.353  0.00  0.00    +0.000 C 
ATOM     10  C   UNL     1      -0.994   6.169  -1.617  0.00  0.00    +0.000 C 
ATOM     11  C   UNL     1       0.496   6.000  -1.468  0.00  0.00    +0.000 C 
ATOM     12  C   UNL     1      -3.712   3.317   0.350  0.00  0.00    +0.000 C 
ATOM     13  C   UNL     1       1.314   7.061  -1.582  0.00  0.00    +0.000 C 
ENDROOT
BRANCH   6  14
ATOM     14  O   UNL     1      -2.491   1.265   2.129  0.00  0.00    +0.000 OA
ATOM     15  H   UNL     1      -3.315   1.757   2.285  0.00  0.00    +0.000 HD
ENDBRANCH   6  14
BRANCH   3  16
ATOM     16  C   UNL     1      -2.418   4.145   2.283  0.00  0.00    +0.000 C 
BRANCH  16  17
ATOM     17  O   UNL     1      -3.617   3.710   2.884  0.00  0.00    +0.000 OA
ATOM     18  H   UNL     1      -3.471   2.801   3.199  0.00  0.00    +0.000 HD
ENDBRANCH  16  17
ENDBRANCH   3  16
BRANCH   4  19
ATOM     19  C   UNL     1       2.459   4.352  -1.206  0.00  0.00    +0.000 C 
BRANCH  19  22
ATOM     20  O   UNL     1       1.267   1.265  -4.624  0.00  0.00    +0.000 OA
ATOM     21  O   UNL     1       3.351   0.830  -3.747  0.00  0.00    +0.000 OA
ATOM     22  C   UNL     1       2.818   3.222  -2.112  0.00  0.00    +0.000 C 
ATOM     23  C   UNL     1       1.940   2.593  -2.896  0.00  0.00    +0.000 C 
ATOM     24  C   UNL     1       0.507   2.901  -3.104  0.00  0.00    +0.000 C 
ATOM     25  C   UNL     1       2.317   1.469  -3.774  0.00  0.00    +0.000 C 
ATOM     26  C   UNL     1       0.300   2.322  -4.486  0.00  0.00    +0.000 C 
BRANCH  24  27
ATOM     27  O   UNL     1      -0.281   2.173  -2.171  0.00  0.00    +0.000 OA
ATOM     28  H   UNL     1      -1.212   2.404  -2.333  0.00  0.00    +0.000 HD
ENDBRANCH  24  27
ENDBRANCH  19  22
ENDBRANCH   4  19
TORSDOF 6
ENDMDL
MODEL 4
REMARK VINA RESULT:    -8.580      2.052      6.669
REMARK INTER + INTRA:         -11.946
REMARK INTER:                 -10.370
REMARK INTRA:                  -1.577
REMARK CONF_INDEPENDENT:        1.790
REMARK UNBOUND:                 1.577
REMARK  Name = 5318517
REMARK  8 active torsions:
REMARK  status: ('A' for Active; 'I' for Inactive)
REMARK    1  A    between atoms: O_1  and  C_11
REMARK    2  A    between atoms: O_2  and  C_17
REMARK    3  A    between atoms: O_4  and  C_23
REMARK    4  A    between atoms: C_6  and  C_14
REMARK    5  A    between atoms: C_8  and  C_17
REMARK    6  A    between atoms: C_8  and  C_18
REMARK    7  A    between atoms: C_9  and  C_19
REMARK    8  A    between atoms: C_19  and  C_21
REMARK                            x       y       z     vdW  Elec       q    Type
REMARK                         _______ _______ _______ _____ _____    ______ ____
ROOT
ATOM      1  C   UNL     1       1.633   2.196   0.042  0.00  0.00    +0.000 C 
ATOM      2  C   UNL     1       2.376   1.266  -1.002  0.00  0.00    +0.000 C 
ATOM      3  C   UNL     1       2.305   1.702  -2.514  0.00  0.00    +0.000 C 
ATOM      4  C   UNL     1       1.572   1.400   1.415  0.00  0.00    +0.000 C 
ATOM      5  C   UNL     1       0.198   2.476  -0.472  0.00  0.00    +0.000 C 
ATOM      6  C   UNL     1       0.823   2.018  -2.875  0.00  0.00    +0.000 C 
ATOM      7  C   UNL     1       3.794   0.896  -0.508  0.00  0.00    +0.000 C 
ATOM      8  C   UNL     1       0.146   2.984  -1.908  0.00  0.00    +0.000 C 
ATOM      9  C   UNL     1       2.345   3.554   0.276  0.00  0.00    +0.000 C 
ATOM     10  C   UNL     1       3.756   0.214   0.861  0.00  0.00    +0.000 C 
ATOM     11  C   UNL     1       2.983   1.028   1.867  0.00  0.00    +0.000 C 
ATOM     12  C   UNL     1       2.749   0.514  -3.415  0.00  0.00    +0.000 C 
ATOM     13  C   UNL     1       3.545   1.372   3.038  0.00  0.00    +0.000 C 
ENDROOT
BRANCH   6  14
ATOM     14  O   UNL     1       0.700   2.527  -4.202  0.00  0.00    +0.000 OA
ATOM     15  H   UNL     1       1.511   3.024  -4.403  0.00  0.00    +0.000 HD
ENDBRANCH   6  14
BRANCH   3  16
ATOM     16  C   UNL     1       3.240   2.874  -2.880  0.00  0.00    +0.000 C 
BRANCH  16  17
ATOM     17  O   UNL     1       2.489   4.065  -2.817  0.00  0.00    +0.000 OA
ATOM     18  H   UNL     1       2.007   4.149  -3.658  0.00  0.00    +0.000 HD
ENDBRANCH  16  17
ENDBRANCH   3  16
BRANCH   4  19
ATOM     19  C   UNL     1       0.715   2.070   2.502  0.00  0.00    +0.000 C 
BRANCH  19  22
ATOM     20  O   UNL     1      -3.652   3.855   3.124  0.00  0.00    +0.000 OA
ATOM     21  O   UNL     1      -3.555   2.391   1.349  0.00  0.00    +0.000 OA
ATOM     22  C   UNL     1      -0.696   2.232   2.040  0.00  0.00    +0.000 C 
ATOM     23  C   UNL     1      -1.648   2.827   2.762  0.00  0.00    +0.000 C 
ATOM     24  C   UNL     1      -1.521   3.502   4.074  0.00  0.00    +0.000 C 
ATOM     25  C   UNL     1      -3.038   2.965   2.288  0.00  0.00    +0.000 C 
ATOM     26  C   UNL     1      -2.686   4.464   4.001  0.00  0.00    +0.000 C 
BRANCH  24  27
ATOM     27  O   UNL     1      -1.755   2.567   5.119  0.00  0.00    +0.000 OA
ATOM     28  H   UNL     1      -1.368   2.935   5.932  0.00  0.00    +0.000 HD
ENDBRANCH  24  27
ENDBRANCH  19  22
ENDBRANCH   4  19
TORSDOF 6
ENDMDL
MODEL 5
REMARK VINA RESULT:    -8.338      1.778      2.405
REMARK INTER + INTRA:         -12.579
REMARK INTER:                 -10.128
REMARK INTRA:                  -2.450
REMARK CONF_INDEPENDENT:        1.790
REMARK UNBOUND:                 2.450
REMARK  Name = 5318517
REMARK  8 active torsions:
REMARK  status: ('A' for Active; 'I' for Inactive)
REMARK    1  A    between atoms: O_1  and  C_11
REMARK    2  A    between atoms: O_2  and  C_17
REMARK    3  A    between atoms: O_4  and  C_23
REMARK    4  A    between atoms: C_6  and  C_14
REMARK    5  A    between atoms: C_8  and  C_17
REMARK    6  A    between atoms: C_8  and  C_18
REMARK    7  A    between atoms: C_9  and  C_19
REMARK    8  A    between atoms: C_19  and  C_21
REMARK                            x       y       z     vdW  Elec       q    Type
REMARK                         _______ _______ _______ _____ _____    ______ ____
ROOT
ATOM      1  C   UNL     1      -1.186   3.909   0.608  0.00  0.00    +0.000 C 
ATOM      2  C   UNL     1      -1.430   3.092   1.941  0.00  0.00    +0.000 C 
ATOM      3  C   UNL     1      -2.020   3.892   3.164  0.00  0.00    +0.000 C 
ATOM      4  C   UNL     1      -0.310   2.992  -0.348  0.00  0.00    +0.000 C 
ATOM      5  C   UNL     1      -0.410   5.207   0.952  0.00  0.00    +0.000 C 
ATOM      6  C   UNL     1      -1.193   5.198   3.352  0.00  0.00    +0.000 C 
ATOM      7  C   UNL     1      -2.142   1.750   1.650  0.00  0.00    +0.000 C 
ATOM      8  C   UNL     1      -1.041   6.020   2.077  0.00  0.00    +0.000 C 
ATOM      9  C   UNL     1      -2.495   4.300  -0.126  0.00  0.00    +0.000 C 
ATOM     10  C   UNL     1      -1.355   0.897   0.653  0.00  0.00    +0.000 C 
ATOM     11  C   UNL     1      -1.026   1.666  -0.600  0.00  0.00    +0.000 C 
ATOM     12  C   UNL     1      -1.846   3.053   4.461  0.00  0.00    +0.000 C 
ATOM     13  C   UNL     1      -1.368   1.178  -1.805  0.00  0.00    +0.000 C 
ENDROOT
BRANCH   6  14
ATOM     14  O   UNL     1      -1.744   6.027   4.375  0.00  0.00    +0.000 OA
ATOM     15  H   UNL     1      -2.571   5.615   4.676  0.00  0.00    +0.000 HD
ENDBRANCH   6  14
BRANCH   3  16
ATOM     16  C   UNL     1      -3.531   4.186   3.057  0.00  0.00    +0.000 C 
BRANCH  16  17
ATOM     17  O   UNL     1      -4.013   4.456   4.355  0.00  0.00    +0.000 OA
ATOM     18  H   UNL     1      -3.823   5.391   4.546  0.00  0.00    +0.000 HD
ENDBRANCH  16  17
ENDBRANCH   3  16
BRANCH   4  19
ATOM     19  C   UNL     1       0.191   3.693  -1.622  0.00  0.00    +0.000 C 
BRANCH  19  22
ATOM     20  O   UNL     1       3.814   0.615  -1.446  0.00  0.00    +0.000 OA
ATOM     21  O   UNL     1       3.438   1.394  -3.580  0.00  0.00    +0.000 OA
ATOM     22  C   UNL     1       1.217   2.861  -2.316  0.00  0.00    +0.000 C 
ATOM     23  C   UNL     1       2.177   2.186  -1.680  0.00  0.00    +0.000 C 
ATOM     24  C   UNL     1       2.389   2.043  -0.222  0.00  0.00    +0.000 C 
ATOM     25  C   UNL     1       3.188   1.379  -2.390  0.00  0.00    +0.000 C 
ATOM     26  C   UNL     1       3.134   0.727  -0.181  0.00  0.00    +0.000 C 
BRANCH  24  27
ATOM     27  O   UNL     1       3.245   3.078   0.243  0.00  0.00    +0.000 OA
ATOM     28  H   UNL     1       4.152   2.725   0.251  0.00  0.00    +0.000 HD
ENDBRANCH  24  27
ENDBRANCH  19  22
ENDBRANCH   4  19
TORSDOF 6
ENDMDL
MODEL 6
REMARK VINA RESULT:    -8.026      1.730      2.320
REMARK INTER + INTRA:         -12.359
REMARK INTER:                  -9.816
REMARK INTRA:                  -2.544
REMARK CONF_INDEPENDENT:        1.790
REMARK UNBOUND:                 2.544
REMARK  Name = 5318517
REMARK  8 active torsions:
REMARK  status: ('A' for Active; 'I' for Inactive)
REMARK    1  A    between atoms: O_1  and  C_11
REMARK    2  A    between atoms: O_2  and  C_17
REMARK    3  A    between atoms: O_4  and  C_23
REMARK    4  A    between atoms: C_6  and  C_14
REMARK    5  A    between atoms: C_8  and  C_17
REMARK    6  A    between atoms: C_8  and  C_18
REMARK    7  A    between atoms: C_9  and  C_19
REMARK    8  A    between atoms: C_19  and  C_21
REMARK                            x       y       z     vdW  Elec       q    Type
REMARK                         _______ _______ _______ _____ _____    ______ ____
ROOT
ATOM      1  C   UNL     1      -0.386   3.306   0.948  0.00  0.00    +0.000 C 
ATOM      2  C   UNL     1      -0.090   3.541   2.486  0.00  0.00    +0.000 C 
ATOM      3  C   UNL     1      -1.318   3.941   3.389  0.00  0.00    +0.000 C 
ATOM      4  C   UNL     1       1.017   3.236   0.209  0.00  0.00    +0.000 C 
ATOM      5  C   UNL     1      -1.209   4.505   0.410  0.00  0.00    +0.000 C 
ATOM      6  C   UNL     1      -2.090   5.103   2.698  0.00  0.00    +0.000 C 
ATOM      7  C   UNL     1       0.789   2.407   3.064  0.00  0.00    +0.000 C 
ATOM      8  C   UNL     1      -2.445   4.826   1.241  0.00  0.00    +0.000 C 
ATOM      9  C   UNL     1      -1.174   2.002   0.663  0.00  0.00    +0.000 C 
ATOM     10  C   UNL     1       2.105   2.264   2.297  0.00  0.00    +0.000 C 
ATOM     11  C   UNL     1       1.873   2.124   0.814  0.00  0.00    +0.000 C 
ATOM     12  C   UNL     1      -0.799   4.486   4.751  0.00  0.00    +0.000 C 
ATOM     13  C   UNL     1       2.392   1.082   0.142  0.00  0.00    +0.000 C 
ENDROOT
BRANCH   6  14
ATOM     14  O   UNL     1      -3.280   5.441   3.409  0.00  0.00    +0.000 OA
ATOM     15  H   UNL     1      -3.085   5.375   4.360  0.00  0.00    +0.000 HD
ENDBRANCH   6  14
BRANCH   3  16
ATOM     16  C   UNL     1      -2.254   2.766   3.741  0.00  0.00    +0.000 C 
BRANCH  16  17
ATOM     17  O   UNL     1      -3.243   3.248   4.623  0.00  0.00    +0.000 OA
ATOM     18  H   UNL     1      -3.999   3.536   4.082  0.00  0.00    +0.000 HD
ENDBRANCH  16  17
ENDBRANCH   3  16
BRANCH   4  19
ATOM     19  C   UNL     1       0.928   3.201  -1.326  0.00  0.00    +0.000 C 
BRANCH  19  22
ATOM     20  O   UNL     1       2.357   7.382  -3.090  0.00  0.00    +0.000 OA
ATOM     21  O   UNL     1       3.934   5.731  -3.384  0.00  0.00    +0.000 OA
ATOM     22  C   UNL     1       1.990   4.053  -1.938  0.00  0.00    +0.000 C 
ATOM     23  C   UNL     1       1.777   5.289  -2.395  0.00  0.00    +0.000 C 
ATOM     24  C   UNL     1       0.534   6.091  -2.332  0.00  0.00    +0.000 C 
ATOM     25  C   UNL     1       2.841   6.108  -3.007  0.00  0.00    +0.000 C 
ATOM     26  C   UNL     1       1.107   7.490  -2.383  0.00  0.00    +0.000 C 
BRANCH  24  27
ATOM     27  O   UNL     1      -0.244   5.864  -3.500  0.00  0.00    +0.000 OA
ATOM     28  H   UNL     1       0.289   6.142  -4.264  0.00  0.00    +0.000 HD
ENDBRANCH  24  27
ENDBRANCH  19  22
ENDBRANCH   4  19
TORSDOF 6
ENDMDL
MODEL 7
REMARK VINA RESULT:    -7.406      3.106      6.952
REMARK INTER + INTRA:         -11.507
REMARK INTER:                  -9.196
REMARK INTRA:                  -2.312
REMARK CONF_INDEPENDENT:        1.790
REMARK UNBOUND:                 2.312
REMARK  Name = 5318517
REMARK  8 active torsions:
REMARK  status: ('A' for Active; 'I' for Inactive)
REMARK    1  A    between atoms: O_1  and  C_11
REMARK    2  A    between atoms: O_2  and  C_17
REMARK    3  A    between atoms: O_4  and  C_23
REMARK    4  A    between atoms: C_6  and  C_14
REMARK    5  A    between atoms: C_8  and  C_17
REMARK    6  A    between atoms: C_8  and  C_18
REMARK    7  A    between atoms: C_9  and  C_19
REMARK    8  A    between atoms: C_19  and  C_21
REMARK                            x       y       z     vdW  Elec       q    Type
REMARK                         _______ _______ _______ _____ _____    ______ ____
ROOT
ATOM      1  C   UNL     1       0.341   2.445   0.548  0.00  0.00    +0.000 C 
ATOM      2  C   UNL     1      -0.031   3.522  -0.551  0.00  0.00    +0.000 C 
ATOM      3  C   UNL     1       0.694   3.392  -1.944  0.00  0.00    +0.000 C 
ATOM      4  C   UNL     1      -0.252   2.960   1.927  0.00  0.00    +0.000 C 
ATOM      5  C   UNL     1       1.885   2.340   0.642  0.00  0.00    +0.000 C 
ATOM      6  C   UNL     1       2.223   3.225  -1.698  0.00  0.00    +0.000 C 
ATOM      7  C   UNL     1      -1.562   3.720  -0.642  0.00  0.00    +0.000 C 
ATOM      8  C   UNL     1       2.570   2.124  -0.702  0.00  0.00    +0.000 C 
ATOM      9  C   UNL     1      -0.229   1.034   0.248  0.00  0.00    +0.000 C 
ATOM     10  C   UNL     1      -2.162   4.124   0.707  0.00  0.00    +0.000 C 
ATOM     11  C   UNL     1      -1.761   3.169   1.803  0.00  0.00    +0.000 C 
ATOM     12  C   UNL     1       0.504   4.709  -2.749  0.00  0.00    +0.000 C 
ATOM     13  C   UNL     1      -2.698   2.577   2.563  0.00  0.00    +0.000 C 
ENDROOT
BRANCH   6  14
ATOM     14  O   UNL     1       2.929   2.990  -2.915  0.00  0.00    +0.000 OA
ATOM     15  H   UNL     1       2.387   3.337  -3.643  0.00  0.00    +0.000 HD
ENDBRANCH   6  14
BRANCH   3  16
ATOM     16  C   UNL     1       0.137   2.269  -2.844  0.00  0.00    +0.000 C 
BRANCH  16  17
ATOM     17  O   UNL     1       0.395   2.621  -4.185  0.00  0.00    +0.000 OA
ATOM     18  H   UNL     1       1.354   2.766  -4.268  0.00  0.00    +0.000 HD
ENDBRANCH  16  17
ENDBRANCH   3  16
BRANCH   4  19
ATOM     19  C   UNL     1       0.173   2.135   3.153  0.00  0.00    +0.000 C 
BRANCH  19  22
ATOM     20  O   UNL     1       3.279   2.566   6.732  0.00  0.00    +0.000 OA
ATOM     21  O   UNL     1       2.193   4.546   6.280  0.00  0.00    +0.000 OA
ATOM     22  C   UNL     1       0.905   2.987   4.137  0.00  0.00    +0.000 C 
ATOM     23  C   UNL     1       1.675   2.498   5.112  0.00  0.00    +0.000 C 
ATOM     24  C   UNL     1       2.032   1.087   5.381  0.00  0.00    +0.000 C 
ATOM     25  C   UNL     1       2.379   3.361   6.080  0.00  0.00    +0.000 C 
ATOM     26  C   UNL     1       3.347   1.270   6.107  0.00  0.00    +0.000 C 
BRANCH  24  27
ATOM     27  O   UNL     1       1.085   0.514   6.272  0.00  0.00    +0.000 OA
ATOM     28  H   UNL     1       1.211   0.932   7.142  0.00  0.00    +0.000 HD
ENDBRANCH  24  27
ENDBRANCH  19  22
ENDBRANCH   4  19
TORSDOF 6
ENDMDL
MODEL 8
REMARK VINA RESULT:    -7.250      2.057      6.860
REMARK INTER + INTRA:         -11.282
REMARK INTER:                  -9.040
REMARK INTRA:                  -2.243
REMARK CONF_INDEPENDENT:        1.790
REMARK UNBOUND:                 2.243
REMARK  Name = 5318517
REMARK  8 active torsions:
REMARK  status: ('A' for Active; 'I' for Inactive)
REMARK    1  A    between atoms: O_1  and  C_11
REMARK    2  A    between atoms: O_2  and  C_17
REMARK    3  A    between atoms: O_4  and  C_23
REMARK    4  A    between atoms: C_6  and  C_14
REMARK    5  A    between atoms: C_8  and  C_17
REMARK    6  A    between atoms: C_8  and  C_18
REMARK    7  A    between atoms: C_9  and  C_19
REMARK    8  A    between atoms: C_19  and  C_21
REMARK                            x       y       z     vdW  Elec       q    Type
REMARK                         _______ _______ _______ _____ _____    ______ ____
ROOT
ATOM      1  C   UNL     1      -0.372   4.462  -0.417  0.00  0.00    +0.000 C 
ATOM      2  C   UNL     1       0.727   4.603  -1.547  0.00  0.00    +0.000 C 
ATOM      3  C   UNL     1       1.525   3.298  -1.925  0.00  0.00    +0.000 C 
ATOM      4  C   UNL     1      -0.800   5.931   0.004  0.00  0.00    +0.000 C 
ATOM      5  C   UNL     1       0.251   3.724   0.796  0.00  0.00    +0.000 C 
ATOM      6  C   UNL     1       2.032   2.625  -0.615  0.00  0.00    +0.000 C 
ATOM      7  C   UNL     1       0.181   5.393  -2.760  0.00  0.00    +0.000 C 
ATOM      8  C   UNL     1       0.944   2.416   0.432  0.00  0.00    +0.000 C 
ATOM      9  C   UNL     1      -1.631   3.680  -0.873  0.00  0.00    +0.000 C 
ATOM     10  C   UNL     1      -0.325   6.778  -2.350  0.00  0.00    +0.000 C 
ATOM     11  C   UNL     1      -1.313   6.697  -1.215  0.00  0.00    +0.000 C 
ATOM     12  C   UNL     1       2.783   3.685  -2.754  0.00  0.00    +0.000 C 
ATOM     13  C   UNL     1      -2.528   7.260  -1.331  0.00  0.00    +0.000 C 
ENDROOT
BRANCH   6  14
ATOM     14  O   UNL     1       2.670   1.376  -0.877  0.00  0.00    +0.000 OA
ATOM     15  H   UNL     1       1.982   0.744  -1.145  0.00  0.00    +0.000 HD
ENDBRANCH   6  14
BRANCH   3  16
ATOM     16  C   UNL     1       0.735   2.305  -2.805  0.00  0.00    +0.000 C 
BRANCH  16  17
ATOM     17  O   UNL     1       1.620   1.284  -3.208  0.00  0.00    +0.000 OA
ATOM     18  H   UNL     1       1.581   0.584  -2.534  0.00  0.00    +0.000 HD
ENDBRANCH  16  17
ENDBRANCH   3  16
BRANCH   4  19
ATOM     19  C   UNL     1      -1.726   6.000   1.230  0.00  0.00    +0.000 C 
BRANCH  19  22
ATOM     20  O   UNL     1      -1.272   3.306   5.125  0.00  0.00    +0.000 OA
ATOM     21  O   UNL     1       0.256   5.028   5.076  0.00  0.00    +0.000 OA
ATOM     22  C   UNL     1      -0.986   5.638   2.475  0.00  0.00    +0.000 C 
ATOM     23  C   UNL     1      -1.432   4.756   3.372  0.00  0.00    +0.000 C 
ATOM     24  C   UNL     1      -2.650   3.917   3.310  0.00  0.00    +0.000 C 
ATOM     25  C   UNL     1      -0.687   4.424   4.601  0.00  0.00    +0.000 C 
ATOM     26  C   UNL     1      -2.236   2.767   4.201  0.00  0.00    +0.000 C 
BRANCH  24  27
ATOM     27  O   UNL     1      -3.738   4.605   3.912  0.00  0.00    +0.000 OA
ATOM     28  H   UNL     1      -3.385   5.421   4.307  0.00  0.00    +0.000 HD
ENDBRANCH  24  27
ENDBRANCH  19  22
ENDBRANCH   4  19
TORSDOF 6
ENDMDL
MODEL 9
REMARK VINA RESULT:    -6.905      2.053      3.862
REMARK INTER + INTRA:         -11.428
REMARK INTER:                  -8.694
REMARK INTRA:                  -2.734
REMARK CONF_INDEPENDENT:        1.790
REMARK UNBOUND:                 2.734
REMARK  Name = 5318517
REMARK  8 active torsions:
REMARK  status: ('A' for Active; 'I' for Inactive)
REMARK    1  A    between atoms: O_1  and  C_11
REMARK    2  A    between atoms: O_2  and  C_17
REMARK    3  A    between atoms: O_4  and  C_23
REMARK    4  A    between atoms: C_6  and  C_14
REMARK    5  A    between atoms: C_8  and  C_17
REMARK    6  A    between atoms: C_8  and  C_18
REMARK    7  A    between atoms: C_9  and  C_19
REMARK    8  A    between atoms: C_19  and  C_21
REMARK                            x       y       z     vdW  Elec       q    Type
REMARK                         _______ _______ _______ _____ _____    ______ ____
ROOT
ATOM      1  C   UNL     1      -0.822   5.288   1.449  0.00  0.00    +0.000 C 
ATOM      2  C   UNL     1      -1.846   4.082   1.388  0.00  0.00    +0.000 C 
ATOM      3  C   UNL     1      -2.161   3.353   2.749  0.00  0.00    +0.000 C 
ATOM      4  C   UNL     1      -0.428   5.641  -0.048  0.00  0.00    +0.000 C 
ATOM      5  C   UNL     1       0.435   4.837   2.235  0.00  0.00    +0.000 C 
ATOM      6  C   UNL     1      -0.818   3.021   3.462  0.00  0.00    +0.000 C 
ATOM      7  C   UNL     1      -3.095   4.452   0.555  0.00  0.00    +0.000 C 
ATOM      8  C   UNL     1       0.123   4.214   3.591  0.00  0.00    +0.000 C 
ATOM      9  C   UNL     1      -1.400   6.555   2.131  0.00  0.00    +0.000 C 
ATOM     10  C   UNL     1      -2.720   4.889  -0.863  0.00  0.00    +0.000 C 
ATOM     11  C   UNL     1      -1.681   5.980  -0.854  0.00  0.00    +0.000 C 
ATOM     12  C   UNL     1      -2.868   1.999   2.456  0.00  0.00    +0.000 C 
ATOM     13  C   UNL     1      -1.903   7.133  -1.508  0.00  0.00    +0.000 C 
ENDROOT
BRANCH   6  14
ATOM     14  O   UNL     1      -1.032   2.458   4.755  0.00  0.00    +0.000 OA
ATOM     15  H   UNL     1      -1.368   3.164   5.333  0.00  0.00    +0.000 HD
ENDBRANCH   6  14
BRANCH   3  16
ATOM     16  C   UNL     1      -3.120   4.131   3.676  0.00  0.00    +0.000 C 
BRANCH  16  17
ATOM     17  O   UNL     1      -3.464   3.286   4.751  0.00  0.00    +0.000 OA
ATOM     18  H   UNL     1      -2.843   2.537   4.742  0.00  0.00    +0.000 HD
ENDBRANCH  16  17
ENDBRANCH   3  16
BRANCH   4  19
ATOM     19  C   UNL     1       0.709   6.669  -0.183  0.00  0.00    +0.000 C 
BRANCH  19  22
ATOM     20  O   UNL     1       2.917   3.468  -2.924  0.00  0.00    +0.000 OA
ATOM     21  O   UNL     1       3.493   5.628  -3.475  0.00  0.00    +0.000 OA
ATOM     22  C   UNL     1       1.578   6.346  -1.353  0.00  0.00    +0.000 C 
ATOM     23  C   UNL     1       2.025   5.118  -1.628  0.00  0.00    +0.000 C 
ATOM     24  C   UNL     1       1.715   3.850  -0.930  0.00  0.00    +0.000 C 
ATOM     25  C   UNL     1       2.894   4.826  -2.783  0.00  0.00    +0.000 C 
ATOM     26  C   UNL     1       1.951   2.858  -2.048  0.00  0.00    +0.000 C 
BRANCH  24  27
ATOM     27  O   UNL     1       2.667   3.624   0.101  0.00  0.00    +0.000 OA
ATOM     28  H   UNL     1       3.509   3.389  -0.325  0.00  0.00    +0.000 HD
ENDBRANCH  24  27
ENDBRANCH  19  22
ENDBRANCH   4  19
TORSDOF 6
ENDMDL
