MODEL 1
REMARK VINA RESULT:    -5.758      0.000      0.000
REMARK INTER + INTRA:          -6.653
REMARK INTER:                  -6.056
REMARK INTRA:                  -0.596
REMARK CONF_INDEPENDENT:        0.298
REMARK UNBOUND:                 0.596
REMARK  Name = 4091
REMARK  3 active torsions:
REMARK  status: ('A' for Active; 'I' for Inactive)
REMARK    1  A    between atoms: N_1  and  C_6
REMARK    2  A    between atoms: N_1  and  C_7
REMARK    3  A    between atoms: N_2  and  C_8
REMARK                            x       y       z     vdW  Elec       q    Type
REMARK                         _______ _______ _______ _____ _____    ______ ____
ROOT
ATOM      1  N   UNL     1       3.126   2.039  -2.493  0.00  0.00    +0.000 NA
ATOM      2  N   UNL     1       1.645   3.829  -2.712  0.00  0.00    +0.000 N 
ATOM      3  N   UNL     1       1.503   2.158  -4.264  0.00  0.00    +0.000 N 
ATOM      4  C   UNL     1       2.147   2.621  -3.137  0.00  0.00    +0.000 C 
ATOM      5  H   UNL     1       0.887   4.290  -3.202  0.00  0.00    +0.000 HD
ATOM      6  H   UNL     1       2.022   4.292  -1.893  0.00  0.00    +0.000 HD
ATOM      7  H   UNL     1       1.754   1.279  -4.702  0.00  0.00    +0.000 HD
ATOM      8  H   UNL     1       0.750   2.687  -4.692  0.00  0.00    +0.000 HD
ENDROOT
BRANCH   1  13
ATOM      9  N   UNL     1       3.977  -0.195  -2.108  0.00  0.00    +0.000 N 
ATOM     10  N   UNL     1       3.578   0.737  -4.276  0.00  0.00    +0.000 NA
ATOM     11  C   UNL     1       3.955  -0.027  -0.659  0.00  0.00    +0.000 C 
ATOM     12  C   UNL     1       4.326  -1.525  -2.596  0.00  0.00    +0.000 C 
ATOM     13  C   UNL     1       3.580   0.826  -2.978  0.00  0.00    +0.000 C 
ATOM     14  H   UNL     1       3.919  -0.181  -4.573  0.00  0.00    +0.000 HD
ENDBRANCH   1  13
TORSDOF 1
ENDMDL
MODEL 2
REMARK VINA RESULT:    -5.625      2.186      4.460
REMARK INTER + INTRA:          -6.664
REMARK INTER:                  -5.923
REMARK INTRA:                  -0.741
REMARK CONF_INDEPENDENT:        0.298
REMARK UNBOUND:                 0.741
REMARK  Name = 4091
REMARK  3 active torsions:
REMARK  status: ('A' for Active; 'I' for Inactive)
REMARK    1  A    between atoms: N_1  and  C_6
REMARK    2  A    between atoms: N_1  and  C_7
REMARK    3  A    between atoms: N_2  and  C_8
REMARK                            x       y       z     vdW  Elec       q    Type
REMARK                         _______ _______ _______ _____ _____    ______ ____
ROOT
ATOM      1  N   UNL     1       2.559   2.665  -2.656  0.00  0.00    +0.000 NA
ATOM      2  N   UNL     1       3.207   0.782  -3.871  0.00  0.00    +0.000 N 
ATOM      3  N   UNL     1       1.385   1.937  -4.625  0.00  0.00    +0.000 N 
ATOM      4  C   UNL     1       2.373   1.856  -3.667  0.00  0.00    +0.000 C 
ATOM      5  H   UNL     1       3.074   0.149  -4.651  0.00  0.00    +0.000 HD
ATOM      6  H   UNL     1       3.981   0.595  -3.244  0.00  0.00    +0.000 HD
ATOM      7  H   UNL     1       0.690   2.675  -4.616  0.00  0.00    +0.000 HD
ATOM      8  H   UNL     1       1.326   1.256  -5.375  0.00  0.00    +0.000 HD
ENDROOT
BRANCH   1  13
ATOM      9  N   UNL     1       2.148   5.038  -2.399  0.00  0.00    +0.000 N 
ATOM     10  N   UNL     1       0.426   3.379  -2.514  0.00  0.00    +0.000 NA
ATOM     11  C   UNL     1       3.572   5.354  -2.404  0.00  0.00    +0.000 C 
ATOM     12  C   UNL     1       1.236   6.176  -2.388  0.00  0.00    +0.000 C 
ATOM     13  C   UNL     1       1.680   3.723  -2.512  0.00  0.00    +0.000 C 
ATOM     14  H   UNL     1      -0.172   4.202  -2.409  0.00  0.00    +0.000 HD
ENDBRANCH   1  13
TORSDOF 1
ENDMDL
MODEL 3
REMARK VINA RESULT:    -5.494      2.676      4.342
REMARK INTER + INTRA:          -6.545
REMARK INTER:                  -5.792
REMARK INTRA:                  -0.753
REMARK CONF_INDEPENDENT:        0.298
REMARK UNBOUND:                 0.753
REMARK  Name = 4091
REMARK  3 active torsions:
REMARK  status: ('A' for Active; 'I' for Inactive)
REMARK    1  A    between atoms: N_1  and  C_6
REMARK    2  A    between atoms: N_1  and  C_7
REMARK    3  A    between atoms: N_2  and  C_8
REMARK                            x       y       z     vdW  Elec       q    Type
REMARK                         _______ _______ _______ _____ _____    ______ ____
ROOT
ATOM      1  N   UNL     1       1.360   1.610  -2.129  0.00  0.00    +0.000 NA
ATOM      2  N   UNL     1       2.859   0.580  -3.590  0.00  0.00    +0.000 N 
ATOM      3  N   UNL     1       1.343   2.028  -4.497  0.00  0.00    +0.000 N 
ATOM      4  C   UNL     1       1.809   1.434  -3.345  0.00  0.00    +0.000 C 
ATOM      5  H   UNL     1       3.216   0.435  -4.528  0.00  0.00    +0.000 HD
ATOM      6  H   UNL     1       3.305   0.070  -2.836  0.00  0.00    +0.000 HD
ATOM      7  H   UNL     1       0.572   2.687  -4.486  0.00  0.00    +0.000 HD
ATOM      8  H   UNL     1       1.761   1.825  -5.399  0.00  0.00    +0.000 HD
ENDROOT
BRANCH   1  13
ATOM      9  N   UNL     1      -0.811   2.125  -1.187  0.00  0.00    +0.000 N 
ATOM     10  N   UNL     1       0.457   3.632  -2.548  0.00  0.00    +0.000 NA
ATOM     11  C   UNL     1      -0.920   0.816  -0.552  0.00  0.00    +0.000 C 
ATOM     12  C   UNL     1      -1.870   3.080  -0.881  0.00  0.00    +0.000 C 
ATOM     13  C   UNL     1       0.302   2.483  -1.957  0.00  0.00    +0.000 C 
ATOM     14  H   UNL     1      -0.354   4.234  -2.381  0.00  0.00    +0.000 HD
ENDBRANCH   1  13
TORSDOF 1
ENDMDL
MODEL 4
REMARK VINA RESULT:    -5.404      2.767      4.056
REMARK INTER + INTRA:          -6.448
REMARK INTER:                  -5.702
REMARK INTRA:                  -0.746
REMARK CONF_INDEPENDENT:        0.298
REMARK UNBOUND:                 0.746
REMARK  Name = 4091
REMARK  3 active torsions:
REMARK  status: ('A' for Active; 'I' for Inactive)
REMARK    1  A    between atoms: N_1  and  C_6
REMARK    2  A    between atoms: N_1  and  C_7
REMARK    3  A    between atoms: N_2  and  C_8
REMARK                            x       y       z     vdW  Elec       q    Type
REMARK                         _______ _______ _______ _____ _____    ______ ____
ROOT
ATOM      1  N   UNL     1       1.138   3.144  -2.567  0.00  0.00    +0.000 NA
ATOM      2  N   UNL     1      -0.545   1.839  -3.522  0.00  0.00    +0.000 N 
ATOM      3  N   UNL     1       1.577   1.556  -4.320  0.00  0.00    +0.000 N 
ATOM      4  C   UNL     1       0.770   2.230  -3.429  0.00  0.00    +0.000 C 
ATOM      5  H   UNL     1      -0.842   1.132  -4.184  0.00  0.00    +0.000 HD
ATOM      6  H   UNL     1      -1.256   2.250  -2.927  0.00  0.00    +0.000 HD
ATOM      7  H   UNL     1       2.574   1.728  -4.375  0.00  0.00    +0.000 HD
ATOM      8  H   UNL     1       1.194   0.860  -4.951  0.00  0.00    +0.000 HD
ENDROOT
BRANCH   1  13
ATOM      9  N   UNL     1       2.879   4.826  -2.599  0.00  0.00    +0.000 N 
ATOM     10  N   UNL     1       3.284   2.474  -2.409  0.00  0.00    +0.000 NA
ATOM     11  C   UNL     1       1.918   5.915  -2.735  0.00  0.00    +0.000 C 
ATOM     12  C   UNL     1       4.274   5.216  -2.421  0.00  0.00    +0.000 C 
ATOM     13  C   UNL     1       2.477   3.487  -2.530  0.00  0.00    +0.000 C 
ATOM     14  H   UNL     1       4.256   2.791  -2.383  0.00  0.00    +0.000 HD
ENDBRANCH   1  13
TORSDOF 1
ENDMDL
MODEL 5
REMARK VINA RESULT:    -5.292      2.390      3.265
REMARK INTER + INTRA:          -6.347
REMARK INTER:                  -5.590
REMARK INTRA:                  -0.756
REMARK CONF_INDEPENDENT:        0.298
REMARK UNBOUND:                 0.756
REMARK  Name = 4091
REMARK  3 active torsions:
REMARK  status: ('A' for Active; 'I' for Inactive)
REMARK    1  A    between atoms: N_1  and  C_6
REMARK    2  A    between atoms: N_1  and  C_7
REMARK    3  A    between atoms: N_2  and  C_8
REMARK                            x       y       z     vdW  Elec       q    Type
REMARK                         _______ _______ _______ _____ _____    ______ ____
ROOT
ATOM      1  N   UNL     1       0.960   2.424  -2.538  0.00  0.00    +0.000 NA
ATOM      2  N   UNL     1       0.620   1.937  -4.794  0.00  0.00    +0.000 N 
ATOM      3  N   UNL     1       2.648   1.385  -3.899  0.00  0.00    +0.000 N 
ATOM      4  C   UNL     1       1.408   1.937  -3.667  0.00  0.00    +0.000 C 
ATOM      5  H   UNL     1       0.955   1.562  -5.674  0.00  0.00    +0.000 HD
ATOM      6  H   UNL     1      -0.321   2.313  -4.774  0.00  0.00    +0.000 HD
ATOM      7  H   UNL     1       3.347   1.309  -3.168  0.00  0.00    +0.000 HD
ATOM      8  H   UNL     1       2.902   1.032  -4.816  0.00  0.00    +0.000 HD
ENDROOT
BRANCH   1  13
ATOM      9  N   UNL     1       1.379   1.881  -0.215  0.00  0.00    +0.000 N 
ATOM     10  N   UNL     1       3.002   2.851  -1.684  0.00  0.00    +0.000 NA
ATOM     11  C   UNL     1       0.023   1.382  -0.017  0.00  0.00    +0.000 C 
ATOM     12  C   UNL     1       2.298   1.711   0.905  0.00  0.00    +0.000 C 
ATOM     13  C   UNL     1       1.808   2.392  -1.446  0.00  0.00    +0.000 C 
ATOM     14  H   UNL     1       3.581   2.797  -0.843  0.00  0.00    +0.000 HD
ENDBRANCH   1  13
TORSDOF 1
ENDMDL
MODEL 6
REMARK VINA RESULT:    -5.282      2.867      4.578
REMARK INTER + INTRA:          -6.164
REMARK INTER:                  -5.580
REMARK INTRA:                  -0.584
REMARK CONF_INDEPENDENT:        0.298
REMARK UNBOUND:                 0.584
REMARK  Name = 4091
REMARK  3 active torsions:
REMARK  status: ('A' for Active; 'I' for Inactive)
REMARK    1  A    between atoms: N_1  and  C_6
REMARK    2  A    between atoms: N_1  and  C_7
REMARK    3  A    between atoms: N_2  and  C_8
REMARK                            x       y       z     vdW  Elec       q    Type
REMARK                         _______ _______ _______ _____ _____    ______ ____
ROOT
ATOM      1  N   UNL     1       5.180  -1.650  -3.832  0.00  0.00    +0.000 NA
ATOM      2  N   UNL     1       4.161  -2.313  -1.841  0.00  0.00    +0.000 N 
ATOM      3  N   UNL     1       3.742  -0.190  -2.573  0.00  0.00    +0.000 N 
ATOM      4  C   UNL     1       4.402  -1.375  -2.817  0.00  0.00    +0.000 C 
ATOM      5  H   UNL     1       3.560  -2.112  -1.050  0.00  0.00    +0.000 HD
ATOM      6  H   UNL     1       4.581  -3.234  -1.886  0.00  0.00    +0.000 HD
ATOM      7  H   UNL     1       3.814   0.602  -3.201  0.00  0.00    +0.000 HD
ATOM      8  H   UNL     1       3.158  -0.075  -1.752  0.00  0.00    +0.000 HD
ENDROOT
BRANCH   1  13
ATOM      9  N   UNL     1       6.608  -0.517  -5.425  0.00  0.00    +0.000 N 
ATOM     10  N   UNL     1       4.330   0.082  -4.997  0.00  0.00    +0.000 NA
ATOM     11  C   UNL     1       7.743  -1.384  -5.127  0.00  0.00    +0.000 C 
ATOM     12  C   UNL     1       6.792   0.431  -6.519  0.00  0.00    +0.000 C 
ATOM     13  C   UNL     1       5.377  -0.658  -4.776  0.00  0.00    +0.000 C 
ATOM     14  H   UNL     1       4.537   0.792  -5.704  0.00  0.00    +0.000 HD
ENDBRANCH   1  13
TORSDOF 1
ENDMDL
MODEL 7
REMARK VINA RESULT:    -5.200      6.845      7.932
REMARK INTER + INTRA:          -6.252
REMARK INTER:                  -5.499
REMARK INTRA:                  -0.754
REMARK CONF_INDEPENDENT:        0.298
REMARK UNBOUND:                 0.754
REMARK  Name = 4091
REMARK  3 active torsions:
REMARK  status: ('A' for Active; 'I' for Inactive)
REMARK    1  A    between atoms: N_1  and  C_6
REMARK    2  A    between atoms: N_1  and  C_7
REMARK    3  A    between atoms: N_2  and  C_8
REMARK                            x       y       z     vdW  Elec       q    Type
REMARK                         _______ _______ _______ _____ _____    ______ ____
ROOT
ATOM      1  N   UNL     1      -3.545   3.510   1.145  0.00  0.00    +0.000 NA
ATOM      2  N   UNL     1      -3.930   4.196  -1.051  0.00  0.00    +0.000 N 
ATOM      3  N   UNL     1      -2.045   2.968  -0.656  0.00  0.00    +0.000 N 
ATOM      4  C   UNL     1      -3.172   3.542  -0.109  0.00  0.00    +0.000 C 
ATOM      5  H   UNL     1      -3.653   4.227  -2.026  0.00  0.00    +0.000 HD
ATOM      6  H   UNL     1      -4.791   4.667  -0.795  0.00  0.00    +0.000 HD
ATOM      7  H   UNL     1      -1.382   2.447  -0.093  0.00  0.00    +0.000 HD
ATOM      8  H   UNL     1      -1.844   3.049  -1.647  0.00  0.00    +0.000 HD
ENDROOT
BRANCH   1  13
ATOM      9  N   UNL     1      -2.326   3.432   3.236  0.00  0.00    +0.000 N 
ATOM     10  N   UNL     1      -2.421   1.628   1.665  0.00  0.00    +0.000 NA
ATOM     11  C   UNL     1      -2.713   4.792   3.591  0.00  0.00    +0.000 C 
ATOM     12  C   UNL     1      -1.587   2.687   4.250  0.00  0.00    +0.000 C 
ATOM     13  C   UNL     1      -2.733   2.834   2.037  0.00  0.00    +0.000 C 
ATOM     14  H   UNL     1      -1.825   1.179   2.365  0.00  0.00    +0.000 HD
ENDBRANCH   1  13
TORSDOF 1
ENDMDL
MODEL 8
REMARK VINA RESULT:    -4.778      5.787      6.837
REMARK INTER + INTRA:          -5.834
REMARK INTER:                  -5.076
REMARK INTRA:                  -0.758
REMARK CONF_INDEPENDENT:        0.298
REMARK UNBOUND:                 0.758
REMARK  Name = 4091
REMARK  3 active torsions:
REMARK  status: ('A' for Active; 'I' for Inactive)
REMARK    1  A    between atoms: N_1  and  C_6
REMARK    2  A    between atoms: N_1  and  C_7
REMARK    3  A    between atoms: N_2  and  C_8
REMARK                            x       y       z     vdW  Elec       q    Type
REMARK                         _______ _______ _______ _____ _____    ______ ____
ROOT
ATOM      1  N   UNL     1      -1.209   1.668   0.629  0.00  0.00    +0.000 NA
ATOM      2  N   UNL     1      -0.881   1.857  -1.673  0.00  0.00    +0.000 N 
ATOM      3  N   UNL     1      -2.423   3.247  -0.720  0.00  0.00    +0.000 N 
ATOM      4  C   UNL     1      -1.505   2.240  -0.510  0.00  0.00    +0.000 C 
ATOM      5  H   UNL     1      -1.101   2.293  -2.562  0.00  0.00    +0.000 HD
ATOM      6  H   UNL     1      -0.180   1.124  -1.674  0.00  0.00    +0.000 HD
ATOM      7  H   UNL     1      -2.966   3.643   0.039  0.00  0.00    +0.000 HD
ATOM      8  H   UNL     1      -2.581   3.627  -1.647  0.00  0.00    +0.000 HD
ENDROOT
BRANCH   1  13
ATOM      9  N   UNL     1      -1.179   2.446   2.922  0.00  0.00    +0.000 N 
ATOM     10  N   UNL     1      -3.168   2.178   1.618  0.00  0.00    +0.000 NA
ATOM     11  C   UNL     1       0.273   2.338   3.010  0.00  0.00    +0.000 C 
ATOM     12  C   UNL     1      -1.852   3.039   4.072  0.00  0.00    +0.000 C 
ATOM     13  C   UNL     1      -1.877   2.104   1.758  0.00  0.00    +0.000 C 
ATOM     14  H   UNL     1      -3.605   2.510   2.482  0.00  0.00    +0.000 HD
ENDBRANCH   1  13
TORSDOF 1
ENDMDL
MODEL 9
REMARK VINA RESULT:    -4.718      7.064      8.226
REMARK INTER + INTRA:          -5.769
REMARK INTER:                  -5.017
REMARK INTRA:                  -0.753
REMARK CONF_INDEPENDENT:        0.298
REMARK UNBOUND:                 0.753
REMARK  Name = 4091
REMARK  3 active torsions:
REMARK  status: ('A' for Active; 'I' for Inactive)
REMARK    1  A    between atoms: N_1  and  C_6
REMARK    2  A    between atoms: N_1  and  C_7
REMARK    3  A    between atoms: N_2  and  C_8
REMARK                            x       y       z     vdW  Elec       q    Type
REMARK                         _______ _______ _______ _____ _____    ______ ____
ROOT
ATOM      1  N   UNL     1      -0.751   2.697   2.648  0.00  0.00    +0.000 NA
ATOM      2  N   UNL     1       0.476   2.638   4.631  0.00  0.00    +0.000 N 
ATOM      3  N   UNL     1      -1.801   2.702   4.813  0.00  0.00    +0.000 N 
ATOM      4  C   UNL     1      -0.721   2.681   3.956  0.00  0.00    +0.000 C 
ATOM      5  H   UNL     1       0.513   2.624   5.644  0.00  0.00    +0.000 HD
ATOM      6  H   UNL     1       1.358   2.619   4.132  0.00  0.00    +0.000 HD
ATOM      7  H   UNL     1      -2.755   2.732   4.471  0.00  0.00    +0.000 HD
ATOM      8  H   UNL     1      -1.672   2.685   5.819  0.00  0.00    +0.000 HD
ENDROOT
BRANCH   1  13
ATOM      9  N   UNL     1      -2.261   3.666   1.021  0.00  0.00    +0.000 N 
ATOM     10  N   UNL     1      -2.834   1.854   2.476  0.00  0.00    +0.000 NA
ATOM     11  C   UNL     1      -1.267   4.636   0.576  0.00  0.00    +0.000 C 
ATOM     12  C   UNL     1      -3.512   3.636   0.271  0.00  0.00    +0.000 C 
ATOM     13  C   UNL     1      -1.991   2.742   2.037  0.00  0.00    +0.000 C 
ATOM     14  H   UNL     1      -3.728   1.934   1.985  0.00  0.00    +0.000 HD
ENDBRANCH   1  13
TORSDOF 1
ENDMDL
