MODEL 1
REMARK VINA RESULT:    -6.138      0.000      0.000
REMARK INTER + INTRA:          -7.064
REMARK INTER:                  -6.735
REMARK INTRA:                  -0.329
REMARK CONF_INDEPENDENT:        0.597
REMARK UNBOUND:                 0.329
REMARK  Name = 2353
REMARK  4 active torsions:
REMARK  status: ('A' for Active; 'I' for Inactive)
REMARK    1  A    between atoms: O_3  and  C_19
REMARK    2  A    between atoms: O_3  and  C_24
REMARK    3  A    between atoms: O_4  and  C_21
REMARK    4  A    between atoms: O_4  and  C_25
REMARK                            x       y       z     vdW  Elec       q    Type
REMARK                         _______ _______ _______ _____ _____    ______ ____
ROOT
ATOM      1  O   UNL     1       7.349   1.540  -4.750  0.00  0.00    +0.000 OA
ATOM      2  O   UNL     1       6.736  -0.223  -3.228  0.00  0.00    +0.000 OA
ATOM      3  N   UNL     1       6.573   4.134   1.019  0.00  0.00    +0.000 N 
ATOM      4  C   UNL     1       6.420   5.175  -0.030  0.00  0.00    +0.000 C 
ATOM      5  C   UNL     1       7.424   4.933  -1.141  0.00  0.00    +0.000 C 
ATOM      6  C   UNL     1       6.773   2.825   0.692  0.00  0.00    +0.000 A 
ATOM      7  C   UNL     1       7.235   3.538  -1.667  0.00  0.00    +0.000 A 
ATOM      8  C   UNL     1       6.899   2.508  -0.744  0.00  0.00    +0.000 A 
ATOM      9  C   UNL     1       6.453   4.521   2.310  0.00  0.00    +0.000 A 
ATOM     10  C   UNL     1       6.880   1.876   1.723  0.00  0.00    +0.000 A 
ATOM     11  C   UNL     1       6.547   3.613   3.362  0.00  0.00    +0.000 A 
ATOM     12  C   UNL     1       6.767   2.259   3.064  0.00  0.00    +0.000 A 
ATOM     13  C   UNL     1       7.417   3.273  -3.034  0.00  0.00    +0.000 A 
ATOM     14  C   UNL     1       6.711   1.206  -1.247  0.00  0.00    +0.000 A 
ATOM     15  C   UNL     1       7.228   1.981  -3.468  0.00  0.00    +0.000 A 
ATOM     16  C   UNL     1       6.880   0.977  -2.599  0.00  0.00    +0.000 A 
ATOM     17  C   UNL     1       6.428   4.017   4.702  0.00  0.00    +0.000 A 
ATOM     18  C   UNL     1       6.869   1.331   4.114  0.00  0.00    +0.000 A 
ATOM     19  C   UNL     1       6.530   3.085   5.735  0.00  0.00    +0.000 A 
ATOM     20  C   UNL     1       7.034   0.143  -4.590  0.00  0.00    +0.000 C 
ATOM     21  C   UNL     1       6.750   1.742   5.442  0.00  0.00    +0.000 A 
ENDROOT
BRANCH  17  22
ATOM     22  O   UNL     1       6.213   5.328   5.021  0.00  0.00    +0.000 OA
ATOM     23  C   UNL     1       4.885   5.820   4.866  0.00  0.00    +0.000 C 
ENDBRANCH  17  22
BRANCH  19  24
ATOM     24  O   UNL     1       6.416   3.474   7.036  0.00  0.00    +0.000 OA
ATOM     25  C   UNL     1       5.109   3.811   7.500  0.00  0.00    +0.000 C 
ENDBRANCH  19  24
TORSDOF 2
ENDMDL
MODEL 2
REMARK VINA RESULT:    -5.991      1.581      7.780
REMARK INTER + INTRA:          -6.801
REMARK INTER:                  -6.588
REMARK INTRA:                  -0.213
REMARK CONF_INDEPENDENT:        0.597
REMARK UNBOUND:                 0.213
REMARK  Name = 2353
REMARK  4 active torsions:
REMARK  status: ('A' for Active; 'I' for Inactive)
REMARK    1  A    between atoms: O_3  and  C_19
REMARK    2  A    between atoms: O_3  and  C_24
REMARK    3  A    between atoms: O_4  and  C_21
REMARK    4  A    between atoms: O_4  and  C_25
REMARK                            x       y       z     vdW  Elec       q    Type
REMARK                         _______ _______ _______ _____ _____    ______ ____
ROOT
ATOM      1  O   UNL     1       6.402   2.993   5.739  0.00  0.00    +0.000 OA
ATOM      2  O   UNL     1       7.069   0.970   4.617  0.00  0.00    +0.000 OA
ATOM      3  N   UNL     1       7.146   4.354  -0.442  0.00  0.00    +0.000 N 
ATOM      4  C   UNL     1       7.265   5.593   0.369  0.00  0.00    +0.000 C 
ATOM      5  C   UNL     1       6.260   5.559   1.505  0.00  0.00    +0.000 C 
ATOM      6  C   UNL     1       6.978   3.136   0.150  0.00  0.00    +0.000 A 
ATOM      7  C   UNL     1       6.483   4.310   2.309  0.00  0.00    +0.000 A 
ATOM      8  C   UNL     1       6.851   3.121   1.621  0.00  0.00    +0.000 A 
ATOM      9  C   UNL     1       7.263   4.467  -1.784  0.00  0.00    +0.000 A 
ATOM     10  C   UNL     1       6.902   1.991  -0.662  0.00  0.00    +0.000 A 
ATOM     11  C   UNL     1       7.200   3.358  -2.626  0.00  0.00    +0.000 A 
ATOM     12  C   UNL     1       7.013   2.090  -2.053  0.00  0.00    +0.000 A 
ATOM     13  C   UNL     1       6.300   4.329   3.701  0.00  0.00    +0.000 A 
ATOM     14  C   UNL     1       7.070   1.956   2.383  0.00  0.00    +0.000 A 
ATOM     15  C   UNL     1       6.519   3.161   4.394  0.00  0.00    +0.000 A 
ATOM     16  C   UNL     1       6.898   2.008   3.753  0.00  0.00    +0.000 A 
ATOM     17  C   UNL     1       7.316   3.478  -4.020  0.00  0.00    +0.000 A 
ATOM     18  C   UNL     1       6.943   0.962  -2.887  0.00  0.00    +0.000 A 
ATOM     19  C   UNL     1       7.246   2.350  -4.837  0.00  0.00    +0.000 A 
ATOM     20  C   UNL     1       6.753   1.601   5.873  0.00  0.00    +0.000 C 
ATOM     21  C   UNL     1       7.059   1.092  -4.272  0.00  0.00    +0.000 A 
ENDROOT
BRANCH  17  22
ATOM     22  O   UNL     1       7.499   4.701  -4.604  0.00  0.00    +0.000 OA
ATOM     23  C   UNL     1       6.621   5.043  -5.672  0.00  0.00    +0.000 C 
ENDBRANCH  17  22
BRANCH  19  24
ATOM     24  O   UNL     1       7.358   2.464  -6.190  0.00  0.00    +0.000 OA
ATOM     25  C   UNL     1       6.573   1.575  -6.984  0.00  0.00    +0.000 C 
ENDBRANCH  19  24
TORSDOF 2
ENDMDL
MODEL 3
REMARK VINA RESULT:    -5.353      1.871      3.592
REMARK INTER + INTRA:          -6.239
REMARK INTER:                  -5.949
REMARK INTRA:                  -0.290
REMARK CONF_INDEPENDENT:        0.597
REMARK UNBOUND:                 0.290
REMARK  Name = 2353
REMARK  4 active torsions:
REMARK  status: ('A' for Active; 'I' for Inactive)
REMARK    1  A    between atoms: O_3  and  C_19
REMARK    2  A    between atoms: O_3  and  C_24
REMARK    3  A    between atoms: O_4  and  C_21
REMARK    4  A    between atoms: O_4  and  C_25
REMARK                            x       y       z     vdW  Elec       q    Type
REMARK                         _______ _______ _______ _____ _____    ______ ____
ROOT
ATOM      1  O   UNL     1       7.356   3.117  -6.900  0.00  0.00    +0.000 OA
ATOM      2  O   UNL     1       7.445   5.295  -5.877  0.00  0.00    +0.000 OA
ATOM      3  N   UNL     1       7.020   2.315  -0.587  0.00  0.00    +0.000 N 
ATOM      4  C   UNL     1       7.500   1.066  -1.232  0.00  0.00    +0.000 C 
ATOM      5  C   UNL     1       6.759   0.848  -2.538  0.00  0.00    +0.000 C 
ATOM      6  C   UNL     1       6.785   3.443  -1.318  0.00  0.00    +0.000 A 
ATOM      7  C   UNL     1       6.939   2.062  -3.404  0.00  0.00    +0.000 A 
ATOM      8  C   UNL     1       6.963   3.339  -2.779  0.00  0.00    +0.000 A 
ATOM      9  C   UNL     1       6.875   2.312   0.758  0.00  0.00    +0.000 A 
ATOM     10  C   UNL     1       6.362   4.607  -0.653  0.00  0.00    +0.000 A 
ATOM     11  C   UNL     1       6.463   3.445   1.457  0.00  0.00    +0.000 A 
ATOM     12  C   UNL     1       6.198   4.619   0.737  0.00  0.00    +0.000 A 
ATOM     13  C   UNL     1       7.052   1.919  -4.797  0.00  0.00    +0.000 A 
ATOM     14  C   UNL     1       7.144   4.472  -3.597  0.00  0.00    +0.000 A 
ATOM     15  C   UNL     1       7.219   3.061  -5.547  0.00  0.00    +0.000 A 
ATOM     16  C   UNL     1       7.269   4.301  -4.963  0.00  0.00    +0.000 A 
ATOM     17  C   UNL     1       6.308   3.438   2.853  0.00  0.00    +0.000 A 
ATOM     18  C   UNL     1       5.778   5.769   1.426  0.00  0.00    +0.000 A 
ATOM     19  C   UNL     1       5.891   4.587   3.525  0.00  0.00    +0.000 A 
ATOM     20  C   UNL     1       7.500   4.537  -7.101  0.00  0.00    +0.000 C 
ATOM     21  C   UNL     1       5.626   5.752   2.813  0.00  0.00    +0.000 A 
ENDROOT
BRANCH  17  22
ATOM     22  O   UNL     1       6.561   2.308   3.580  0.00  0.00    +0.000 OA
ATOM     23  C   UNL     1       5.696   1.197   3.363  0.00  0.00    +0.000 C 
ENDBRANCH  17  22
BRANCH  19  24
ATOM     24  O   UNL     1       5.739   4.583   4.879  0.00  0.00    +0.000 OA
ATOM     25  C   UNL     1       6.928   4.515   5.665  0.00  0.00    +0.000 C 
ENDBRANCH  19  24
TORSDOF 2
ENDMDL
MODEL 4
REMARK VINA RESULT:    -4.530      1.326      1.778
REMARK INTER + INTRA:          -5.490
REMARK INTER:                  -5.126
REMARK INTRA:                  -0.364
REMARK CONF_INDEPENDENT:        0.597
REMARK UNBOUND:                 0.364
REMARK  Name = 2353
REMARK  4 active torsions:
REMARK  status: ('A' for Active; 'I' for Inactive)
REMARK    1  A    between atoms: O_3  and  C_19
REMARK    2  A    between atoms: O_3  and  C_24
REMARK    3  A    between atoms: O_4  and  C_21
REMARK    4  A    between atoms: O_4  and  C_25
REMARK                            x       y       z     vdW  Elec       q    Type
REMARK                         _______ _______ _______ _____ _____    ______ ____
ROOT
ATOM      1  O   UNL     1       7.086  -0.305  -5.430  0.00  0.00    +0.000 OA
ATOM      2  O   UNL     1       6.634  -1.547  -3.416  0.00  0.00    +0.000 OA
ATOM      3  N   UNL     1       6.865   3.842  -0.596  0.00  0.00    +0.000 N 
ATOM      4  C   UNL     1       6.606   4.544  -1.879  0.00  0.00    +0.000 C 
ATOM      5  C   UNL     1       7.498   3.972  -2.965  0.00  0.00    +0.000 C 
ATOM      6  C   UNL     1       7.039   2.490  -0.553  0.00  0.00    +0.000 A 
ATOM      7  C   UNL     1       7.264   2.490  -3.050  0.00  0.00    +0.000 A 
ATOM      8  C   UNL     1       7.025   1.774  -1.844  0.00  0.00    +0.000 A 
ATOM      9  C   UNL     1       6.871   4.583   0.535  0.00  0.00    +0.000 A 
ATOM     10  C   UNL     1       7.250   1.871   0.691  0.00  0.00    +0.000 A 
ATOM     11  C   UNL     1       7.072   4.010   1.789  0.00  0.00    +0.000 A 
ATOM     12  C   UNL     1       7.268   2.623   1.871  0.00  0.00    +0.000 A 
ATOM     13  C   UNL     1       7.313   1.842  -4.295  0.00  0.00    +0.000 A 
ATOM     14  C   UNL     1       6.796   0.387  -1.933  0.00  0.00    +0.000 A 
ATOM     15  C   UNL     1       7.089   0.485  -4.322  0.00  0.00    +0.000 A 
ATOM     16  C   UNL     1       6.833  -0.222  -3.174  0.00  0.00    +0.000 A 
ATOM     17  C   UNL     1       7.082   4.782   2.963  0.00  0.00    +0.000 A 
ATOM     18  C   UNL     1       7.476   2.031   3.128  0.00  0.00    +0.000 A 
ATOM     19  C   UNL     1       7.289   4.181   4.205  0.00  0.00    +0.000 A 
ATOM     20  C   UNL     1       6.796  -1.592  -4.848  0.00  0.00    +0.000 C 
ATOM     21  C   UNL     1       7.486   2.806   4.288  0.00  0.00    +0.000 A 
ENDROOT
BRANCH  17  22
ATOM     22  O   UNL     1       6.893   6.135   2.912  0.00  0.00    +0.000 OA
ATOM     23  C   UNL     1       5.546   6.596   2.863  0.00  0.00    +0.000 C 
ENDBRANCH  17  22
BRANCH  19  24
ATOM     24  O   UNL     1       7.301   4.928   5.344  0.00  0.00    +0.000 OA
ATOM     25  C   UNL     1       6.063   5.069   6.040  0.00  0.00    +0.000 C 
ENDBRANCH  19  24
TORSDOF 2
ENDMDL
MODEL 5
REMARK VINA RESULT:    -4.373      4.752      7.729
REMARK INTER + INTRA:          -4.912
REMARK INTER:                  -4.970
REMARK INTRA:                   0.057
REMARK CONF_INDEPENDENT:        0.597
REMARK UNBOUND:                -0.057
REMARK  Name = 2353
REMARK  4 active torsions:
REMARK  status: ('A' for Active; 'I' for Inactive)
REMARK    1  A    between atoms: O_3  and  C_19
REMARK    2  A    between atoms: O_3  and  C_24
REMARK    3  A    between atoms: O_4  and  C_21
REMARK    4  A    between atoms: O_4  and  C_25
REMARK                            x       y       z     vdW  Elec       q    Type
REMARK                         _______ _______ _______ _____ _____    ______ ____
ROOT
ATOM      1  O   UNL     1       7.050  -6.774  -5.510  0.00  0.00    +0.000 OA
ATOM      2  O   UNL     1       6.684  -6.125  -3.220  0.00  0.00    +0.000 OA
ATOM      3  N   UNL     1       6.750  -0.411  -5.315  0.00  0.00    +0.000 N 
ATOM      4  C   UNL     1       6.440  -0.892  -6.686  0.00  0.00    +0.000 C 
ATOM      5  C   UNL     1       7.334  -2.068  -7.030  0.00  0.00    +0.000 C 
ATOM      6  C   UNL     1       6.978  -1.287  -4.294  0.00  0.00    +0.000 A 
ATOM      7  C   UNL     1       7.159  -3.131  -5.983  0.00  0.00    +0.000 A 
ATOM      8  C   UNL     1       6.970  -2.723  -4.633  0.00  0.00    +0.000 A 
ATOM      9  C   UNL     1       6.747   0.925  -5.102  0.00  0.00    +0.000 A 
ATOM     10  C   UNL     1       7.237  -0.779  -3.009  0.00  0.00    +0.000 A 
ATOM     11  C   UNL     1       6.993   1.470  -3.843  0.00  0.00    +0.000 A 
ATOM     12  C   UNL     1       7.246   0.600  -2.772  0.00  0.00    +0.000 A 
ATOM     13  C   UNL     1       7.211  -4.487  -6.344  0.00  0.00    +0.000 A 
ATOM     14  C   UNL     1       6.795  -3.725  -3.658  0.00  0.00    +0.000 A 
ATOM     15  C   UNL     1       7.041  -5.422  -5.349  0.00  0.00    +0.000 A 
ATOM     16  C   UNL     1       6.834  -5.052  -4.044  0.00  0.00    +0.000 A 
ATOM     17  C   UNL     1       6.994   2.858  -3.625  0.00  0.00    +0.000 A 
ATOM     18  C   UNL     1       7.500   1.134  -1.497  0.00  0.00    +0.000 A 
ATOM     19  C   UNL     1       7.246   3.375  -2.354  0.00  0.00    +0.000 A 
ATOM     20  C   UNL     1       6.821  -7.213  -4.156  0.00  0.00    +0.000 C 
ATOM     21  C   UNL     1       7.500   2.514  -1.291  0.00  0.00    +0.000 A 
ENDROOT
BRANCH  17  22
ATOM     22  O   UNL     1       6.750   3.728  -4.651  0.00  0.00    +0.000 OA
ATOM     23  C   UNL     1       7.488   4.945  -4.653  0.00  0.00    +0.000 C 
ENDBRANCH  17  22
BRANCH  19  24
ATOM     24  O   UNL     1       7.249   4.720  -2.140  0.00  0.00    +0.000 OA
ATOM     25  C   UNL     1       7.337   5.161  -0.786  0.00  0.00    +0.000 C 
ENDBRANCH  19  24
TORSDOF 2
ENDMDL
MODEL 6
REMARK VINA RESULT:    -4.033      6.204      9.162
REMARK INTER + INTRA:          -4.744
REMARK INTER:                  -4.630
REMARK INTRA:                  -0.114
REMARK CONF_INDEPENDENT:        0.597
REMARK UNBOUND:                 0.114
REMARK  Name = 2353
REMARK  4 active torsions:
REMARK  status: ('A' for Active; 'I' for Inactive)
REMARK    1  A    between atoms: O_3  and  C_19
REMARK    2  A    between atoms: O_3  and  C_24
REMARK    3  A    between atoms: O_4  and  C_21
REMARK    4  A    between atoms: O_4  and  C_25
REMARK                            x       y       z     vdW  Elec       q    Type
REMARK                         _______ _______ _______ _____ _____    ______ ____
ROOT
ATOM      1  O   UNL     1       5.608  -7.469  -4.017  0.00  0.00    +0.000 OA
ATOM      2  O   UNL     1       4.797  -5.983  -2.304  0.00  0.00    +0.000 OA
ATOM      3  N   UNL     1       6.721  -1.495  -5.937  0.00  0.00    +0.000 N 
ATOM      4  C   UNL     1       6.690  -2.407  -7.109  0.00  0.00    +0.000 C 
ATOM      5  C   UNL     1       7.353  -3.724  -6.750  0.00  0.00    +0.000 C 
ATOM      6  C   UNL     1       6.461  -1.953  -4.679  0.00  0.00    +0.000 A 
ATOM      7  C   UNL     1       6.665  -4.297  -5.543  0.00  0.00    +0.000 A 
ATOM      8  C   UNL     1       6.218  -3.401  -4.532  0.00  0.00    +0.000 A 
ATOM      9  C   UNL     1       6.964  -0.184  -6.168  0.00  0.00    +0.000 A 
ATOM     10  C   UNL     1       6.473  -1.041  -3.609  0.00  0.00    +0.000 A 
ATOM     11  C   UNL     1       6.980   0.754  -5.137  0.00  0.00    +0.000 A 
ATOM     12  C   UNL     1       6.731   0.317  -3.827  0.00  0.00    +0.000 A 
ATOM     13  C   UNL     1       6.503  -5.686  -5.422  0.00  0.00    +0.000 A 
ATOM     14  C   UNL     1       5.564  -3.945  -3.409  0.00  0.00    +0.000 A 
ATOM     15  C   UNL     1       5.864  -6.162  -4.300  0.00  0.00    +0.000 A 
ATOM     16  C   UNL     1       5.403  -5.315  -3.324  0.00  0.00    +0.000 A 
ATOM     17  C   UNL     1       7.237   2.113  -5.378  0.00  0.00    +0.000 A 
ATOM     18  C   UNL     1       6.747   1.249  -2.776  0.00  0.00    +0.000 A 
ATOM     19  C   UNL     1       7.250   3.029  -4.325  0.00  0.00    +0.000 A 
ATOM     20  C   UNL     1       4.931  -7.347  -2.750  0.00  0.00    +0.000 C 
ATOM     21  C   UNL     1       7.005   2.598  -3.025  0.00  0.00    +0.000 A 
ENDROOT
BRANCH  17  22
ATOM     22  O   UNL     1       7.482   2.566  -6.644  0.00  0.00    +0.000 OA
ATOM     23  C   UNL     1       6.350   2.797  -7.476  0.00  0.00    +0.000 C 
ENDBRANCH  17  22
BRANCH  19  24
ATOM     24  O   UNL     1       7.500   4.348  -4.556  0.00  0.00    +0.000 OA
ATOM     25  C   UNL     1       6.675   5.007  -5.516  0.00  0.00    +0.000 C 
ENDBRANCH  19  24
TORSDOF 2
ENDMDL
