MODEL 1
REMARK VINA RESULT:    -6.845      0.000      0.000
REMARK INTER + INTRA:          -7.751
REMARK INTER:                  -7.442
REMARK INTRA:                  -0.309
REMARK CONF_INDEPENDENT:        0.597
REMARK UNBOUND:                 0.309
REMARK  Name = 2353
REMARK  4 active torsions:
REMARK  status: ('A' for Active; 'I' for Inactive)
REMARK    1  A    between atoms: O_3  and  C_19
REMARK    2  A    between atoms: O_3  and  C_24
REMARK    3  A    between atoms: O_4  and  C_21
REMARK    4  A    between atoms: O_4  and  C_25
REMARK                            x       y       z     vdW  Elec       q    Type
REMARK                         _______ _______ _______ _____ _____    ______ ____
ROOT
ATOM      1  O   UNL     1      -6.746   3.674  -0.710  0.00  0.00    +0.000 OA
ATOM      2  O   UNL     1      -4.847   4.390  -2.007  0.00  0.00    +0.000 OA
ATOM      3  N   UNL     1      -4.815  -1.279  -4.224  0.00  0.00    +0.000 N 
ATOM      4  C   UNL     1      -6.235  -1.459  -3.830  0.00  0.00    +0.000 C 
ATOM      5  C   UNL     1      -6.439  -0.969  -2.409  0.00  0.00    +0.000 C 
ATOM      6  C   UNL     1      -4.129  -0.146  -3.896  0.00  0.00    +0.000 A 
ATOM      7  C   UNL     1      -5.984   0.461  -2.322  0.00  0.00    +0.000 A 
ATOM      8  C   UNL     1      -4.844   0.853  -3.078  0.00  0.00    +0.000 A 
ATOM      9  C   UNL     1      -4.239  -2.254  -4.964  0.00  0.00    +0.000 A 
ATOM     10  C   UNL     1      -2.796  -0.012  -4.320  0.00  0.00    +0.000 A 
ATOM     11  C   UNL     1      -2.922  -2.160  -5.409  0.00  0.00    +0.000 A 
ATOM     12  C   UNL     1      -2.181  -1.014  -5.080  0.00  0.00    +0.000 A 
ATOM     13  C   UNL     1      -6.663   1.364  -1.489  0.00  0.00    +0.000 A 
ATOM     14  C   UNL     1      -4.431   2.198  -3.001  0.00  0.00    +0.000 A 
ATOM     15  C   UNL     1      -6.211   2.663  -1.447  0.00  0.00    +0.000 A 
ATOM     16  C   UNL     1      -5.128   3.069  -2.185  0.00  0.00    +0.000 A 
ATOM     17  C   UNL     1      -2.324  -3.175  -6.174  0.00  0.00    +0.000 A 
ATOM     18  C   UNL     1      -0.851  -0.905  -5.518  0.00  0.00    +0.000 A 
ATOM     19  C   UNL     1      -1.003  -3.054  -6.603  0.00  0.00    +0.000 A 
ATOM     20  C   UNL     1      -5.877   4.766  -1.071  0.00  0.00    +0.000 C 
ATOM     21  C   UNL     1      -0.266  -1.920  -6.275  0.00  0.00    +0.000 A 
ENDROOT
BRANCH  17  22
ATOM     22  O   UNL     1      -3.023  -4.301  -6.510  0.00  0.00    +0.000 OA
ATOM     23  C   UNL     1      -4.037  -4.158  -7.500  0.00  0.00    +0.000 C 
ENDBRANCH  17  22
BRANCH  19  24
ATOM     24  O   UNL     1      -0.420  -4.038  -7.344  0.00  0.00    +0.000 OA
ATOM     25  C   UNL     1       0.999  -3.990  -7.486  0.00  0.00    +0.000 C 
ENDBRANCH  19  24
TORSDOF 2
ENDMDL
MODEL 2
REMARK VINA RESULT:    -6.791      2.499      8.005
REMARK INTER + INTRA:          -7.733
REMARK INTER:                  -7.388
REMARK INTRA:                  -0.345
REMARK CONF_INDEPENDENT:        0.597
REMARK UNBOUND:                 0.345
REMARK  Name = 2353
REMARK  4 active torsions:
REMARK  status: ('A' for Active; 'I' for Inactive)
REMARK    1  A    between atoms: O_3  and  C_19
REMARK    2  A    between atoms: O_3  and  C_24
REMARK    3  A    between atoms: O_4  and  C_21
REMARK    4  A    between atoms: O_4  and  C_25
REMARK                            x       y       z     vdW  Elec       q    Type
REMARK                         _______ _______ _______ _____ _____    ______ ____
ROOT
ATOM      1  O   UNL     1       3.959  -4.010  -6.395  0.00  0.00    +0.000 OA
ATOM      2  O   UNL     1       3.778  -3.260  -4.114  0.00  0.00    +0.000 OA
ATOM      3  N   UNL     1      -1.935  -1.737  -5.558  0.00  0.00    +0.000 N 
ATOM      4  C   UNL     1      -1.911  -2.672  -6.711  0.00  0.00    +0.000 C 
ATOM      5  C   UNL     1      -0.625  -2.487  -7.494  0.00  0.00    +0.000 C 
ATOM      6  C   UNL     1      -0.821  -1.519  -4.801  0.00  0.00    +0.000 A 
ATOM      7  C   UNL     1       0.539  -2.676  -6.562  0.00  0.00    +0.000 A 
ATOM      8  C   UNL     1       0.417  -2.202  -5.226  0.00  0.00    +0.000 A 
ATOM      9  C   UNL     1      -3.114  -1.148  -5.251  0.00  0.00    +0.000 A 
ATOM     10  C   UNL     1      -0.906  -0.648  -3.701  0.00  0.00    +0.000 A 
ATOM     11  C   UNL     1      -3.244  -0.282  -4.167  0.00  0.00    +0.000 A 
ATOM     12  C   UNL     1      -2.115  -0.024  -3.374  0.00  0.00    +0.000 A 
ATOM     13  C   UNL     1       1.717  -3.284  -7.024  0.00  0.00    +0.000 A 
ATOM     14  C   UNL     1       1.508  -2.393  -4.354  0.00  0.00    +0.000 A 
ATOM     15  C   UNL     1       2.753  -3.438  -6.132  0.00  0.00    +0.000 A 
ATOM     16  C   UNL     1       2.649  -3.009  -4.832  0.00  0.00    +0.000 A 
ATOM     17  C   UNL     1      -4.467   0.332  -3.852  0.00  0.00    +0.000 A 
ATOM     18  C   UNL     1      -2.228   0.850  -2.280  0.00  0.00    +0.000 A 
ATOM     19  C   UNL     1      -4.566   1.197  -2.762  0.00  0.00    +0.000 A 
ATOM     20  C   UNL     1       4.603  -3.894  -5.111  0.00  0.00    +0.000 C 
ATOM     21  C   UNL     1      -3.448   1.456  -1.976  0.00  0.00    +0.000 A 
ENDROOT
BRANCH  17  22
ATOM     22  O   UNL     1      -5.582   0.097  -4.607  0.00  0.00    +0.000 OA
ATOM     23  C   UNL     1      -6.341  -1.066  -4.290  0.00  0.00    +0.000 C 
ENDBRANCH  17  22
BRANCH  19  24
ATOM     24  O   UNL     1      -5.752   1.795  -2.455  0.00  0.00    +0.000 OA
ATOM     25  C   UNL     1      -5.694   3.125  -1.943  0.00  0.00    +0.000 C 
ENDBRANCH  19  24
TORSDOF 2
ENDMDL
MODEL 3
REMARK VINA RESULT:    -6.652      5.029      7.056
REMARK INTER + INTRA:          -7.593
REMARK INTER:                  -7.248
REMARK INTRA:                  -0.344
REMARK CONF_INDEPENDENT:        0.597
REMARK UNBOUND:                 0.344
REMARK  Name = 2353
REMARK  4 active torsions:
REMARK  status: ('A' for Active; 'I' for Inactive)
REMARK    1  A    between atoms: O_3  and  C_19
REMARK    2  A    between atoms: O_3  and  C_24
REMARK    3  A    between atoms: O_4  and  C_21
REMARK    4  A    between atoms: O_4  and  C_25
REMARK                            x       y       z     vdW  Elec       q    Type
REMARK                         _______ _______ _______ _____ _____    ______ ____
ROOT
ATOM      1  O   UNL     1      -6.744   0.007  -6.434  0.00  0.00    +0.000 OA
ATOM      2  O   UNL     1      -7.398  -2.225  -5.811  0.00  0.00    +0.000 OA
ATOM      3  N   UNL     1      -4.273  -1.209  -0.687  0.00  0.00    +0.000 N 
ATOM      4  C   UNL     1      -4.376   0.258  -0.895  0.00  0.00    +0.000 C 
ATOM      5  C   UNL     1      -4.030   0.597  -2.333  0.00  0.00    +0.000 C 
ATOM      6  C   UNL     1      -4.739  -2.089  -1.620  0.00  0.00    +0.000 A 
ATOM      7  C   UNL     1      -4.930  -0.189  -3.244  0.00  0.00    +0.000 A 
ATOM      8  C   UNL     1      -5.281  -1.514  -2.867  0.00  0.00    +0.000 A 
ATOM      9  C   UNL     1      -3.751  -1.642   0.483  0.00  0.00    +0.000 A 
ATOM     10  C   UNL     1      -4.645  -3.467  -1.360  0.00  0.00    +0.000 A 
ATOM     11  C   UNL     1      -3.644  -2.999   0.784  0.00  0.00    +0.000 A 
ATOM     12  C   UNL     1      -4.099  -3.934  -0.158  0.00  0.00    +0.000 A 
ATOM     13  C   UNL     1      -5.380   0.380  -4.447  0.00  0.00    +0.000 A 
ATOM     14  C   UNL     1      -6.135  -2.241  -3.721  0.00  0.00    +0.000 A 
ATOM     15  C   UNL     1      -6.205  -0.378  -5.246  0.00  0.00    +0.000 A 
ATOM     16  C   UNL     1      -6.575  -1.650  -4.890  0.00  0.00    +0.000 A 
ATOM     17  C   UNL     1      -3.097  -3.447   1.997  0.00  0.00    +0.000 A 
ATOM     18  C   UNL     1      -3.995  -5.305   0.128  0.00  0.00    +0.000 A 
ATOM     19  C   UNL     1      -3.000  -4.812   2.269  0.00  0.00    +0.000 A 
ATOM     20  C   UNL     1      -7.500  -1.169  -6.786  0.00  0.00    +0.000 C 
ATOM     21  C   UNL     1      -3.449  -5.741   1.335  0.00  0.00    +0.000 A 
ENDROOT
BRANCH  17  22
ATOM     22  O   UNL     1      -2.647  -2.558   2.932  0.00  0.00    +0.000 OA
ATOM     23  C   UNL     1      -1.374  -1.964   2.697  0.00  0.00    +0.000 C 
ENDBRANCH  17  22
BRANCH  19  24
ATOM     24  O   UNL     1      -2.469  -5.250   3.445  0.00  0.00    +0.000 OA
ATOM     25  C   UNL     1      -3.329  -5.988   4.311  0.00  0.00    +0.000 C 
ENDBRANCH  19  24
TORSDOF 2
ENDMDL
MODEL 4
REMARK VINA RESULT:    -6.318      1.939      8.310
REMARK INTER + INTRA:          -7.283
REMARK INTER:                  -6.914
REMARK INTRA:                  -0.369
REMARK CONF_INDEPENDENT:        0.597
REMARK UNBOUND:                 0.369
REMARK  Name = 2353
REMARK  4 active torsions:
REMARK  status: ('A' for Active; 'I' for Inactive)
REMARK    1  A    between atoms: O_3  and  C_19
REMARK    2  A    between atoms: O_3  and  C_24
REMARK    3  A    between atoms: O_4  and  C_21
REMARK    4  A    between atoms: O_4  and  C_25
REMARK                            x       y       z     vdW  Elec       q    Type
REMARK                         _______ _______ _______ _____ _____    ______ ____
ROOT
ATOM      1  O   UNL     1       0.265  -2.858  -6.160  0.00  0.00    +0.000 OA
ATOM      2  O   UNL     1      -1.884  -2.222  -7.042  0.00  0.00    +0.000 OA
ATOM      3  N   UNL     1      -2.217   1.524  -2.256  0.00  0.00    +0.000 N 
ATOM      4  C   UNL     1      -0.741   1.483  -2.099  0.00  0.00    +0.000 C 
ATOM      5  C   UNL     1      -0.257   0.047  -2.183  0.00  0.00    +0.000 C 
ATOM      6  C   UNL     1      -2.851   0.750  -3.184  0.00  0.00    +0.000 A 
ATOM      7  C   UNL     1      -0.725  -0.545  -3.482  0.00  0.00    +0.000 A 
ATOM      8  C   UNL     1      -2.009  -0.174  -3.969  0.00  0.00    +0.000 A 
ATOM      9  C   UNL     1      -2.907   2.394  -1.484  0.00  0.00    +0.000 A 
ATOM     10  C   UNL     1      -4.247   0.850  -3.312  0.00  0.00    +0.000 A 
ATOM     11  C   UNL     1      -4.291   2.530  -1.582  0.00  0.00    +0.000 A 
ATOM     12  C   UNL     1      -4.978   1.739  -2.516  0.00  0.00    +0.000 A 
ATOM     13  C   UNL     1       0.088  -1.461  -4.169  0.00  0.00    +0.000 A 
ATOM     14  C   UNL     1      -2.436  -0.724  -5.194  0.00  0.00    +0.000 A 
ATOM     15  C   UNL     1      -0.383  -1.972  -5.356  0.00  0.00    +0.000 A 
ATOM     16  C   UNL     1      -1.609  -1.610  -5.857  0.00  0.00    +0.000 A 
ATOM     17  C   UNL     1      -5.006   3.430  -0.776  0.00  0.00    +0.000 A 
ATOM     18  C   UNL     1      -6.374   1.860  -2.625  0.00  0.00    +0.000 A 
ATOM     19  C   UNL     1      -6.391   3.541  -0.895  0.00  0.00    +0.000 A 
ATOM     20  C   UNL     1      -0.692  -3.011  -7.228  0.00  0.00    +0.000 C 
ATOM     21  C   UNL     1      -7.075   2.757  -1.819  0.00  0.00    +0.000 A 
ENDROOT
BRANCH  17  22
ATOM     22  O   UNL     1      -4.361   4.212   0.141  0.00  0.00    +0.000 OA
ATOM     23  C   UNL     1      -4.044   5.543  -0.257  0.00  0.00    +0.000 C 
ENDBRANCH  17  22
BRANCH  19  24
ATOM     24  O   UNL     1      -7.088   4.414  -0.113  0.00  0.00    +0.000 OA
ATOM     25  C   UNL     1      -7.446   3.969   1.194  0.00  0.00    +0.000 C 
ENDBRANCH  19  24
TORSDOF 2
ENDMDL
MODEL 5
REMARK VINA RESULT:    -6.126      1.881      3.532
REMARK INTER + INTRA:          -7.082
REMARK INTER:                  -6.722
REMARK INTRA:                  -0.360
REMARK CONF_INDEPENDENT:        0.597
REMARK UNBOUND:                 0.360
REMARK  Name = 2353
REMARK  4 active torsions:
REMARK  status: ('A' for Active; 'I' for Inactive)
REMARK    1  A    between atoms: O_3  and  C_19
REMARK    2  A    between atoms: O_3  and  C_24
REMARK    3  A    between atoms: O_4  and  C_21
REMARK    4  A    between atoms: O_4  and  C_25
REMARK                            x       y       z     vdW  Elec       q    Type
REMARK                         _______ _______ _______ _____ _____    ______ ____
ROOT
ATOM      1  O   UNL     1      -5.314   5.032  -0.695  0.00  0.00    +0.000 OA
ATOM      2  O   UNL     1      -7.392   4.127  -1.507  0.00  0.00    +0.000 OA
ATOM      3  N   UNL     1      -4.035  -0.526  -3.540  0.00  0.00    +0.000 N 
ATOM      4  C   UNL     1      -2.952  -0.185  -2.583  0.00  0.00    +0.000 C 
ATOM      5  C   UNL     1      -2.681   1.307  -2.627  0.00  0.00    +0.000 C 
ATOM      6  C   UNL     1      -5.142   0.263  -3.666  0.00  0.00    +0.000 A 
ATOM      7  C   UNL     1      -3.962   2.040  -2.347  0.00  0.00    +0.000 A 
ATOM      8  C   UNL     1      -5.174   1.499  -2.859  0.00  0.00    +0.000 A 
ATOM      9  C   UNL     1      -3.912  -1.673  -4.245  0.00  0.00    +0.000 A 
ATOM     10  C   UNL     1      -6.152  -0.121  -4.565  0.00  0.00    +0.000 A 
ATOM     11  C   UNL     1      -4.892  -2.095  -5.143  0.00  0.00    +0.000 A 
ATOM     12  C   UNL     1      -6.037  -1.301  -5.309  0.00  0.00    +0.000 A 
ATOM     13  C   UNL     1      -3.940   3.240  -1.619  0.00  0.00    +0.000 A 
ATOM     14  C   UNL     1      -6.374   2.185  -2.583  0.00  0.00    +0.000 A 
ATOM     15  C   UNL     1      -5.140   3.872  -1.386  0.00  0.00    +0.000 A 
ATOM     16  C   UNL     1      -6.323   3.356  -1.850  0.00  0.00    +0.000 A 
ATOM     17  C   UNL     1      -4.760  -3.284  -5.878  0.00  0.00    +0.000 A 
ATOM     18  C   UNL     1      -7.032  -1.709  -6.213  0.00  0.00    +0.000 A 
ATOM     19  C   UNL     1      -5.756  -3.679  -6.772  0.00  0.00    +0.000 A 
ATOM     20  C   UNL     1      -6.745   5.186  -0.776  0.00  0.00    +0.000 C 
ATOM     21  C   UNL     1      -6.892  -2.892  -6.939  0.00  0.00    +0.000 A 
ENDROOT
BRANCH  17  22
ATOM     22  O   UNL     1      -3.656  -4.076  -5.735  0.00  0.00    +0.000 OA
ATOM     23  C   UNL     1      -2.636  -3.943  -6.721  0.00  0.00    +0.000 C 
ENDBRANCH  17  22
BRANCH  19  24
ATOM     24  O   UNL     1      -5.630  -4.832  -7.487  0.00  0.00    +0.000 OA
ATOM     25  C   UNL     1      -6.607  -5.846  -7.258  0.00  0.00    +0.000 C 
ENDBRANCH  19  24
TORSDOF 2
ENDMDL
MODEL 6
REMARK VINA RESULT:    -5.896      3.334      6.077
REMARK INTER + INTRA:          -6.841
REMARK INTER:                  -6.492
REMARK INTRA:                  -0.349
REMARK CONF_INDEPENDENT:        0.597
REMARK UNBOUND:                 0.349
REMARK  Name = 2353
REMARK  4 active torsions:
REMARK  status: ('A' for Active; 'I' for Inactive)
REMARK    1  A    between atoms: O_3  and  C_19
REMARK    2  A    between atoms: O_3  and  C_24
REMARK    3  A    between atoms: O_4  and  C_21
REMARK    4  A    between atoms: O_4  and  C_25
REMARK                            x       y       z     vdW  Elec       q    Type
REMARK                         _______ _______ _______ _____ _____    ______ ____
ROOT
ATOM      1  O   UNL     1      -6.648   7.391   3.061  0.00  0.00    +0.000 OA
ATOM      2  O   UNL     1      -7.233   5.174   3.795  0.00  0.00    +0.000 OA
ATOM      3  N   UNL     1      -5.310   3.356  -1.687  0.00  0.00    +0.000 N 
ATOM      4  C   UNL     1      -4.513   4.601  -1.838  0.00  0.00    +0.000 C 
ATOM      5  C   UNL     1      -5.357   5.799  -1.449  0.00  0.00    +0.000 C 
ATOM      6  C   UNL     1      -6.126   3.167  -0.610  0.00  0.00    +0.000 A 
ATOM      7  C   UNL     1      -5.866   5.597  -0.049  0.00  0.00    +0.000 A 
ATOM      8  C   UNL     1      -6.230   4.282   0.352  0.00  0.00    +0.000 A 
ATOM      9  C   UNL     1      -5.158   2.394  -2.625  0.00  0.00    +0.000 A 
ATOM     10  C   UNL     1      -6.835   1.958  -0.499  0.00  0.00    +0.000 A 
ATOM     11  C   UNL     1      -5.836   1.179  -2.551  0.00  0.00    +0.000 A 
ATOM     12  C   UNL     1      -6.696   0.955  -1.465  0.00  0.00    +0.000 A 
ATOM     13  C   UNL     1      -5.998   6.695   0.815  0.00  0.00    +0.000 A 
ATOM     14  C   UNL     1      -6.696   4.097   1.670  0.00  0.00    +0.000 A 
ATOM     15  C   UNL     1      -6.466   6.458   2.088  0.00  0.00    +0.000 A 
ATOM     16  C   UNL     1      -6.800   5.194   2.504  0.00  0.00    +0.000 A 
ATOM     17  C   UNL     1      -5.681   0.184  -3.529  0.00  0.00    +0.000 A 
ATOM     18  C   UNL     1      -7.391  -0.263  -1.377  0.00  0.00    +0.000 A 
ATOM     19  C   UNL     1      -6.376  -1.022  -3.430  0.00  0.00    +0.000 A 
ATOM     20  C   UNL     1      -7.134   6.569   4.141  0.00  0.00    +0.000 C 
ATOM     21  C   UNL     1      -7.231  -1.245  -2.355  0.00  0.00    +0.000 A 
ENDROOT
BRANCH  17  22
ATOM     22  O   UNL     1      -4.850   0.375  -4.597  0.00  0.00    +0.000 OA
ATOM     23  C   UNL     1      -3.637  -0.372  -4.612  0.00  0.00    +0.000 C 
ENDBRANCH  17  22
BRANCH  19  24
ATOM     24  O   UNL     1      -6.228  -1.989  -4.378  0.00  0.00    +0.000 OA
ATOM     25  C   UNL     1      -7.256  -2.096  -5.362  0.00  0.00    +0.000 C 
ENDBRANCH  19  24
TORSDOF 2
ENDMDL
MODEL 7
REMARK VINA RESULT:    -5.612      4.914      6.163
REMARK INTER + INTRA:          -6.576
REMARK INTER:                  -6.209
REMARK INTRA:                  -0.367
REMARK CONF_INDEPENDENT:        0.597
REMARK UNBOUND:                 0.367
REMARK  Name = 2353
REMARK  4 active torsions:
REMARK  status: ('A' for Active; 'I' for Inactive)
REMARK    1  A    between atoms: O_3  and  C_19
REMARK    2  A    between atoms: O_3  and  C_24
REMARK    3  A    between atoms: O_4  and  C_21
REMARK    4  A    between atoms: O_4  and  C_25
REMARK                            x       y       z     vdW  Elec       q    Type
REMARK                         _______ _______ _______ _____ _____    ______ ____
ROOT
ATOM      1  O   UNL     1      -4.843   4.506  -2.601  0.00  0.00    +0.000 OA
ATOM      2  O   UNL     1      -3.095   4.374  -0.950  0.00  0.00    +0.000 OA
ATOM      3  N   UNL     1      -4.358  -1.578  -0.765  0.00  0.00    +0.000 N 
ATOM      4  C   UNL     1      -4.997  -1.501  -2.103  0.00  0.00    +0.000 C 
ATOM      5  C   UNL     1      -5.931  -0.307  -2.157  0.00  0.00    +0.000 C 
ATOM      6  C   UNL     1      -3.905  -0.456  -0.133  0.00  0.00    +0.000 A 
ATOM      7  C   UNL     1      -5.153   0.931  -1.808  0.00  0.00    +0.000 A 
ATOM      8  C   UNL     1      -4.143   0.833  -0.811  0.00  0.00    +0.000 A 
ATOM      9  C   UNL     1      -4.193  -2.803  -0.217  0.00  0.00    +0.000 A 
ATOM     10  C   UNL     1      -3.279  -0.588   1.119  0.00  0.00    +0.000 A 
ATOM     11  C   UNL     1      -3.574  -2.979   1.019  0.00  0.00    +0.000 A 
ATOM     12  C   UNL     1      -3.108  -1.847   1.705  0.00  0.00    +0.000 A 
ATOM     13  C   UNL     1      -5.449   2.148  -2.441  0.00  0.00    +0.000 A 
ATOM     14  C   UNL     1      -3.409   1.995  -0.497  0.00  0.00    +0.000 A 
ATOM     15  C   UNL     1      -4.707   3.252  -2.090  0.00  0.00    +0.000 A 
ATOM     16  C   UNL     1      -3.712   3.176  -1.148  0.00  0.00    +0.000 A 
ATOM     17  C   UNL     1      -3.407  -4.252   1.590  0.00  0.00    +0.000 A 
ATOM     18  C   UNL     1      -2.485  -2.007   2.954  0.00  0.00    +0.000 A 
ATOM     19  C   UNL     1      -2.787  -4.397   2.830  0.00  0.00    +0.000 A 
ATOM     20  C   UNL     1      -3.817   5.211  -1.875  0.00  0.00    +0.000 C 
ATOM     21  C   UNL     1      -2.326  -3.276   3.513  0.00  0.00    +0.000 A 
ENDROOT
BRANCH  17  22
ATOM     22  O   UNL     1      -3.851  -5.372   0.943  0.00  0.00    +0.000 OA
ATOM     23  C   UNL     1      -2.968  -5.960  -0.007  0.00  0.00    +0.000 C 
ENDBRANCH  17  22
BRANCH  19  24
ATOM     24  O   UNL     1      -2.625  -5.631   3.386  0.00  0.00    +0.000 OA
ATOM     25  C   UNL     1      -3.767  -6.215   4.012  0.00  0.00    +0.000 C 
ENDBRANCH  19  24
TORSDOF 2
ENDMDL
MODEL 8
REMARK VINA RESULT:    -5.599      3.534      7.985
REMARK INTER + INTRA:          -6.561
REMARK INTER:                  -6.196
REMARK INTRA:                  -0.366
REMARK CONF_INDEPENDENT:        0.597
REMARK UNBOUND:                 0.366
REMARK  Name = 2353
REMARK  4 active torsions:
REMARK  status: ('A' for Active; 'I' for Inactive)
REMARK    1  A    between atoms: O_3  and  C_19
REMARK    2  A    between atoms: O_3  and  C_24
REMARK    3  A    between atoms: O_4  and  C_21
REMARK    4  A    between atoms: O_4  and  C_25
REMARK                            x       y       z     vdW  Elec       q    Type
REMARK                         _______ _______ _______ _____ _____    ______ ____
ROOT
ATOM      1  O   UNL     1       5.048  -4.078  -5.358  0.00  0.00    +0.000 OA
ATOM      2  O   UNL     1       4.141  -2.390  -3.900  0.00  0.00    +0.000 OA
ATOM      3  N   UNL     1      -1.300  -4.243  -5.903  0.00  0.00    +0.000 N 
ATOM      4  C   UNL     1      -0.720  -5.543  -6.325  0.00  0.00    +0.000 C 
ATOM      5  C   UNL     1       0.571  -5.306  -7.086  0.00  0.00    +0.000 C 
ATOM      6  C   UNL     1      -0.511  -3.244  -5.411  0.00  0.00    +0.000 A 
ATOM      7  C   UNL     1       1.501  -4.504  -6.220  0.00  0.00    +0.000 A 
ATOM      8  C   UNL     1       0.944  -3.494  -5.387  0.00  0.00    +0.000 A 
ATOM      9  C   UNL     1      -2.643  -4.101  -5.972  0.00  0.00    +0.000 A 
ATOM     10  C   UNL     1      -1.113  -2.044  -4.997  0.00  0.00    +0.000 A 
ATOM     11  C   UNL     1      -3.282  -2.931  -5.567  0.00  0.00    +0.000 A 
ATOM     12  C   UNL     1      -2.501  -1.876  -5.070  0.00  0.00    +0.000 A 
ATOM     13  C   UNL     1       2.884  -4.741  -6.269  0.00  0.00    +0.000 A 
ATOM     14  C   UNL     1       1.821  -2.754  -4.569  0.00  0.00    +0.000 A 
ATOM     15  C   UNL     1       3.694  -3.983  -5.454  0.00  0.00    +0.000 A 
ATOM     16  C   UNL     1       3.176  -3.020  -4.625  0.00  0.00    +0.000 A 
ATOM     17  C   UNL     1      -4.677  -2.784  -5.645  0.00  0.00    +0.000 A 
ATOM     18  C   UNL     1      -3.129  -0.688  -4.661  0.00  0.00    +0.000 A 
ATOM     19  C   UNL     1      -5.288  -1.599  -5.234  0.00  0.00    +0.000 A 
ATOM     20  C   UNL     1       5.324  -3.065  -4.370  0.00  0.00    +0.000 C 
ATOM     21  C   UNL     1      -4.515  -0.551  -4.743  0.00  0.00    +0.000 A 
ENDROOT
BRANCH  17  22
ATOM     22  O   UNL     1      -5.461  -3.795  -6.124  0.00  0.00    +0.000 OA
ATOM     23  C   UNL     1      -5.825  -3.731  -7.500  0.00  0.00    +0.000 C 
ENDBRANCH  17  22
BRANCH  19  24
ATOM     24  O   UNL     1      -6.641  -1.453  -5.309  0.00  0.00    +0.000 OA
ATOM     25  C   UNL     1      -7.139  -0.489  -6.235  0.00  0.00    +0.000 C 
ENDBRANCH  19  24
TORSDOF 2
ENDMDL
MODEL 9
REMARK VINA RESULT:    -4.808      6.768      8.518
REMARK INTER + INTRA:          -5.768
REMARK INTER:                  -5.405
REMARK INTRA:                  -0.363
REMARK CONF_INDEPENDENT:        0.597
REMARK UNBOUND:                 0.363
REMARK  Name = 2353
REMARK  4 active torsions:
REMARK  status: ('A' for Active; 'I' for Inactive)
REMARK    1  A    between atoms: O_3  and  C_19
REMARK    2  A    between atoms: O_3  and  C_24
REMARK    3  A    between atoms: O_4  and  C_21
REMARK    4  A    between atoms: O_4  and  C_25
REMARK                            x       y       z     vdW  Elec       q    Type
REMARK                         _______ _______ _______ _____ _____    ______ ____
ROOT
ATOM      1  O   UNL     1      -5.049   5.405  -2.387  0.00  0.00    +0.000 OA
ATOM      2  O   UNL     1      -6.363   4.228  -0.748  0.00  0.00    +0.000 OA
ATOM      3  N   UNL     1      -1.026   2.367   1.512  0.00  0.00    +0.000 N 
ATOM      4  C   UNL     1      -0.330   3.497   0.845  0.00  0.00    +0.000 C 
ATOM      5  C   UNL     1      -0.795   3.607  -0.595  0.00  0.00    +0.000 C 
ATOM      6  C   UNL     1      -2.356   2.140   1.312  0.00  0.00    +0.000 A 
ATOM      7  C   UNL     1      -2.291   3.749  -0.609  0.00  0.00    +0.000 A 
ATOM      8  C   UNL     1      -3.047   3.024   0.353  0.00  0.00    +0.000 A 
ATOM      9  C   UNL     1      -0.308   1.603   2.366  0.00  0.00    +0.000 A 
ATOM     10  C   UNL     1      -2.973   1.075   1.992  0.00  0.00    +0.000 A 
ATOM     11  C   UNL     1      -0.880   0.542   3.064  0.00  0.00    +0.000 A 
ATOM     12  C   UNL     1      -2.243   0.269   2.872  0.00  0.00    +0.000 A 
ATOM     13  C   UNL     1      -2.909   4.561  -1.574  0.00  0.00    +0.000 A 
ATOM     14  C   UNL     1      -4.449   3.171   0.340  0.00  0.00    +0.000 A 
ATOM     15  C   UNL     1      -4.282   4.662  -1.544  0.00  0.00    +0.000 A 
ATOM     16  C   UNL     1      -5.029   3.990  -0.610  0.00  0.00    +0.000 A 
ATOM     17  C   UNL     1      -0.131  -0.254   3.947  0.00  0.00    +0.000 A 
ATOM     18  C   UNL     1      -2.835  -0.800   3.565  0.00  0.00    +0.000 A 
ATOM     19  C   UNL     1      -0.732  -1.312   4.630  0.00  0.00    +0.000 A 
ATOM     20  C   UNL     1      -6.367   5.126  -1.875  0.00  0.00    +0.000 C 
ATOM     21  C   UNL     1      -2.082  -1.586   4.439  0.00  0.00    +0.000 A 
ENDROOT
BRANCH  17  22
ATOM     22  O   UNL     1       1.197  -0.010   4.153  0.00  0.00    +0.000 OA
ATOM     23  C   UNL     1       1.541   0.756   5.303  0.00  0.00    +0.000 C 
ENDBRANCH  17  22
BRANCH  19  24
ATOM     24  O   UNL     1      -0.007  -2.086   5.486  0.00  0.00    +0.000 OA
ATOM     25  C   UNL     1      -0.375  -2.048   6.864  0.00  0.00    +0.000 C 
ENDBRANCH  19  24
TORSDOF 2
ENDMDL
