MODEL 1
REMARK VINA RESULT:    -8.116      0.000      0.000
REMARK INTER + INTRA:          -9.075
REMARK INTER:                  -8.713
REMARK INTRA:                  -0.362
REMARK CONF_INDEPENDENT:        0.597
REMARK UNBOUND:                 0.362
REMARK  Name = 2353
REMARK  4 active torsions:
REMARK  status: ('A' for Active; 'I' for Inactive)
REMARK    1  A    between atoms: O_3  and  C_19
REMARK    2  A    between atoms: O_3  and  C_24
REMARK    3  A    between atoms: O_4  and  C_21
REMARK    4  A    between atoms: O_4  and  C_25
REMARK                            x       y       z     vdW  Elec       q    Type
REMARK                         _______ _______ _______ _____ _____    ______ ____
ROOT
ATOM      1  O   UNL     1       4.808  -1.458   0.260  0.00  0.00    +0.000 OA
ATOM      2  O   UNL     1       2.995  -2.244  -1.116  0.00  0.00    +0.000 OA
ATOM      3  N   UNL     1       0.989   3.500  -0.945  0.00  0.00    +0.000 N 
ATOM      4  C   UNL     1       2.347   3.981  -0.583  0.00  0.00    +0.000 C 
ATOM      5  C   UNL     1       2.920   3.115   0.522  0.00  0.00    +0.000 C 
ATOM      6  C   UNL     1       0.717   2.167  -1.051  0.00  0.00    +0.000 A 
ATOM      7  C   UNL     1       2.908   1.682   0.068  0.00  0.00    +0.000 A 
ATOM      8  C   UNL     1       1.813   1.235  -0.723  0.00  0.00    +0.000 A 
ATOM      9  C   UNL     1       0.045   4.429  -1.217  0.00  0.00    +0.000 A 
ATOM     10  C   UNL     1      -0.577   1.766  -1.426  0.00  0.00    +0.000 A 
ATOM     11  C   UNL     1      -1.248   4.076  -1.597  0.00  0.00    +0.000 A 
ATOM     12  C   UNL     1      -1.569   2.714  -1.703  0.00  0.00    +0.000 A 
ATOM     13  C   UNL     1       3.946   0.817   0.448  0.00  0.00    +0.000 A 
ATOM     14  C   UNL     1       1.814  -0.106  -1.155  0.00  0.00    +0.000 A 
ATOM     15  C   UNL     1       3.892  -0.484   0.003  0.00  0.00    +0.000 A 
ATOM     16  C   UNL     1       2.858  -0.932  -0.780  0.00  0.00    +0.000 A 
ATOM     17  C   UNL     1      -2.229   5.042  -1.874  0.00  0.00    +0.000 A 
ATOM     18  C   UNL     1      -2.869   2.340  -2.081  0.00  0.00    +0.000 A 
ATOM     19  C   UNL     1      -3.517   4.658  -2.250  0.00  0.00    +0.000 A 
ATOM     20  C   UNL     1       4.233  -2.570  -0.454  0.00  0.00    +0.000 C 
ATOM     21  C   UNL     1      -3.837   3.307  -2.354  0.00  0.00    +0.000 A 
ENDROOT
BRANCH  17  22
ATOM     22  O   UNL     1      -1.944   6.375  -1.780  0.00  0.00    +0.000 OA
ATOM     23  C   UNL     1      -2.038   6.964  -0.486  0.00  0.00    +0.000 C 
ENDBRANCH  17  22
BRANCH  19  24
ATOM     24  O   UNL     1      -4.470   5.593  -2.519  0.00  0.00    +0.000 OA
ATOM     25  C   UNL     1      -5.268   6.039  -1.423  0.00  0.00    +0.000 C 
ENDBRANCH  19  24
TORSDOF 2
ENDMDL
MODEL 2
REMARK VINA RESULT:    -8.039      1.583      3.042
REMARK INTER + INTRA:          -8.991
REMARK INTER:                  -8.635
REMARK INTRA:                  -0.356
REMARK CONF_INDEPENDENT:        0.597
REMARK UNBOUND:                 0.356
REMARK  Name = 2353
REMARK  4 active torsions:
REMARK  status: ('A' for Active; 'I' for Inactive)
REMARK    1  A    between atoms: O_3  and  C_19
REMARK    2  A    between atoms: O_3  and  C_24
REMARK    3  A    between atoms: O_4  and  C_21
REMARK    4  A    between atoms: O_4  and  C_25
REMARK                            x       y       z     vdW  Elec       q    Type
REMARK                         _______ _______ _______ _____ _____    ______ ____
ROOT
ATOM      1  O   UNL     1       5.555   0.374   1.235  0.00  0.00    +0.000 OA
ATOM      2  O   UNL     1       4.850   2.438   2.255  0.00  0.00    +0.000 OA
ATOM      3  N   UNL     1      -0.195   1.831  -1.096  0.00  0.00    +0.000 N 
ATOM      4  C   UNL     1       0.059   0.375  -1.245  0.00  0.00    +0.000 C 
ATOM      5  C   UNL     1       1.512   0.145  -1.618  0.00  0.00    +0.000 C 
ATOM      6  C   UNL     1       0.702   2.644  -0.467  0.00  0.00    +0.000 A 
ATOM      7  C   UNL     1       2.385   0.788  -0.578  0.00  0.00    +0.000 A 
ATOM      8  C   UNL     1       1.960   2.021  -0.009  0.00  0.00    +0.000 A 
ATOM      9  C   UNL     1      -1.371   2.314  -1.557  0.00  0.00    +0.000 A 
ATOM     10  C   UNL     1       0.399   4.009  -0.324  0.00  0.00    +0.000 A 
ATOM     11  C   UNL     1      -1.714   3.659  -1.432  0.00  0.00    +0.000 A 
ATOM     12  C   UNL     1      -0.810   4.528  -0.803  0.00  0.00    +0.000 A 
ATOM     13  C   UNL     1       3.599   0.186  -0.211  0.00  0.00    +0.000 A 
ATOM     14  C   UNL     1       2.778   2.612   0.974  0.00  0.00    +0.000 A 
ATOM     15  C   UNL     1       4.362   0.812   0.748  0.00  0.00    +0.000 A 
ATOM     16  C   UNL     1       3.960   1.989   1.328  0.00  0.00    +0.000 A 
ATOM     17  C   UNL     1      -2.934   4.160  -1.916  0.00  0.00    +0.000 A 
ATOM     18  C   UNL     1      -1.138   5.887  -0.673  0.00  0.00    +0.000 A 
ATOM     19  C   UNL     1      -3.249   5.512  -1.779  0.00  0.00    +0.000 A 
ATOM     20  C   UNL     1       5.858   1.410   2.191  0.00  0.00    +0.000 C 
ATOM     21  C   UNL     1      -2.352   6.376  -1.158  0.00  0.00    +0.000 A 
ENDROOT
BRANCH  17  22
ATOM     22  O   UNL     1      -3.834   3.335  -2.531  0.00  0.00    +0.000 OA
ATOM     23  C   UNL     1      -4.969   2.936  -1.769  0.00  0.00    +0.000 C 
ENDBRANCH  17  22
BRANCH  19  24
ATOM     24  O   UNL     1      -4.431   6.000  -2.249  0.00  0.00    +0.000 OA
ATOM     25  C   UNL     1      -5.277   6.664  -1.311  0.00  0.00    +0.000 C 
ENDBRANCH  19  24
TORSDOF 2
ENDMDL
MODEL 3
REMARK VINA RESULT:    -8.022      1.178      7.640
REMARK INTER + INTRA:          -8.960
REMARK INTER:                  -8.619
REMARK INTRA:                  -0.342
REMARK CONF_INDEPENDENT:        0.597
REMARK UNBOUND:                 0.342
REMARK  Name = 2353
REMARK  4 active torsions:
REMARK  status: ('A' for Active; 'I' for Inactive)
REMARK    1  A    between atoms: O_3  and  C_19
REMARK    2  A    between atoms: O_3  and  C_24
REMARK    3  A    between atoms: O_4  and  C_21
REMARK    4  A    between atoms: O_4  and  C_25
REMARK                            x       y       z     vdW  Elec       q    Type
REMARK                         _______ _______ _______ _____ _____    ______ ____
ROOT
ATOM      1  O   UNL     1      -4.291   5.624  -2.250  0.00  0.00    +0.000 OA
ATOM      2  O   UNL     1      -4.495   3.226  -2.320  0.00  0.00    +0.000 OA
ATOM      3  N   UNL     1       1.130   3.144   0.002  0.00  0.00    +0.000 N 
ATOM      4  C   UNL     1       0.965   4.535   0.496  0.00  0.00    +0.000 C 
ATOM      5  C   UNL     1       0.375   5.401  -0.601  0.00  0.00    +0.000 C 
ATOM      6  C   UNL     1       0.168   2.545  -0.757  0.00  0.00    +0.000 A 
ATOM      7  C   UNL     1      -0.917   4.785  -1.060  0.00  0.00    +0.000 A 
ATOM      8  C   UNL     1      -1.004   3.366  -1.118  0.00  0.00    +0.000 A 
ATOM      9  C   UNL     1       2.244   2.473   0.376  0.00  0.00    +0.000 A 
ATOM     10  C   UNL     1       0.360   1.216  -1.172  0.00  0.00    +0.000 A 
ATOM     11  C   UNL     1       2.472   1.154  -0.009  0.00  0.00    +0.000 A 
ATOM     12  C   UNL     1       1.510   0.509  -0.803  0.00  0.00    +0.000 A 
ATOM     13  C   UNL     1      -1.988   5.607  -1.444  0.00  0.00    +0.000 A 
ATOM     14  C   UNL     1      -2.222   2.796  -1.538  0.00  0.00    +0.000 A 
ATOM     15  C   UNL     1      -3.151   4.995  -1.854  0.00  0.00    +0.000 A 
ATOM     16  C   UNL     1      -3.266   3.628  -1.894  0.00  0.00    +0.000 A 
ATOM     17  C   UNL     1       3.631   0.460   0.375  0.00  0.00    +0.000 A 
ATOM     18  C   UNL     1       1.727  -0.820  -1.203  0.00  0.00    +0.000 A 
ATOM     19  C   UNL     1       3.834  -0.860  -0.028  0.00  0.00    +0.000 A 
ATOM     20  C   UNL     1      -5.139   4.496  -2.543  0.00  0.00    +0.000 C 
ATOM     21  C   UNL     1       2.882  -1.500  -0.817  0.00  0.00    +0.000 A 
ENDROOT
BRANCH  17  22
ATOM     22  O   UNL     1       4.584   1.063   1.148  0.00  0.00    +0.000 OA
ATOM     23  C   UNL     1       5.551   1.861   0.473  0.00  0.00    +0.000 C 
ENDBRANCH  17  22
BRANCH  19  24
ATOM     24  O   UNL     1       4.958  -1.535   0.342  0.00  0.00    +0.000 OA
ATOM     25  C   UNL     1       5.120  -2.856  -0.171  0.00  0.00    +0.000 C 
ENDBRANCH  19  24
TORSDOF 2
ENDMDL
MODEL 4
REMARK VINA RESULT:    -7.820      5.094      6.804
REMARK INTER + INTRA:          -8.769
REMARK INTER:                  -8.416
REMARK INTRA:                  -0.353
REMARK CONF_INDEPENDENT:        0.597
REMARK UNBOUND:                 0.353
REMARK  Name = 2353
REMARK  4 active torsions:
REMARK  status: ('A' for Active; 'I' for Inactive)
REMARK    1  A    between atoms: O_3  and  C_19
REMARK    2  A    between atoms: O_3  and  C_24
REMARK    3  A    between atoms: O_4  and  C_21
REMARK    4  A    between atoms: O_4  and  C_25
REMARK                            x       y       z     vdW  Elec       q    Type
REMARK                         _______ _______ _______ _____ _____    ______ ____
ROOT
ATOM      1  O   UNL     1      -2.522   0.369  -7.130  0.00  0.00    +0.000 OA
ATOM      2  O   UNL     1      -0.710   0.812  -5.608  0.00  0.00    +0.000 OA
ATOM      3  N   UNL     1      -5.056   2.000  -1.515  0.00  0.00    +0.000 N 
ATOM      4  C   UNL     1      -6.040   1.221  -2.308  0.00  0.00    +0.000 C 
ATOM      5  C   UNL     1      -5.944   1.612  -3.771  0.00  0.00    +0.000 C 
ATOM      6  C   UNL     1      -3.790   2.218  -1.976  0.00  0.00    +0.000 A 
ATOM      7  C   UNL     1      -4.528   1.411  -4.232  0.00  0.00    +0.000 A 
ATOM      8  C   UNL     1      -3.474   1.704  -3.323  0.00  0.00    +0.000 A 
ATOM      9  C   UNL     1      -5.440   2.441  -0.295  0.00  0.00    +0.000 A 
ATOM     10  C   UNL     1      -2.888   2.936  -1.172  0.00  0.00    +0.000 A 
ATOM     11  C   UNL     1      -4.577   3.152   0.536  0.00  0.00    +0.000 A 
ATOM     12  C   UNL     1      -3.271   3.407   0.089  0.00  0.00    +0.000 A 
ATOM     13  C   UNL     1      -4.272   0.970  -5.540  0.00  0.00    +0.000 A 
ATOM     14  C   UNL     1      -2.149   1.501  -3.759  0.00  0.00    +0.000 A 
ATOM     15  C   UNL     1      -2.959   0.797  -5.915  0.00  0.00    +0.000 A 
ATOM     16  C   UNL     1      -1.927   1.051  -5.047  0.00  0.00    +0.000 A 
ATOM     17  C   UNL     1      -4.979   3.614   1.801  0.00  0.00    +0.000 A 
ATOM     18  C   UNL     1      -2.390   4.126   0.914  0.00  0.00    +0.000 A 
ATOM     19  C   UNL     1      -4.093   4.325   2.610  0.00  0.00    +0.000 A 
ATOM     20  C   UNL     1      -1.095   0.380  -6.928  0.00  0.00    +0.000 C 
ATOM     21  C   UNL     1      -2.799   4.581   2.167  0.00  0.00    +0.000 A 
ENDROOT
BRANCH  17  22
ATOM     22  O   UNL     1      -6.244   3.378   2.261  0.00  0.00    +0.000 OA
ATOM     23  C   UNL     1      -7.188   4.435   2.121  0.00  0.00    +0.000 C 
ENDBRANCH  17  22
BRANCH  19  24
ATOM     24  O   UNL     1      -4.482   4.775   3.836  0.00  0.00    +0.000 OA
ATOM     25  C   UNL     1      -3.551   4.625   4.907  0.00  0.00    +0.000 C 
ENDBRANCH  19  24
TORSDOF 2
ENDMDL
MODEL 5
REMARK VINA RESULT:    -7.792      1.464      2.970
REMARK INTER + INTRA:          -8.752
REMARK INTER:                  -8.388
REMARK INTRA:                  -0.364
REMARK CONF_INDEPENDENT:        0.597
REMARK UNBOUND:                 0.364
REMARK  Name = 2353
REMARK  4 active torsions:
REMARK  status: ('A' for Active; 'I' for Inactive)
REMARK    1  A    between atoms: O_3  and  C_19
REMARK    2  A    between atoms: O_3  and  C_24
REMARK    3  A    between atoms: O_4  and  C_21
REMARK    4  A    between atoms: O_4  and  C_25
REMARK                            x       y       z     vdW  Elec       q    Type
REMARK                         _______ _______ _______ _____ _____    ______ ____
ROOT
ATOM      1  O   UNL     1       4.284  -2.222  -0.830  0.00  0.00    +0.000 OA
ATOM      2  O   UNL     1       4.155  -0.335   0.659  0.00  0.00    +0.000 OA
ATOM      3  N   UNL     1      -1.012   1.021  -2.258  0.00  0.00    +0.000 N 
ATOM      4  C   UNL     1      -1.133  -0.382  -2.731  0.00  0.00    +0.000 C 
ATOM      5  C   UNL     1       0.201  -0.854  -3.278  0.00  0.00    +0.000 C 
ATOM      6  C   UNL     1       0.083   1.439  -1.560  0.00  0.00    +0.000 A 
ATOM      7  C   UNL     1       1.247  -0.683  -2.212  0.00  0.00    +0.000 A 
ATOM      8  C   UNL     1       1.164   0.454  -1.362  0.00  0.00    +0.000 A 
ATOM      9  C   UNL     1      -2.049   1.856  -2.496  0.00  0.00    +0.000 A 
ATOM     10  C   UNL     1       0.133   2.769  -1.108  0.00  0.00    +0.000 A 
ATOM     11  C   UNL     1      -2.043   3.180  -2.062  0.00  0.00    +0.000 A 
ATOM     12  C   UNL     1      -0.927   3.650  -1.353  0.00  0.00    +0.000 A 
ATOM     13  C   UNL     1       2.287  -1.619  -2.094  0.00  0.00    +0.000 A 
ATOM     14  C   UNL     1       2.141   0.601  -0.358  0.00  0.00    +0.000 A 
ATOM     15  C   UNL     1       3.219  -1.420  -1.101  0.00  0.00    +0.000 A 
ATOM     16  C   UNL     1       3.145  -0.344  -0.254  0.00  0.00    +0.000 A 
ATOM     17  C   UNL     1      -3.119   4.047  -2.314  0.00  0.00    +0.000 A 
ATOM     18  C   UNL     1      -0.903   4.983  -0.912  0.00  0.00    +0.000 A 
ATOM     19  C   UNL     1      -3.083   5.369  -1.870  0.00  0.00    +0.000 A 
ATOM     20  C   UNL     1       4.873  -1.528   0.288  0.00  0.00    +0.000 C 
ATOM     21  C   UNL     1      -1.976   5.837  -1.169  0.00  0.00    +0.000 A 
ENDROOT
BRANCH  17  22
ATOM     22  O   UNL     1      -4.219   3.616  -3.001  0.00  0.00    +0.000 OA
ATOM     23  C   UNL     1      -5.326   3.164  -2.227  0.00  0.00    +0.000 C 
ENDBRANCH  17  22
BRANCH  19  24
ATOM     24  O   UNL     1      -4.125   6.212  -2.114  0.00  0.00    +0.000 OA
ATOM     25  C   UNL     1      -4.999   6.497  -1.023  0.00  0.00    +0.000 C 
ENDBRANCH  19  24
TORSDOF 2
ENDMDL
MODEL 6
REMARK VINA RESULT:    -7.317      1.844      2.648
REMARK INTER + INTRA:          -8.252
REMARK INTER:                  -7.914
REMARK INTRA:                  -0.339
REMARK CONF_INDEPENDENT:        0.597
REMARK UNBOUND:                 0.339
REMARK  Name = 2353
REMARK  4 active torsions:
REMARK  status: ('A' for Active; 'I' for Inactive)
REMARK    1  A    between atoms: O_3  and  C_19
REMARK    2  A    between atoms: O_3  and  C_24
REMARK    3  A    between atoms: O_4  and  C_21
REMARK    4  A    between atoms: O_4  and  C_25
REMARK                            x       y       z     vdW  Elec       q    Type
REMARK                         _______ _______ _______ _____ _____    ______ ____
ROOT
ATOM      1  O   UNL     1       5.261   2.252   1.981  0.00  0.00    +0.000 OA
ATOM      2  O   UNL     1       4.656   0.795   0.161  0.00  0.00    +0.000 OA
ATOM      3  N   UNL     1      -0.215   4.388  -0.480  0.00  0.00    +0.000 N 
ATOM      4  C   UNL     1       0.476   5.483   0.247  0.00  0.00    +0.000 C 
ATOM      5  C   UNL     1       1.124   4.934   1.504  0.00  0.00    +0.000 C 
ATOM      6  C   UNL     1       0.358   3.157  -0.612  0.00  0.00    +0.000 A 
ATOM      7  C   UNL     1       2.047   3.812   1.120  0.00  0.00    +0.000 A 
ATOM      8  C   UNL     1       1.656   2.949   0.059  0.00  0.00    +0.000 A 
ATOM      9  C   UNL     1      -1.408   4.669  -1.053  0.00  0.00    +0.000 A 
ATOM     10  C   UNL     1      -0.325   2.164  -1.338  0.00  0.00    +0.000 A 
ATOM     11  C   UNL     1      -2.115   3.717  -1.785  0.00  0.00    +0.000 A 
ATOM     12  C   UNL     1      -1.564   2.434  -1.930  0.00  0.00    +0.000 A 
ATOM     13  C   UNL     1       3.248   3.621   1.821  0.00  0.00    +0.000 A 
ATOM     14  C   UNL     1       2.532   1.907  -0.304  0.00  0.00    +0.000 A 
ATOM     15  C   UNL     1       4.062   2.582   1.430  0.00  0.00    +0.000 A 
ATOM     16  C   UNL     1       3.715   1.752   0.393  0.00  0.00    +0.000 A 
ATOM     17  C   UNL     1      -3.356   4.009  -2.375  0.00  0.00    +0.000 A 
ATOM     18  C   UNL     1      -2.266   1.462  -2.661  0.00  0.00    +0.000 A 
ATOM     19  C   UNL     1      -4.043   3.034  -3.099  0.00  0.00    +0.000 A 
ATOM     20  C   UNL     1       5.633   1.118   1.171  0.00  0.00    +0.000 C 
ATOM     21  C   UNL     1      -3.499   1.761  -3.242  0.00  0.00    +0.000 A 
ENDROOT
BRANCH  17  22
ATOM     22  O   UNL     1      -3.915   5.249  -2.250  0.00  0.00    +0.000 OA
ATOM     23  C   UNL     1      -5.022   5.371  -1.362  0.00  0.00    +0.000 C 
ENDBRANCH  17  22
BRANCH  19  24
ATOM     24  O   UNL     1      -5.247   3.314  -3.672  0.00  0.00    +0.000 OA
ATOM     25  C   UNL     1      -5.885   2.259  -4.390  0.00  0.00    +0.000 C 
ENDBRANCH  19  24
TORSDOF 2
ENDMDL
MODEL 7
REMARK VINA RESULT:    -7.287      1.592      2.219
REMARK INTER + INTRA:          -8.236
REMARK INTER:                  -7.883
REMARK INTRA:                  -0.352
REMARK CONF_INDEPENDENT:        0.597
REMARK UNBOUND:                 0.352
REMARK  Name = 2353
REMARK  4 active torsions:
REMARK  status: ('A' for Active; 'I' for Inactive)
REMARK    1  A    between atoms: O_3  and  C_19
REMARK    2  A    between atoms: O_3  and  C_24
REMARK    3  A    between atoms: O_4  and  C_21
REMARK    4  A    between atoms: O_4  and  C_25
REMARK                            x       y       z     vdW  Elec       q    Type
REMARK                         _______ _______ _______ _____ _____    ______ ____
ROOT
ATOM      1  O   UNL     1       2.289  -2.612  -1.959  0.00  0.00    +0.000 OA
ATOM      2  O   UNL     1       0.136  -2.752  -3.029  0.00  0.00    +0.000 OA
ATOM      3  N   UNL     1      -0.401   3.159  -1.678  0.00  0.00    +0.000 N 
ATOM      4  C   UNL     1       1.073   3.278  -1.541  0.00  0.00    +0.000 C 
ATOM      5  C   UNL     1       1.604   2.130  -0.703  0.00  0.00    +0.000 C 
ATOM      6  C   UNL     1      -0.993   1.951  -1.906  0.00  0.00    +0.000 A 
ATOM      7  C   UNL     1       1.178   0.835  -1.334  0.00  0.00    +0.000 A 
ATOM      8  C   UNL     1      -0.108   0.769  -1.938  0.00  0.00    +0.000 A 
ATOM      9  C   UNL     1      -1.131   4.295  -1.624  0.00  0.00    +0.000 A 
ATOM     10  C   UNL     1      -2.389   1.897  -2.059  0.00  0.00    +0.000 A 
ATOM     11  C   UNL     1      -2.517   4.288  -1.776  0.00  0.00    +0.000 A 
ATOM     12  C   UNL     1      -3.162   3.062  -1.997  0.00  0.00    +0.000 A 
ATOM     13  C   UNL     1       2.032  -0.279  -1.295  0.00  0.00    +0.000 A 
ATOM     14  C   UNL     1      -0.496  -0.445  -2.538  0.00  0.00    +0.000 A 
ATOM     15  C   UNL     1       1.598  -1.442  -1.890  0.00  0.00    +0.000 A 
ATOM     16  C   UNL     1       0.371  -1.521  -2.498  0.00  0.00    +0.000 A 
ATOM     17  C   UNL     1      -3.274   5.469  -1.714  0.00  0.00    +0.000 A 
ATOM     18  C   UNL     1      -4.559   3.037  -2.148  0.00  0.00    +0.000 A 
ATOM     19  C   UNL     1      -4.660   5.431  -1.867  0.00  0.00    +0.000 A 
ATOM     20  C   UNL     1       1.356  -3.438  -2.684  0.00  0.00    +0.000 C 
ATOM     21  C   UNL     1      -5.303   4.216  -2.084  0.00  0.00    +0.000 A 
ENDROOT
BRANCH  17  22
ATOM     22  O   UNL     1      -2.671   6.677  -1.501  0.00  0.00    +0.000 OA
ATOM     23  C   UNL     1      -2.819   7.252  -0.206  0.00  0.00    +0.000 C 
ENDBRANCH  17  22
BRANCH  19  24
ATOM     24  O   UNL     1      -5.398   6.575  -1.806  0.00  0.00    +0.000 OA
ATOM     25  C   UNL     1      -6.319   6.696  -0.724  0.00  0.00    +0.000 C 
ENDBRANCH  19  24
TORSDOF 2
ENDMDL
MODEL 8
REMARK VINA RESULT:    -7.111      5.750      8.138
REMARK INTER + INTRA:          -8.014
REMARK INTER:                  -7.707
REMARK INTRA:                  -0.307
REMARK CONF_INDEPENDENT:        0.597
REMARK UNBOUND:                 0.307
REMARK  Name = 2353
REMARK  4 active torsions:
REMARK  status: ('A' for Active; 'I' for Inactive)
REMARK    1  A    between atoms: O_3  and  C_19
REMARK    2  A    between atoms: O_3  and  C_24
REMARK    3  A    between atoms: O_4  and  C_21
REMARK    4  A    between atoms: O_4  and  C_25
REMARK                            x       y       z     vdW  Elec       q    Type
REMARK                         _______ _______ _______ _____ _____    ______ ____
ROOT
ATOM      1  O   UNL     1      -4.455   2.342  -4.177  0.00  0.00    +0.000 OA
ATOM      2  O   UNL     1      -3.285   1.177  -2.424  0.00  0.00    +0.000 OA
ATOM      3  N   UNL     1      -5.764   5.284   1.323  0.00  0.00    +0.000 N 
ATOM      4  C   UNL     1      -6.821   5.583   0.323  0.00  0.00    +0.000 C 
ATOM      5  C   UNL     1      -6.194   5.765  -1.046  0.00  0.00    +0.000 C 
ATOM      6  C   UNL     1      -4.740   4.430   1.034  0.00  0.00    +0.000 A 
ATOM      7  C   UNL     1      -5.402   4.533  -1.382  0.00  0.00    +0.000 A 
ATOM      8  C   UNL     1      -4.698   3.877  -0.334  0.00  0.00    +0.000 A 
ATOM      9  C   UNL     1      -5.880   5.847   2.547  0.00  0.00    +0.000 A 
ATOM     10  C   UNL     1      -3.782   4.157   2.027  0.00  0.00    +0.000 A 
ATOM     11  C   UNL     1      -4.956   5.600   3.561  0.00  0.00    +0.000 A 
ATOM     12  C   UNL     1      -3.882   4.737   3.297  0.00  0.00    +0.000 A 
ATOM     13  C   UNL     1      -5.348   4.072  -2.707  0.00  0.00    +0.000 A 
ATOM     14  C   UNL     1      -3.967   2.715  -0.654  0.00  0.00    +0.000 A 
ATOM     15  C   UNL     1      -4.613   2.938  -2.963  0.00  0.00    +0.000 A 
ATOM     16  C   UNL     1      -3.945   2.276  -1.964  0.00  0.00    +0.000 A 
ATOM     17  C   UNL     1      -5.075   6.189   4.831  0.00  0.00    +0.000 A 
ATOM     18  C   UNL     1      -2.940   4.481   4.307  0.00  0.00    +0.000 A 
ATOM     19  C   UNL     1      -4.134   5.926   5.826  0.00  0.00    +0.000 A 
ATOM     20  C   UNL     1      -3.613   1.226  -3.826  0.00  0.00    +0.000 C 
ATOM     21  C   UNL     1      -3.066   5.072   5.564  0.00  0.00    +0.000 A 
ENDROOT
BRANCH  17  22
ATOM     22  O   UNL     1      -6.112   7.033   5.116  0.00  0.00    +0.000 OA
ATOM     23  C   UNL     1      -7.409   6.450   5.211  0.00  0.00    +0.000 C 
ENDBRANCH  17  22
BRANCH  19  24
ATOM     24  O   UNL     1      -4.246   6.497   7.058  0.00  0.00    +0.000 OA
ATOM     25  C   UNL     1      -3.189   7.360   7.472  0.00  0.00    +0.000 C 
ENDBRANCH  19  24
TORSDOF 2
ENDMDL
MODEL 9
REMARK VINA RESULT:    -6.633      5.375      8.086
REMARK INTER + INTRA:          -7.590
REMARK INTER:                  -7.230
REMARK INTRA:                  -0.360
REMARK CONF_INDEPENDENT:        0.597
REMARK UNBOUND:                 0.360
REMARK  Name = 2353
REMARK  4 active torsions:
REMARK  status: ('A' for Active; 'I' for Inactive)
REMARK    1  A    between atoms: O_3  and  C_19
REMARK    2  A    between atoms: O_3  and  C_24
REMARK    3  A    between atoms: O_4  and  C_21
REMARK    4  A    between atoms: O_4  and  C_25
REMARK                            x       y       z     vdW  Elec       q    Type
REMARK                         _______ _______ _______ _____ _____    ______ ____
ROOT
ATOM      1  O   UNL     1      -6.098   2.264  -3.613  0.00  0.00    +0.000 OA
ATOM      2  O   UNL     1      -3.692   2.266  -3.523  0.00  0.00    +0.000 OA
ATOM      3  N   UNL     1      -4.375   3.907   2.298  0.00  0.00    +0.000 N 
ATOM      4  C   UNL     1      -5.762   3.375   2.303  0.00  0.00    +0.000 C 
ATOM      5  C   UNL     1      -6.496   3.849   1.063  0.00  0.00    +0.000 C 
ATOM      6  C   UNL     1      -3.631   3.929   1.155  0.00  0.00    +0.000 A 
ATOM      7  C   UNL     1      -5.713   3.432  -0.150  0.00  0.00    +0.000 A 
ATOM      8  C   UNL     1      -4.293   3.466  -0.081  0.00  0.00    +0.000 A 
ATOM      9  C   UNL     1      -3.856   4.319   3.477  0.00  0.00    +0.000 A 
ATOM     10  C   UNL     1      -2.313   4.414   1.212  0.00  0.00    +0.000 A 
ATOM     11  C   UNL     1      -2.553   4.802   3.579  0.00  0.00    +0.000 A 
ATOM     12  C   UNL     1      -1.762   4.854   2.421  0.00  0.00    +0.000 A 
ATOM     13  C   UNL     1      -6.386   3.050  -1.322  0.00  0.00    +0.000 A 
ATOM     14  C   UNL     1      -3.565   3.064  -1.218  0.00  0.00    +0.000 A 
ATOM     15  C   UNL     1      -5.625   2.674  -2.405  0.00  0.00    +0.000 A 
ATOM     16  C   UNL     1      -4.254   2.676  -2.352  0.00  0.00    +0.000 A 
ATOM     17  C   UNL     1      -2.017   5.235   4.804  0.00  0.00    +0.000 A 
ATOM     18  C   UNL     1      -0.448   5.341   2.506  0.00  0.00    +0.000 A 
ATOM     19  C   UNL     1      -0.710   5.717   4.875  0.00  0.00    +0.000 A 
ATOM     20  C   UNL     1      -4.866   2.006  -4.317  0.00  0.00    +0.000 C 
ATOM     21  C   UNL     1       0.075   5.770   3.727  0.00  0.00    +0.000 A 
ENDROOT
BRANCH  17  22
ATOM     22  O   UNL     1      -2.765   5.196   5.947  0.00  0.00    +0.000 OA
ATOM     23  C   UNL     1      -2.843   3.944   6.623  0.00  0.00    +0.000 C 
ENDBRANCH  17  22
BRANCH  19  24
ATOM     24  O   UNL     1      -0.189   6.138   6.061  0.00  0.00    +0.000 OA
ATOM     25  C   UNL     1       0.711   5.252   6.725  0.00  0.00    +0.000 C 
ENDBRANCH  19  24
TORSDOF 2
ENDMDL
