MODEL 1
REMARK VINA RESULT:   344.002      0.000      0.000
REMARK INTER + INTRA:         343.945
REMARK INTER:                 343.406
REMARK INTRA:                   0.539
REMARK CONF_INDEPENDENT:        0.597
REMARK UNBOUND:                -0.539
REMARK  Name = 2353
REMARK  4 active torsions:
REMARK  status: ('A' for Active; 'I' for Inactive)
REMARK    1  A    between atoms: O_3  and  C_19
REMARK    2  A    between atoms: O_3  and  C_24
REMARK    3  A    between atoms: O_4  and  C_21
REMARK    4  A    between atoms: O_4  and  C_25
REMARK                            x       y       z     vdW  Elec       q    Type
REMARK                         _______ _______ _______ _____ _____    ______ ____
ROOT
ATOM      1  O   UNL     1       5.239   1.471   3.478  0.00  0.00    +0.000 OA
ATOM      2  O   UNL     1       4.794   1.841   1.141  0.00  0.00    +0.000 OA
ATOM      3  N   UNL     1      -0.038   5.016   3.043  0.00  0.00    +0.000 N 
ATOM      4  C   UNL     1       0.583   5.193   4.381  0.00  0.00    +0.000 C 
ATOM      5  C   UNL     1       1.133   3.866   4.869  0.00  0.00    +0.000 C 
ATOM      6  C   UNL     1       0.553   4.244   2.086  0.00  0.00    +0.000 A 
ATOM      7  C   UNL     1       2.093   3.334   3.843  0.00  0.00    +0.000 A 
ATOM      8  C   UNL     1       1.795   3.543   2.468  0.00  0.00    +0.000 A 
ATOM      9  C   UNL     1      -1.183   5.690   2.788  0.00  0.00    +0.000 A 
ATOM     10  C   UNL     1      -0.061   4.135   0.826  0.00  0.00    +0.000 A 
ATOM     11  C   UNL     1      -1.822   5.615   1.552  0.00  0.00    +0.000 A 
ATOM     12  C   UNL     1      -1.251   4.818   0.548  0.00  0.00    +0.000 A 
ATOM     13  C   UNL     1       3.235   2.627   4.251  0.00  0.00    +0.000 A 
ATOM     14  C   UNL     1       2.705   3.051   1.511  0.00  0.00    +0.000 A 
ATOM     15  C   UNL     1       4.086   2.163   3.273  0.00  0.00    +0.000 A 
ATOM     16  C   UNL     1       3.830   2.373   1.942  0.00  0.00    +0.000 A 
ATOM     17  C   UNL     1      -3.014   6.311   1.291  0.00  0.00    +0.000 A 
ATOM     18  C   UNL     1      -1.885   4.728  -0.703  0.00  0.00    +0.000 A 
ATOM     19  C   UNL     1      -3.632   6.214   0.045  0.00  0.00    +0.000 A 
ATOM     20  C   UNL     1       5.683   1.271   2.121  0.00  0.00    +0.000 C 
ATOM     21  C   UNL     1      -3.069   5.423  -0.952  0.00  0.00    +0.000 A 
ENDROOT
BRANCH  17  22
ATOM     22  O   UNL     1      -3.591   7.094   2.251  0.00  0.00    +0.000 OA
ATOM     23  C   UNL     1      -4.988   7.340   2.127  0.00  0.00    +0.000 C 
ENDBRANCH  17  22
BRANCH  19  24
ATOM     24  O   UNL     1      -4.789   6.887  -0.211  0.00  0.00    +0.000 OA
ATOM     25  C   UNL     1      -5.808   6.181  -0.917  0.00  0.00    +0.000 C 
ENDBRANCH  19  24
TORSDOF 2
ENDMDL
