MODEL 1
REMARK VINA RESULT:    -9.215      0.000      0.000
REMARK INTER + INTRA:         -11.543
REMARK INTER:                 -10.110
REMARK INTRA:                  -1.433
REMARK CONF_INDEPENDENT:        0.895
REMARK UNBOUND:                 1.433
REMARK  Name = 
REMARK  3 active torsions:
REMARK  status: ('A' for Active; 'I' for Inactive)
REMARK    1  A    between atoms: C_5  and  C_6
REMARK    2  A    between atoms: C_9  and  N_10
REMARK    3  A    between atoms: C_21  and  C_22
REMARK                            x       y       z     vdW  Elec       q    Type
REMARK                         _______ _______ _______ _____ _____    ______ ____
ROOT
ATOM      1  C   UNL     1       3.291   1.907  -4.114  0.00  0.00    +0.000 A 
ATOM      2  N   UNL     1       3.341   0.580  -3.859  0.00  0.00    +0.000 NA
ATOM      3  N   UNL     1       3.240   0.407  -2.543  0.00  0.00    +0.000 N 
ATOM      4  C   UNL     1       2.768  -0.675  -1.886  0.00  0.00    +0.000 A 
ATOM      5  C   UNL     1       2.010  -0.570  -0.729  0.00  0.00    +0.000 A 
ATOM      6  C   UNL     1       2.064   0.633  -0.037  0.00  0.00    +0.000 A 
ATOM      7  N   UNL     1       2.749   1.639  -0.633  0.00  0.00    +0.000 NA
ATOM      8  C   UNL     1       2.974   1.605  -1.968  0.00  0.00    +0.000 A 
ATOM      9  C   UNL     1       3.143   2.601  -2.920  0.00  0.00    +0.000 A 
ENDROOT
BRANCH   9  10
ATOM     10  C   UNL     1       3.597   3.960  -2.636  0.00  0.00    +0.000 A 
ATOM     11  C   UNL     1       4.934   4.205  -2.354  0.00  0.00    +0.000 A 
ATOM     12  C   UNL     1       5.524   5.438  -2.598  0.00  0.00    +0.000 A 
ATOM     13  N   UNL     1       4.694   6.504  -2.664  0.00  0.00    +0.000 NA
ATOM     14  C   UNL     1       3.364   6.294  -2.820  0.00  0.00    +0.000 A 
ATOM     15  C   UNL     1       2.553   7.392  -3.081  0.00  0.00    +0.000 A 
ATOM     16  C   UNL     1       1.219   7.172  -3.395  0.00  0.00    +0.000 A 
ATOM     17  C   UNL     1       0.946   5.987  -4.069  0.00  0.00    +0.000 A 
ATOM     18  C   UNL     1       1.796   4.893  -3.973  0.00  0.00    +0.000 A 
ATOM     19  C   UNL     1       2.851   5.032  -3.083  0.00  0.00    +0.000 A 
ENDBRANCH   9  10
BRANCH   5  20
ATOM     20  C   UNL     1       1.274  -1.726  -0.200  0.00  0.00    +0.000 A 
ATOM     21  C   UNL     1       0.268  -1.570   0.739  0.00  0.00    +0.000 A 
ATOM     22  C   UNL     1      -0.068  -2.563   1.619  0.00  0.00    +0.000 A 
ATOM     23  C   UNL     1       0.689  -3.726   1.612  0.00  0.00    +0.000 A 
ATOM     24  C   UNL     1       1.299  -4.056   0.408  0.00  0.00    +0.000 A 
ATOM     25  C   UNL     1       1.792  -3.002  -0.351  0.00  0.00    +0.000 A 
BRANCH  23  26
ATOM     26  N   UNL     1       0.535  -4.675   2.669  0.00  0.00    +0.000 N 
ATOM     27  C   UNL     1      -0.380  -5.782   2.404  0.00  0.00    +0.000 C 
ATOM     28  C   UNL     1      -0.676  -6.412   3.760  0.00  0.00    +0.000 C 
ATOM     29  N   UNL     1      -1.463  -5.444   4.520  0.00  0.00    +0.000 NA
ATOM     30  C   UNL     1      -0.809  -4.146   4.562  0.00  0.00    +0.000 C 
ATOM     31  C   UNL     1       0.616  -4.246   4.062  0.00  0.00    +0.000 C 
ATOM     32  H   UNL     1      -1.580  -5.786   5.474  0.00  0.00    +0.000 HD
ENDBRANCH  23  26
ENDBRANCH   5  20
TORSDOF 3
ENDMDL
MODEL 2
REMARK VINA RESULT:    -8.865      1.960      9.832
REMARK INTER + INTRA:         -11.219
REMARK INTER:                  -9.760
REMARK INTRA:                  -1.459
REMARK CONF_INDEPENDENT:        0.895
REMARK UNBOUND:                 1.459
REMARK  Name = 
REMARK  3 active torsions:
REMARK  status: ('A' for Active; 'I' for Inactive)
REMARK    1  A    between atoms: C_5  and  C_6
REMARK    2  A    between atoms: C_9  and  N_10
REMARK    3  A    between atoms: C_21  and  C_22
REMARK                            x       y       z     vdW  Elec       q    Type
REMARK                         _______ _______ _______ _____ _____    ______ ____
ROOT
ATOM      1  C   UNL     1       2.255  -4.274   0.959  0.00  0.00    +0.000 A 
ATOM      2  N   UNL     1       2.832  -3.696  -0.120  0.00  0.00    +0.000 NA
ATOM      3  N   UNL     1       2.114  -2.625  -0.451  0.00  0.00    +0.000 N 
ATOM      4  C   UNL     1       2.534  -1.516  -1.097  0.00  0.00    +0.000 A 
ATOM      5  C   UNL     1       2.074  -0.248  -0.774  0.00  0.00    +0.000 A 
ATOM      6  C   UNL     1       0.893  -0.164  -0.045  0.00  0.00    +0.000 A 
ATOM      7  N   UNL     1       0.375  -1.335   0.397  0.00  0.00    +0.000 NA
ATOM      8  C   UNL     1       1.167  -2.429   0.498  0.00  0.00    +0.000 A 
ATOM      9  C   UNL     1       1.136  -3.540   1.330  0.00  0.00    +0.000 A 
ENDROOT
BRANCH   9  10
ATOM     10  C   UNL     1      -0.057  -4.045   2.006  0.00  0.00    +0.000 A 
ATOM     11  C   UNL     1      -0.177  -5.398   2.291  0.00  0.00    +0.000 A 
ATOM     12  C   UNL     1      -0.956  -5.863   3.342  0.00  0.00    +0.000 A 
ATOM     13  N   UNL     1      -1.942  -5.043   3.772  0.00  0.00    +0.000 NA
ATOM     14  C   UNL     1      -1.918  -3.737   3.411  0.00  0.00    +0.000 A 
ATOM     15  C   UNL     1      -2.822  -2.872   4.017  0.00  0.00    +0.000 A 
ATOM     16  C   UNL     1      -2.704  -1.510   3.771  0.00  0.00    +0.000 A 
ATOM     17  C   UNL     1      -1.413  -1.048   3.547  0.00  0.00    +0.000 A 
ATOM     18  C   UNL     1      -0.416  -1.897   3.082  0.00  0.00    +0.000 A 
ATOM     19  C   UNL     1      -0.827  -3.182   2.758  0.00  0.00    +0.000 A 
ENDBRANCH   9  10
BRANCH   5  20
ATOM     20  C   UNL     1       2.747   0.954  -1.283  0.00  0.00    +0.000 A 
ATOM     21  C   UNL     1       2.975   2.050  -0.468  0.00  0.00    +0.000 A 
ATOM     22  C   UNL     1       3.096   3.319  -0.970  0.00  0.00    +0.000 A 
ATOM     23  C   UNL     1       2.899   3.504  -2.331  0.00  0.00    +0.000 A 
ATOM     24  C   UNL     1       3.179   2.415  -3.147  0.00  0.00    +0.000 A 
ATOM     25  C   UNL     1       2.851   1.161  -2.648  0.00  0.00    +0.000 A 
BRANCH  23  26
ATOM     26  N   UNL     1       2.770   4.828  -2.851  0.00  0.00    +0.000 N 
ATOM     27  C   UNL     1       2.546   5.883  -1.866  0.00  0.00    +0.000 C 
ATOM     28  C   UNL     1       2.060   7.093  -2.653  0.00  0.00    +0.000 C 
ATOM     29  N   UNL     1       0.731   6.766  -3.166  0.00  0.00    +0.000 NA
ATOM     30  C   UNL     1       0.739   5.508  -3.893  0.00  0.00    +0.000 C 
ATOM     31  C   UNL     1       2.157   5.049  -4.158  0.00  0.00    +0.000 C 
ATOM     32  H   UNL     1       0.425   7.510  -3.793  0.00  0.00    +0.000 HD
ENDBRANCH  23  26
ENDBRANCH   5  20
TORSDOF 3
ENDMDL
MODEL 3
REMARK VINA RESULT:    -8.779      1.839      2.377
REMARK INTER + INTRA:         -11.149
REMARK INTER:                  -9.673
REMARK INTRA:                  -1.475
REMARK CONF_INDEPENDENT:        0.895
REMARK UNBOUND:                 1.475
REMARK  Name = 
REMARK  3 active torsions:
REMARK  status: ('A' for Active; 'I' for Inactive)
REMARK    1  A    between atoms: C_5  and  C_6
REMARK    2  A    between atoms: C_9  and  N_10
REMARK    3  A    between atoms: C_21  and  C_22
REMARK                            x       y       z     vdW  Elec       q    Type
REMARK                         _______ _______ _______ _____ _____    ______ ____
ROOT
ATOM      1  C   UNL     1       2.791   3.341  -2.588  0.00  0.00    +0.000 A 
ATOM      2  N   UNL     1       2.300   2.124  -2.915  0.00  0.00    +0.000 NA
ATOM      3  N   UNL     1       2.745   1.244  -2.020  0.00  0.00    +0.000 N 
ATOM      4  C   UNL     1       2.170   0.079  -1.650  0.00  0.00    +0.000 A 
ATOM      5  C   UNL     1       2.190  -0.377  -0.340  0.00  0.00    +0.000 A 
ATOM      6  C   UNL     1       3.134   0.179   0.515  0.00  0.00    +0.000 A 
ATOM      7  N   UNL     1       3.859   1.211   0.021  0.00  0.00    +0.000 NA
ATOM      8  C   UNL     1       3.395   1.915  -1.039  0.00  0.00    +0.000 A 
ATOM      9  C   UNL     1       3.568   3.232  -1.443  0.00  0.00    +0.000 A 
ENDROOT
BRANCH   9  10
ATOM     10  C   UNL     1       4.697   4.080  -1.068  0.00  0.00    +0.000 A 
ATOM     11  C   UNL     1       5.825   4.138  -1.876  0.00  0.00    +0.000 A 
ATOM     12  C   UNL     1       6.658   5.247  -1.898  0.00  0.00    +0.000 A 
ATOM     13  N   UNL     1       6.629   6.049  -0.809  0.00  0.00    +0.000 NA
ATOM     14  C   UNL     1       5.599   5.934   0.065  0.00  0.00    +0.000 A 
ATOM     15  C   UNL     1       5.479   6.891   1.067  0.00  0.00    +0.000 A 
ATOM     16  C   UNL     1       4.346   6.872   1.869  0.00  0.00    +0.000 A 
ATOM     17  C   UNL     1       3.182   6.422   1.258  0.00  0.00    +0.000 A 
ATOM     18  C   UNL     1       3.229   5.580   0.154  0.00  0.00    +0.000 A 
ATOM     19  C   UNL     1       4.493   5.142  -0.211  0.00  0.00    +0.000 A 
ENDBRANCH   9  10
BRANCH   5  20
ATOM     20  C   UNL     1       1.324  -1.483   0.089  0.00  0.00    +0.000 A 
ATOM     21  C   UNL     1       0.424  -1.329   1.130  0.00  0.00    +0.000 A 
ATOM     22  C   UNL     1       0.002  -2.387   1.891  0.00  0.00    +0.000 A 
ATOM     23  C   UNL     1       0.568  -3.631   1.652  0.00  0.00    +0.000 A 
ATOM     24  C   UNL     1       1.032  -3.857   0.362  0.00  0.00    +0.000 A 
ATOM     25  C   UNL     1       1.626  -2.781  -0.286  0.00  0.00    +0.000 A 
BRANCH  23  26
ATOM     26  N   UNL     1       0.346  -4.698   2.575  0.00  0.00    +0.000 N 
ATOM     27  C   UNL     1      -0.774  -5.584   2.269  0.00  0.00    +0.000 C 
ATOM     28  C   UNL     1      -1.051  -6.365   3.548  0.00  0.00    +0.000 C 
ATOM     29  N   UNL     1      -1.577  -5.414   4.525  0.00  0.00    +0.000 NA
ATOM     30  C   UNL     1      -0.700  -4.264   4.670  0.00  0.00    +0.000 C 
ATOM     31  C   UNL     1       0.631  -4.514   3.995  0.00  0.00    +0.000 C 
ATOM     32  H   UNL     1      -1.664  -5.880   5.428  0.00  0.00    +0.000 HD
ENDBRANCH  23  26
ENDBRANCH   5  20
TORSDOF 3
ENDMDL
MODEL 4
REMARK VINA RESULT:    -8.658      2.007     10.357
REMARK INTER + INTRA:         -11.134
REMARK INTER:                  -9.553
REMARK INTRA:                  -1.581
REMARK CONF_INDEPENDENT:        0.895
REMARK UNBOUND:                 1.581
REMARK  Name = 
REMARK  3 active torsions:
REMARK  status: ('A' for Active; 'I' for Inactive)
REMARK    1  A    between atoms: C_5  and  C_6
REMARK    2  A    between atoms: C_9  and  N_10
REMARK    3  A    between atoms: C_21  and  C_22
REMARK                            x       y       z     vdW  Elec       q    Type
REMARK                         _______ _______ _______ _____ _____    ______ ____
ROOT
ATOM      1  C   UNL     1       2.523  -3.187   2.810  0.00  0.00    +0.000 A 
ATOM      2  N   UNL     1       3.275  -2.838   1.741  0.00  0.00    +0.000 NA
ATOM      3  N   UNL     1       2.492  -2.198   0.874  0.00  0.00    +0.000 N 
ATOM      4  C   UNL     1       2.857  -1.282  -0.048  0.00  0.00    +0.000 A 
ATOM      5  C   UNL     1       2.073  -0.178  -0.350  0.00  0.00    +0.000 A 
ATOM      6  C   UNL     1       0.734  -0.225   0.021  0.00  0.00    +0.000 A 
ATOM      7  N   UNL     1       0.353  -1.292   0.763  0.00  0.00    +0.000 NA
ATOM      8  C   UNL     1       1.280  -2.004   1.448  0.00  0.00    +0.000 A 
ATOM      9  C   UNL     1       1.220  -2.746   2.620  0.00  0.00    +0.000 A 
ENDROOT
BRANCH   9  10
ATOM     10  C   UNL     1       0.005  -3.343   3.170  0.00  0.00    +0.000 A 
ATOM     11  C   UNL     1      -0.954  -2.542   3.775  0.00  0.00    +0.000 A 
ATOM     12  C   UNL     1      -2.292  -2.908   3.829  0.00  0.00    +0.000 A 
ATOM     13  N   UNL     1      -2.563  -4.228   3.713  0.00  0.00    +0.000 NA
ATOM     14  C   UNL     1      -1.603  -5.058   3.235  0.00  0.00    +0.000 A 
ATOM     15  C   UNL     1      -1.958  -6.369   2.939  0.00  0.00    +0.000 A 
ATOM     16  C   UNL     1      -1.026  -7.182   2.307  0.00  0.00    +0.000 A 
ATOM     17  C   UNL     1      -0.150  -6.535   1.444  0.00  0.00    +0.000 A 
ATOM     18  C   UNL     1       0.136  -5.184   1.590  0.00  0.00    +0.000 A 
ATOM     19  C   UNL     1      -0.417  -4.572   2.706  0.00  0.00    +0.000 A 
ENDBRANCH   9  10
BRANCH   5  20
ATOM     20  C   UNL     1       2.613   0.942  -1.132  0.00  0.00    +0.000 A 
ATOM     21  C   UNL     1       2.388   2.256  -0.756  0.00  0.00    +0.000 A 
ATOM     22  C   UNL     1       2.393   3.284  -1.660  0.00  0.00    +0.000 A 
ATOM     23  C   UNL     1       2.546   2.971  -3.003  0.00  0.00    +0.000 A 
ATOM     24  C   UNL     1       3.248   1.806  -3.288  0.00  0.00    +0.000 A 
ATOM     25  C   UNL     1       3.046   0.732  -2.430  0.00  0.00    +0.000 A 
BRANCH  23  26
ATOM     26  N   UNL     1       2.310   3.974  -3.993  0.00  0.00    +0.000 N 
ATOM     27  C   UNL     1       3.442   4.299  -4.857  0.00  0.00    +0.000 C 
ATOM     28  C   UNL     1       3.087   5.617  -5.534  0.00  0.00    +0.000 C 
ATOM     29  N   UNL     1       3.094   6.647  -4.497  0.00  0.00    +0.000 NA
ATOM     30  C   UNL     1       2.252   6.273  -3.373  0.00  0.00    +0.000 C 
ATOM     31  C   UNL     1       1.392   5.076  -3.721  0.00  0.00    +0.000 C 
ATOM     32  H   UNL     1       2.748   7.520  -4.894  0.00  0.00    +0.000 HD
ENDBRANCH  23  26
ENDBRANCH   5  20
TORSDOF 3
ENDMDL
MODEL 5
REMARK VINA RESULT:    -8.558      3.300      9.391
REMARK INTER + INTRA:         -11.029
REMARK INTER:                  -9.453
REMARK INTRA:                  -1.576
REMARK CONF_INDEPENDENT:        0.895
REMARK UNBOUND:                 1.576
REMARK  Name = 
REMARK  3 active torsions:
REMARK  status: ('A' for Active; 'I' for Inactive)
REMARK    1  A    between atoms: C_5  and  C_6
REMARK    2  A    between atoms: C_9  and  N_10
REMARK    3  A    between atoms: C_21  and  C_22
REMARK                            x       y       z     vdW  Elec       q    Type
REMARK                         _______ _______ _______ _____ _____    ______ ____
ROOT
ATOM      1  C   UNL     1       2.861  -4.053  -2.852  0.00  0.00    +0.000 A 
ATOM      2  N   UNL     1       3.212  -2.793  -3.195  0.00  0.00    +0.000 NA
ATOM      3  N   UNL     1       2.510  -1.947  -2.443  0.00  0.00    +0.000 N 
ATOM      4  C   UNL     1       2.844  -0.689  -2.084  0.00  0.00    +0.000 A 
ATOM      5  C   UNL     1       2.557  -0.173  -0.828  0.00  0.00    +0.000 A 
ATOM      6  C   UNL     1       1.586  -0.824  -0.078  0.00  0.00    +0.000 A 
ATOM      7  N   UNL     1       1.105  -1.982  -0.590  0.00  0.00    +0.000 NA
ATOM      8  C   UNL     1       1.824  -2.660  -1.517  0.00  0.00    +0.000 A 
ATOM      9  C   UNL     1       1.911  -4.007  -1.840  0.00  0.00    +0.000 A 
ENDROOT
BRANCH   9  10
ATOM     10  C   UNL     1       0.875  -5.001  -1.567  0.00  0.00    +0.000 A 
ATOM     11  C   UNL     1       0.354  -5.768  -2.601  0.00  0.00    +0.000 A 
ATOM     12  C   UNL     1      -0.190  -7.026  -2.382  0.00  0.00    +0.000 A 
ATOM     13  N   UNL     1      -0.628  -7.286  -1.128  0.00  0.00    +0.000 NA
ATOM     14  C   UNL     1      -0.232  -6.481  -0.112  0.00  0.00    +0.000 A 
ATOM     15  C   UNL     1      -0.528  -6.873   1.188  0.00  0.00    +0.000 A 
ATOM     16  C   UNL     1       0.006  -6.139   2.240  0.00  0.00    +0.000 A 
ATOM     17  C   UNL     1       1.246  -5.560   2.002  0.00  0.00    +0.000 A 
ATOM     18  C   UNL     1       1.672  -5.278   0.710  0.00  0.00    +0.000 A 
ATOM     19  C   UNL     1       0.740  -5.507  -0.291  0.00  0.00    +0.000 A 
ENDBRANCH   9  10
BRANCH   5  20
ATOM     20  C   UNL     1       3.174   1.076  -0.365  0.00  0.00    +0.000 A 
ATOM     21  C   UNL     1       4.058   1.090   0.702  0.00  0.00    +0.000 A 
ATOM     22  C   UNL     1       4.241   2.199   1.483  0.00  0.00    +0.000 A 
ATOM     23  C   UNL     1       3.446   3.309   1.237  0.00  0.00    +0.000 A 
ATOM     24  C   UNL     1       2.983   3.458  -0.065  0.00  0.00    +0.000 A 
ATOM     25  C   UNL     1       2.631   2.294  -0.738  0.00  0.00    +0.000 A 
BRANCH  23  26
ATOM     26  N   UNL     1       3.427   4.387   2.175  0.00  0.00    +0.000 N 
ATOM     27  C   UNL     1       4.714   5.026   2.438  0.00  0.00    +0.000 C 
ATOM     28  C   UNL     1       4.522   5.841   3.712  0.00  0.00    +0.000 C 
ATOM     29  N   UNL     1       4.341   4.890   4.806  0.00  0.00    +0.000 NA
ATOM     30  C   UNL     1       3.287   3.934   4.508  0.00  0.00    +0.000 C 
ATOM     31  C   UNL     1       2.493   4.371   3.296  0.00  0.00    +0.000 C 
ATOM     32  H   UNL     1       4.095   5.401   5.653  0.00  0.00    +0.000 HD
ENDBRANCH  23  26
ENDBRANCH   5  20
TORSDOF 3
ENDMDL
MODEL 6
REMARK VINA RESULT:    -8.380      2.551      9.857
REMARK INTER + INTRA:         -10.869
REMARK INTER:                  -9.275
REMARK INTRA:                  -1.594
REMARK CONF_INDEPENDENT:        0.895
REMARK UNBOUND:                 1.594
REMARK  Name = 
REMARK  3 active torsions:
REMARK  status: ('A' for Active; 'I' for Inactive)
REMARK    1  A    between atoms: C_5  and  C_6
REMARK    2  A    between atoms: C_9  and  N_10
REMARK    3  A    between atoms: C_21  and  C_22
REMARK                            x       y       z     vdW  Elec       q    Type
REMARK                         _______ _______ _______ _____ _____    ______ ____
ROOT
ATOM      1  C   UNL     1       2.520  -4.855  -0.397  0.00  0.00    +0.000 A 
ATOM      2  N   UNL     1       2.998  -3.935  -1.265  0.00  0.00    +0.000 NA
ATOM      3  N   UNL     1       2.239  -2.844  -1.172  0.00  0.00    +0.000 N 
ATOM      4  C   UNL     1       2.589  -1.569  -1.446  0.00  0.00    +0.000 A 
ATOM      5  C   UNL     1       2.139  -0.496  -0.691  0.00  0.00    +0.000 A 
ATOM      6  C   UNL     1       1.022  -0.702   0.109  0.00  0.00    +0.000 A 
ATOM      7  N   UNL     1       0.558  -1.973   0.178  0.00  0.00    +0.000 NA
ATOM      8  C   UNL     1       1.371  -3.007  -0.144  0.00  0.00    +0.000 A 
ATOM      9  C   UNL     1       1.425  -4.329   0.276  0.00  0.00    +0.000 A 
ENDROOT
BRANCH   9  10
ATOM     10  C   UNL     1       0.299  -5.075   0.834  0.00  0.00    +0.000 A 
ATOM     11  C   UNL     1      -0.014  -6.336   0.344  0.00  0.00    +0.000 A 
ATOM     12  C   UNL     1      -0.665  -7.286   1.119  0.00  0.00    +0.000 A 
ATOM     13  N   UNL     1      -1.393  -6.821   2.160  0.00  0.00    +0.000 NA
ATOM     14  C   UNL     1      -1.195  -5.550   2.587  0.00  0.00    +0.000 A 
ATOM     15  C   UNL     1      -1.803  -5.155   3.773  0.00  0.00    +0.000 A 
ATOM     16  C   UNL     1      -1.484  -3.909   4.299  0.00  0.00    +0.000 A 
ATOM     17  C   UNL     1      -0.191  -3.464   4.052  0.00  0.00    +0.000 A 
ATOM     18  C   UNL     1       0.535  -3.934   2.965  0.00  0.00    +0.000 A 
ATOM     19  C   UNL     1      -0.154  -4.772   2.101  0.00  0.00    +0.000 A 
ENDBRANCH   9  10
BRANCH   5  20
ATOM     20  C   UNL     1       2.751   0.833  -0.824  0.00  0.00    +0.000 A 
ATOM     21  C   UNL     1       3.676   1.294   0.097  0.00  0.00    +0.000 A 
ATOM     22  C   UNL     1       3.870   2.630   0.330  0.00  0.00    +0.000 A 
ATOM     23  C   UNL     1       3.046   3.533  -0.326  0.00  0.00    +0.000 A 
ATOM     24  C   UNL     1       2.528   3.119  -1.547  0.00  0.00    +0.000 A 
ATOM     25  C   UNL     1       2.171   1.780  -1.652  0.00  0.00    +0.000 A 
BRANCH  23  26
ATOM     26  N   UNL     1       3.045   4.905   0.071  0.00  0.00    +0.000 N 
ATOM     27  C   UNL     1       4.325   5.601  -0.033  0.00  0.00    +0.000 C 
ATOM     28  C   UNL     1       4.175   6.876   0.788  0.00  0.00    +0.000 C 
ATOM     29  N   UNL     1       4.075   6.474   2.189  0.00  0.00    +0.000 NA
ATOM     30  C   UNL     1       3.034   5.479   2.382  0.00  0.00    +0.000 C 
ATOM     31  C   UNL     1       2.168   5.360   1.146  0.00  0.00    +0.000 C 
ATOM     32  H   UNL     1       3.858   7.294   2.755  0.00  0.00    +0.000 HD
ENDBRANCH  23  26
ENDBRANCH   5  20
TORSDOF 3
ENDMDL
MODEL 7
REMARK VINA RESULT:    -8.350      2.482     10.012
REMARK INTER + INTRA:         -10.851
REMARK INTER:                  -9.245
REMARK INTRA:                  -1.606
REMARK CONF_INDEPENDENT:        0.895
REMARK UNBOUND:                 1.606
REMARK  Name = 
REMARK  3 active torsions:
REMARK  status: ('A' for Active; 'I' for Inactive)
REMARK    1  A    between atoms: C_5  and  C_6
REMARK    2  A    between atoms: C_9  and  N_10
REMARK    3  A    between atoms: C_21  and  C_22
REMARK                            x       y       z     vdW  Elec       q    Type
REMARK                         _______ _______ _______ _____ _____    ______ ____
ROOT
ATOM      1  C   UNL     1       0.189  -2.421   0.663  0.00  0.00    +0.000 A 
ATOM      2  N   UNL     1       0.871  -1.269   0.858  0.00  0.00    +0.000 NA
ATOM      3  N   UNL     1       1.901  -1.249   0.014  0.00  0.00    +0.000 N 
ATOM      4  C   UNL     1       2.535  -0.168  -0.489  0.00  0.00    +0.000 A 
ATOM      5  C   UNL     1       3.000  -0.119  -1.795  0.00  0.00    +0.000 A 
ATOM      6  C   UNL     1       3.152  -1.327  -2.464  0.00  0.00    +0.000 A 
ATOM      7  N   UNL     1       2.703  -2.432  -1.820  0.00  0.00    +0.000 NA
ATOM      8  C   UNL     1       1.796  -2.310  -0.822  0.00  0.00    +0.000 A 
ATOM      9  C   UNL     1       0.801  -3.153  -0.346  0.00  0.00    +0.000 A 
ENDROOT
BRANCH   9  10
ATOM     10  C   UNL     1       0.793  -4.606  -0.500  0.00  0.00    +0.000 A 
ATOM     11  C   UNL     1       0.467  -5.421   0.576  0.00  0.00    +0.000 A 
ATOM     12  C   UNL     1      -0.070  -6.689   0.403  0.00  0.00    +0.000 A 
ATOM     13  N   UNL     1       0.166  -7.289  -0.786  0.00  0.00    +0.000 NA
ATOM     14  C   UNL     1       0.601  -6.538  -1.828  0.00  0.00    +0.000 A 
ATOM     15  C   UNL     1       0.649  -7.128  -3.085  0.00  0.00    +0.000 A 
ATOM     16  C   UNL     1       0.944  -6.329  -4.182  0.00  0.00    +0.000 A 
ATOM     17  C   UNL     1       0.514  -5.010  -4.099  0.00  0.00    +0.000 A 
ATOM     18  C   UNL     1       0.299  -4.400  -2.870  0.00  0.00    +0.000 A 
ATOM     19  C   UNL     1       0.648  -5.154  -1.759  0.00  0.00    +0.000 A 
ENDBRANCH   9  10
BRANCH   5  20
ATOM     20  C   UNL     1       3.422   1.151  -2.401  0.00  0.00    +0.000 A 
ATOM     21  C   UNL     1       3.984   2.160  -1.638  0.00  0.00    +0.000 A 
ATOM     22  C   UNL     1       3.908   3.478  -2.002  0.00  0.00    +0.000 A 
ATOM     23  C   UNL     1       3.168   3.802  -3.130  0.00  0.00    +0.000 A 
ATOM     24  C   UNL     1       3.068   2.816  -4.104  0.00  0.00    +0.000 A 
ATOM     25  C   UNL     1       2.955   1.505  -3.655  0.00  0.00    +0.000 A 
BRANCH  23  26
ATOM     26  N   UNL     1       2.857   5.170  -3.402  0.00  0.00    +0.000 N 
ATOM     27  C   UNL     1       2.631   6.017  -2.234  0.00  0.00    +0.000 C 
ATOM     28  C   UNL     1       1.951   7.276  -2.758  0.00  0.00    +0.000 C 
ATOM     29  N   UNL     1       0.616   6.887  -3.206  0.00  0.00    +0.000 NA
ATOM     30  C   UNL     1       0.674   5.773  -4.138  0.00  0.00    +0.000 C 
ATOM     31  C   UNL     1       2.096   5.529  -4.595  0.00  0.00    +0.000 C 
ATOM     32  H   UNL     1       0.175   7.682  -3.668  0.00  0.00    +0.000 HD
ENDBRANCH  23  26
ENDBRANCH   5  20
TORSDOF 3
ENDMDL
MODEL 8
REMARK VINA RESULT:    -7.939      2.355      9.813
REMARK INTER + INTRA:         -10.432
REMARK INTER:                  -8.834
REMARK INTRA:                  -1.598
REMARK CONF_INDEPENDENT:        0.895
REMARK UNBOUND:                 1.598
REMARK  Name = 
REMARK  3 active torsions:
REMARK  status: ('A' for Active; 'I' for Inactive)
REMARK    1  A    between atoms: C_5  and  C_6
REMARK    2  A    between atoms: C_9  and  N_10
REMARK    3  A    between atoms: C_21  and  C_22
REMARK                            x       y       z     vdW  Elec       q    Type
REMARK                         _______ _______ _______ _____ _____    ______ ____
ROOT
ATOM      1  C   UNL     1       2.888  -3.887   1.994  0.00  0.00    +0.000 A 
ATOM      2  N   UNL     1       3.579  -3.436   0.922  0.00  0.00    +0.000 NA
ATOM      3  N   UNL     1       2.781  -2.631   0.223  0.00  0.00    +0.000 N 
ATOM      4  C   UNL     1       3.140  -1.616  -0.592  0.00  0.00    +0.000 A 
ATOM      5  C   UNL     1       2.418  -0.435  -0.670  0.00  0.00    +0.000 A 
ATOM      6  C   UNL     1       1.112  -0.452  -0.195  0.00  0.00    +0.000 A 
ATOM      7  N   UNL     1       0.712  -1.588   0.423  0.00  0.00    +0.000 NA
ATOM      8  C   UNL     1       1.634  -2.447   0.921  0.00  0.00    +0.000 A 
ATOM      9  C   UNL     1       1.610  -3.344   1.980  0.00  0.00    +0.000 A 
ENDROOT
BRANCH   9  10
ATOM     10  C   UNL     1       0.401  -3.938   2.545  0.00  0.00    +0.000 A 
ATOM     11  C   UNL     1       0.390  -5.274   2.921  0.00  0.00    +0.000 A 
ATOM     12  C   UNL     1      -0.464  -5.755   3.904  0.00  0.00    +0.000 A 
ATOM     13  N   UNL     1      -1.579  -5.029   4.146  0.00  0.00    +0.000 NA
ATOM     14  C   UNL     1      -1.647  -3.755   3.688  0.00  0.00    +0.000 A 
ATOM     15  C   UNL     1      -2.708  -2.963   4.109  0.00  0.00    +0.000 A 
ATOM     16  C   UNL     1      -2.705  -1.615   3.772  0.00  0.00    +0.000 A 
ATOM     17  C   UNL     1      -1.452  -1.023   3.668  0.00  0.00    +0.000 A 
ATOM     18  C   UNL     1      -0.320  -1.780   3.396  0.00  0.00    +0.000 A 
ATOM     19  C   UNL     1      -0.547  -3.122   3.128  0.00  0.00    +0.000 A 
ENDBRANCH   9  10
BRANCH   5  20
ATOM     20  C   UNL     1       2.977   0.751  -1.334  0.00  0.00    +0.000 A 
ATOM     21  C   UNL     1       4.333   1.028  -1.291  0.00  0.00    +0.000 A 
ATOM     22  C   UNL     1       4.822   2.301  -1.410  0.00  0.00    +0.000 A 
ATOM     23  C   UNL     1       3.911   3.345  -1.491  0.00  0.00    +0.000 A 
ATOM     24  C   UNL     1       2.667   3.035  -2.029  0.00  0.00    +0.000 A 
ATOM     25  C   UNL     1       2.141   1.790  -1.708  0.00  0.00    +0.000 A 
BRANCH  23  26
ATOM     26  N   UNL     1       4.368   4.693  -1.366  0.00  0.00    +0.000 N 
ATOM     27  C   UNL     1       5.666   4.985  -1.969  0.00  0.00    +0.000 C 
ATOM     28  C   UNL     1       6.106   6.322  -1.384  0.00  0.00    +0.000 C 
ATOM     29  N   UNL     1       6.388   6.098   0.032  0.00  0.00    +0.000 NA
ATOM     30  C   UNL     1       5.267   5.460   0.701  0.00  0.00    +0.000 C 
ATOM     31  C   UNL     1       4.036   5.476  -0.179  0.00  0.00    +0.000 C 
ATOM     32  H   UNL     1       6.574   6.995   0.479  0.00  0.00    +0.000 HD
ENDBRANCH  23  26
ENDBRANCH   5  20
TORSDOF 3
ENDMDL
MODEL 9
REMARK VINA RESULT:    -7.702      2.410      3.290
REMARK INTER + INTRA:         -10.132
REMARK INTER:                  -8.597
REMARK INTRA:                  -1.534
REMARK CONF_INDEPENDENT:        0.895
REMARK UNBOUND:                 1.534
REMARK  Name = 
REMARK  3 active torsions:
REMARK  status: ('A' for Active; 'I' for Inactive)
REMARK    1  A    between atoms: C_5  and  C_6
REMARK    2  A    between atoms: C_9  and  N_10
REMARK    3  A    between atoms: C_21  and  C_22
REMARK                            x       y       z     vdW  Elec       q    Type
REMARK                         _______ _______ _______ _____ _____    ______ ____
ROOT
ATOM      1  C   UNL     1       2.217   4.179  -0.248  0.00  0.00    +0.000 A 
ATOM      2  N   UNL     1       1.865   3.032  -0.872  0.00  0.00    +0.000 NA
ATOM      3  N   UNL     1       2.686   2.068  -0.461  0.00  0.00    +0.000 N 
ATOM      4  C   UNL     1       2.443   0.740  -0.415  0.00  0.00    +0.000 A 
ATOM      5  C   UNL     1       2.909  -0.065   0.614  0.00  0.00    +0.000 A 
ATOM      6  C   UNL     1       3.949   0.429   1.392  0.00  0.00    +0.000 A 
ATOM      7  N   UNL     1       4.320   1.710   1.154  0.00  0.00    +0.000 NA
ATOM      8  C   UNL     1       3.465   2.557   0.534  0.00  0.00    +0.000 A 
ATOM      9  C   UNL     1       3.293   3.934   0.595  0.00  0.00    +0.000 A 
ENDROOT
BRANCH   9  10
ATOM     10  C   UNL     1       4.323   4.888   1.000  0.00  0.00    +0.000 A 
ATOM     11  C   UNL     1       4.924   4.778   2.246  0.00  0.00    +0.000 A 
ATOM     12  C   UNL     1       6.204   5.256   2.491  0.00  0.00    +0.000 A 
ATOM     13  N   UNL     1       6.658   6.223   1.661  0.00  0.00    +0.000 NA
ATOM     14  C   UNL     1       6.018   6.435   0.485  0.00  0.00    +0.000 A 
ATOM     15  C   UNL     1       6.609   7.291  -0.438  0.00  0.00    +0.000 A 
ATOM     16  C   UNL     1       6.043   7.395  -1.702  0.00  0.00    +0.000 A 
ATOM     17  C   UNL     1       5.427   6.246  -2.183  0.00  0.00    +0.000 A 
ATOM     18  C   UNL     1       4.945   5.273  -1.317  0.00  0.00    +0.000 A 
ATOM     19  C   UNL     1       5.022   5.582   0.033  0.00  0.00    +0.000 A 
ENDBRANCH   9  10
BRANCH   5  20
ATOM     20  C   UNL     1       2.398  -1.430   0.797  0.00  0.00    +0.000 A 
ATOM     21  C   UNL     1       1.486  -1.981  -0.087  0.00  0.00    +0.000 A 
ATOM     22  C   UNL     1       0.614  -2.969   0.286  0.00  0.00    +0.000 A 
ATOM     23  C   UNL     1       0.601  -3.360   1.617  0.00  0.00    +0.000 A 
ATOM     24  C   UNL     1       1.789  -3.194   2.318  0.00  0.00    +0.000 A 
ATOM     25  C   UNL     1       2.536  -2.060   2.022  0.00  0.00    +0.000 A 
BRANCH  23  26
ATOM     26  N   UNL     1      -0.452  -4.198   2.097  0.00  0.00    +0.000 N 
ATOM     27  C   UNL     1      -1.402  -3.570   3.011  0.00  0.00    +0.000 C 
ATOM     28  C   UNL     1      -2.162  -4.713   3.673  0.00  0.00    +0.000 C 
ATOM     29  N   UNL     1      -1.214  -5.416   4.535  0.00  0.00    +0.000 NA
ATOM     30  C   UNL     1      -0.017  -5.799   3.805  0.00  0.00    +0.000 C 
ATOM     31  C   UNL     1      -0.217  -5.622   2.316  0.00  0.00    +0.000 C 
ATOM     32  H   UNL     1      -1.660  -6.255   4.905  0.00  0.00    +0.000 HD
ENDBRANCH  23  26
ENDBRANCH   5  20
TORSDOF 3
ENDMDL
