MODEL 1
REMARK VINA RESULT:   -12.077      0.000      0.000
REMARK INTER + INTRA:         -26.535
REMARK INTER:                 -16.850
REMARK INTRA:                  -9.685
REMARK CONF_INDEPENDENT:        4.773
REMARK UNBOUND:                 9.685
REMARK  Name = 
REMARK  17 active torsions:
REMARK  status: ('A' for Active; 'I' for Inactive)
REMARK    1  A    between atoms: CB_1  and  CA_2
REMARK    2  A    between atoms: CA_2  and  N_3
REMARK    3  A    between atoms: CA_2  and  C_25
REMARK    4  A    between atoms: C_4  and  CA_6
REMARK    5  A    between atoms: CA_6  and  CB_7
REMARK    6  A    between atoms: CA_6  and  N_12
REMARK    7  A    between atoms: CB_7  and  CG_8
REMARK    8  A    between atoms: CG_8  and  CD_9
REMARK    9  A    between atoms: CD_9  and  OE2_11
REMARK   10  A    between atoms: C_13  and  CA_15
REMARK   11  A    between atoms: CA_15  and  N_16
REMARK   12  A    between atoms: C_17  and  CA_19
REMARK   13  A    between atoms: CA_19  and  N_20
REMARK   14  A    between atoms: CA_19  and  CB_21
REMARK   15  A    between atoms: CB_21  and  CG_22
REMARK   16  A    between atoms: CG_22  and  OD2_24
REMARK   17  A    between atoms: C_25  and  OXT_27
REMARK                            x       y       z     vdW  Elec       q    Type
REMARK                         _______ _______ _______ _____ _____    ______ ____
ROOT
ATOM      1  N   GLU A   3       0.440   0.230   0.428  0.00  0.00    +0.000 N 
ATOM      2  C   GLY A   2       1.096   0.639  -0.751  0.00  0.00    +0.000 C 
ATOM      3  O   GLY A   2       1.699  -0.144  -1.516  0.00  0.00    +0.000 OA
ATOM      4  H   GLU A   3      -0.143   0.826   0.951  0.00  0.00    +0.000 HD
ENDROOT
BRANCH   1   5
ATOM      5  CA  GLU A   3       0.730  -1.295   0.840  0.00  0.00    +0.000 C 
BRANCH   5   7
ATOM      6  N   ALA A   4       0.562   0.292   2.871  0.00  0.00    +0.000 N 
ATOM      7  C   GLU A   3       0.394  -1.045   2.423  0.00  0.00    +0.000 C 
ATOM      8  O   GLU A   3       0.623  -1.956   3.199  0.00  0.00    +0.000 OA
ATOM      9  H   ALA A   4       1.204   0.954   2.527  0.00  0.00    +0.000 HD
BRANCH   6  11
ATOM     10  CB  ALA A   4       0.687   0.452   5.228  0.00  0.00    +0.000 C 
ATOM     11  CA  ALA A   4      -0.506   0.507   4.052  0.00  0.00    +0.000 C 
BRANCH  11  12
ATOM     12  C   ALA A   4      -0.417   2.141   3.936  0.00  0.00    +0.000 C 
ATOM     13  O   ALA A   4       0.778   2.527   4.043  0.00  0.00    +0.000 OA
BRANCH  12  14
ATOM     14  OXT ALA A   4      -1.194   2.726   2.982  0.00  0.00    +0.000 OA
ATOM     15  HXT ALA A   4      -0.798   3.111   2.225  0.00  0.00    +0.000 HD
ENDBRANCH  12  14
ENDBRANCH  11  12
ENDBRANCH   6  11
ENDBRANCH   5   7
BRANCH   5  16
ATOM     16  CB  GLU A   3       2.357  -0.965   1.079  0.00  0.00    +0.000 C 
BRANCH  16  17
ATOM     17  CG  GLU A   3       2.980  -2.322   1.284  0.00  0.00    +0.000 C 
BRANCH  17  18
ATOM     18  CD  GLU A   3       4.093  -2.564   0.326  0.00  0.00    +0.000 C 
ATOM     19  OE1 GLU A   3       5.175  -1.947   0.502  0.00  0.00    +0.000 OA
BRANCH  18  20
ATOM     20  OE2 GLU A   3       3.899  -3.090  -0.939  0.00  0.00    +0.000 OA
ATOM     21  HE2 GLU A   3       3.268  -3.770  -1.073  0.00  0.00    +0.000 HD
ENDBRANCH  18  20
ENDBRANCH  17  18
ENDBRANCH  16  17
ENDBRANCH   5  16
ENDBRANCH   1   5
BRANCH   2  22
ATOM     22  CA  GLY A   2       1.256   2.110  -0.972  0.00  0.00    +0.000 C 
BRANCH  22  23
ATOM     23  N   GLY A   2      -0.011   2.625  -1.446  0.00  0.00    +0.000 N 
ATOM     24  C   ASP A   1      -1.181   2.600  -0.661  0.00  0.00    +0.000 C 
ATOM     25  O   ASP A   1      -1.182   2.145   0.504  0.00  0.00    +0.000 OA
ATOM     26  H   GLY A   2      -0.058   3.009  -2.353  0.00  0.00    +0.000 HD
BRANCH  24  27
ATOM     27  CA  ASP A   1      -2.100   3.954  -0.804  0.00  0.00    +0.000 C 
BRANCH  27  28
ATOM     28  N   ASP A   1      -1.886   4.306   0.746  0.00  0.00    +0.000 NA
ATOM     29  H1  ASP A   1      -1.727   5.308   0.850  0.00  0.00    +0.000 HD
ATOM     30  H2  ASP A   1      -1.078   3.794   1.103  0.00  0.00    +0.000 HD
ENDBRANCH  27  28
BRANCH  27  31
ATOM     31  CB  ASP A   1      -0.759   4.857  -1.243  0.00  0.00    +0.000 C 
BRANCH  31  32
ATOM     32  CG  ASP A   1      -0.032   5.059   0.024  0.00  0.00    +0.000 C 
ATOM     33  OD1 ASP A   1       0.080   6.240   0.454  0.00  0.00    +0.000 OA
BRANCH  32  34
ATOM     34  OD2 ASP A   1       0.533   4.021   0.731  0.00  0.00    +0.000 OA
ATOM     35  HD2 ASP A   1       0.072   3.638   1.451  0.00  0.00    +0.000 HD
ENDBRANCH  32  34
ENDBRANCH  31  32
ENDBRANCH  27  31
ENDBRANCH  24  27
ENDBRANCH  22  23
ENDBRANCH   2  22
TORSDOF 16
ENDMDL
MODEL 2
REMARK VINA RESULT:   -11.947      3.402      6.860
REMARK INTER + INTRA:         -26.181
REMARK INTER:                 -16.720
REMARK INTRA:                  -9.461
REMARK CONF_INDEPENDENT:        4.773
REMARK UNBOUND:                 9.461
REMARK  Name = 
REMARK  17 active torsions:
REMARK  status: ('A' for Active; 'I' for Inactive)
REMARK    1  A    between atoms: CB_1  and  CA_2
REMARK    2  A    between atoms: CA_2  and  N_3
REMARK    3  A    between atoms: CA_2  and  C_25
REMARK    4  A    between atoms: C_4  and  CA_6
REMARK    5  A    between atoms: CA_6  and  CB_7
REMARK    6  A    between atoms: CA_6  and  N_12
REMARK    7  A    between atoms: CB_7  and  CG_8
REMARK    8  A    between atoms: CG_8  and  CD_9
REMARK    9  A    between atoms: CD_9  and  OE2_11
REMARK   10  A    between atoms: C_13  and  CA_15
REMARK   11  A    between atoms: CA_15  and  N_16
REMARK   12  A    between atoms: C_17  and  CA_19
REMARK   13  A    between atoms: CA_19  and  N_20
REMARK   14  A    between atoms: CA_19  and  CB_21
REMARK   15  A    between atoms: CB_21  and  CG_22
REMARK   16  A    between atoms: CG_22  and  OD2_24
REMARK   17  A    between atoms: C_25  and  OXT_27
REMARK                            x       y       z     vdW  Elec       q    Type
REMARK                         _______ _______ _______ _____ _____    ______ ____
ROOT
ATOM      1  N   GLU A   3      -0.209  -0.026   3.566  0.00  0.00    +0.000 N 
ATOM      2  C   GLY A   2       0.550  -0.763   4.495  0.00  0.00    +0.000 C 
ATOM      3  O   GLY A   2       1.793  -0.679   4.600  0.00  0.00    +0.000 OA
ATOM      4  H   GLU A   3      -1.192   0.003   3.579  0.00  0.00    +0.000 HD
ENDROOT
BRANCH   1   5
ATOM      5  CA  GLU A   3       0.676   0.763   2.481  0.00  0.00    +0.000 C 
BRANCH   5   7
ATOM      6  N   ALA A   4      -0.498   2.266   0.740  0.00  0.00    +0.000 N 
ATOM      7  C   GLU A   3      -0.536   1.787   2.076  0.00  0.00    +0.000 C 
ATOM      8  O   GLU A   3      -0.975   2.516   2.948  0.00  0.00    +0.000 OA
ATOM      9  H   ALA A   4       0.303   2.416   0.188  0.00  0.00    +0.000 HD
BRANCH   6  11
ATOM     10  CB  ALA A   4      -1.811   4.178   0.272  0.00  0.00    +0.000 C 
ATOM     11  CA  ALA A   4      -2.026   2.516   0.309  0.00  0.00    +0.000 C 
BRANCH  11  12
ATOM     12  C   ALA A   4      -1.679   2.363  -1.287  0.00  0.00    +0.000 C 
ATOM     13  O   ALA A   4      -0.699   3.092  -1.598  0.00  0.00    +0.000 OA
BRANCH  12  14
ATOM     14  OXT ALA A   4      -1.727   1.102  -1.801  0.00  0.00    +0.000 OA
ATOM     15  HXT ALA A   4      -1.105   0.458  -1.523  0.00  0.00    +0.000 HD
ENDBRANCH  12  14
ENDBRANCH  11  12
ENDBRANCH   6  11
ENDBRANCH   5   7
BRANCH   5  16
ATOM     16  CB  GLU A   3       0.238  -0.317   1.275  0.00  0.00    +0.000 C 
BRANCH  16  17
ATOM     17  CG  GLU A   3       1.482  -0.455   0.436  0.00  0.00    +0.000 C 
BRANCH  17  18
ATOM     18  CD  GLU A   3       1.737   0.769  -0.371  0.00  0.00    +0.000 C 
ATOM     19  OE1 GLU A   3       2.357   1.721   0.171  0.00  0.00    +0.000 OA
BRANCH  18  20
ATOM     20  OE2 GLU A   3       1.011   1.091  -1.505  0.00  0.00    +0.000 OA
ATOM     21  HE2 GLU A   3       0.076   1.043  -1.491  0.00  0.00    +0.000 HD
ENDBRANCH  18  20
ENDBRANCH  17  18
ENDBRANCH  16  17
ENDBRANCH   5  16
ENDBRANCH   1   5
BRANCH   2  22
ATOM     22  CA  GLY A   2      -0.150  -1.856   5.239  0.00  0.00    +0.000 C 
BRANCH  22  23
ATOM     23  N   GLY A   2      -1.387  -1.312   5.761  0.00  0.00    +0.000 N 
ATOM     24  C   ASP A   1      -2.565  -1.237   4.993  0.00  0.00    +0.000 C 
ATOM     25  O   ASP A   1      -2.611  -1.659   3.816  0.00  0.00    +0.000 OA
ATOM     26  H   GLY A   2      -1.405  -0.982   6.689  0.00  0.00    +0.000 HD
BRANCH  24  27
ATOM     27  CA  ASP A   1      -3.927  -1.596   5.839  0.00  0.00    +0.000 C 
BRANCH  27  28
ATOM     28  N   ASP A   1      -4.730  -1.903   4.485  0.00  0.00    +0.000 NA
ATOM     29  H1  ASP A   1      -5.715  -2.057   4.701  0.00  0.00    +0.000 HD
ATOM     30  H2  ASP A   1      -4.344  -2.738   4.042  0.00  0.00    +0.000 HD
ENDBRANCH  27  28
BRANCH  27  31
ATOM     31  CB  ASP A   1      -3.457  -3.197   5.981  0.00  0.00    +0.000 C 
BRANCH  31  32
ATOM     32  CG  ASP A   1      -4.726  -3.930   6.156  0.00  0.00    +0.000 C 
ATOM     33  OD1 ASP A   1      -5.010  -4.340   7.314  0.00  0.00    +0.000 OA
BRANCH  32  34
ATOM     34  OD2 ASP A   1      -5.585  -4.189   5.112  0.00  0.00    +0.000 OA
ATOM     35  HD2 ASP A   1      -5.353  -3.938   4.239  0.00  0.00    +0.000 HD
ENDBRANCH  32  34
ENDBRANCH  31  32
ENDBRANCH  27  31
ENDBRANCH  24  27
ENDBRANCH  22  23
ENDBRANCH   2  22
TORSDOF 16
ENDMDL
MODEL 3
REMARK VINA RESULT:   -11.895      1.796      5.312
REMARK INTER + INTRA:         -28.165
REMARK INTER:                 -16.667
REMARK INTRA:                 -11.497
REMARK CONF_INDEPENDENT:        4.773
REMARK UNBOUND:                11.497
REMARK  Name = 
REMARK  17 active torsions:
REMARK  status: ('A' for Active; 'I' for Inactive)
REMARK    1  A    between atoms: CB_1  and  CA_2
REMARK    2  A    between atoms: CA_2  and  N_3
REMARK    3  A    between atoms: CA_2  and  C_25
REMARK    4  A    between atoms: C_4  and  CA_6
REMARK    5  A    between atoms: CA_6  and  CB_7
REMARK    6  A    between atoms: CA_6  and  N_12
REMARK    7  A    between atoms: CB_7  and  CG_8
REMARK    8  A    between atoms: CG_8  and  CD_9
REMARK    9  A    between atoms: CD_9  and  OE2_11
REMARK   10  A    between atoms: C_13  and  CA_15
REMARK   11  A    between atoms: CA_15  and  N_16
REMARK   12  A    between atoms: C_17  and  CA_19
REMARK   13  A    between atoms: CA_19  and  N_20
REMARK   14  A    between atoms: CA_19  and  CB_21
REMARK   15  A    between atoms: CB_21  and  CG_22
REMARK   16  A    between atoms: CG_22  and  OD2_24
REMARK   17  A    between atoms: C_25  and  OXT_27
REMARK                            x       y       z     vdW  Elec       q    Type
REMARK                         _______ _______ _______ _____ _____    ______ ____
ROOT
ATOM      1  N   GLU A   3       1.374   1.068   1.632  0.00  0.00    +0.000 N 
ATOM      2  C   GLY A   2       2.138   1.832   2.536  0.00  0.00    +0.000 C 
ATOM      3  O   GLY A   2       3.204   2.407   2.230  0.00  0.00    +0.000 OA
ATOM      4  H   GLU A   3       0.473   0.731   1.842  0.00  0.00    +0.000 HD
ENDROOT
BRANCH   1   5
ATOM      5  CA  GLU A   3       2.106   0.794   0.229  0.00  0.00    +0.000 C 
BRANCH   5   7
ATOM      6  N   ALA A   4      -0.255   1.824   0.038  0.00  0.00    +0.000 N 
ATOM      7  C   GLU A   3       0.968   1.585  -0.644  0.00  0.00    +0.000 C 
ATOM      8  O   GLU A   3       0.940   1.388  -1.846  0.00  0.00    +0.000 OA
ATOM      9  H   ALA A   4      -0.660   1.264   0.740  0.00  0.00    +0.000 HD
BRANCH   6  11
ATOM     10  CB  ALA A   4      -2.000   2.366  -1.465  0.00  0.00    +0.000 C 
ATOM     11  CA  ALA A   4      -0.847   3.189  -0.569  0.00  0.00    +0.000 C 
BRANCH  11  12
ATOM     12  C   ALA A   4      -1.872   3.393   0.696  0.00  0.00    +0.000 C 
ATOM     13  O   ALA A   4      -3.054   3.114   0.357  0.00  0.00    +0.000 OA
BRANCH  12  14
ATOM     14  OXT ALA A   4      -1.435   2.953   1.910  0.00  0.00    +0.000 OA
ATOM     15  HXT ALA A   4      -1.723   2.125   2.240  0.00  0.00    +0.000 HD
ENDBRANCH  12  14
ENDBRANCH  11  12
ENDBRANCH   6  11
ENDBRANCH   5   7
BRANCH   5  16
ATOM     16  CB  GLU A   3       1.304  -0.668   0.047  0.00  0.00    +0.000 C 
BRANCH  16  17
ATOM     17  CG  GLU A   3       2.359  -1.602  -0.485  0.00  0.00    +0.000 C 
BRANCH  17  18
ATOM     18  CD  GLU A   3       3.334  -1.988   0.572  0.00  0.00    +0.000 C 
ATOM     19  OE1 GLU A   3       4.085  -2.974   0.357  0.00  0.00    +0.000 OA
BRANCH  18  20
ATOM     20  OE2 GLU A   3       3.200  -1.609   1.896  0.00  0.00    +0.000 OA
ATOM     21  HE2 GLU A   3       2.854  -2.212   2.523  0.00  0.00    +0.000 HD
ENDBRANCH  18  20
ENDBRANCH  17  18
ENDBRANCH  16  17
ENDBRANCH   5  16
ENDBRANCH   1   5
BRANCH   2  22
ATOM     22  CA  GLY A   2       1.759   1.766   3.981  0.00  0.00    +0.000 C 
BRANCH  22  23
ATOM     23  N   GLY A   2       1.134   0.480   4.215  0.00  0.00    +0.000 N 
ATOM     24  C   ASP A   1      -0.230   0.243   3.953  0.00  0.00    +0.000 C 
ATOM     25  O   ASP A   1      -0.974   1.131   3.482  0.00  0.00    +0.000 OA
ATOM     26  H   GLY A   2       1.683  -0.257   4.570  0.00  0.00    +0.000 HD
BRANCH  24  27
ATOM     27  CA  ASP A   1      -0.527  -1.234   3.296  0.00  0.00    +0.000 C 
BRANCH  27  28
ATOM     28  N   ASP A   1       0.921  -1.258   2.605  0.00  0.00    +0.000 NA
ATOM     29  H1  ASP A   1       1.145  -2.211   2.319  0.00  0.00    +0.000 HD
ATOM     30  H2  ASP A   1       1.621  -0.928   3.271  0.00  0.00    +0.000 HD
ENDBRANCH  27  28
BRANCH  27  31
ATOM     31  CB  ASP A   1       0.061  -1.998   4.666  0.00  0.00    +0.000 C 
BRANCH  31  32
ATOM     32  CG  ASP A   1       1.402  -2.467   4.267  0.00  0.00    +0.000 C 
ATOM     33  OD1 ASP A   1       2.400  -1.893   4.780  0.00  0.00    +0.000 OA
BRANCH  32  34
ATOM     34  OD2 ASP A   1       1.594  -3.482   3.357  0.00  0.00    +0.000 OA
ATOM     35  HD2 ASP A   1       2.025  -3.308   2.543  0.00  0.00    +0.000 HD
ENDBRANCH  32  34
ENDBRANCH  31  32
ENDBRANCH  27  31
ENDBRANCH  24  27
ENDBRANCH  22  23
ENDBRANCH   2  22
TORSDOF 16
ENDMDL
MODEL 4
REMARK VINA RESULT:   -11.159      2.200      6.298
REMARK INTER + INTRA:         -27.518
REMARK INTER:                 -15.932
REMARK INTRA:                 -11.586
REMARK CONF_INDEPENDENT:        4.773
REMARK UNBOUND:                11.586
REMARK  Name = 
REMARK  17 active torsions:
REMARK  status: ('A' for Active; 'I' for Inactive)
REMARK    1  A    between atoms: CB_1  and  CA_2
REMARK    2  A    between atoms: CA_2  and  N_3
REMARK    3  A    between atoms: CA_2  and  C_25
REMARK    4  A    between atoms: C_4  and  CA_6
REMARK    5  A    between atoms: CA_6  and  CB_7
REMARK    6  A    between atoms: CA_6  and  N_12
REMARK    7  A    between atoms: CB_7  and  CG_8
REMARK    8  A    between atoms: CG_8  and  CD_9
REMARK    9  A    between atoms: CD_9  and  OE2_11
REMARK   10  A    between atoms: C_13  and  CA_15
REMARK   11  A    between atoms: CA_15  and  N_16
REMARK   12  A    between atoms: C_17  and  CA_19
REMARK   13  A    between atoms: CA_19  and  N_20
REMARK   14  A    between atoms: CA_19  and  CB_21
REMARK   15  A    between atoms: CB_21  and  CG_22
REMARK   16  A    between atoms: CG_22  and  OD2_24
REMARK   17  A    between atoms: C_25  and  OXT_27
REMARK                            x       y       z     vdW  Elec       q    Type
REMARK                         _______ _______ _______ _____ _____    ______ ____
ROOT
ATOM      1  N   GLU A   3       0.181   2.404   2.273  0.00  0.00    +0.000 N 
ATOM      2  C   GLY A   2       0.471   1.656   3.431  0.00  0.00    +0.000 C 
ATOM      3  O   GLY A   2       1.561   1.078   3.629  0.00  0.00    +0.000 OA
ATOM      4  H   GLU A   3      -0.624   2.963   2.183  0.00  0.00    +0.000 HD
ENDROOT
BRANCH   1   5
ATOM      5  CA  GLU A   3       1.282   2.261   1.111  0.00  0.00    +0.000 C 
BRANCH   5   7
ATOM      6  N   ALA A   4      -0.089   2.605  -1.051  0.00  0.00    +0.000 N 
ATOM      7  C   GLU A   3       0.481   3.249   0.080  0.00  0.00    +0.000 C 
ATOM      8  O   GLU A   3       0.889   4.391  -0.039  0.00  0.00    +0.000 OA
ATOM      9  H   ALA A   4       0.252   1.802  -1.508  0.00  0.00    +0.000 HD
BRANCH   6  11
ATOM     10  CB  ALA A   4      -2.073   2.155  -2.259  0.00  0.00    +0.000 C 
ATOM     11  CA  ALA A   4      -1.400   3.451  -1.435  0.00  0.00    +0.000 C 
BRANCH  11  12
ATOM     12  C   ALA A   4      -2.160   3.049  -0.038  0.00  0.00    +0.000 C 
ATOM     13  O   ALA A   4      -1.995   3.948   0.830  0.00  0.00    +0.000 OA
BRANCH  12  14
ATOM     14  OXT ALA A   4      -3.401   2.498  -0.158  0.00  0.00    +0.000 OA
ATOM     15  HXT ALA A   4      -3.492   1.596  -0.397  0.00  0.00    +0.000 HD
ENDBRANCH  12  14
ENDBRANCH  11  12
ENDBRANCH   6  11
ENDBRANCH   5   7
BRANCH   5  16
ATOM     16  CB  GLU A   3       0.514   0.905   0.492  0.00  0.00    +0.000 C 
BRANCH  16  17
ATOM     17  CG  GLU A   3       1.563  -0.175   0.559  0.00  0.00    +0.000 C 
BRANCH  17  18
ATOM     18  CD  GLU A   3       1.199  -1.233   1.540  0.00  0.00    +0.000 C 
ATOM     19  OE1 GLU A   3       0.000  -1.609   1.593  0.00  0.00    +0.000 OA
BRANCH  18  20
ATOM     20  OE2 GLU A   3       1.974  -1.535   2.646  0.00  0.00    +0.000 OA
ATOM     21  HE2 GLU A   3       1.855  -1.062   3.446  0.00  0.00    +0.000 HD
ENDBRANCH  18  20
ENDBRANCH  17  18
ENDBRANCH  16  17
ENDBRANCH   5  16
ENDBRANCH   1   5
BRANCH   2  22
ATOM     22  CA  GLY A   2      -0.663   1.365   4.361  0.00  0.00    +0.000 C 
BRANCH  22  23
ATOM     23  N   GLY A   2      -0.382   0.104   5.018  0.00  0.00    +0.000 N 
ATOM     24  C   ASP A   1      -1.400  -0.770   5.445  0.00  0.00    +0.000 C 
ATOM     25  O   ASP A   1      -2.610  -0.513   5.260  0.00  0.00    +0.000 OA
ATOM     26  H   GLY A   2       0.557  -0.151   5.172  0.00  0.00    +0.000 HD
BRANCH  24  27
ATOM     27  CA  ASP A   1      -1.054  -2.357   5.194  0.00  0.00    +0.000 C 
BRANCH  27  28
ATOM     28  N   ASP A   1      -0.011  -1.982   4.034  0.00  0.00    +0.000 NA
ATOM     29  H1  ASP A   1       0.530  -2.810   3.783  0.00  0.00    +0.000 HD
ATOM     30  H2  ASP A   1       0.618  -1.251   4.366  0.00  0.00    +0.000 HD
ENDBRANCH  27  28
BRANCH  27  31
ATOM     31  CB  ASP A   1       0.150  -2.313   6.357  0.00  0.00    +0.000 C 
BRANCH  31  32
ATOM     32  CG  ASP A   1       1.391  -2.556   5.598  0.00  0.00    +0.000 C 
ATOM     33  OD1 ASP A   1       1.715  -3.754   5.374  0.00  0.00    +0.000 OA
BRANCH  32  34
ATOM     34  OD2 ASP A   1       2.201  -1.537   5.151  0.00  0.00    +0.000 OA
ATOM     35  HD2 ASP A   1       1.831  -0.816   4.680  0.00  0.00    +0.000 HD
ENDBRANCH  32  34
ENDBRANCH  31  32
ENDBRANCH  27  31
ENDBRANCH  24  27
ENDBRANCH  22  23
ENDBRANCH   2  22
TORSDOF 16
ENDMDL
MODEL 5
REMARK VINA RESULT:   -11.081      2.014      4.382
REMARK INTER + INTRA:         -26.681
REMARK INTER:                 -15.854
REMARK INTRA:                 -10.828
REMARK CONF_INDEPENDENT:        4.773
REMARK UNBOUND:                10.828
REMARK  Name = 
REMARK  17 active torsions:
REMARK  status: ('A' for Active; 'I' for Inactive)
REMARK    1  A    between atoms: CB_1  and  CA_2
REMARK    2  A    between atoms: CA_2  and  N_3
REMARK    3  A    between atoms: CA_2  and  C_25
REMARK    4  A    between atoms: C_4  and  CA_6
REMARK    5  A    between atoms: CA_6  and  CB_7
REMARK    6  A    between atoms: CA_6  and  N_12
REMARK    7  A    between atoms: CB_7  and  CG_8
REMARK    8  A    between atoms: CG_8  and  CD_9
REMARK    9  A    between atoms: CD_9  and  OE2_11
REMARK   10  A    between atoms: C_13  and  CA_15
REMARK   11  A    between atoms: CA_15  and  N_16
REMARK   12  A    between atoms: C_17  and  CA_19
REMARK   13  A    between atoms: CA_19  and  N_20
REMARK   14  A    between atoms: CA_19  and  CB_21
REMARK   15  A    between atoms: CB_21  and  CG_22
REMARK   16  A    between atoms: CG_22  and  OD2_24
REMARK   17  A    between atoms: C_25  and  OXT_27
REMARK                            x       y       z     vdW  Elec       q    Type
REMARK                         _______ _______ _______ _____ _____    ______ ____
ROOT
ATOM      1  N   GLU A   3      -0.344   2.409   1.258  0.00  0.00    +0.000 N 
ATOM      2  C   GLY A   2      -1.594   2.886   1.700  0.00  0.00    +0.000 C 
ATOM      3  O   GLY A   2      -1.844   3.179   2.889  0.00  0.00    +0.000 OA
ATOM      4  H   GLU A   3      -0.115   2.307   0.306  0.00  0.00    +0.000 HD
ENDROOT
BRANCH   1   5
ATOM      5  CA  GLU A   3       0.672   2.044   2.448  0.00  0.00    +0.000 C 
BRANCH   5   7
ATOM      6  N   ALA A   4       2.169   0.188   1.456  0.00  0.00    +0.000 N 
ATOM      7  C   GLU A   3       1.866   1.575   1.430  0.00  0.00    +0.000 C 
ATOM      8  O   GLU A   3       2.766   2.367   1.211  0.00  0.00    +0.000 OA
ATOM      9  H   ALA A   4       2.089  -0.421   2.226  0.00  0.00    +0.000 HD
BRANCH   6  11
ATOM     10  CB  ALA A   4       2.842  -1.809   0.378  0.00  0.00    +0.000 C 
ATOM     11  CA  ALA A   4       2.672  -0.190  -0.023  0.00  0.00    +0.000 C 
BRANCH  11  12
ATOM     12  C   ALA A   4       1.141  -0.412  -0.568  0.00  0.00    +0.000 C 
ATOM     13  O   ALA A   4       0.526  -1.235   0.162  0.00  0.00    +0.000 OA
BRANCH  12  14
ATOM     14  OXT ALA A   4       0.473   0.705  -0.974  0.00  0.00    +0.000 OA
ATOM     15  HXT ALA A   4       0.112   0.748  -1.838  0.00  0.00    +0.000 HD
ENDBRANCH  12  14
ENDBRANCH  11  12
ENDBRANCH   6  11
ENDBRANCH   5   7
BRANCH   5  16
ATOM     16  CB  GLU A   3       0.068   0.483   2.543  0.00  0.00    +0.000 C 
BRANCH  16  17
ATOM     17  CG  GLU A   3       0.494   0.007   3.907  0.00  0.00    +0.000 C 
BRANCH  17  18
ATOM     18  CD  GLU A   3       0.893  -1.427   3.889  0.00  0.00    +0.000 C 
ATOM     19  OE1 GLU A   3       0.098  -2.273   4.372  0.00  0.00    +0.000 OA
BRANCH  18  20
ATOM     20  OE2 GLU A   3       2.207  -1.842   3.757  0.00  0.00    +0.000 OA
ATOM     21  HE2 GLU A   3       2.400  -2.666   3.356  0.00  0.00    +0.000 HD
ENDBRANCH  18  20
ENDBRANCH  17  18
ENDBRANCH  16  17
ENDBRANCH   5  16
ENDBRANCH   1   5
BRANCH   2  22
ATOM     22  CA  GLY A   2      -2.732   2.827   0.732  0.00  0.00    +0.000 C 
BRANCH  22  23
ATOM     23  N   GLY A   2      -2.247   3.302  -0.548  0.00  0.00    +0.000 N 
ATOM     24  C   ASP A   1      -1.571   4.530  -0.693  0.00  0.00    +0.000 C 
ATOM     25  O   ASP A   1      -1.334   5.270   0.287  0.00  0.00    +0.000 OA
ATOM     26  H   GLY A   2      -2.396   2.746  -1.347  0.00  0.00    +0.000 HD
BRANCH  24  27
ATOM     27  CA  ASP A   1      -0.314   4.468  -1.748  0.00  0.00    +0.000 C 
BRANCH  27  28
ATOM     28  N   ASP A   1      -0.079   2.913  -1.434  0.00  0.00    +0.000 NA
ATOM     29  H1  ASP A   1       0.521   2.507  -2.152  0.00  0.00    +0.000 HD
ATOM     30  H2  ASP A   1      -0.977   2.428  -1.425  0.00  0.00    +0.000 HD
ENDBRANCH  27  28
BRANCH  27  31
ATOM     31  CB  ASP A   1      -1.350   4.105  -3.013  0.00  0.00    +0.000 C 
BRANCH  31  32
ATOM     32  CG  ASP A   1      -0.985   2.727  -3.392  0.00  0.00    +0.000 C 
ATOM     33  OD1 ASP A   1      -0.089   2.577  -4.266  0.00  0.00    +0.000 OA
BRANCH  32  34
ATOM     34  OD2 ASP A   1      -1.593   1.620  -2.844  0.00  0.00    +0.000 OA
ATOM     35  HD2 ASP A   1      -1.142   1.104  -2.204  0.00  0.00    +0.000 HD
ENDBRANCH  32  34
ENDBRANCH  31  32
ENDBRANCH  27  31
ENDBRANCH  24  27
ENDBRANCH  22  23
ENDBRANCH   2  22
TORSDOF 16
ENDMDL
MODEL 6
REMARK VINA RESULT:    -9.839      3.545      6.616
REMARK INTER + INTRA:         -25.713
REMARK INTER:                 -14.612
REMARK INTRA:                 -11.101
REMARK CONF_INDEPENDENT:        4.773
REMARK UNBOUND:                11.101
REMARK  Name = 
REMARK  17 active torsions:
REMARK  status: ('A' for Active; 'I' for Inactive)
REMARK    1  A    between atoms: CB_1  and  CA_2
REMARK    2  A    between atoms: CA_2  and  N_3
REMARK    3  A    between atoms: CA_2  and  C_25
REMARK    4  A    between atoms: C_4  and  CA_6
REMARK    5  A    between atoms: CA_6  and  CB_7
REMARK    6  A    between atoms: CA_6  and  N_12
REMARK    7  A    between atoms: CB_7  and  CG_8
REMARK    8  A    between atoms: CG_8  and  CD_9
REMARK    9  A    between atoms: CD_9  and  OE2_11
REMARK   10  A    between atoms: C_13  and  CA_15
REMARK   11  A    between atoms: CA_15  and  N_16
REMARK   12  A    between atoms: C_17  and  CA_19
REMARK   13  A    between atoms: CA_19  and  N_20
REMARK   14  A    between atoms: CA_19  and  CB_21
REMARK   15  A    between atoms: CB_21  and  CG_22
REMARK   16  A    between atoms: CG_22  and  OD2_24
REMARK   17  A    between atoms: C_25  and  OXT_27
REMARK                            x       y       z     vdW  Elec       q    Type
REMARK                         _______ _______ _______ _____ _____    ______ ____
ROOT
ATOM      1  N   GLU A   3      -1.803  -0.336   4.859  0.00  0.00    +0.000 N 
ATOM      2  C   GLY A   2      -1.071   0.756   5.366  0.00  0.00    +0.000 C 
ATOM      3  O   GLY A   2      -0.946   1.002   6.584  0.00  0.00    +0.000 OA
ATOM      4  H   GLU A   3      -1.786  -0.600   3.911  0.00  0.00    +0.000 HD
ENDROOT
BRANCH   1   5
ATOM      5  CA  GLU A   3      -2.667  -1.113   5.969  0.00  0.00    +0.000 C 
BRANCH   5   7
ATOM      6  N   ALA A   4      -0.493  -2.364   5.352  0.00  0.00    +0.000 N 
ATOM      7  C   GLU A   3      -1.439  -2.115   6.381  0.00  0.00    +0.000 C 
ATOM      8  O   GLU A   3      -1.678  -2.999   7.185  0.00  0.00    +0.000 OA
ATOM      9  H   ALA A   4      -0.665  -2.381   4.382  0.00  0.00    +0.000 HD
BRANCH   6  11
ATOM     10  CB  ALA A   4       0.914  -4.239   5.669  0.00  0.00    +0.000 C 
ATOM     11  CA  ALA A   4       0.914  -2.615   6.086  0.00  0.00    +0.000 C 
BRANCH  11  12
ATOM     12  C   ALA A   4       1.770  -2.199   4.750  0.00  0.00    +0.000 C 
ATOM     13  O   ALA A   4       1.654  -3.081   3.857  0.00  0.00    +0.000 OA
BRANCH  12  14
ATOM     14  OXT ALA A   4       1.704  -0.892   4.369  0.00  0.00    +0.000 OA
ATOM     15  HXT ALA A   4       1.593  -0.672   3.465  0.00  0.00    +0.000 HD
ENDBRANCH  12  14
ENDBRANCH  11  12
ENDBRANCH   6  11
ENDBRANCH   5   7
BRANCH   5  16
ATOM     16  CB  GLU A   3      -3.238  -2.199   4.825  0.00  0.00    +0.000 C 
BRANCH  16  17
ATOM     17  CG  GLU A   3      -3.973  -3.234   5.637  0.00  0.00    +0.000 C 
BRANCH  17  18
ATOM     18  CD  GLU A   3      -5.386  -2.837   5.883  0.00  0.00    +0.000 C 
ATOM     19  OE1 GLU A   3      -6.295  -3.485   5.306  0.00  0.00    +0.000 OA
BRANCH  18  20
ATOM     20  OE2 GLU A   3      -5.746  -1.589   6.362  0.00  0.00    +0.000 OA
ATOM     21  HE2 GLU A   3      -5.106  -0.908   6.424  0.00  0.00    +0.000 HD
ENDBRANCH  18  20
ENDBRANCH  17  18
ENDBRANCH  16  17
ENDBRANCH   5  16
ENDBRANCH   1   5
BRANCH   2  22
ATOM     22  CA  GLY A   2      -0.609   1.786   4.384  0.00  0.00    +0.000 C 
BRANCH  22  23
ATOM     23  N   GLY A   2      -0.137   1.090   3.204  0.00  0.00    +0.000 N 
ATOM     24  C   ASP A   1      -0.074   1.704   1.938  0.00  0.00    +0.000 C 
ATOM     25  O   ASP A   1      -0.405   2.898   1.768  0.00  0.00    +0.000 OA
ATOM     26  H   GLY A   2       0.152   0.152   3.291  0.00  0.00    +0.000 HD
BRANCH  24  27
ATOM     27  CA  ASP A   1       1.264   1.299   1.075  0.00  0.00    +0.000 C 
BRANCH  27  28
ATOM     28  N   ASP A   1       1.870   0.496   2.325  0.00  0.00    +0.000 NA
ATOM     29  H1  ASP A   1       1.980   1.129   3.116  0.00  0.00    +0.000 HD
ATOM     30  H2  ASP A   1       2.779   0.107   2.071  0.00  0.00    +0.000 HD
ENDBRANCH  27  28
BRANCH  27  31
ATOM     31  CB  ASP A   1       0.512  -0.079   0.493  0.00  0.00    +0.000 C 
BRANCH  31  32
ATOM     32  CG  ASP A   1       0.706  -1.075   1.565  0.00  0.00    +0.000 C 
ATOM     33  OD1 ASP A   1      -0.232  -1.234   2.392  0.00  0.00    +0.000 OA
BRANCH  32  34
ATOM     34  OD2 ASP A   1       1.864  -1.808   1.698  0.00  0.00    +0.000 OA
ATOM     35  HD2 ASP A   1       2.389  -1.720   2.469  0.00  0.00    +0.000 HD
ENDBRANCH  32  34
ENDBRANCH  31  32
ENDBRANCH  27  31
ENDBRANCH  24  27
ENDBRANCH  22  23
ENDBRANCH   2  22
TORSDOF 16
ENDMDL
MODEL 7
REMARK VINA RESULT:    -9.811      2.057      4.867
REMARK INTER + INTRA:         -27.280
REMARK INTER:                 -14.584
REMARK INTRA:                 -12.696
REMARK CONF_INDEPENDENT:        4.773
REMARK UNBOUND:                12.696
REMARK  Name = 
REMARK  17 active torsions:
REMARK  status: ('A' for Active; 'I' for Inactive)
REMARK    1  A    between atoms: CB_1  and  CA_2
REMARK    2  A    between atoms: CA_2  and  N_3
REMARK    3  A    between atoms: CA_2  and  C_25
REMARK    4  A    between atoms: C_4  and  CA_6
REMARK    5  A    between atoms: CA_6  and  CB_7
REMARK    6  A    between atoms: CA_6  and  N_12
REMARK    7  A    between atoms: CB_7  and  CG_8
REMARK    8  A    between atoms: CG_8  and  CD_9
REMARK    9  A    between atoms: CD_9  and  OE2_11
REMARK   10  A    between atoms: C_13  and  CA_15
REMARK   11  A    between atoms: CA_15  and  N_16
REMARK   12  A    between atoms: C_17  and  CA_19
REMARK   13  A    between atoms: CA_19  and  N_20
REMARK   14  A    between atoms: CA_19  and  CB_21
REMARK   15  A    between atoms: CB_21  and  CG_22
REMARK   16  A    between atoms: CG_22  and  OD2_24
REMARK   17  A    between atoms: C_25  and  OXT_27
REMARK                            x       y       z     vdW  Elec       q    Type
REMARK                         _______ _______ _______ _____ _____    ______ ____
ROOT
ATOM      1  N   GLU A   3      -0.011   0.807   2.954  0.00  0.00    +0.000 N 
ATOM      2  C   GLY A   2      -0.470   1.955   3.629  0.00  0.00    +0.000 C 
ATOM      3  O   GLY A   2      -0.334   2.139   4.858  0.00  0.00    +0.000 OA
ATOM      4  H   GLU A   3      -0.002   0.729   1.973  0.00  0.00    +0.000 HD
ENDROOT
BRANCH   1   5
ATOM      5  CA  GLU A   3       0.496  -0.364   3.930  0.00  0.00    +0.000 C 
BRANCH   5   7
ATOM      6  N   ALA A   4       1.199  -0.589   1.455  0.00  0.00    +0.000 N 
ATOM      7  C   GLU A   3       1.390  -1.094   2.768  0.00  0.00    +0.000 C 
ATOM      8  O   GLU A   3       1.642  -2.278   2.910  0.00  0.00    +0.000 OA
ATOM      9  H   ALA A   4       0.374  -0.198   1.086  0.00  0.00    +0.000 HD
BRANCH   6  11
ATOM     10  CB  ALA A   4       1.835  -1.000  -0.787  0.00  0.00    +0.000 C 
ATOM     11  CA  ALA A   4       2.598  -0.786   0.690  0.00  0.00    +0.000 C 
BRANCH  11  12
ATOM     12  C   ALA A   4       2.776   0.827   0.446  0.00  0.00    +0.000 C 
ATOM     13  O   ALA A   4       3.280   1.049  -0.688  0.00  0.00    +0.000 OA
BRANCH  12  14
ATOM     14  OXT ALA A   4       1.747   1.620   0.854  0.00  0.00    +0.000 OA
ATOM     15  HXT ALA A   4       0.989   1.723   0.312  0.00  0.00    +0.000 HD
ENDBRANCH  12  14
ENDBRANCH  11  12
ENDBRANCH   6  11
ENDBRANCH   5   7
BRANCH   5  16
ATOM     16  CB  GLU A   3      -0.843  -1.306   3.565  0.00  0.00    +0.000 C 
BRANCH  16  17
ATOM     17  CG  GLU A   3      -1.247  -1.900   4.890  0.00  0.00    +0.000 C 
BRANCH  17  18
ATOM     18  CD  GLU A   3      -1.973  -0.913   5.735  0.00  0.00    +0.000 C 
ATOM     19  OE1 GLU A   3      -3.226  -0.854   5.636  0.00  0.00    +0.000 OA
BRANCH  18  20
ATOM     20  OE2 GLU A   3      -1.360   0.191   6.302  0.00  0.00    +0.000 OA
ATOM     21  HE2 GLU A   3      -0.739   0.687   5.807  0.00  0.00    +0.000 HD
ENDBRANCH  18  20
ENDBRANCH  17  18
ENDBRANCH  16  17
ENDBRANCH   5  16
ENDBRANCH   1   5
BRANCH   2  22
ATOM     22  CA  GLY A   2      -1.354   2.892   2.867  0.00  0.00    +0.000 C 
BRANCH  22  23
ATOM     23  N   GLY A   2      -0.911   2.891   1.488  0.00  0.00    +0.000 N 
ATOM     24  C   ASP A   1      -1.810   2.907   0.404  0.00  0.00    +0.000 C 
ATOM     25  O   ASP A   1      -3.048   2.943   0.576  0.00  0.00    +0.000 OA
ATOM     26  H   GLY A   2       0.057   2.880   1.301  0.00  0.00    +0.000 HD
BRANCH  24  27
ATOM     27  CA  ASP A   1      -1.325   3.864  -0.841  0.00  0.00    +0.000 C 
BRANCH  27  28
ATOM     28  N   ASP A   1       0.218   3.615  -0.478  0.00  0.00    +0.000 NA
ATOM     29  H1  ASP A   1       0.764   3.554  -1.337  0.00  0.00    +0.000 HD
ATOM     30  H2  ASP A   1       0.308   2.743   0.045  0.00  0.00    +0.000 HD
ENDBRANCH  27  28
BRANCH  27  31
ATOM     31  CB  ASP A   1      -1.338   2.560  -1.892  0.00  0.00    +0.000 C 
BRANCH  31  32
ATOM     32  CG  ASP A   1      -0.275   1.675  -1.379  0.00  0.00    +0.000 C 
ATOM     33  OD1 ASP A   1      -0.594   0.817  -0.512  0.00  0.00    +0.000 OA
BRANCH  32  34
ATOM     34  OD2 ASP A   1       1.034   1.766  -1.797  0.00  0.00    +0.000 OA
ATOM     35  HD2 ASP A   1       1.666   2.212  -1.268  0.00  0.00    +0.000 HD
ENDBRANCH  32  34
ENDBRANCH  31  32
ENDBRANCH  27  31
ENDBRANCH  24  27
ENDBRANCH  22  23
ENDBRANCH   2  22
TORSDOF 16
ENDMDL
