MODEL 1
REMARK VINA RESULT:   -19.908      0.000      0.000
REMARK INTER + INTRA:         -31.065
REMARK INTER:                 -26.471
REMARK INTRA:                  -4.594
REMARK CONF_INDEPENDENT:        6.563
REMARK UNBOUND:                 4.594
REMARK  Name = 
REMARK  24 active torsions:
REMARK  status: ('A' for Active; 'I' for Inactive)
REMARK    1  A    between atoms: CD1_1  and  CG1_2
REMARK    2  A    between atoms: CG1_2  and  CB_3
REMARK    3  A    between atoms: CB_3  and  CG2_4
REMARK    4  A    between atoms: CB_3  and  CA_5
REMARK    5  A    between atoms: CA_5  and  N_6
REMARK    6  A    between atoms: CA_5  and  C_19
REMARK    7  A    between atoms: C_7  and  CA_9
REMARK    8  A    between atoms: CA_9  and  N_10
REMARK    9  A    between atoms: CA_9  and  CB_11
REMARK   10  A    between atoms: CB_11  and  CG_12
REMARK   11  A    between atoms: CZ_15  and  OH_16
REMARK   12  A    between atoms: N_21  and  CA_22
REMARK   13  A    between atoms: CA_22  and  C_23
REMARK   14  A    between atoms: N_25  and  CA_26
REMARK   15  A    between atoms: CA_26  and  CB_27
REMARK   16  A    between atoms: CA_26  and  C_29
REMARK   17  A    between atoms: CB_27  and  OG_28
REMARK   18  A    between atoms: N_31  and  CA_32
REMARK   19  A    between atoms: CA_32  and  CB_33
REMARK   20  A    between atoms: CA_32  and  C_40
REMARK   21  A    between atoms: CB_33  and  CG_34
REMARK   22  A    between atoms: CG_34  and  CD_35
REMARK   23  A    between atoms: CD_35  and  NE_36
REMARK   24  A    between atoms: C_40  and  OXT_42
REMARK                            x       y       z     vdW  Elec       q    Type
REMARK                         _______ _______ _______ _____ _____    ______ ____
ROOT
ATOM      1  C   GLY A   3       2.659  -1.274   1.653  0.00  0.00    +0.000 C 
ATOM      2  O   GLY A   3       2.670  -2.261   0.829  0.00  0.00    +0.000 OA
ATOM      3  N   SER A   4       3.063  -0.177   0.935  0.00  0.00    +0.000 N 
ATOM      4  H   SER A   4       3.939   0.233   1.118  0.00  0.00    +0.000 HD
ENDROOT
BRANCH   1   5
ATOM      5  CA  GLY A   3       1.494  -1.821   2.273  0.00  0.00    +0.000 C 
BRANCH   5   8
ATOM      6  C   ILE A   2       0.590  -0.509   4.101  0.00  0.00    +0.000 C 
ATOM      7  O   ILE A   2       1.674   0.150   4.204  0.00  0.00    +0.000 OA
ATOM      8  N   GLY A   3       0.492  -1.212   2.915  0.00  0.00    +0.000 N 
ATOM      9  H   GLY A   3      -0.400  -1.270   2.504  0.00  0.00    +0.000 HD
BRANCH   6  10
ATOM     10  CA  ILE A   2       0.240  -1.248   5.484  0.00  0.00    +0.000 C 
BRANCH  10  11
ATOM     11  N   ILE A   2      -1.144  -1.686   4.911  0.00  0.00    +0.000 N 
ATOM     12  C   TYR A   1      -2.234  -0.912   5.289  0.00  0.00    +0.000 C 
ATOM     13  O   TYR A   1      -2.188  -0.339   6.425  0.00  0.00    +0.000 OA
ATOM     14  H   ILE A   2      -1.239  -2.466   4.316  0.00  0.00    +0.000 HD
BRANCH  12  15
ATOM     15  CA  TYR A   1      -3.695  -1.618   5.209  0.00  0.00    +0.000 C 
BRANCH  15  16
ATOM     16  N   TYR A   1      -3.338  -2.369   3.859  0.00  0.00    +0.000 NA
ATOM     17  H1  TYR A   1      -2.590  -1.868   3.380  0.00  0.00    +0.000 HD
ATOM     18  H2  TYR A   1      -4.163  -2.402   3.261  0.00  0.00    +0.000 HD
ENDBRANCH  15  16
BRANCH  15  19
ATOM     19  CB  TYR A   1      -3.258  -2.807   6.254  0.00  0.00    +0.000 C 
BRANCH  19  20
ATOM     20  CG  TYR A   1      -4.328  -3.754   6.465  0.00  0.00    +0.000 A 
ATOM     21  CD1 TYR A   1      -5.349  -3.855   5.550  0.00  0.00    +0.000 A 
ATOM     22  CE1 TYR A   1      -6.078  -4.926   5.233  0.00  0.00    +0.000 A 
ATOM     23  CZ  TYR A   1      -5.466  -6.144   5.425  0.00  0.00    +0.000 A 
ATOM     24  CE2 TYR A   1      -4.388  -6.182   6.300  0.00  0.00    +0.000 A 
ATOM     25  CD2 TYR A   1      -3.846  -5.015   6.829  0.00  0.00    +0.000 A 
BRANCH  23  26
ATOM     26  OH  TYR A   1      -5.778  -7.181   4.550  0.00  0.00    +0.000 OA
ATOM     27  HH  TYR A   1      -5.304  -7.274   3.747  0.00  0.00    +0.000 HD
ENDBRANCH  23  26
ENDBRANCH  19  20
ENDBRANCH  15  19
ENDBRANCH  12  15
ENDBRANCH  10  11
BRANCH  10  28
ATOM     28  CB  ILE A   2       0.939  -2.775   5.124  0.00  0.00    +0.000 C 
ATOM     29  CG2 ILE A   2       2.471  -2.457   5.551  0.00  0.00    +0.000 C 
BRANCH  28  31
ATOM     30  CD1 ILE A   2      -0.211  -4.240   6.491  0.00  0.00    +0.000 C 
ATOM     31  CG1 ILE A   2       0.537  -3.435   6.550  0.00  0.00    +0.000 C 
ENDBRANCH  28  31
ENDBRANCH  10  28
ENDBRANCH   6  10
ENDBRANCH   5   8
ENDBRANCH   1   5
BRANCH   3  32
ATOM     32  CA  SER A   4       2.130   0.429  -0.179  0.00  0.00    +0.000 C 
BRANCH  32  33
ATOM     33  C   SER A   4       1.732   1.792   0.567  0.00  0.00    +0.000 C 
ATOM     34  O   SER A   4       2.469   2.667   0.890  0.00  0.00    +0.000 OA
ATOM     35  N   ARG A   5       0.409   2.078   0.271  0.00  0.00    +0.000 N 
ATOM     36  H   ARG A   5      -0.164   1.406  -0.163  0.00  0.00    +0.000 HD
BRANCH  35  37
ATOM     37  CA  ARG A   5      -0.159   3.501   0.644  0.00  0.00    +0.000 C 
BRANCH  37  38
ATOM     38  C   ARG A   5      -1.512   2.884   1.303  0.00  0.00    +0.000 C 
ATOM     39  O   ARG A   5      -1.280   2.338   2.433  0.00  0.00    +0.000 OA
BRANCH  38  40
ATOM     40  OXT ARG A   5      -2.405   3.967   1.402  0.00  0.00    +0.000 OA
ATOM     41  HXT ARG A   5      -2.182   4.794   1.022  0.00  0.00    +0.000 HD
ENDBRANCH  38  40
ENDBRANCH  37  38
BRANCH  37  42
ATOM     42  CB  ARG A   5      -0.897   3.735  -0.812  0.00  0.00    +0.000 C 
BRANCH  42  43
ATOM     43  CG  ARG A   5      -1.702   2.545  -1.128  0.00  0.00    +0.000 C 
BRANCH  43  44
ATOM     44  CD  ARG A   5      -1.618   1.964  -2.462  0.00  0.00    +0.000 C 
BRANCH  44  45
ATOM     45  NE  ARG A   5      -0.362   2.132  -3.142  0.00  0.00    +0.000 N 
ATOM     46  CZ  ARG A   5      -0.340   2.095  -4.574  0.00  0.00    +0.000 C 
ATOM     47  NH1 ARG A   5      -0.906   1.065  -5.091  0.00  0.00    +0.000 NA
ATOM     48  NH2 ARG A   5       0.591   2.902  -5.303  0.00  0.00    +0.000 N 
ATOM     49  HE  ARG A   5       0.468   2.272  -2.633  0.00  0.00    +0.000 HD
ATOM     50  HH1 ARG A   5      -1.541   0.533  -4.560  0.00  0.00    +0.000 HD
ATOM     51 HH21 ARG A   5       1.005   3.686  -4.874  0.00  0.00    +0.000 HD
ATOM     52 HH22 ARG A   5       0.816   2.674  -6.234  0.00  0.00    +0.000 HD
ENDBRANCH  44  45
ENDBRANCH  43  44
ENDBRANCH  42  43
ENDBRANCH  37  42
ENDBRANCH  35  37
ENDBRANCH  32  33
BRANCH  32  53
ATOM     53  CB  SER A   4       0.789  -0.357   0.397  0.00  0.00    +0.000 C 
BRANCH  53  54
ATOM     54  OG  SER A   4       0.035  -0.678  -0.703  0.00  0.00    +0.000 OA
ATOM     55  H   SER A   4      -0.172   0.129  -1.199  0.00  0.00    +0.000 HD
ENDBRANCH  53  54
ENDBRANCH  32  53
ENDBRANCH   3  32
TORSDOF 22
ENDMDL
