MODEL 1
REMARK VINA RESULT:    -7.104      0.000      0.000
REMARK INTER + INTRA:          -9.580
REMARK INTER:                  -7.999
REMARK INTRA:                  -1.581
REMARK CONF_INDEPENDENT:        0.895
REMARK UNBOUND:                 1.581
REMARK  Name = 
REMARK  3 active torsions:
REMARK  status: ('A' for Active; 'I' for Inactive)
REMARK    1  A    between atoms: C_5  and  C_6
REMARK    2  A    between atoms: C_9  and  N_10
REMARK    3  A    between atoms: C_21  and  C_22
REMARK                            x       y       z     vdW  Elec       q    Type
REMARK                         _______ _______ _______ _____ _____    ______ ____
ROOT
ATOM      1  C   UNL     1       3.362   3.843  -0.661  0.00  0.00    +0.000 A 
ATOM      2  N   UNL     1       2.294   3.985  -1.478  0.00  0.00    +0.000 NA
ATOM      3  N   UNL     1       2.450   3.160  -2.512  0.00  0.00    +0.000 N 
ATOM      4  C   UNL     1       1.487   2.608  -3.281  0.00  0.00    +0.000 A 
ATOM      5  C   UNL     1       1.573   1.310  -3.762  0.00  0.00    +0.000 A 
ATOM      6  C   UNL     1       2.828   0.714  -3.771  0.00  0.00    +0.000 A 
ATOM      7  N   UNL     1       3.829   1.412  -3.182  0.00  0.00    +0.000 NA
ATOM      8  C   UNL     1       3.538   2.384  -2.286  0.00  0.00    +0.000 A 
ATOM      9  C   UNL     1       4.223   2.890  -1.189  0.00  0.00    +0.000 A 
ENDROOT
BRANCH   9  10
ATOM     10  C   UNL     1       5.671   2.819  -1.003  0.00  0.00    +0.000 A 
ATOM     11  C   UNL     1       6.388   3.959  -0.670  0.00  0.00    +0.000 A 
ATOM     12  C   UNL     1       7.591   3.897   0.021  0.00  0.00    +0.000 A 
ATOM     13  N   UNL     1       8.271   2.730  -0.053  0.00  0.00    +0.000 NA
ATOM     14  C   UNL     1       7.628   1.619  -0.489  0.00  0.00    +0.000 A 
ATOM     15  C   UNL     1       8.279   0.397  -0.373  0.00  0.00    +0.000 A 
ATOM     16  C   UNL     1       7.573  -0.761  -0.672  0.00  0.00    +0.000 A 
ATOM     17  C   UNL     1       6.210  -0.723  -0.404  0.00  0.00    +0.000 A 
ATOM     18  C   UNL     1       5.521   0.483  -0.355  0.00  0.00    +0.000 A 
ATOM     19  C   UNL     1       6.256   1.607  -0.700  0.00  0.00    +0.000 A 
ENDBRANCH   9  10
BRANCH   5  20
ATOM     20  C   UNL     1       0.403   0.640  -4.345  0.00  0.00    +0.000 A 
ATOM     21  C   UNL     1      -0.241  -0.390  -3.681  0.00  0.00    +0.000 A 
ATOM     22  C   UNL     1      -0.949  -1.356  -4.345  0.00  0.00    +0.000 A 
ATOM     23  C   UNL     1      -0.938  -1.335  -5.732  0.00  0.00    +0.000 A 
ATOM     24  C   UNL     1      -0.751  -0.093  -6.327  0.00  0.00    +0.000 A 
ATOM     25  C   UNL     1       0.134   0.773  -5.697  0.00  0.00    +0.000 A 
BRANCH  23  26
ATOM     26  N   UNL     1      -1.448  -2.454  -6.460  0.00  0.00    +0.000 N 
ATOM     27  C   UNL     1      -2.896  -2.486  -6.651  0.00  0.00    +0.000 C 
ATOM     28  C   UNL     1      -3.229  -3.909  -7.081  0.00  0.00    +0.000 C 
ATOM     29  N   UNL     1      -2.980  -4.775  -5.931  0.00  0.00    +0.000 NA
ATOM     30  C   UNL     1      -1.641  -4.578  -5.400  0.00  0.00    +0.000 C 
ATOM     31  C   UNL     1      -0.800  -3.758  -6.354  0.00  0.00    +0.000 C 
ATOM     32  H   UNL     1      -3.082  -5.747  -6.218  0.00  0.00    +0.000 HD
ENDBRANCH  23  26
ENDBRANCH   5  20
TORSDOF 3
ENDMDL
MODEL 2
REMARK VINA RESULT:    -7.063      6.382     10.823
REMARK INTER + INTRA:          -9.241
REMARK INTER:                  -7.958
REMARK INTRA:                  -1.283
REMARK CONF_INDEPENDENT:        0.895
REMARK UNBOUND:                 1.283
REMARK  Name = 
REMARK  3 active torsions:
REMARK  status: ('A' for Active; 'I' for Inactive)
REMARK    1  A    between atoms: C_5  and  C_6
REMARK    2  A    between atoms: C_9  and  N_10
REMARK    3  A    between atoms: C_21  and  C_22
REMARK                            x       y       z     vdW  Elec       q    Type
REMARK                         _______ _______ _______ _____ _____    ______ ____
ROOT
ATOM      1  C   UNL     1      -4.821   4.924  -0.057  0.00  0.00    +0.000 A 
ATOM      2  N   UNL     1      -3.993   5.828  -0.628  0.00  0.00    +0.000 NA
ATOM      3  N   UNL     1      -2.766   5.627  -0.150  0.00  0.00    +0.000 N 
ATOM      4  C   UNL     1      -1.590   5.922  -0.744  0.00  0.00    +0.000 A 
ATOM      5  C   UNL     1      -0.477   5.101  -0.636  0.00  0.00    +0.000 A 
ATOM      6  C   UNL     1      -0.464   4.175   0.400  0.00  0.00    +0.000 A 
ATOM      7  N   UNL     1      -1.602   4.070   1.127  0.00  0.00    +0.000 NA
ATOM      8  C   UNL     1      -2.776   4.505   0.609  0.00  0.00    +0.000 A 
ATOM      9  C   UNL     1      -4.094   4.115   0.806  0.00  0.00    +0.000 A 
ENDROOT
BRANCH   9  10
ATOM     10  C   UNL     1      -4.595   3.437   2.000  0.00  0.00    +0.000 A 
ATOM     11  C   UNL     1      -4.252   3.902   3.262  0.00  0.00    +0.000 A 
ATOM     12  C   UNL     1      -5.059   3.686   4.370  0.00  0.00    +0.000 A 
ATOM     13  N   UNL     1      -5.916   2.641   4.301  0.00  0.00    +0.000 NA
ATOM     14  C   UNL     1      -6.181   2.086   3.093  0.00  0.00    +0.000 A 
ATOM     15  C   UNL     1      -7.204   1.149   3.012  0.00  0.00    +0.000 A 
ATOM     16  C   UNL     1      -7.586   0.690   1.758  0.00  0.00    +0.000 A 
ATOM     17  C   UNL     1      -7.455   1.602   0.717  0.00  0.00    +0.000 A 
ATOM     18  C   UNL     1      -6.554   2.656   0.794  0.00  0.00    +0.000 A 
ATOM     19  C   UNL     1      -5.733   2.662   1.913  0.00  0.00    +0.000 A 
ENDBRANCH   9  10
BRANCH   5  20
ATOM     20  C   UNL     1       0.688   5.287  -1.512  0.00  0.00    +0.000 A 
ATOM     21  C   UNL     1       1.638   4.292  -1.666  0.00  0.00    +0.000 A 
ATOM     22  C   UNL     1       2.935   4.568  -2.010  0.00  0.00    +0.000 A 
ATOM     23  C   UNL     1       3.311   5.899  -2.120  0.00  0.00    +0.000 A 
ATOM     24  C   UNL     1       2.306   6.796  -2.462  0.00  0.00    +0.000 A 
ATOM     25  C   UNL     1       1.049   6.561  -1.919  0.00  0.00    +0.000 A 
BRANCH  23  26
ATOM     26  N   UNL     1       4.696   6.234  -2.229  0.00  0.00    +0.000 N 
ATOM     27  C   UNL     1       5.006   7.410  -3.038  0.00  0.00    +0.000 C 
ATOM     28  C   UNL     1       6.500   7.336  -3.326  0.00  0.00    +0.000 C 
ATOM     29  N   UNL     1       6.710   6.197  -4.217  0.00  0.00    +0.000 NA
ATOM     30  C   UNL     1       6.115   4.986  -3.677  0.00  0.00    +0.000 C 
ATOM     31  C   UNL     1       5.710   5.184  -2.232  0.00  0.00    +0.000 C 
ATOM     32  H   UNL     1       7.712   6.050  -4.337  0.00  0.00    +0.000 HD
ENDBRANCH  23  26
ENDBRANCH   5  20
TORSDOF 3
ENDMDL
MODEL 3
REMARK VINA RESULT:    -7.023      2.218      4.104
REMARK INTER + INTRA:          -9.356
REMARK INTER:                  -7.918
REMARK INTRA:                  -1.438
REMARK CONF_INDEPENDENT:        0.895
REMARK UNBOUND:                 1.438
REMARK  Name = 
REMARK  3 active torsions:
REMARK  status: ('A' for Active; 'I' for Inactive)
REMARK    1  A    between atoms: C_5  and  C_6
REMARK    2  A    between atoms: C_9  and  N_10
REMARK    3  A    between atoms: C_21  and  C_22
REMARK                            x       y       z     vdW  Elec       q    Type
REMARK                         _______ _______ _______ _____ _____    ______ ____
ROOT
ATOM      1  C   UNL     1       5.145  -2.728  -2.562  0.00  0.00    +0.000 A 
ATOM      2  N   UNL     1       4.153  -3.600  -2.852  0.00  0.00    +0.000 NA
ATOM      3  N   UNL     1       2.995  -2.946  -2.792  0.00  0.00    +0.000 N 
ATOM      4  C   UNL     1       1.848  -3.236  -3.443  0.00  0.00    +0.000 A 
ATOM      5  C   UNL     1       1.011  -2.251  -3.948  0.00  0.00    +0.000 A 
ATOM      6  C   UNL     1       1.163  -0.964  -3.446  0.00  0.00    +0.000 A 
ATOM      7  N   UNL     1       2.206  -0.766  -2.605  0.00  0.00    +0.000 NA
ATOM      8  C   UNL     1       3.251  -1.628  -2.611  0.00  0.00    +0.000 A 
ATOM      9  C   UNL     1       4.600  -1.475  -2.317  0.00  0.00    +0.000 A 
ENDROOT
BRANCH   9  10
ATOM     10  C   UNL     1       5.154  -0.432  -1.456  0.00  0.00    +0.000 A 
ATOM     11  C   UNL     1       6.323  -0.664  -0.744  0.00  0.00    +0.000 A 
ATOM     12  C   UNL     1       7.169   0.368  -0.362  0.00  0.00    +0.000 A 
ATOM     13  N   UNL     1       6.619   1.601  -0.276  0.00  0.00    +0.000 NA
ATOM     14  C   UNL     1       5.418   1.829  -0.862  0.00  0.00    +0.000 A 
ATOM     15  C   UNL     1       4.962   3.139  -0.935  0.00  0.00    +0.000 A 
ATOM     16  C   UNL     1       3.810   3.401  -1.667  0.00  0.00    +0.000 A 
ATOM     17  C   UNL     1       3.592   2.575  -2.762  0.00  0.00    +0.000 A 
ATOM     18  C   UNL     1       4.145   1.302  -2.824  0.00  0.00    +0.000 A 
ATOM     19  C   UNL     1       4.819   0.886  -1.686  0.00  0.00    +0.000 A 
ENDBRANCH   9  10
BRANCH   5  20
ATOM     20  C   UNL     1      -0.065  -2.584  -4.890  0.00  0.00    +0.000 A 
ATOM     21  C   UNL     1      -1.144  -1.736  -5.079  0.00  0.00    +0.000 A 
ATOM     22  C   UNL     1      -2.365  -2.191  -5.499  0.00  0.00    +0.000 A 
ATOM     23  C   UNL     1      -2.533  -3.560  -5.654  0.00  0.00    +0.000 A 
ATOM     24  C   UNL     1      -1.389  -4.290  -5.955  0.00  0.00    +0.000 A 
ATOM     25  C   UNL     1      -0.211  -3.886  -5.340  0.00  0.00    +0.000 A 
BRANCH  23  26
ATOM     26  N   UNL     1      -3.844  -4.093  -5.845  0.00  0.00    +0.000 N 
ATOM     27  C   UNL     1      -4.298  -5.050  -4.839  0.00  0.00    +0.000 C 
ATOM     28  C   UNL     1      -5.506  -5.752  -5.446  0.00  0.00    +0.000 C 
ATOM     29  N   UNL     1      -5.016  -6.571  -6.552  0.00  0.00    +0.000 NA
ATOM     30  C   UNL     1      -4.218  -5.785  -7.479  0.00  0.00    +0.000 C 
ATOM     31  C   UNL     1      -4.363  -4.306  -7.193  0.00  0.00    +0.000 C 
ATOM     32  H   UNL     1      -5.812  -6.964  -7.053  0.00  0.00    +0.000 HD
ENDBRANCH  23  26
ENDBRANCH   5  20
TORSDOF 3
ENDMDL
MODEL 4
REMARK VINA RESULT:    -6.922      5.354      7.894
REMARK INTER + INTRA:          -9.369
REMARK INTER:                  -7.817
REMARK INTRA:                  -1.552
REMARK CONF_INDEPENDENT:        0.895
REMARK UNBOUND:                 1.552
REMARK  Name = 
REMARK  3 active torsions:
REMARK  status: ('A' for Active; 'I' for Inactive)
REMARK    1  A    between atoms: C_5  and  C_6
REMARK    2  A    between atoms: C_9  and  N_10
REMARK    3  A    between atoms: C_21  and  C_22
REMARK                            x       y       z     vdW  Elec       q    Type
REMARK                         _______ _______ _______ _____ _____    ______ ____
ROOT
ATOM      1  C   UNL     1       3.558   5.809  -2.809  0.00  0.00    +0.000 A 
ATOM      2  N   UNL     1       2.825   6.433  -1.860  0.00  0.00    +0.000 NA
ATOM      3  N   UNL     1       1.543   6.134  -2.063  0.00  0.00    +0.000 N 
ATOM      4  C   UNL     1       0.547   6.108  -1.152  0.00  0.00    +0.000 A 
ATOM      5  C   UNL     1      -0.461   5.155  -1.179  0.00  0.00    +0.000 A 
ATOM      6  C   UNL     1      -0.655   4.465  -2.370  0.00  0.00    +0.000 A 
ATOM      7  N   UNL     1       0.249   4.695  -3.353  0.00  0.00    +0.000 NA
ATOM      8  C   UNL     1       1.466   5.203  -3.044  0.00  0.00    +0.000 A 
ATOM      9  C   UNL     1       2.715   5.081  -3.639  0.00  0.00    +0.000 A 
ENDROOT
BRANCH   9  10
ATOM     10  C   UNL     1       2.944   4.747  -5.043  0.00  0.00    +0.000 A 
ATOM     11  C   UNL     1       3.988   5.339  -5.740  0.00  0.00    +0.000 A 
ATOM     12  C   UNL     1       4.587   4.725  -6.831  0.00  0.00    +0.000 A 
ATOM     13  N   UNL     1       3.852   3.792  -7.479  0.00  0.00    +0.000 NA
ATOM     14  C   UNL     1       2.754   3.279  -6.871  0.00  0.00    +0.000 A 
ATOM     15  C   UNL     1       2.127   2.189  -7.462  0.00  0.00    +0.000 A 
ATOM     16  C   UNL     1       1.099   1.561  -6.771  0.00  0.00    +0.000 A 
ATOM     17  C   UNL     1       1.206   1.576  -5.386  0.00  0.00    +0.000 A 
ATOM     18  C   UNL     1       1.946   2.554  -4.733  0.00  0.00    +0.000 A 
ATOM     19  C   UNL     1       2.461   3.556  -5.543  0.00  0.00    +0.000 A 
ENDBRANCH   9  10
BRANCH   5  20
ATOM     20  C   UNL     1      -1.358   4.969  -0.031  0.00  0.00    +0.000 A 
ATOM     21  C   UNL     1      -0.966   4.236   1.077  0.00  0.00    +0.000 A 
ATOM     22  C   UNL     1      -1.868   3.606   1.891  0.00  0.00    +0.000 A 
ATOM     23  C   UNL     1      -3.208   3.642   1.531  0.00  0.00    +0.000 A 
ATOM     24  C   UNL     1      -3.613   4.737   0.779  0.00  0.00    +0.000 A 
ATOM     25  C   UNL     1      -2.715   5.210  -0.170  0.00  0.00    +0.000 A 
BRANCH  23  26
ATOM     26  N   UNL     1      -4.143   2.798   2.205  0.00  0.00    +0.000 N 
ATOM     27  C   UNL     1      -5.475   2.718   1.611  0.00  0.00    +0.000 C 
ATOM     28  C   UNL     1      -6.373   2.107   2.680  0.00  0.00    +0.000 C 
ATOM     29  N   UNL     1      -6.495   3.092   3.752  0.00  0.00    +0.000 NA
ATOM     30  C   UNL     1      -5.190   3.540   4.211  0.00  0.00    +0.000 C 
ATOM     31  C   UNL     1      -4.094   2.656   3.657  0.00  0.00    +0.000 C 
ATOM     32  H   UNL     1      -6.995   2.671   4.535  0.00  0.00    +0.000 HD
ENDBRANCH  23  26
ENDBRANCH   5  20
TORSDOF 3
ENDMDL
MODEL 5
REMARK VINA RESULT:    -6.879      3.163      4.611
REMARK INTER + INTRA:          -9.369
REMARK INTER:                  -7.774
REMARK INTRA:                  -1.595
REMARK CONF_INDEPENDENT:        0.895
REMARK UNBOUND:                 1.595
REMARK  Name = 
REMARK  3 active torsions:
REMARK  status: ('A' for Active; 'I' for Inactive)
REMARK    1  A    between atoms: C_5  and  C_6
REMARK    2  A    between atoms: C_9  and  N_10
REMARK    3  A    between atoms: C_21  and  C_22
REMARK                            x       y       z     vdW  Elec       q    Type
REMARK                         _______ _______ _______ _____ _____    ______ ____
ROOT
ATOM      1  C   UNL     1       0.121   4.280  -1.675  0.00  0.00    +0.000 A 
ATOM      2  N   UNL     1      -0.615   3.232  -2.109  0.00  0.00    +0.000 NA
ATOM      3  N   UNL     1       0.151   2.490  -2.907  0.00  0.00    +0.000 N 
ATOM      4  C   UNL     1       0.038   1.169  -3.165  0.00  0.00    +0.000 A 
ATOM      5  C   UNL     1       1.143   0.345  -3.320  0.00  0.00    +0.000 A 
ATOM      6  C   UNL     1       2.361   0.956  -3.592  0.00  0.00    +0.000 A 
ATOM      7  N   UNL     1       2.379   2.310  -3.546  0.00  0.00    +0.000 NA
ATOM      8  C   UNL     1       1.415   2.975  -2.866  0.00  0.00    +0.000 A 
ATOM      9  C   UNL     1       1.401   4.197  -2.207  0.00  0.00    +0.000 A 
ENDROOT
BRANCH   9  10
ATOM     10  C   UNL     1       2.306   5.309  -2.489  0.00  0.00    +0.000 A 
ATOM     11  C   UNL     1       1.815   6.605  -2.568  0.00  0.00    +0.000 A 
ATOM     12  C   UNL     1       2.610   7.711  -2.300  0.00  0.00    +0.000 A 
ATOM     13  N   UNL     1       3.946   7.540  -2.425  0.00  0.00    +0.000 NA
ATOM     14  C   UNL     1       4.448   6.281  -2.471  0.00  0.00    +0.000 A 
ATOM     15  C   UNL     1       5.827   6.122  -2.402  0.00  0.00    +0.000 A 
ATOM     16  C   UNL     1       6.341   4.837  -2.293  0.00  0.00    +0.000 A 
ATOM     17  C   UNL     1       5.546   3.926  -1.607  0.00  0.00    +0.000 A 
ATOM     18  C   UNL     1       4.172   4.103  -1.508  0.00  0.00    +0.000 A 
ATOM     19  C   UNL     1       3.653   5.171  -2.225  0.00  0.00    +0.000 A 
ENDBRANCH   9  10
BRANCH   5  20
ATOM     20  C   UNL     1       1.003  -1.117  -3.312  0.00  0.00    +0.000 A 
ATOM     21  C   UNL     1       1.901  -1.921  -2.631  0.00  0.00    +0.000 A 
ATOM     22  C   UNL     1       2.140  -3.220  -2.996  0.00  0.00    +0.000 A 
ATOM     23  C   UNL     1       1.517  -3.701  -4.138  0.00  0.00    +0.000 A 
ATOM     24  C   UNL     1       0.308  -3.106  -4.477  0.00  0.00    +0.000 A 
ATOM     25  C   UNL     1       0.202  -1.739  -4.255  0.00  0.00    +0.000 A 
BRANCH  23  26
ATOM     26  N   UNL     1       1.926  -4.954  -4.690  0.00  0.00    +0.000 N 
ATOM     27  C   UNL     1       2.748  -5.796  -3.825  0.00  0.00    +0.000 C 
ATOM     28  C   UNL     1       3.368  -6.849  -4.734  0.00  0.00    +0.000 C 
ATOM     29  N   UNL     1       4.318  -6.159  -5.604  0.00  0.00    +0.000 NA
ATOM     30  C   UNL     1       3.695  -5.035  -6.282  0.00  0.00    +0.000 C 
ATOM     31  C   UNL     1       2.191  -5.076  -6.121  0.00  0.00    +0.000 C 
ATOM     32  H   UNL     1       4.666  -6.816  -6.302  0.00  0.00    +0.000 HD
ENDBRANCH  23  26
ENDBRANCH   5  20
TORSDOF 3
ENDMDL
MODEL 6
REMARK VINA RESULT:    -6.841      5.805      8.088
REMARK INTER + INTRA:          -9.341
REMARK INTER:                  -7.736
REMARK INTRA:                  -1.605
REMARK CONF_INDEPENDENT:        0.895
REMARK UNBOUND:                 1.605
REMARK  Name = 
REMARK  3 active torsions:
REMARK  status: ('A' for Active; 'I' for Inactive)
REMARK    1  A    between atoms: C_5  and  C_6
REMARK    2  A    between atoms: C_9  and  N_10
REMARK    3  A    between atoms: C_21  and  C_22
REMARK                            x       y       z     vdW  Elec       q    Type
REMARK                         _______ _______ _______ _____ _____    ______ ____
ROOT
ATOM      1  C   UNL     1       2.640   3.493  -3.644  0.00  0.00    +0.000 A 
ATOM      2  N   UNL     1       2.314   3.269  -2.351  0.00  0.00    +0.000 NA
ATOM      3  N   UNL     1       1.686   4.348  -1.889  0.00  0.00    +0.000 N 
ATOM      4  C   UNL     1       0.788   4.414  -0.883  0.00  0.00    +0.000 A 
ATOM      5  C   UNL     1      -0.314   5.256  -0.924  0.00  0.00    +0.000 A 
ATOM      6  C   UNL     1      -0.279   6.309  -1.829  0.00  0.00    +0.000 A 
ATOM      7  N   UNL     1       0.773   6.334  -2.682  0.00  0.00    +0.000 NA
ATOM      8  C   UNL     1       1.476   5.202  -2.920  0.00  0.00    +0.000 A 
ATOM      9  C   UNL     1       2.197   4.754  -4.020  0.00  0.00    +0.000 A 
ENDROOT
BRANCH   9  10
ATOM     10  C   UNL     1       2.779   5.617  -5.045  0.00  0.00    +0.000 A 
ATOM     11  C   UNL     1       1.987   6.110  -6.074  0.00  0.00    +0.000 A 
ATOM     12  C   UNL     1       2.290   7.293  -6.733  0.00  0.00    +0.000 A 
ATOM     13  N   UNL     1       3.580   7.699  -6.688  0.00  0.00    +0.000 NA
ATOM     14  C   UNL     1       4.411   7.148  -5.769  0.00  0.00    +0.000 A 
ATOM     15  C   UNL     1       5.671   7.711  -5.605  0.00  0.00    +0.000 A 
ATOM     16  C   UNL     1       6.471   7.256  -4.565  0.00  0.00    +0.000 A 
ATOM     17  C   UNL     1       5.795   6.832  -3.427  0.00  0.00    +0.000 A 
ATOM     18  C   UNL     1       4.477   6.397  -3.494  0.00  0.00    +0.000 A 
ATOM     19  C   UNL     1       3.939   6.310  -4.769  0.00  0.00    +0.000 A 
ENDBRANCH   9  10
BRANCH   5  20
ATOM     20  C   UNL     1      -1.418   5.105   0.034  0.00  0.00    +0.000 A 
ATOM     21  C   UNL     1      -1.204   4.596   1.303  0.00  0.00    +0.000 A 
ATOM     22  C   UNL     1      -2.191   3.962   2.011  0.00  0.00    +0.000 A 
ATOM     23  C   UNL     1      -3.413   3.758   1.387  0.00  0.00    +0.000 A 
ATOM     24  C   UNL     1      -3.758   4.669   0.397  0.00  0.00    +0.000 A 
ATOM     25  C   UNL     1      -2.728   5.129  -0.415  0.00  0.00    +0.000 A 
BRANCH  23  26
ATOM     26  N   UNL     1      -4.376   2.891   1.987  0.00  0.00    +0.000 N 
ATOM     27  C   UNL     1      -5.749   3.032   1.509  0.00  0.00    +0.000 C 
ATOM     28  C   UNL     1      -6.624   2.320   2.533  0.00  0.00    +0.000 C 
ATOM     29  N   UNL     1      -6.569   3.106   3.764  0.00  0.00    +0.000 NA
ATOM     30  C   UNL     1      -5.197   3.352   4.175  0.00  0.00    +0.000 C 
ATOM     31  C   UNL     1      -4.237   2.489   3.384  0.00  0.00    +0.000 C 
ATOM     32  H   UNL     1      -7.051   2.597   4.504  0.00  0.00    +0.000 HD
ENDBRANCH  23  26
ENDBRANCH   5  20
TORSDOF 3
ENDMDL
MODEL 7
REMARK VINA RESULT:    -6.828      6.315     10.541
REMARK INTER + INTRA:          -9.314
REMARK INTER:                  -7.723
REMARK INTRA:                  -1.591
REMARK CONF_INDEPENDENT:        0.895
REMARK UNBOUND:                 1.591
REMARK  Name = 
REMARK  3 active torsions:
REMARK  status: ('A' for Active; 'I' for Inactive)
REMARK    1  A    between atoms: C_5  and  C_6
REMARK    2  A    between atoms: C_9  and  N_10
REMARK    3  A    between atoms: C_21  and  C_22
REMARK                            x       y       z     vdW  Elec       q    Type
REMARK                         _______ _______ _______ _____ _____    ______ ____
ROOT
ATOM      1  C   UNL     1      -5.234   4.049  -1.690  0.00  0.00    +0.000 A 
ATOM      2  N   UNL     1      -4.297   4.466  -2.572  0.00  0.00    +0.000 NA
ATOM      3  N   UNL     1      -3.296   5.015  -1.886  0.00  0.00    +0.000 N 
ATOM      4  C   UNL     1      -2.001   5.116  -2.253  0.00  0.00    +0.000 A 
ATOM      5  C   UNL     1      -0.959   4.969  -1.350  0.00  0.00    +0.000 A 
ATOM      6  C   UNL     1      -1.261   5.101   0.000  0.00  0.00    +0.000 A 
ATOM      7  N   UNL     1      -2.572   5.228   0.314  0.00  0.00    +0.000 NA
ATOM      8  C   UNL     1      -3.519   4.818  -0.564  0.00  0.00    +0.000 A 
ATOM      9  C   UNL     1      -4.810   4.336  -0.399  0.00  0.00    +0.000 A 
ENDROOT
BRANCH   9  10
ATOM     10  C   UNL     1      -5.658   4.597   0.762  0.00  0.00    +0.000 A 
ATOM     11  C   UNL     1      -6.997   4.923   0.590  0.00  0.00    +0.000 A 
ATOM     12  C   UNL     1      -7.948   4.665   1.567  0.00  0.00    +0.000 A 
ATOM     13  N   UNL     1      -7.495   4.537   2.835  0.00  0.00    +0.000 NA
ATOM     14  C   UNL     1      -6.170   4.336   3.043  0.00  0.00    +0.000 A 
ATOM     15  C   UNL     1      -5.750   4.012   4.328  0.00  0.00    +0.000 A 
ATOM     16  C   UNL     1      -4.422   3.654   4.521  0.00  0.00    +0.000 A 
ATOM     17  C   UNL     1      -3.812   3.005   3.455  0.00  0.00    +0.000 A 
ATOM     18  C   UNL     1      -4.275   3.166   2.155  0.00  0.00    +0.000 A 
ATOM     19  C   UNL     1      -5.296   4.091   1.994  0.00  0.00    +0.000 A 
ENDBRANCH   9  10
BRANCH   5  20
ATOM     20  C   UNL     1       0.425   4.796  -1.812  0.00  0.00    +0.000 A 
ATOM     21  C   UNL     1       0.831   3.636  -2.449  0.00  0.00    +0.000 A 
ATOM     22  C   UNL     1       2.131   3.207  -2.425  0.00  0.00    +0.000 A 
ATOM     23  C   UNL     1       3.041   3.926  -1.663  0.00  0.00    +0.000 A 
ATOM     24  C   UNL     1       2.761   5.274  -1.480  0.00  0.00    +0.000 A 
ATOM     25  C   UNL     1       1.425   5.618  -1.319  0.00  0.00    +0.000 A 
BRANCH  23  26
ATOM     26  N   UNL     1       4.337   3.380  -1.409  0.00  0.00    +0.000 N 
ATOM     27  C   UNL     1       4.695   3.211  -0.003  0.00  0.00    +0.000 C 
ATOM     28  C   UNL     1       6.204   3.002   0.021  0.00  0.00    +0.000 C 
ATOM     29  N   UNL     1       6.819   4.266  -0.377  0.00  0.00    +0.000 NA
ATOM     30  C   UNL     1       6.273   4.747  -1.636  0.00  0.00    +0.000 C 
ATOM     31  C   UNL     1       5.448   3.672  -2.310  0.00  0.00    +0.000 C 
ATOM     32  H   UNL     1       7.823   4.128  -0.483  0.00  0.00    +0.000 HD
ENDBRANCH  23  26
ENDBRANCH   5  20
TORSDOF 3
ENDMDL
MODEL 8
REMARK VINA RESULT:    -6.787      5.050      6.594
REMARK INTER + INTRA:          -9.250
REMARK INTER:                  -7.682
REMARK INTRA:                  -1.568
REMARK CONF_INDEPENDENT:        0.895
REMARK UNBOUND:                 1.568
REMARK  Name = 
REMARK  3 active torsions:
REMARK  status: ('A' for Active; 'I' for Inactive)
REMARK    1  A    between atoms: C_5  and  C_6
REMARK    2  A    between atoms: C_9  and  N_10
REMARK    3  A    between atoms: C_21  and  C_22
REMARK                            x       y       z     vdW  Elec       q    Type
REMARK                         _______ _______ _______ _____ _____    ______ ____
ROOT
ATOM      1  C   UNL     1       4.085   3.280  -3.134  0.00  0.00    +0.000 A 
ATOM      2  N   UNL     1       2.876   2.824  -2.734  0.00  0.00    +0.000 NA
ATOM      3  N   UNL     1       2.290   3.780  -2.016  0.00  0.00    +0.000 N 
ATOM      4  C   UNL     1       0.967   3.982  -1.835  0.00  0.00    +0.000 A 
ATOM      5  C   UNL     1       0.411   5.251  -1.776  0.00  0.00    +0.000 A 
ATOM      6  C   UNL     1       1.269   6.313  -1.518  0.00  0.00    +0.000 A 
ATOM      7  N   UNL     1       2.591   6.023  -1.482  0.00  0.00    +0.000 NA
ATOM      8  C   UNL     1       3.052   4.898  -2.080  0.00  0.00    +0.000 A 
ATOM      9  C   UNL     1       4.270   4.572  -2.661  0.00  0.00    +0.000 A 
ENDROOT
BRANCH   9  10
ATOM     10  C   UNL     1       5.544   5.217  -2.349  0.00  0.00    +0.000 A 
ATOM     11  C   UNL     1       5.717   6.573  -2.592  0.00  0.00    +0.000 A 
ATOM     12  C   UNL     1       6.625   7.339  -1.873  0.00  0.00    +0.000 A 
ATOM     13  N   UNL     1       7.644   6.674  -1.283  0.00  0.00    +0.000 NA
ATOM     14  C   UNL     1       7.557   5.329  -1.139  0.00  0.00    +0.000 A 
ATOM     15  C   UNL     1       8.516   4.690  -0.361  0.00  0.00    +0.000 A 
ATOM     16  C   UNL     1       8.349   3.340  -0.079  0.00  0.00    +0.000 A 
ATOM     17  C   UNL     1       7.034   2.903   0.021  0.00  0.00    +0.000 A 
ATOM     18  C   UNL     1       6.000   3.584  -0.610  0.00  0.00    +0.000 A 
ATOM     19  C   UNL     1       6.387   4.640  -1.422  0.00  0.00    +0.000 A 
ENDBRANCH   9  10
BRANCH   5  20
ATOM     20  C   UNL     1      -1.043   5.445  -1.867  0.00  0.00    +0.000 A 
ATOM     21  C   UNL     1      -1.698   6.362  -1.063  0.00  0.00    +0.000 A 
ATOM     22  C   UNL     1      -3.019   6.225  -0.728  0.00  0.00    +0.000 A 
ATOM     23  C   UNL     1      -3.683   5.082  -1.147  0.00  0.00    +0.000 A 
ATOM     24  C   UNL     1      -3.206   4.483  -2.307  0.00  0.00    +0.000 A 
ATOM     25  C   UNL     1      -1.828   4.490  -2.491  0.00  0.00    +0.000 A 
BRANCH  23  26
ATOM     26  N   UNL     1      -4.975   4.780  -0.616  0.00  0.00    +0.000 N 
ATOM     27  C   UNL     1      -5.804   5.930  -0.262  0.00  0.00    +0.000 C 
ATOM     28  C   UNL     1      -6.922   5.383   0.617  0.00  0.00    +0.000 C 
ATOM     29  N   UNL     1      -6.310   4.956   1.873  0.00  0.00    +0.000 NA
ATOM     30  C   UNL     1      -5.197   4.050   1.639  0.00  0.00    +0.000 C 
ATOM     31  C   UNL     1      -5.176   3.586   0.199  0.00  0.00    +0.000 C 
ATOM     32  H   UNL     1      -7.011   4.480   2.440  0.00  0.00    +0.000 HD
ENDBRANCH  23  26
ENDBRANCH   5  20
TORSDOF 3
ENDMDL
MODEL 9
REMARK VINA RESULT:    -6.631      3.812      5.284
REMARK INTER + INTRA:          -9.118
REMARK INTER:                  -7.526
REMARK INTRA:                  -1.592
REMARK CONF_INDEPENDENT:        0.895
REMARK UNBOUND:                 1.592
REMARK  Name = 
REMARK  3 active torsions:
REMARK  status: ('A' for Active; 'I' for Inactive)
REMARK    1  A    between atoms: C_5  and  C_6
REMARK    2  A    between atoms: C_9  and  N_10
REMARK    3  A    between atoms: C_21  and  C_22
REMARK                            x       y       z     vdW  Elec       q    Type
REMARK                         _______ _______ _______ _____ _____    ______ ____
ROOT
ATOM      1  C   UNL     1      -2.561   4.337  -2.157  0.00  0.00    +0.000 A 
ATOM      2  N   UNL     1      -3.396   3.681  -2.994  0.00  0.00    +0.000 NA
ATOM      3  N   UNL     1      -2.748   3.461  -4.137  0.00  0.00    +0.000 N 
ATOM      4  C   UNL     1      -2.966   2.474  -5.033  0.00  0.00    +0.000 A 
ATOM      5  C   UNL     1      -1.932   1.845  -5.710  0.00  0.00    +0.000 A 
ATOM      6  C   UNL     1      -0.705   2.495  -5.749  0.00  0.00    +0.000 A 
ATOM      7  N   UNL     1      -0.598   3.623  -5.006  0.00  0.00    +0.000 NA
ATOM      8  C   UNL     1      -1.457   3.840  -3.982  0.00  0.00    +0.000 A 
ATOM      9  C   UNL     1      -1.339   4.534  -2.785  0.00  0.00    +0.000 A 
ENDROOT
BRANCH   9  10
ATOM     10  C   UNL     1      -0.393   5.620  -2.539  0.00  0.00    +0.000 A 
ATOM     11  C   UNL     1      -0.847   6.854  -2.092  0.00  0.00    +0.000 A 
ATOM     12  C   UNL     1      -0.043   7.711  -1.354  0.00  0.00    +0.000 A 
ATOM     13  N   UNL     1       1.294   7.546  -1.480  0.00  0.00    +0.000 NA
ATOM     14  C   UNL     1       1.767   6.398  -2.024  0.00  0.00    +0.000 A 
ATOM     15  C   UNL     1       3.135   6.161  -1.966  0.00  0.00    +0.000 A 
ATOM     16  C   UNL     1       3.612   4.923  -2.380  0.00  0.00    +0.000 A 
ATOM     17  C   UNL     1       2.756   3.848  -2.172  0.00  0.00    +0.000 A 
ATOM     18  C   UNL     1       1.383   4.031  -2.068  0.00  0.00    +0.000 A 
ATOM     19  C   UNL     1       0.933   5.323  -2.297  0.00  0.00    +0.000 A 
ENDBRANCH   9  10
BRANCH   5  20
ATOM     20  C   UNL     1      -2.162   0.598  -6.451  0.00  0.00    +0.000 A 
ATOM     21  C   UNL     1      -3.409  -0.004  -6.477  0.00  0.00    +0.000 A 
ATOM     22  C   UNL     1      -3.565  -1.350  -6.677  0.00  0.00    +0.000 A 
ATOM     23  C   UNL     1      -2.423  -2.133  -6.770  0.00  0.00    +0.000 A 
ATOM     24  C   UNL     1      -1.280  -1.499  -7.240  0.00  0.00    +0.000 A 
ATOM     25  C   UNL     1      -1.086  -0.183  -6.839  0.00  0.00    +0.000 A 
BRANCH  23  26
ATOM     26  N   UNL     1      -2.538  -3.556  -6.727  0.00  0.00    +0.000 N 
ATOM     27  C   UNL     1      -3.871  -4.097  -6.977  0.00  0.00    +0.000 C 
ATOM     28  C   UNL     1      -3.830  -5.545  -6.503  0.00  0.00    +0.000 C 
ATOM     29  N   UNL     1      -3.700  -5.516  -5.048  0.00  0.00    +0.000 NA
ATOM     30  C   UNL     1      -2.579  -4.688  -4.633  0.00  0.00    +0.000 C 
ATOM     31  C   UNL     1      -1.705  -4.335  -5.816  0.00  0.00    +0.000 C 
ATOM     32  H   UNL     1      -3.554  -6.466  -4.708  0.00  0.00    +0.000 HD
ENDBRANCH  23  26
ENDBRANCH   5  20
TORSDOF 3
ENDMDL
