MODEL 1
REMARK VINA RESULT:    -6.605      0.000      0.000
REMARK INTER + INTRA:          -6.605
REMARK INTER:                  -6.605
REMARK INTRA:                   0.000
REMARK CONF_INDEPENDENT:        0.000
REMARK UNBOUND:                -0.000
REMARK  Name = 
REMARK  2 active torsions:
REMARK  status: ('A' for Active; 'I' for Inactive)
REMARK    1  A    between atoms: C_1  and  C_2
REMARK    2  A    between atoms: C_20  and  C_21
REMARK                            x       y       z     vdW  Elec       q    Type
REMARK                         _______ _______ _______ _____ _____    ______ ____
ROOT
ATOM      1  C   UNL     1       5.316   3.671  -4.143  0.00  0.00    +0.000 C 
ATOM      2  C   UNL     1       5.659   2.421  -4.764  0.00  0.00    +0.000 A 
ATOM      3  C   UNL     1       6.884   2.213  -5.384  0.00  0.00    +0.000 A 
ATOM      4  C   UNL     1       7.450   0.953  -5.315  0.00  0.00    +0.000 A 
ATOM      5  C   UNL     1       6.597  -0.123  -5.277  0.00  0.00    +0.000 A 
ATOM      6  C   UNL     1       5.251   0.109  -5.028  0.00  0.00    +0.000 A 
ATOM      7  C   UNL     1       4.764   1.381  -4.747  0.00  0.00    +0.000 A 
ATOM      8  C   UNL     1       3.526   1.584  -4.150  0.00  0.00    +0.000 A 
ATOM      9  C   UNL     1       2.827   0.492  -3.676  0.00  0.00    +0.000 A 
ATOM     10  C   UNL     1       3.377  -0.773  -3.761  0.00  0.00    +0.000 A 
ATOM     11  C   UNL     1       4.402  -0.934  -4.679  0.00  0.00    +0.000 A 
ATOM     12  C   UNL     1       4.717  -2.272  -5.191  0.00  0.00    +0.000 C 
ATOM     13  O   UNL     1       5.886  -2.528  -5.606  0.00  0.00    +0.000 OA
ATOM     14  C   UNL     1       4.034  -3.377  -4.505  0.00  0.00    +0.000 C 
ATOM     15  O   UNL     1       4.013  -4.487  -5.105  0.00  0.00    +0.000 OA
ATOM     16  C   UNL     1       3.013  -3.072  -3.508  0.00  0.00    +0.000 C 
ATOM     17  C   UNL     1       2.829  -1.903  -3.000  0.00  0.00    +0.000 C 
ATOM     18  O   UNL     1       2.408  -1.920  -1.690  0.00  0.00    +0.000 OA
ATOM     19  C   UNL     1       1.501  -3.005  -1.671  0.00  0.00    +0.000 C 
ATOM     20  C   UNL     1       2.446  -4.135  -2.426  0.00  0.00    +0.000 C 
ATOM     21  C   UNL     1       3.711  -3.855  -1.392  0.00  0.00    +0.000 C 
ENDROOT
TORSDOF 0
ENDMDL
MODEL 2
REMARK VINA RESULT:    -6.600      1.670      6.042
REMARK INTER + INTRA:          -6.600
REMARK INTER:                  -6.600
REMARK INTRA:                   0.000
REMARK CONF_INDEPENDENT:        0.000
REMARK UNBOUND:                -0.000
REMARK  Name = 
REMARK  2 active torsions:
REMARK  status: ('A' for Active; 'I' for Inactive)
REMARK    1  A    between atoms: C_1  and  C_2
REMARK    2  A    between atoms: C_20  and  C_21
REMARK                            x       y       z     vdW  Elec       q    Type
REMARK                         _______ _______ _______ _____ _____    ______ ____
ROOT
ATOM      1  C   UNL     1       3.781  -5.673  -2.860  0.00  0.00    +0.000 C 
ATOM      2  C   UNL     1       3.093  -4.411  -2.817  0.00  0.00    +0.000 A 
ATOM      3  C   UNL     1       2.088  -4.146  -1.897  0.00  0.00    +0.000 A 
ATOM      4  C   UNL     1       1.969  -2.859  -1.406  0.00  0.00    +0.000 A 
ATOM      5  C   UNL     1       2.313  -1.828  -2.245  0.00  0.00    +0.000 A 
ATOM      6  C   UNL     1       3.013  -2.126  -3.407  0.00  0.00    +0.000 A 
ATOM      7  C   UNL     1       3.433  -3.418  -3.701  0.00  0.00    +0.000 A 
ATOM      8  C   UNL     1       4.421  -3.679  -4.642  0.00  0.00    +0.000 A 
ATOM      9  C   UNL     1       5.120  -2.621  -5.185  0.00  0.00    +0.000 A 
ATOM     10  C   UNL     1       4.863  -1.330  -4.763  0.00  0.00    +0.000 A 
ATOM     11  C   UNL     1       3.648  -1.124  -4.132  0.00  0.00    +0.000 A 
ATOM     12  C   UNL     1       3.073   0.224  -4.082  0.00  0.00    +0.000 C 
ATOM     13  O   UNL     1       2.279   0.536  -3.145  0.00  0.00    +0.000 OA
ATOM     14  C   UNL     1       3.966   1.299  -4.537  0.00  0.00    +0.000 C 
ATOM     15  O   UNL     1       3.422   2.401  -4.821  0.00  0.00    +0.000 OA
ATOM     16  C   UNL     1       5.252   0.949  -5.131  0.00  0.00    +0.000 C 
ATOM     17  C   UNL     1       5.780  -0.224  -5.067  0.00  0.00    +0.000 C 
ATOM     18  O   UNL     1       7.154  -0.219  -5.006  0.00  0.00    +0.000 OA
ATOM     19  C   UNL     1       7.500   0.820  -5.902  0.00  0.00    +0.000 C 
ATOM     20  C   UNL     1       6.476   1.990  -5.337  0.00  0.00    +0.000 C 
ATOM     21  C   UNL     1       7.001   1.781  -3.779  0.00  0.00    +0.000 C 
ENDROOT
TORSDOF 0
ENDMDL
MODEL 3
REMARK VINA RESULT:    -6.560      2.353      5.551
REMARK INTER + INTRA:          -6.560
REMARK INTER:                  -6.560
REMARK INTRA:                   0.000
REMARK CONF_INDEPENDENT:        0.000
REMARK UNBOUND:                -0.000
REMARK  Name = 
REMARK  2 active torsions:
REMARK  status: ('A' for Active; 'I' for Inactive)
REMARK    1  A    between atoms: C_1  and  C_2
REMARK    2  A    between atoms: C_20  and  C_21
REMARK                            x       y       z     vdW  Elec       q    Type
REMARK                         _______ _______ _______ _____ _____    ______ ____
ROOT
ATOM      1  C   UNL     1       2.243  -3.690  -3.321  0.00  0.00    +0.000 C 
ATOM      2  C   UNL     1       3.451  -3.022  -3.721  0.00  0.00    +0.000 A 
ATOM      3  C   UNL     1       4.489  -3.686  -4.360  0.00  0.00    +0.000 A 
ATOM      4  C   UNL     1       5.224  -3.000  -5.309  0.00  0.00    +0.000 A 
ATOM      5  C   UNL     1       5.387  -1.648  -5.126  0.00  0.00    +0.000 A 
ATOM      6  C   UNL     1       4.594  -1.007  -4.184  0.00  0.00    +0.000 A 
ATOM      7  C   UNL     1       3.599  -1.678  -3.482  0.00  0.00    +0.000 A 
ATOM      8  C   UNL     1       2.577  -1.007  -2.823  0.00  0.00    +0.000 A 
ATOM      9  C   UNL     1       2.451   0.355  -3.002  0.00  0.00    +0.000 A 
ATOM     10  C   UNL     1       3.307   1.025  -3.856  0.00  0.00    +0.000 A 
ATOM     11  C   UNL     1       4.492   0.379  -4.164  0.00  0.00    +0.000 A 
ATOM     12  C   UNL     1       5.642   1.155  -4.638  0.00  0.00    +0.000 C 
ATOM     13  O   UNL     1       6.517   0.602  -5.368  0.00  0.00    +0.000 OA
ATOM     14  C   UNL     1       5.357   2.562  -4.952  0.00  0.00    +0.000 C 
ATOM     15  O   UNL     1       6.351   3.333  -5.041  0.00  0.00    +0.000 OA
ATOM     16  C   UNL     1       4.041   3.107  -4.633  0.00  0.00    +0.000 C 
ATOM     17  C   UNL     1       3.020   2.389  -4.319  0.00  0.00    +0.000 C 
ATOM     18  O   UNL     1       1.817   2.907  -4.741  0.00  0.00    +0.000 OA
ATOM     19  C   UNL     1       1.981   4.293  -4.513  0.00  0.00    +0.000 C 
ATOM     20  C   UNL     1       3.458   4.494  -5.234  0.00  0.00    +0.000 C 
ATOM     21  C   UNL     1       2.946   3.750  -6.624  0.00  0.00    +0.000 C 
ENDROOT
TORSDOF 0
ENDMDL
MODEL 4
REMARK VINA RESULT:    -6.275      2.235      5.572
REMARK INTER + INTRA:          -6.275
REMARK INTER:                  -6.275
REMARK INTRA:                   0.000
REMARK CONF_INDEPENDENT:        0.000
REMARK UNBOUND:                -0.000
REMARK  Name = 
REMARK  2 active torsions:
REMARK  status: ('A' for Active; 'I' for Inactive)
REMARK    1  A    between atoms: C_1  and  C_2
REMARK    2  A    between atoms: C_20  and  C_21
REMARK                            x       y       z     vdW  Elec       q    Type
REMARK                         _______ _______ _______ _____ _____    ______ ____
ROOT
ATOM      1  C   UNL     1       2.476  -2.841  -1.016  0.00  0.00    +0.000 C 
ATOM      2  C   UNL     1       3.196  -2.635  -2.243  0.00  0.00    +0.000 A 
ATOM      3  C   UNL     1       3.356  -3.641  -3.186  0.00  0.00    +0.000 A 
ATOM      4  C   UNL     1       3.374  -3.291  -4.524  0.00  0.00    +0.000 A 
ATOM      5  C   UNL     1       3.897  -2.063  -4.849  0.00  0.00    +0.000 A 
ATOM      6  C   UNL     1       4.110  -1.144  -3.831  0.00  0.00    +0.000 A 
ATOM      7  C   UNL     1       3.744  -1.406  -2.516  0.00  0.00    +0.000 A 
ATOM      8  C   UNL     1       3.611  -0.398  -1.569  0.00  0.00    +0.000 A 
ATOM      9  C   UNL     1       3.687   0.917  -1.981  0.00  0.00    +0.000 A 
ATOM     10  C   UNL     1       3.851   1.215  -3.321  0.00  0.00    +0.000 A 
ATOM     11  C   UNL     1       4.342   0.196  -4.119  0.00  0.00    +0.000 A 
ATOM     12  C   UNL     1       4.994   0.518  -5.392  0.00  0.00    +0.000 C 
ATOM     13  O   UNL     1       5.001  -0.335  -6.330  0.00  0.00    +0.000 OA
ATOM     14  C   UNL     1       4.876   1.920  -5.815  0.00  0.00    +0.000 C 
ATOM     15  O   UNL     1       5.678   2.310  -6.707  0.00  0.00    +0.000 OA
ATOM     16  C   UNL     1       4.279   2.888  -4.901  0.00  0.00    +0.000 C 
ATOM     17  C   UNL     1       3.621   2.569  -3.841  0.00  0.00    +0.000 C 
ATOM     18  O   UNL     1       2.596   3.434  -3.534  0.00  0.00    +0.000 OA
ATOM     19  C   UNL     1       3.157   4.697  -3.836  0.00  0.00    +0.000 C 
ATOM     20  C   UNL     1       3.751   4.355  -5.343  0.00  0.00    +0.000 C 
ATOM     21  C   UNL     1       2.293   3.749  -5.845  0.00  0.00    +0.000 C 
ENDROOT
TORSDOF 0
ENDMDL
MODEL 5
REMARK VINA RESULT:    -6.182      1.134      1.454
REMARK INTER + INTRA:          -6.182
REMARK INTER:                  -6.182
REMARK INTRA:                   0.000
REMARK CONF_INDEPENDENT:        0.000
REMARK UNBOUND:                -0.000
REMARK  Name = 
REMARK  2 active torsions:
REMARK  status: ('A' for Active; 'I' for Inactive)
REMARK    1  A    between atoms: C_1  and  C_2
REMARK    2  A    between atoms: C_20  and  C_21
REMARK                            x       y       z     vdW  Elec       q    Type
REMARK                         _______ _______ _______ _____ _____    ______ ____
ROOT
ATOM      1  C   UNL     1       4.449   2.598  -2.879  0.00  0.00    +0.000 C 
ATOM      2  C   UNL     1       4.769   1.526  -3.781  0.00  0.00    +0.000 A 
ATOM      3  C   UNL     1       5.876   1.568  -4.618  0.00  0.00    +0.000 A 
ATOM      4  C   UNL     1       6.540   0.386  -4.890  0.00  0.00    +0.000 A 
ATOM      5  C   UNL     1       5.791  -0.766  -4.927  0.00  0.00    +0.000 A 
ATOM      6  C   UNL     1       4.497  -0.730  -4.424  0.00  0.00    +0.000 A 
ATOM      7  C   UNL     1       3.973   0.409  -3.824  0.00  0.00    +0.000 A 
ATOM      8  C   UNL     1       2.850   0.365  -3.008  0.00  0.00    +0.000 A 
ATOM      9  C   UNL     1       2.333  -0.863  -2.652  0.00  0.00    +0.000 A 
ATOM     10  C   UNL     1       2.953  -2.025  -3.071  0.00  0.00    +0.000 A 
ATOM     11  C   UNL     1       3.807  -1.906  -4.155  0.00  0.00    +0.000 A 
ATOM     12  C   UNL     1       4.126  -3.086  -4.964  0.00  0.00    +0.000 C 
ATOM     13  O   UNL     1       5.218  -3.135  -5.603  0.00  0.00    +0.000 OA
ATOM     14  C   UNL     1       3.663  -4.365  -4.407  0.00  0.00    +0.000 C 
ATOM     15  O   UNL     1       3.620  -5.344  -5.203  0.00  0.00    +0.000 OA
ATOM     16  C   UNL     1       2.816  -4.357  -3.219  0.00  0.00    +0.000 C 
ATOM     17  C   UNL     1       2.637  -3.326  -2.468  0.00  0.00    +0.000 C 
ATOM     18  O   UNL     1       2.459  -3.625  -1.137  0.00  0.00    +0.000 OA
ATOM     19  C   UNL     1       1.656  -4.789  -1.186  0.00  0.00    +0.000 C 
ATOM     20  C   UNL     1       2.535  -5.654  -2.290  0.00  0.00    +0.000 C 
ATOM     21  C   UNL     1       3.938  -5.429  -1.439  0.00  0.00    +0.000 C 
ENDROOT
TORSDOF 0
ENDMDL
MODEL 6
REMARK VINA RESULT:    -6.117      1.655      3.372
REMARK INTER + INTRA:          -6.117
REMARK INTER:                  -6.117
REMARK INTRA:                   0.000
REMARK CONF_INDEPENDENT:        0.000
REMARK UNBOUND:                -0.000
REMARK  Name = 
REMARK  2 active torsions:
REMARK  status: ('A' for Active; 'I' for Inactive)
REMARK    1  A    between atoms: C_1  and  C_2
REMARK    2  A    between atoms: C_20  and  C_21
REMARK                            x       y       z     vdW  Elec       q    Type
REMARK                         _______ _______ _______ _____ _____    ______ ____
ROOT
ATOM      1  C   UNL     1       4.516   3.364  -7.148  0.00  0.00    +0.000 C 
ATOM      2  C   UNL     1       4.355   3.185  -5.731  0.00  0.00    +0.000 A 
ATOM      3  C   UNL     1       3.808   4.168  -4.917  0.00  0.00    +0.000 A 
ATOM      4  C   UNL     1       3.042   3.775  -3.836  0.00  0.00    +0.000 A 
ATOM      5  C   UNL     1       3.373   2.592  -3.222  0.00  0.00    +0.000 A 
ATOM      6  C   UNL     1       4.251   1.733  -3.871  0.00  0.00    +0.000 A 
ATOM      7  C   UNL     1       4.739   2.006  -5.144  0.00  0.00    +0.000 A 
ATOM      8  C   UNL     1       5.308   1.023  -5.944  0.00  0.00    +0.000 A 
ATOM      9  C   UNL     1       5.244  -0.292  -5.532  0.00  0.00    +0.000 A 
ATOM     10  C   UNL     1       4.585  -0.620  -4.361  0.00  0.00    +0.000 A 
ATOM     11  C   UNL     1       4.387   0.412  -3.461  0.00  0.00    +0.000 A 
ATOM     12  C   UNL     1       4.156   0.109  -2.045  0.00  0.00    +0.000 C 
ATOM     13  O   UNL     1       3.507   0.925  -1.324  0.00  0.00    +0.000 OA
ATOM     14  C   UNL     1       3.940  -1.312  -1.740  0.00  0.00    +0.000 C 
ATOM     15  O   UNL     1       4.066  -1.655  -0.532  0.00  0.00    +0.000 OA
ATOM     16  C   UNL     1       4.121  -2.300  -2.798  0.00  0.00    +0.000 C 
ATOM     17  C   UNL     1       4.219  -2.008  -4.049  0.00  0.00    +0.000 C 
ATOM     18  O   UNL     1       3.683  -2.955  -4.890  0.00  0.00    +0.000 OA
ATOM     19  C   UNL     1       4.062  -4.169  -4.271  0.00  0.00    +0.000 C 
ATOM     20  C   UNL     1       3.578  -3.825  -2.726  0.00  0.00    +0.000 C 
ATOM     21  C   UNL     1       2.066  -3.378  -3.235  0.00  0.00    +0.000 C 
ENDROOT
TORSDOF 0
ENDMDL
MODEL 7
REMARK VINA RESULT:    -5.891      1.971      3.322
REMARK INTER + INTRA:          -5.891
REMARK INTER:                  -5.891
REMARK INTRA:                   0.000
REMARK CONF_INDEPENDENT:        0.000
REMARK UNBOUND:                -0.000
REMARK  Name = 
REMARK  2 active torsions:
REMARK  status: ('A' for Active; 'I' for Inactive)
REMARK    1  A    between atoms: C_1  and  C_2
REMARK    2  A    between atoms: C_20  and  C_21
REMARK                            x       y       z     vdW  Elec       q    Type
REMARK                         _______ _______ _______ _____ _____    ______ ____
ROOT
ATOM      1  C   UNL     1       4.167   1.164  -2.450  0.00  0.00    +0.000 C 
ATOM      2  C   UNL     1       4.049   0.095  -3.403  0.00  0.00    +0.000 A 
ATOM      3  C   UNL     1       4.520   0.207  -4.705  0.00  0.00    +0.000 A 
ATOM      4  C   UNL     1       5.038  -0.920  -5.315  0.00  0.00    +0.000 A 
ATOM      5  C   UNL     1       4.497  -2.133  -4.966  0.00  0.00    +0.000 A 
ATOM      6  C   UNL     1       3.682  -2.196  -3.844  0.00  0.00    +0.000 A 
ATOM      7  C   UNL     1       3.462  -1.089  -3.033  0.00  0.00    +0.000 A 
ATOM      8  C   UNL     1       2.966  -1.205  -1.740  0.00  0.00    +0.000 A 
ATOM      9  C   UNL     1       2.839  -2.462  -1.186  0.00  0.00    +0.000 A 
ATOM     10  C   UNL     1       3.240  -3.578  -1.897  0.00  0.00    +0.000 A 
ATOM     11  C   UNL     1       3.358  -3.419  -3.267  0.00  0.00    +0.000 A 
ATOM     12  C   UNL     1       3.298  -4.592  -4.144  0.00  0.00    +0.000 C 
ATOM     13  O   UNL     1       3.872  -4.565  -5.273  0.00  0.00    +0.000 OA
ATOM     14  C   UNL     1       3.329  -5.888  -3.452  0.00  0.00    +0.000 C 
ATOM     15  O   UNL     1       2.955  -6.893  -4.117  0.00  0.00    +0.000 OA
ATOM     16  C   UNL     1       3.260  -5.916  -1.995  0.00  0.00    +0.000 C 
ATOM     17  C   UNL     1       3.420  -4.881  -1.245  0.00  0.00    +0.000 C 
ATOM     18  O   UNL     1       4.017  -5.150  -0.035  0.00  0.00    +0.000 OA
ATOM     19  C   UNL     1       3.426  -6.381   0.334  0.00  0.00    +0.000 C 
ATOM     20  C   UNL     1       3.646  -7.201  -1.087  0.00  0.00    +0.000 C 
ATOM     21  C   UNL     1       5.259  -6.824  -1.124  0.00  0.00    +0.000 C 
ENDROOT
TORSDOF 0
ENDMDL
MODEL 8
REMARK VINA RESULT:    -5.600      1.649      5.731
REMARK INTER + INTRA:          -5.600
REMARK INTER:                  -5.600
REMARK INTRA:                   0.000
REMARK CONF_INDEPENDENT:        0.000
REMARK UNBOUND:                -0.000
REMARK  Name = 
REMARK  2 active torsions:
REMARK  status: ('A' for Active; 'I' for Inactive)
REMARK    1  A    between atoms: C_1  and  C_2
REMARK    2  A    between atoms: C_20  and  C_21
REMARK                            x       y       z     vdW  Elec       q    Type
REMARK                         _______ _______ _______ _____ _____    ______ ____
ROOT
ATOM      1  C   UNL     1       1.245  -5.737  -0.891  0.00  0.00    +0.000 C 
ATOM      2  C   UNL     1       2.137  -5.520  -1.996  0.00  0.00    +0.000 A 
ATOM      3  C   UNL     1       2.194  -6.382  -3.083  0.00  0.00    +0.000 A 
ATOM      4  C   UNL     1       2.450  -5.849  -4.333  0.00  0.00    +0.000 A 
ATOM      5  C   UNL     1       3.257  -4.739  -4.394  0.00  0.00    +0.000 A 
ATOM      6  C   UNL     1       3.534  -4.057  -3.217  0.00  0.00    +0.000 A 
ATOM      7  C   UNL     1       2.962  -4.423  -2.004  0.00  0.00    +0.000 A 
ATOM      8  C   UNL     1       2.931  -3.565  -0.912  0.00  0.00    +0.000 A 
ATOM      9  C   UNL     1       3.333  -2.256  -1.081  0.00  0.00    +0.000 A 
ATOM     10  C   UNL     1       3.720  -1.805  -2.330  0.00  0.00    +0.000 A 
ATOM     11  C   UNL     1       4.078  -2.778  -3.247  0.00  0.00    +0.000 A 
ATOM     12  C   UNL     1       4.934  -2.427  -4.384  0.00  0.00    +0.000 C 
ATOM     13  O   UNL     1       4.875  -3.107  -5.451  0.00  0.00    +0.000 OA
ATOM     14  C   UNL     1       5.168  -0.988  -4.566  0.00  0.00    +0.000 C 
ATOM     15  O   UNL     1       6.138  -0.662  -5.304  0.00  0.00    +0.000 OA
ATOM     16  C   UNL     1       4.683  -0.057  -3.552  0.00  0.00    +0.000 C 
ATOM     17  C   UNL     1       3.848  -0.372  -2.624  0.00  0.00    +0.000 C 
ATOM     18  O   UNL     1       3.000   0.649  -2.261  0.00  0.00    +0.000 OA
ATOM     19  C   UNL     1       3.848   1.780  -2.290  0.00  0.00    +0.000 C 
ATOM     20  C   UNL     1       4.536   1.541  -3.776  0.00  0.00    +0.000 C 
ATOM     21  C   UNL     1       3.055   1.368  -4.500  0.00  0.00    +0.000 C 
ENDROOT
TORSDOF 0
ENDMDL
MODEL 9
REMARK VINA RESULT:    -5.293      2.918      5.945
REMARK INTER + INTRA:          -5.293
REMARK INTER:                  -5.293
REMARK INTRA:                   0.000
REMARK CONF_INDEPENDENT:        0.000
REMARK UNBOUND:                -0.000
REMARK  Name = 
REMARK  2 active torsions:
REMARK  status: ('A' for Active; 'I' for Inactive)
REMARK    1  A    between atoms: C_1  and  C_2
REMARK    2  A    between atoms: C_20  and  C_21
REMARK                            x       y       z     vdW  Elec       q    Type
REMARK                         _______ _______ _______ _____ _____    ______ ____
ROOT
ATOM      1  C   UNL     1       7.070  -4.278   2.625  0.00  0.00    +0.000 C 
ATOM      2  C   UNL     1       6.355  -3.110   2.192  0.00  0.00    +0.000 A 
ATOM      3  C   UNL     1       6.593  -1.852   2.732  0.00  0.00    +0.000 A 
ATOM      4  C   UNL     1       6.483  -0.750   1.904  0.00  0.00    +0.000 A 
ATOM      5  C   UNL     1       5.560  -0.811   0.888  0.00  0.00    +0.000 A 
ATOM      6  C   UNL     1       5.004  -2.044   0.573  0.00  0.00    +0.000 A 
ATOM      7  C   UNL     1       5.407  -3.215   1.204  0.00  0.00    +0.000 A 
ATOM      8  C   UNL     1       5.144  -4.471   0.672  0.00  0.00    +0.000 A 
ATOM      9  C   UNL     1       4.609  -4.558  -0.597  0.00  0.00    +0.000 A 
ATOM     10  C   UNL     1       4.381  -3.411  -1.334  0.00  0.00    +0.000 A 
ATOM     11  C   UNL     1       4.312  -2.228  -0.618  0.00  0.00    +0.000 A 
ATOM     12  C   UNL     1       3.619  -1.070  -1.191  0.00  0.00    +0.000 C 
ATOM     13  O   UNL     1       3.944   0.100  -0.831  0.00  0.00    +0.000 OA
ATOM     14  C   UNL     1       3.234  -1.212  -2.602  0.00  0.00    +0.000 C 
ATOM     15  O   UNL     1       2.367  -0.403  -3.035  0.00  0.00    +0.000 OA
ATOM     16  C   UNL     1       3.417  -2.500  -3.262  0.00  0.00    +0.000 C 
ATOM     17  C   UNL     1       4.120  -3.465  -2.778  0.00  0.00    +0.000 C 
ATOM     18  O   UNL     1       4.755  -4.229  -3.729  0.00  0.00    +0.000 OA
ATOM     19  C   UNL     1       3.784  -4.319  -4.753  0.00  0.00    +0.000 C 
ATOM     20  C   UNL     1       3.392  -2.715  -4.868  0.00  0.00    +0.000 C 
ATOM     21  C   UNL     1       4.982  -2.275  -5.017  0.00  0.00    +0.000 C 
ENDROOT
TORSDOF 0
ENDMDL
