MODEL 1
REMARK VINA RESULT:    -6.080      0.000      0.000
REMARK INTER + INTRA:         -10.189
REMARK INTER:                  -8.169
REMARK INTRA:                  -2.020
REMARK CONF_INDEPENDENT:        2.088
REMARK UNBOUND:                 2.020
REMARK  Name = 6322
REMARK  7 active torsions:
REMARK  status: ('A' for Active; 'I' for Inactive)
REMARK    1  A    between atoms: O_1  and  C_11
REMARK    2  A    between atoms: N_3  and  CA_9
REMARK    3  A    between atoms: NE_4  and  CD_10
REMARK    4  A    between atoms: CB_7  and  CG_8
REMARK    5  A    between atoms: CB_7  and  CA_9
REMARK    6  A    between atoms: CG_8  and  CD_10
REMARK    7  A    between atoms: CA_9  and  C_11
REMARK                            x       y       z     vdW  Elec       q    Type
REMARK                         _______ _______ _______ _____ _____    ______ ____
ROOT
ATOM      1  CG  ARG A   1       5.351  -3.090  -4.082  0.00  0.00    +0.000 C 
ENDROOT
BRANCH   1   2
ATOM      2  CB  ARG A   1       6.415  -2.363  -4.918  0.00  0.00    +0.000 C 
BRANCH   2   3
ATOM      3  CA  ARG A   1       6.031  -0.904  -5.206  0.00  0.00    +0.000 C 
BRANCH   3   4
ATOM      4  N   ARG A   1       5.688  -0.750  -6.617  0.00  0.00    +0.000 NA
ATOM      5  H1  ARG A   1       6.500  -0.967  -7.194  0.00  0.00    +0.000 HD
ATOM      6  H2  ARG A   1       5.458   0.225  -6.809  0.00  0.00    +0.000 HD
ENDBRANCH   3   4
BRANCH   3   8
ATOM      7  OXT ARG A   1       7.733   0.213  -3.866  0.00  0.00    +0.000 OA
ATOM      8  C   ARG A   1       7.177   0.057  -4.946  0.00  0.00    +0.000 C 
BRANCH   8   9
ATOM      9  O   ARG A   1       7.550   0.724  -6.070  0.00  0.00    +0.000 OA
ATOM     10  H   ARG A   1       6.919   0.579  -6.807  0.00  0.00    +0.000 HD
ENDBRANCH   8   9
ENDBRANCH   3   8
ENDBRANCH   2   3
ENDBRANCH   1   2
BRANCH   1  11
ATOM     11  CD  ARG A   1       5.879  -4.379  -3.461  0.00  0.00    +0.000 C 
BRANCH  11  12
ATOM     12  NE  ARG A   1       6.225  -5.333  -4.516  0.00  0.00    +0.000 NA
ATOM     13  NH1 ARG A   1       5.492  -6.935  -6.023  0.00  0.00    +0.000 N 
ATOM     14  NH2 ARG A   1       3.912  -5.956  -4.702  0.00  0.00    +0.000 N 
ATOM     15  CZ  ARG A   1       5.249  -6.016  -5.028  0.00  0.00    +0.000 C 
ATOM     16 HH11 ARG A   1       6.431  -7.093  -6.371  0.00  0.00    +0.000 HD
ATOM     17 HH12 ARG A   1       4.742  -7.479  -6.437  0.00  0.00    +0.000 HD
ATOM     18 HH21 ARG A   1       3.233  -6.542  -5.173  0.00  0.00    +0.000 HD
ATOM     19 HH22 ARG A   1       3.558  -5.333  -3.984  0.00  0.00    +0.000 HD
ENDBRANCH  11  12
ENDBRANCH   1  11
TORSDOF 7
ENDMDL
MODEL 2
REMARK VINA RESULT:    -5.896      3.637      5.795
REMARK INTER + INTRA:          -9.589
REMARK INTER:                  -7.984
REMARK INTRA:                  -1.605
REMARK CONF_INDEPENDENT:        2.088
REMARK UNBOUND:                 1.605
REMARK  Name = 6322
REMARK  7 active torsions:
REMARK  status: ('A' for Active; 'I' for Inactive)
REMARK    1  A    between atoms: O_1  and  C_11
REMARK    2  A    between atoms: N_3  and  CA_9
REMARK    3  A    between atoms: NE_4  and  CD_10
REMARK    4  A    between atoms: CB_7  and  CG_8
REMARK    5  A    between atoms: CB_7  and  CA_9
REMARK    6  A    between atoms: CG_8  and  CD_10
REMARK    7  A    between atoms: CA_9  and  C_11
REMARK                            x       y       z     vdW  Elec       q    Type
REMARK                         _______ _______ _______ _____ _____    ______ ____
ROOT
ATOM      1  CG  ARG A   1       6.300  -4.258  -3.746  0.00  0.00    +0.000 C 
ENDROOT
BRANCH   1   2
ATOM      2  CB  ARG A   1       5.691  -4.790  -5.052  0.00  0.00    +0.000 C 
BRANCH   2   3
ATOM      3  CA  ARG A   1       5.217  -6.245  -4.920  0.00  0.00    +0.000 C 
BRANCH   3   4
ATOM      4  N   ARG A   1       5.633  -7.011  -6.092  0.00  0.00    +0.000 NA
ATOM      5  H1  ARG A   1       5.958  -6.377  -6.820  0.00  0.00    +0.000 HD
ATOM      6  H2  ARG A   1       4.829  -7.502  -6.483  0.00  0.00    +0.000 HD
ENDBRANCH   3   4
BRANCH   3   8
ATOM      7  OXT ARG A   1       2.972  -5.645  -4.185  0.00  0.00    +0.000 OA
ATOM      8  C   ARG A   1       3.704  -6.355  -4.863  0.00  0.00    +0.000 C 
BRANCH   8   9
ATOM      9  O   ARG A   1       3.231  -7.330  -5.684  0.00  0.00    +0.000 OA
ATOM     10  H   ARG A   1       3.497  -7.184  -6.616  0.00  0.00    +0.000 HD
ENDBRANCH   8   9
ENDBRANCH   3   8
ENDBRANCH   2   3
ENDBRANCH   1   2
BRANCH   1  11
ATOM     11  CD  ARG A   1       7.017  -2.926  -3.938  0.00  0.00    +0.000 C 
BRANCH  11  12
ATOM     12  NE  ARG A   1       6.553  -2.284  -5.169  0.00  0.00    +0.000 NA
ATOM     13  NH1 ARG A   1       6.424  -0.347  -6.437  0.00  0.00    +0.000 N 
ATOM     14  NH2 ARG A   1       7.508  -0.204  -4.436  0.00  0.00    +0.000 N 
ATOM     15  CZ  ARG A   1       6.827  -1.024  -5.309  0.00  0.00    +0.000 C 
ATOM     16 HH11 ARG A   1       5.911  -0.818  -7.174  0.00  0.00    +0.000 HD
ATOM     17 HH12 ARG A   1       6.629   0.638  -6.566  0.00  0.00    +0.000 HD
ATOM     18 HH21 ARG A   1       7.665   0.773  -4.653  0.00  0.00    +0.000 HD
ATOM     19 HH22 ARG A   1       7.873  -0.540  -3.552  0.00  0.00    +0.000 HD
ENDBRANCH  11  12
ENDBRANCH   1  11
TORSDOF 7
ENDMDL
MODEL 3
REMARK VINA RESULT:    -5.259      1.728      2.202
REMARK INTER + INTRA:          -9.931
REMARK INTER:                  -7.347
REMARK INTRA:                  -2.584
REMARK CONF_INDEPENDENT:        2.088
REMARK UNBOUND:                 2.584
REMARK  Name = 6322
REMARK  7 active torsions:
REMARK  status: ('A' for Active; 'I' for Inactive)
REMARK    1  A    between atoms: O_1  and  C_11
REMARK    2  A    between atoms: N_3  and  CA_9
REMARK    3  A    between atoms: NE_4  and  CD_10
REMARK    4  A    between atoms: CB_7  and  CG_8
REMARK    5  A    between atoms: CB_7  and  CA_9
REMARK    6  A    between atoms: CG_8  and  CD_10
REMARK    7  A    between atoms: CA_9  and  C_11
REMARK                            x       y       z     vdW  Elec       q    Type
REMARK                         _______ _______ _______ _____ _____    ______ ____
ROOT
ATOM      1  CG  ARG A   1       4.379  -3.935  -2.782  0.00  0.00    +0.000 C 
ENDROOT
BRANCH   1   2
ATOM      2  CB  ARG A   1       5.288  -2.769  -3.199  0.00  0.00    +0.000 C 
BRANCH   2   3
ATOM      3  CA  ARG A   1       5.563  -2.760  -4.710  0.00  0.00    +0.000 C 
BRANCH   3   4
ATOM      4  N   ARG A   1       6.817  -3.453  -4.991  0.00  0.00    +0.000 NA
ATOM      5  H1  ARG A   1       7.587  -2.785  -4.988  0.00  0.00    +0.000 HD
ATOM      6  H2  ARG A   1       6.788  -3.846  -5.932  0.00  0.00    +0.000 HD
ENDBRANCH   3   4
BRANCH   3   8
ATOM      7  OXT ARG A   1       4.919  -0.446  -5.123  0.00  0.00    +0.000 OA
ATOM      8  C   ARG A   1       5.729  -1.354  -5.258  0.00  0.00    +0.000 C 
BRANCH   8   9
ATOM      9  O   ARG A   1       6.914  -1.194  -5.906  0.00  0.00    +0.000 OA
ATOM     10  H   ARG A   1       7.671  -1.504  -5.365  0.00  0.00    +0.000 HD
ENDBRANCH   8   9
ENDBRANCH   3   8
ENDBRANCH   2   3
ENDBRANCH   1   2
BRANCH   1  11
ATOM     11  CD  ARG A   1       4.976  -5.293  -3.136  0.00  0.00    +0.000 C 
BRANCH  11  12
ATOM     12  NE  ARG A   1       3.978  -6.111  -3.827  0.00  0.00    +0.000 NA
ATOM     13  NH1 ARG A   1       3.324  -7.153  -5.792  0.00  0.00    +0.000 N 
ATOM     14  NH2 ARG A   1       5.297  -6.011  -5.833  0.00  0.00    +0.000 N 
ATOM     15  CZ  ARG A   1       4.213  -6.391  -5.072  0.00  0.00    +0.000 C 
ATOM     16 HH11 ARG A   1       2.474  -7.508  -5.366  0.00  0.00    +0.000 HD
ATOM     17 HH12 ARG A   1       3.489  -7.383  -6.766  0.00  0.00    +0.000 HD
ATOM     18 HH21 ARG A   1       5.375  -6.291  -6.805  0.00  0.00    +0.000 HD
ATOM     19 HH22 ARG A   1       6.048  -5.442  -5.460  0.00  0.00    +0.000 HD
ENDBRANCH  11  12
ENDBRANCH   1  11
TORSDOF 7
ENDMDL
MODEL 4
REMARK VINA RESULT:    -3.754      3.111      4.871
REMARK INTER + INTRA:          -9.380
REMARK INTER:                  -5.842
REMARK INTRA:                  -3.538
REMARK CONF_INDEPENDENT:        2.088
REMARK UNBOUND:                 3.538
REMARK  Name = 6322
REMARK  7 active torsions:
REMARK  status: ('A' for Active; 'I' for Inactive)
REMARK    1  A    between atoms: O_1  and  C_11
REMARK    2  A    between atoms: N_3  and  CA_9
REMARK    3  A    between atoms: NE_4  and  CD_10
REMARK    4  A    between atoms: CB_7  and  CG_8
REMARK    5  A    between atoms: CB_7  and  CA_9
REMARK    6  A    between atoms: CG_8  and  CD_10
REMARK    7  A    between atoms: CA_9  and  C_11
REMARK                            x       y       z     vdW  Elec       q    Type
REMARK                         _______ _______ _______ _____ _____    ______ ____
ROOT
ATOM      1  CG  ARG A   1       6.653  -2.459  -2.653  0.00  0.00    +0.000 C 
ENDROOT
BRANCH   1   2
ATOM      2  CB  ARG A   1       6.952  -3.803  -1.973  0.00  0.00    +0.000 C 
BRANCH   2   3
ATOM      3  CA  ARG A   1       6.692  -4.995  -2.907  0.00  0.00    +0.000 C 
BRANCH   3   4
ATOM      4  N   ARG A   1       7.688  -5.016  -3.976  0.00  0.00    +0.000 NA
ATOM      5  H1  ARG A   1       7.555  -4.209  -4.584  0.00  0.00    +0.000 HD
ATOM      6  H2  ARG A   1       7.545  -5.839  -4.561  0.00  0.00    +0.000 HD
ENDBRANCH   3   4
BRANCH   3   8
ATOM      7  OXT ARG A   1       4.274  -4.718  -3.025  0.00  0.00    +0.000 OA
ATOM      8  C   ARG A   1       5.342  -4.906  -3.594  0.00  0.00    +0.000 C 
BRANCH   8   9
ATOM      9  O   ARG A   1       5.445  -5.033  -4.943  0.00  0.00    +0.000 OA
ATOM     10  H   ARG A   1       6.369  -4.914  -5.251  0.00  0.00    +0.000 HD
ENDBRANCH   8   9
ENDBRANCH   3   8
ENDBRANCH   2   3
ENDBRANCH   1   2
BRANCH   1  11
ATOM     11  CD  ARG A   1       7.908  -1.797  -3.212  0.00  0.00    +0.000 C 
BRANCH  11  12
ATOM     12  NE  ARG A   1       7.553  -0.921  -4.330  0.00  0.00    +0.000 NA
ATOM     13  NH1 ARG A   1       6.416  -0.672  -6.335  0.00  0.00    +0.000 N 
ATOM     14  NH2 ARG A   1       6.273  -2.703  -5.309  0.00  0.00    +0.000 N 
ATOM     15  CZ  ARG A   1       6.794  -1.429  -5.251  0.00  0.00    +0.000 C 
ATOM     16 HH11 ARG A   1       6.722   0.290  -6.433  0.00  0.00    +0.000 HD
ATOM     17 HH12 ARG A   1       5.822  -1.050  -7.065  0.00  0.00    +0.000 HD
ATOM     18 HH21 ARG A   1       5.686  -2.991  -6.084  0.00  0.00    +0.000 HD
ATOM     19 HH22 ARG A   1       6.454  -3.395  -4.592  0.00  0.00    +0.000 HD
ENDBRANCH  11  12
ENDBRANCH   1  11
TORSDOF 7
ENDMDL
MODEL 5
REMARK VINA RESULT:    -3.540      9.425     10.892
REMARK INTER + INTRA:          -9.724
REMARK INTER:                  -5.628
REMARK INTRA:                  -4.096
REMARK CONF_INDEPENDENT:        2.088
REMARK UNBOUND:                 4.096
REMARK  Name = 6322
REMARK  7 active torsions:
REMARK  status: ('A' for Active; 'I' for Inactive)
REMARK    1  A    between atoms: O_1  and  C_11
REMARK    2  A    between atoms: N_3  and  CA_9
REMARK    3  A    between atoms: NE_4  and  CD_10
REMARK    4  A    between atoms: CB_7  and  CG_8
REMARK    5  A    between atoms: CB_7  and  CA_9
REMARK    6  A    between atoms: CG_8  and  CD_10
REMARK    7  A    between atoms: CA_9  and  C_11
REMARK                            x       y       z     vdW  Elec       q    Type
REMARK                         _______ _______ _______ _____ _____    ______ ____
ROOT
ATOM      1  CG  ARG A   1       3.063  -4.026   5.488  0.00  0.00    +0.000 C 
ENDROOT
BRANCH   1   2
ATOM      2  CB  ARG A   1       1.960  -5.078   5.297  0.00  0.00    +0.000 C 
BRANCH   2   3
ATOM      3  CA  ARG A   1       2.508  -6.512   5.369  0.00  0.00    +0.000 C 
BRANCH   3   4
ATOM      4  N   ARG A   1       3.885  -6.494   5.856  0.00  0.00    +0.000 NA
ATOM      5  H1  ARG A   1       4.487  -6.043   5.168  0.00  0.00    +0.000 HD
ATOM      6  H2  ARG A   1       4.228  -7.450   5.948  0.00  0.00    +0.000 HD
ENDBRANCH   3   4
BRANCH   3   8
ATOM      7  OXT ARG A   1       1.578  -7.426   3.310  0.00  0.00    +0.000 OA
ATOM      8  C   ARG A   1       2.554  -7.180   4.006  0.00  0.00    +0.000 C 
BRANCH   8   9
ATOM      9  O   ARG A   1       3.826  -7.460   3.617  0.00  0.00    +0.000 OA
ATOM     10  H   ARG A   1       4.468  -6.807   3.970  0.00  0.00    +0.000 HD
ENDBRANCH   8   9
ENDBRANCH   3   8
ENDBRANCH   2   3
ENDBRANCH   1   2
BRANCH   1  11
ATOM     11  CD  ARG A   1       3.685  -3.589   4.165  0.00  0.00    +0.000 C 
BRANCH  11  12
ATOM     12  NE  ARG A   1       4.194  -4.757   3.444  0.00  0.00    +0.000 NA
ATOM     13  NH1 ARG A   1       6.035  -6.014   2.809  0.00  0.00    +0.000 N 
ATOM     14  NH2 ARG A   1       6.433  -4.166   4.084  0.00  0.00    +0.000 N 
ATOM     15  CZ  ARG A   1       5.478  -4.940   3.464  0.00  0.00    +0.000 C 
ATOM     16 HH11 ARG A   1       5.457  -6.677   2.305  0.00  0.00    +0.000 HD
ATOM     17 HH12 ARG A   1       7.037  -6.175   2.813  0.00  0.00    +0.000 HD
ATOM     18 HH21 ARG A   1       7.416  -4.408   4.031  0.00  0.00    +0.000 HD
ATOM     19 HH22 ARG A   1       6.196  -3.332   4.610  0.00  0.00    +0.000 HD
ENDBRANCH  11  12
ENDBRANCH   1  11
TORSDOF 7
ENDMDL
MODEL 6
REMARK VINA RESULT:    -3.476      9.322     10.829
REMARK INTER + INTRA:          -8.847
REMARK INTER:                  -5.564
REMARK INTRA:                  -3.283
REMARK CONF_INDEPENDENT:        2.088
REMARK UNBOUND:                 3.283
REMARK  Name = 6322
REMARK  7 active torsions:
REMARK  status: ('A' for Active; 'I' for Inactive)
REMARK    1  A    between atoms: O_1  and  C_11
REMARK    2  A    between atoms: N_3  and  CA_9
REMARK    3  A    between atoms: NE_4  and  CD_10
REMARK    4  A    between atoms: CB_7  and  CG_8
REMARK    5  A    between atoms: CB_7  and  CA_9
REMARK    6  A    between atoms: CG_8  and  CD_10
REMARK    7  A    between atoms: CA_9  and  C_11
REMARK                            x       y       z     vdW  Elec       q    Type
REMARK                         _______ _______ _______ _____ _____    ______ ____
ROOT
ATOM      1  CG  ARG A   1       1.726  -5.945   5.710  0.00  0.00    +0.000 C 
ENDROOT
BRANCH   1   2
ATOM      2  CB  ARG A   1       1.598  -5.787   4.188  0.00  0.00    +0.000 C 
BRANCH   2   3
ATOM      3  CA  ARG A   1       2.695  -6.551   3.432  0.00  0.00    +0.000 C 
BRANCH   3   4
ATOM      4  N   ARG A   1       3.577  -7.224   4.382  0.00  0.00    +0.000 NA
ATOM      5  H1  ARG A   1       3.858  -6.571   5.112  0.00  0.00    +0.000 HD
ATOM      6  H2  ARG A   1       4.436  -7.508   3.911  0.00  0.00    +0.000 HD
ENDBRANCH   3   4
BRANCH   3   8
ATOM      7  OXT ARG A   1       3.185  -4.811   1.797  0.00  0.00    +0.000 OA
ATOM      8  C   ARG A   1       3.584  -5.629   2.617  0.00  0.00    +0.000 C 
BRANCH   8   9
ATOM      9  O   ARG A   1       4.900  -5.788   2.918  0.00  0.00    +0.000 OA
ATOM     10  H   ARG A   1       5.035  -5.992   3.868  0.00  0.00    +0.000 HD
ENDBRANCH   8   9
ENDBRANCH   3   8
ENDBRANCH   2   3
ENDBRANCH   1   2
BRANCH   1  11
ATOM     11  CD  ARG A   1       2.657  -4.907   6.327  0.00  0.00    +0.000 C 
BRANCH  11  12
ATOM     12  NE  ARG A   1       3.620  -4.446   5.325  0.00  0.00    +0.000 NA
ATOM     13  NH1 ARG A   1       5.836  -4.314   4.658  0.00  0.00    +0.000 N 
ATOM     14  NH2 ARG A   1       5.410  -5.387   6.624  0.00  0.00    +0.000 N 
ATOM     15  CZ  ARG A   1       4.869  -4.714   5.550  0.00  0.00    +0.000 C 
ATOM     16 HH11 ARG A   1       5.592  -3.806   3.814  0.00  0.00    +0.000 HD
ATOM     17 HH12 ARG A   1       6.818  -4.514   4.815  0.00  0.00    +0.000 HD
ATOM     18 HH21 ARG A   1       6.409  -5.539   6.694  0.00  0.00    +0.000 HD
ATOM     19 HH22 ARG A   1       4.838  -5.749   7.379  0.00  0.00    +0.000 HD
ENDBRANCH  11  12
ENDBRANCH   1  11
TORSDOF 7
ENDMDL
MODEL 7
REMARK VINA RESULT:    -3.217      3.297      3.856
REMARK INTER + INTRA:          -9.364
REMARK INTER:                  -5.305
REMARK INTRA:                  -4.059
REMARK CONF_INDEPENDENT:        2.088
REMARK UNBOUND:                 4.059
REMARK  Name = 6322
REMARK  7 active torsions:
REMARK  status: ('A' for Active; 'I' for Inactive)
REMARK    1  A    between atoms: O_1  and  C_11
REMARK    2  A    between atoms: N_3  and  CA_9
REMARK    3  A    between atoms: NE_4  and  CD_10
REMARK    4  A    between atoms: CB_7  and  CG_8
REMARK    5  A    between atoms: CB_7  and  CA_9
REMARK    6  A    between atoms: CG_8  and  CD_10
REMARK    7  A    between atoms: CA_9  and  C_11
REMARK                            x       y       z     vdW  Elec       q    Type
REMARK                         _______ _______ _______ _____ _____    ______ ____
ROOT
ATOM      1  CG  ARG A   1       6.689  -2.692  -4.097  0.00  0.00    +0.000 C 
ENDROOT
BRANCH   1   2
ATOM      2  CB  ARG A   1       5.264  -2.162  -4.317  0.00  0.00    +0.000 C 
BRANCH   2   3
ATOM      3  CA  ARG A   1       4.378  -2.352  -3.077  0.00  0.00    +0.000 C 
BRANCH   3   4
ATOM      4  N   ARG A   1       5.173  -2.885  -1.974  0.00  0.00    +0.000 NA
ATOM      5  H1  ARG A   1       5.329  -3.882  -2.113  0.00  0.00    +0.000 HD
ATOM      6  H2  ARG A   1       4.650  -2.800  -1.102  0.00  0.00    +0.000 HD
ENDBRANCH   3   4
BRANCH   3   8
ATOM      7  OXT ARG A   1       2.324  -3.196  -4.082  0.00  0.00    +0.000 OA
ATOM      8  C   ARG A   1       3.263  -3.355  -3.312  0.00  0.00    +0.000 C 
BRANCH   8   9
ATOM      9  O   ARG A   1       3.432  -4.489  -2.581  0.00  0.00    +0.000 OA
ATOM     10  H   ARG A   1       4.378  -4.739  -2.511  0.00  0.00    +0.000 HD
ENDBRANCH   8   9
ENDBRANCH   3   8
ENDBRANCH   2   3
ENDBRANCH   1   2
BRANCH   1  11
ATOM     11  CD  ARG A   1       6.838  -4.152  -4.511  0.00  0.00    +0.000 C 
BRANCH  11  12
ATOM     12  NE  ARG A   1       5.768  -4.951  -3.912  0.00  0.00    +0.000 NA
ATOM     13  NH1 ARG A   1       4.090  -6.520  -4.222  0.00  0.00    +0.000 N 
ATOM     14  NH2 ARG A   1       5.296  -5.917  -6.061  0.00  0.00    +0.000 N 
ATOM     15  CZ  ARG A   1       5.111  -5.737  -4.708  0.00  0.00    +0.000 C 
ATOM     16 HH11 ARG A   1       3.834  -6.497  -3.241  0.00  0.00    +0.000 HD
ATOM     17 HH12 ARG A   1       3.564  -7.141  -4.828  0.00  0.00    +0.000 HD
ATOM     18 HH21 ARG A   1       4.718  -6.564  -6.585  0.00  0.00    +0.000 HD
ATOM     19 HH22 ARG A   1       6.006  -5.415  -6.581  0.00  0.00    +0.000 HD
ENDBRANCH  11  12
ENDBRANCH   1  11
TORSDOF 7
ENDMDL
MODEL 8
REMARK VINA RESULT:    -3.208      2.927      4.891
REMARK INTER + INTRA:          -8.873
REMARK INTER:                  -5.296
REMARK INTRA:                  -3.577
REMARK CONF_INDEPENDENT:        2.088
REMARK UNBOUND:                 3.577
REMARK  Name = 6322
REMARK  7 active torsions:
REMARK  status: ('A' for Active; 'I' for Inactive)
REMARK    1  A    between atoms: O_1  and  C_11
REMARK    2  A    between atoms: N_3  and  CA_9
REMARK    3  A    between atoms: NE_4  and  CD_10
REMARK    4  A    between atoms: CB_7  and  CG_8
REMARK    5  A    between atoms: CB_7  and  CA_9
REMARK    6  A    between atoms: CG_8  and  CD_10
REMARK    7  A    between atoms: CA_9  and  C_11
REMARK                            x       y       z     vdW  Elec       q    Type
REMARK                         _______ _______ _______ _____ _____    ______ ____
ROOT
ATOM      1  CG  ARG A   1       6.127  -4.038  -4.460  0.00  0.00    +0.000 C 
ENDROOT
BRANCH   1   2
ATOM      2  CB  ARG A   1       6.064  -4.913  -3.198  0.00  0.00    +0.000 C 
BRANCH   2   3
ATOM      3  CA  ARG A   1       4.622  -5.149  -2.727  0.00  0.00    +0.000 C 
BRANCH   3   4
ATOM      4  N   ARG A   1       3.892  -5.925  -3.727  0.00  0.00    +0.000 NA
ATOM      5  H1  ARG A   1       3.875  -5.417  -4.610  0.00  0.00    +0.000 HD
ATOM      6  H2  ARG A   1       2.919  -6.025  -3.439  0.00  0.00    +0.000 HD
ENDBRANCH   3   4
BRANCH   3   8
ATOM      7  OXT ARG A   1       4.125  -2.969  -1.757  0.00  0.00    +0.000 OA
ATOM      8  C   ARG A   1       3.850  -3.852  -2.559  0.00  0.00    +0.000 C 
BRANCH   8   9
ATOM      9  O   ARG A   1       2.813  -3.757  -3.433  0.00  0.00    +0.000 OA
ATOM     10  H   ARG A   1       2.260  -4.567  -3.432  0.00  0.00    +0.000 HD
ENDBRANCH   8   9
ENDBRANCH   3   8
ENDBRANCH   2   3
ENDBRANCH   1   2
BRANCH   1  11
ATOM     11  CD  ARG A   1       6.731  -2.665  -4.186  0.00  0.00    +0.000 C 
BRANCH  11  12
ATOM     12  NE  ARG A   1       6.460  -1.768  -5.311  0.00  0.00    +0.000 NA
ATOM     13  NH1 ARG A   1       4.920  -0.447  -6.431  0.00  0.00    +0.000 N 
ATOM     14  NH2 ARG A   1       4.189  -1.531  -4.564  0.00  0.00    +0.000 N 
ATOM     15  CZ  ARG A   1       5.256  -1.295  -5.402  0.00  0.00    +0.000 C 
ATOM     16 HH11 ARG A   1       5.603  -0.178  -7.132  0.00  0.00    +0.000 HD
ATOM     17 HH12 ARG A   1       3.984  -0.065  -6.520  0.00  0.00    +0.000 HD
ATOM     18 HH21 ARG A   1       3.286  -1.102  -4.735  0.00  0.00    +0.000 HD
ATOM     19 HH22 ARG A   1       4.260  -2.137  -3.755  0.00  0.00    +0.000 HD
ENDBRANCH  11  12
ENDBRANCH   1  11
TORSDOF 7
ENDMDL
