MODEL 1
REMARK VINA RESULT:    -6.317      0.000      0.000
REMARK INTER + INTRA:          -9.984
REMARK INTER:                  -8.405
REMARK INTRA:                  -1.579
REMARK CONF_INDEPENDENT:        2.088
REMARK UNBOUND:                 1.579
REMARK  Name = 6322
REMARK  7 active torsions:
REMARK  status: ('A' for Active; 'I' for Inactive)
REMARK    1  A    between atoms: O_1  and  C_11
REMARK    2  A    between atoms: N_3  and  CA_9
REMARK    3  A    between atoms: NE_4  and  CD_10
REMARK    4  A    between atoms: CB_7  and  CG_8
REMARK    5  A    between atoms: CB_7  and  CA_9
REMARK    6  A    between atoms: CG_8  and  CD_10
REMARK    7  A    between atoms: CA_9  and  C_11
REMARK                            x       y       z     vdW  Elec       q    Type
REMARK                         _______ _______ _______ _____ _____    ______ ____
ROOT
ATOM      1  CG  ARG A   1       4.110  -2.562   3.839  0.00  0.00    +0.000 C 
ENDROOT
BRANCH   1   2
ATOM      2  CB  ARG A   1       5.102  -3.276   2.908  0.00  0.00    +0.000 C 
BRANCH   2   3
ATOM      3  CA  ARG A   1       4.392  -4.176   1.885  0.00  0.00    +0.000 C 
BRANCH   3   4
ATOM      4  N   ARG A   1       3.430  -5.040   2.566  0.00  0.00    +0.000 NA
ATOM      5  H1  ARG A   1       3.324  -5.911   2.048  0.00  0.00    +0.000 HD
ATOM      6  H2  ARG A   1       2.512  -4.597   2.565  0.00  0.00    +0.000 HD
ENDBRANCH   3   4
BRANCH   3   8
ATOM      7  OXT ARG A   1       6.562  -4.926   1.066  0.00  0.00    +0.000 OA
ATOM      8  C   ARG A   1       5.355  -5.106   1.168  0.00  0.00    +0.000 C 
BRANCH   8   9
ATOM      9  O   ARG A   1       4.727  -6.200   0.661  0.00  0.00    +0.000 OA
ATOM     10  H   ARG A   1       3.759  -6.170   0.816  0.00  0.00    +0.000 HD
ENDBRANCH   8   9
ENDBRANCH   3   8
ENDBRANCH   2   3
ENDBRANCH   1   2
BRANCH   1  11
ATOM     11  CD  ARG A   1       3.684  -1.200   3.299  0.00  0.00    +0.000 C 
BRANCH  11  12
ATOM     12  NE  ARG A   1       4.757  -0.226   3.505  0.00  0.00    +0.000 NA
ATOM     13  NH1 ARG A   1       5.510   1.946   3.204  0.00  0.00    +0.000 N 
ATOM     14  NH2 ARG A   1       3.437   1.448   2.395  0.00  0.00    +0.000 N 
ATOM     15  CZ  ARG A   1       4.551   0.972   3.052  0.00  0.00    +0.000 C 
ATOM     16 HH11 ARG A   1       6.389   1.747   3.670  0.00  0.00    +0.000 HD
ATOM     17 HH12 ARG A   1       5.368   2.889   2.858  0.00  0.00    +0.000 HD
ATOM     18 HH21 ARG A   1       3.387   2.412   2.085  0.00  0.00    +0.000 HD
ATOM     19 HH22 ARG A   1       2.635   0.862   2.196  0.00  0.00    +0.000 HD
ENDBRANCH  11  12
ENDBRANCH   1  11
TORSDOF 7
ENDMDL
MODEL 2
REMARK VINA RESULT:    -5.972      2.364      2.782
REMARK INTER + INTRA:         -11.116
REMARK INTER:                  -8.060
REMARK INTRA:                  -3.056
REMARK CONF_INDEPENDENT:        2.088
REMARK UNBOUND:                 3.056
REMARK  Name = 6322
REMARK  7 active torsions:
REMARK  status: ('A' for Active; 'I' for Inactive)
REMARK    1  A    between atoms: O_1  and  C_11
REMARK    2  A    between atoms: N_3  and  CA_9
REMARK    3  A    between atoms: NE_4  and  CD_10
REMARK    4  A    between atoms: CB_7  and  CG_8
REMARK    5  A    between atoms: CB_7  and  CA_9
REMARK    6  A    between atoms: CG_8  and  CD_10
REMARK    7  A    between atoms: CA_9  and  C_11
REMARK                            x       y       z     vdW  Elec       q    Type
REMARK                         _______ _______ _______ _____ _____    ______ ____
ROOT
ATOM      1  CG  ARG A   1       6.159  -2.229   2.097  0.00  0.00    +0.000 C 
ENDROOT
BRANCH   1   2
ATOM      2  CB  ARG A   1       4.887  -3.047   1.829  0.00  0.00    +0.000 C 
BRANCH   2   3
ATOM      3  CA  ARG A   1       4.556  -3.999   2.988  0.00  0.00    +0.000 C 
BRANCH   3   4
ATOM      4  N   ARG A   1       3.542  -4.963   2.565  0.00  0.00    +0.000 NA
ATOM      5  H1  ARG A   1       3.817  -5.383   1.678  0.00  0.00    +0.000 HD
ATOM      6  H2  ARG A   1       2.662  -4.479   2.389  0.00  0.00    +0.000 HD
ENDBRANCH   3   4
BRANCH   3   8
ATOM      7  OXT ARG A   1       4.581  -2.989   5.206  0.00  0.00    +0.000 OA
ATOM      8  C   ARG A   1       3.968  -3.272   4.184  0.00  0.00    +0.000 C 
BRANCH   8   9
ATOM      9  O   ARG A   1       2.666  -2.933   3.988  0.00  0.00    +0.000 OA
ATOM     10  H   ARG A   1       2.168  -3.648   3.537  0.00  0.00    +0.000 HD
ENDBRANCH   8   9
ENDBRANCH   3   8
ENDBRANCH   2   3
ENDBRANCH   1   2
BRANCH   1  11
ATOM     11  CD  ARG A   1       5.949  -1.158   3.163  0.00  0.00    +0.000 C 
BRANCH  11  12
ATOM     12  NE  ARG A   1       5.289   0.008   2.574  0.00  0.00    +0.000 NA
ATOM     13  NH1 ARG A   1       3.442   1.408   2.557  0.00  0.00    +0.000 N 
ATOM     14  NH2 ARG A   1       3.431  -0.301   4.066  0.00  0.00    +0.000 N 
ATOM     15  CZ  ARG A   1       4.128   0.326   3.057  0.00  0.00    +0.000 C 
ATOM     16 HH11 ARG A   1       3.828   1.972   1.808  0.00  0.00    +0.000 HD
ATOM     17 HH12 ARG A   1       2.533   1.674   2.921  0.00  0.00    +0.000 HD
ATOM     18 HH21 ARG A   1       2.524   0.040   4.363  0.00  0.00    +0.000 HD
ATOM     19 HH22 ARG A   1       3.790  -1.119   4.544  0.00  0.00    +0.000 HD
ENDBRANCH  11  12
ENDBRANCH   1  11
TORSDOF 7
ENDMDL
MODEL 3
REMARK VINA RESULT:    -5.709      3.677      4.237
REMARK INTER + INTRA:         -11.827
REMARK INTER:                  -7.797
REMARK INTRA:                  -4.030
REMARK CONF_INDEPENDENT:        2.088
REMARK UNBOUND:                 4.030
REMARK  Name = 6322
REMARK  7 active torsions:
REMARK  status: ('A' for Active; 'I' for Inactive)
REMARK    1  A    between atoms: O_1  and  C_11
REMARK    2  A    between atoms: N_3  and  CA_9
REMARK    3  A    between atoms: NE_4  and  CD_10
REMARK    4  A    between atoms: CB_7  and  CG_8
REMARK    5  A    between atoms: CB_7  and  CA_9
REMARK    6  A    between atoms: CG_8  and  CD_10
REMARK    7  A    between atoms: CA_9  and  C_11
REMARK                            x       y       z     vdW  Elec       q    Type
REMARK                         _______ _______ _______ _____ _____    ______ ____
ROOT
ATOM      1  CG  ARG A   1       3.941  -2.858   2.990  0.00  0.00    +0.000 C 
ENDROOT
BRANCH   1   2
ATOM      2  CB  ARG A   1       3.769  -3.188   4.481  0.00  0.00    +0.000 C 
BRANCH   2   3
ATOM      3  CA  ARG A   1       2.385  -2.782   5.009  0.00  0.00    +0.000 C 
BRANCH   3   4
ATOM      4  N   ARG A   1       1.674  -2.007   3.995  0.00  0.00    +0.000 NA
ATOM      5  H1  ARG A   1       2.287  -1.282   3.624  0.00  0.00    +0.000 HD
ATOM      6  H2  ARG A   1       0.888  -1.519   4.425  0.00  0.00    +0.000 HD
ENDBRANCH   3   4
BRANCH   3   8
ATOM      7  OXT ARG A   1       2.696  -2.277   7.373  0.00  0.00    +0.000 OA
ATOM      8  C   ARG A   1       2.474  -1.889   6.233  0.00  0.00    +0.000 C 
BRANCH   8   9
ATOM      9  O   ARG A   1       2.303  -0.576   5.922  0.00  0.00    +0.000 OA
ATOM     10  H   ARG A   1       2.344  -0.422   4.954  0.00  0.00    +0.000 HD
ENDBRANCH   8   9
ENDBRANCH   3   8
ENDBRANCH   2   3
ENDBRANCH   1   2
BRANCH   1  11
ATOM     11  CD  ARG A   1       4.509  -1.460   2.765  0.00  0.00    +0.000 C 
BRANCH  11  12
ATOM     12  NE  ARG A   1       4.025  -0.553   3.807  0.00  0.00    +0.000 NA
ATOM     13  NH1 ARG A   1       3.350   1.591   4.374  0.00  0.00    +0.000 N 
ATOM     14  NH2 ARG A   1       3.970   1.240   2.208  0.00  0.00    +0.000 N 
ATOM     15  CZ  ARG A   1       3.805   0.676   3.453  0.00  0.00    +0.000 C 
ATOM     16 HH11 ARG A   1       3.180   1.325   5.337  0.00  0.00    +0.000 HD
ATOM     17 HH12 ARG A   1       3.171   2.557   4.117  0.00  0.00    +0.000 HD
ATOM     18 HH21 ARG A   1       3.764   2.219   2.047  0.00  0.00    +0.000 HD
ATOM     19 HH22 ARG A   1       4.302   0.707   1.412  0.00  0.00    +0.000 HD
ENDBRANCH  11  12
ENDBRANCH   1  11
TORSDOF 7
ENDMDL
MODEL 4
REMARK VINA RESULT:    -5.169      3.555      5.459
REMARK INTER + INTRA:         -10.843
REMARK INTER:                  -7.257
REMARK INTRA:                  -3.586
REMARK CONF_INDEPENDENT:        2.088
REMARK UNBOUND:                 3.586
REMARK  Name = 6322
REMARK  7 active torsions:
REMARK  status: ('A' for Active; 'I' for Inactive)
REMARK    1  A    between atoms: O_1  and  C_11
REMARK    2  A    between atoms: N_3  and  CA_9
REMARK    3  A    between atoms: NE_4  and  CD_10
REMARK    4  A    between atoms: CB_7  and  CG_8
REMARK    5  A    between atoms: CB_7  and  CA_9
REMARK    6  A    between atoms: CG_8  and  CD_10
REMARK    7  A    between atoms: CA_9  and  C_11
REMARK                            x       y       z     vdW  Elec       q    Type
REMARK                         _______ _______ _______ _____ _____    ______ ____
ROOT
ATOM      1  CG  ARG A   1       6.089  -0.703   3.862  0.00  0.00    +0.000 C 
ENDROOT
BRANCH   1   2
ATOM      2  CB  ARG A   1       6.510   0.452   2.940  0.00  0.00    +0.000 C 
BRANCH   2   3
ATOM      3  CA  ARG A   1       5.591   1.674   3.087  0.00  0.00    +0.000 C 
BRANCH   3   4
ATOM      4  N   ARG A   1       5.769   2.274   4.407  0.00  0.00    +0.000 NA
ATOM      5  H1  ARG A   1       5.483   1.610   5.127  0.00  0.00    +0.000 HD
ATOM      6  H2  ARG A   1       5.151   3.079   4.504  0.00  0.00    +0.000 HD
ENDBRANCH   3   4
BRANCH   3   8
ATOM      7  OXT ARG A   1       3.596   0.759   2.028  0.00  0.00    +0.000 OA
ATOM      8  C   ARG A   1       4.121   1.307   2.989  0.00  0.00    +0.000 C 
BRANCH   8   9
ATOM      9  O   ARG A   1       3.436   1.633   4.116  0.00  0.00    +0.000 OA
ATOM     10  H   ARG A   1       3.627   2.550   4.408  0.00  0.00    +0.000 HD
ENDBRANCH   8   9
ENDBRANCH   3   8
ENDBRANCH   2   3
ENDBRANCH   1   2
BRANCH   1  11
ATOM     11  CD  ARG A   1       5.159  -1.692   3.168  0.00  0.00    +0.000 C 
BRANCH  11  12
ATOM     12  NE  ARG A   1       4.571  -2.600   4.155  0.00  0.00    +0.000 NA
ATOM     13  NH1 ARG A   1       2.806  -3.056   5.586  0.00  0.00    +0.000 N 
ATOM     14  NH2 ARG A   1       2.678  -1.136   4.363  0.00  0.00    +0.000 N 
ATOM     15  CZ  ARG A   1       3.423  -2.258   4.652  0.00  0.00    +0.000 C 
ATOM     16 HH11 ARG A   1       3.233  -3.920   5.900  0.00  0.00    +0.000 HD
ATOM     17 HH12 ARG A   1       1.907  -2.806   5.986  0.00  0.00    +0.000 HD
ATOM     18 HH21 ARG A   1       1.786  -0.971   4.817  0.00  0.00    +0.000 HD
ATOM     19 HH22 ARG A   1       2.987  -0.437   3.697  0.00  0.00    +0.000 HD
ENDBRANCH  11  12
ENDBRANCH   1  11
TORSDOF 7
ENDMDL
MODEL 5
REMARK VINA RESULT:    -5.134      3.519      5.738
REMARK INTER + INTRA:          -9.210
REMARK INTER:                  -7.222
REMARK INTRA:                  -1.988
REMARK CONF_INDEPENDENT:        2.088
REMARK UNBOUND:                 1.988
REMARK  Name = 6322
REMARK  7 active torsions:
REMARK  status: ('A' for Active; 'I' for Inactive)
REMARK    1  A    between atoms: O_1  and  C_11
REMARK    2  A    between atoms: N_3  and  CA_9
REMARK    3  A    between atoms: NE_4  and  CD_10
REMARK    4  A    between atoms: CB_7  and  CG_8
REMARK    5  A    between atoms: CB_7  and  CA_9
REMARK    6  A    between atoms: CG_8  and  CD_10
REMARK    7  A    between atoms: CA_9  and  C_11
REMARK                            x       y       z     vdW  Elec       q    Type
REMARK                         _______ _______ _______ _____ _____    ______ ____
ROOT
ATOM      1  CG  ARG A   1       3.423  -1.343   3.692  0.00  0.00    +0.000 C 
ENDROOT
BRANCH   1   2
ATOM      2  CB  ARG A   1       4.559  -0.486   3.114  0.00  0.00    +0.000 C 
BRANCH   2   3
ATOM      3  CA  ARG A   1       4.291   1.018   3.277  0.00  0.00    +0.000 C 
BRANCH   3   4
ATOM      4  N   ARG A   1       3.432   1.490   2.194  0.00  0.00    +0.000 NA
ATOM      5  H1  ARG A   1       3.861   1.272   1.295  0.00  0.00    +0.000 HD
ATOM      6  H2  ARG A   1       3.358   2.506   2.233  0.00  0.00    +0.000 HD
ENDBRANCH   3   4
BRANCH   3   8
ATOM      7  OXT ARG A   1       6.493   1.784   3.986  0.00  0.00    +0.000 OA
ATOM      8  C   ARG A   1       5.562   1.843   3.193  0.00  0.00    +0.000 C 
BRANCH   8   9
ATOM      9  O   ARG A   1       5.573   2.657   2.103  0.00  0.00    +0.000 OA
ATOM     10  H   ARG A   1       4.676   2.768   1.722  0.00  0.00    +0.000 HD
ENDBRANCH   8   9
ENDBRANCH   3   8
ENDBRANCH   2   3
ENDBRANCH   1   2
BRANCH   1  11
ATOM     11  CD  ARG A   1       3.700  -2.838   3.565  0.00  0.00    +0.000 C 
BRANCH  11  12
ATOM     12  NE  ARG A   1       4.849  -3.058   2.685  0.00  0.00    +0.000 NA
ATOM     13  NH1 ARG A   1       5.848  -4.385   1.068  0.00  0.00    +0.000 N 
ATOM     14  NH2 ARG A   1       3.806  -5.049   1.835  0.00  0.00    +0.000 N 
ATOM     15  CZ  ARG A   1       4.807  -4.107   1.923  0.00  0.00    +0.000 C 
ATOM     16 HH11 ARG A   1       6.660  -3.780   1.018  0.00  0.00    +0.000 HD
ATOM     17 HH12 ARG A   1       5.834  -5.200   0.463  0.00  0.00    +0.000 HD
ATOM     18 HH21 ARG A   1       3.882  -5.834   1.198  0.00  0.00    +0.000 HD
ATOM     19 HH22 ARG A   1       2.965  -4.999   2.399  0.00  0.00    +0.000 HD
ENDBRANCH  11  12
ENDBRANCH   1  11
TORSDOF 7
ENDMDL
MODEL 6
REMARK VINA RESULT:    -4.985      4.468      6.196
REMARK INTER + INTRA:          -9.156
REMARK INTER:                  -7.073
REMARK INTRA:                  -2.083
REMARK CONF_INDEPENDENT:        2.088
REMARK UNBOUND:                 2.083
REMARK  Name = 6322
REMARK  7 active torsions:
REMARK  status: ('A' for Active; 'I' for Inactive)
REMARK    1  A    between atoms: O_1  and  C_11
REMARK    2  A    between atoms: N_3  and  CA_9
REMARK    3  A    between atoms: NE_4  and  CD_10
REMARK    4  A    between atoms: CB_7  and  CG_8
REMARK    5  A    between atoms: CB_7  and  CA_9
REMARK    6  A    between atoms: CG_8  and  CD_10
REMARK    7  A    between atoms: CA_9  and  C_11
REMARK                            x       y       z     vdW  Elec       q    Type
REMARK                         _______ _______ _______ _____ _____    ______ ____
ROOT
ATOM      1  CG  ARG A   1       4.234  -0.020   2.779  0.00  0.00    +0.000 C 
ENDROOT
BRANCH   1   2
ATOM      2  CB  ARG A   1       4.993   1.296   2.551  0.00  0.00    +0.000 C 
BRANCH   2   3
ATOM      3  CA  ARG A   1       5.687   1.794   3.828  0.00  0.00    +0.000 C 
BRANCH   3   4
ATOM      4  N   ARG A   1       4.686   2.184   4.817  0.00  0.00    +0.000 NA
ATOM      5  H1  ARG A   1       4.165   2.992   4.479  0.00  0.00    +0.000 HD
ATOM      6  H2  ARG A   1       5.150   2.485   5.674  0.00  0.00    +0.000 HD
ENDBRANCH   3   4
BRANCH   3   8
ATOM      7  OXT ARG A   1       7.342   3.157   2.669  0.00  0.00    +0.000 OA
ATOM      8  C   ARG A   1       6.533   3.030   3.580  0.00  0.00    +0.000 C 
BRANCH   8   9
ATOM      9  O   ARG A   1       6.276   4.015   4.480  0.00  0.00    +0.000 OA
ATOM     10  H   ARG A   1       5.318   4.215   4.538  0.00  0.00    +0.000 HD
ENDBRANCH   8   9
ENDBRANCH   3   8
ENDBRANCH   2   3
ENDBRANCH   1   2
BRANCH   1  11
ATOM     11  CD  ARG A   1       5.019  -1.003   3.642  0.00  0.00    +0.000 C 
BRANCH  11  12
ATOM     12  NE  ARG A   1       4.198  -2.181   3.927  0.00  0.00    +0.000 NA
ATOM     13  NH1 ARG A   1       2.210  -3.021   4.771  0.00  0.00    +0.000 N 
ATOM     14  NH2 ARG A   1       2.479  -0.758   4.817  0.00  0.00    +0.000 N 
ATOM     15  CZ  ARG A   1       3.040  -1.967   4.471  0.00  0.00    +0.000 C 
ATOM     16 HH11 ARG A   1       2.486  -3.977   4.574  0.00  0.00    +0.000 HD
ATOM     17 HH12 ARG A   1       1.300  -2.875   5.196  0.00  0.00    +0.000 HD
ATOM     18 HH21 ARG A   1       1.558  -0.712   5.239  0.00  0.00    +0.000 HD
ATOM     19 HH22 ARG A   1       2.957   0.123   4.668  0.00  0.00    +0.000 HD
ENDBRANCH  11  12
ENDBRANCH   1  11
TORSDOF 7
ENDMDL
MODEL 7
REMARK VINA RESULT:    -4.610      3.553      5.556
REMARK INTER + INTRA:          -9.341
REMARK INTER:                  -6.698
REMARK INTRA:                  -2.643
REMARK CONF_INDEPENDENT:        2.088
REMARK UNBOUND:                 2.643
REMARK  Name = 6322
REMARK  7 active torsions:
REMARK  status: ('A' for Active; 'I' for Inactive)
REMARK    1  A    between atoms: O_1  and  C_11
REMARK    2  A    between atoms: N_3  and  CA_9
REMARK    3  A    between atoms: NE_4  and  CD_10
REMARK    4  A    between atoms: CB_7  and  CG_8
REMARK    5  A    between atoms: CB_7  and  CA_9
REMARK    6  A    between atoms: CG_8  and  CD_10
REMARK    7  A    between atoms: CA_9  and  C_11
REMARK                            x       y       z     vdW  Elec       q    Type
REMARK                         _______ _______ _______ _____ _____    ______ ____
ROOT
ATOM      1  CG  ARG A   1       5.821  -1.656   2.256  0.00  0.00    +0.000 C 
ENDROOT
BRANCH   1   2
ATOM      2  CB  ARG A   1       6.187  -0.387   3.042  0.00  0.00    +0.000 C 
BRANCH   2   3
ATOM      3  CA  ARG A   1       4.945   0.344   3.574  0.00  0.00    +0.000 C 
BRANCH   3   4
ATOM      4  N   ARG A   1       3.809  -0.573   3.616  0.00  0.00    +0.000 NA
ATOM      5  H1  ARG A   1       3.533  -0.823   2.667  0.00  0.00    +0.000 HD
ATOM      6  H2  ARG A   1       3.004  -0.103   4.030  0.00  0.00    +0.000 HD
ENDBRANCH   3   4
BRANCH   3   8
ATOM      7  OXT ARG A   1       5.282   2.321   2.189  0.00  0.00    +0.000 OA
ATOM      8  C   ARG A   1       4.523   1.493   2.677  0.00  0.00    +0.000 C 
BRANCH   8   9
ATOM      9  O   ARG A   1       3.184   1.493   2.442  0.00  0.00    +0.000 OA
ATOM     10  H   ARG A   1       2.813   0.585   2.445  0.00  0.00    +0.000 HD
ENDBRANCH   8   9
ENDBRANCH   3   8
ENDBRANCH   2   3
ENDBRANCH   1   2
BRANCH   1  11
ATOM     11  CD  ARG A   1       6.541  -2.893   2.782  0.00  0.00    +0.000 C 
BRANCH  11  12
ATOM     12  NE  ARG A   1       6.015  -4.091   2.126  0.00  0.00    +0.000 NA
ATOM     13  NH1 ARG A   1       4.181  -5.445   1.704  0.00  0.00    +0.000 N 
ATOM     14  NH2 ARG A   1       3.832  -3.605   3.005  0.00  0.00    +0.000 N 
ATOM     15  CZ  ARG A   1       4.752  -4.338   2.287  0.00  0.00    +0.000 C 
ATOM     16 HH11 ARG A   1       4.732  -6.083   1.141  0.00  0.00    +0.000 HD
ATOM     17 HH12 ARG A   1       3.194  -5.655   1.817  0.00  0.00    +0.000 HD
ATOM     18 HH21 ARG A   1       2.863  -3.896   3.061  0.00  0.00    +0.000 HD
ATOM     19 HH22 ARG A   1       4.084  -2.759   3.503  0.00  0.00    +0.000 HD
ENDBRANCH  11  12
ENDBRANCH   1  11
TORSDOF 7
ENDMDL
MODEL 8
REMARK VINA RESULT:    -4.601      2.193      2.892
REMARK INTER + INTRA:         -10.015
REMARK INTER:                  -6.689
REMARK INTRA:                  -3.326
REMARK CONF_INDEPENDENT:        2.088
REMARK UNBOUND:                 3.326
REMARK  Name = 6322
REMARK  7 active torsions:
REMARK  status: ('A' for Active; 'I' for Inactive)
REMARK    1  A    between atoms: O_1  and  C_11
REMARK    2  A    between atoms: N_3  and  CA_9
REMARK    3  A    between atoms: NE_4  and  CD_10
REMARK    4  A    between atoms: CB_7  and  CG_8
REMARK    5  A    between atoms: CB_7  and  CA_9
REMARK    6  A    between atoms: CG_8  and  CD_10
REMARK    7  A    between atoms: CA_9  and  C_11
REMARK                            x       y       z     vdW  Elec       q    Type
REMARK                         _______ _______ _______ _____ _____    ______ ____
ROOT
ATOM      1  CG  ARG A   1       5.606  -2.251   2.132  0.00  0.00    +0.000 C 
ENDROOT
BRANCH   1   2
ATOM      2  CB  ARG A   1       6.415  -3.506   1.771  0.00  0.00    +0.000 C 
BRANCH   2   3
ATOM      3  CA  ARG A   1       5.519  -4.650   1.272  0.00  0.00    +0.000 C 
BRANCH   3   4
ATOM      4  N   ARG A   1       4.221  -4.121   0.863  0.00  0.00    +0.000 NA
ATOM      5  H1  ARG A   1       3.556  -4.886   0.757  0.00  0.00    +0.000 HD
ATOM      6  H2  ARG A   1       4.302  -3.688  -0.057  0.00  0.00    +0.000 HD
ENDBRANCH   3   4
BRANCH   3   8
ATOM      7  OXT ARG A   1       6.080  -6.225   3.046  0.00  0.00    +0.000 OA
ATOM      8  C   ARG A   1       5.231  -5.673   2.356  0.00  0.00    +0.000 C 
BRANCH   8   9
ATOM      9  O   ARG A   1       3.899  -5.898   2.506  0.00  0.00    +0.000 OA
ATOM     10  H   ARG A   1       3.430  -5.897   1.645  0.00  0.00    +0.000 HD
ENDBRANCH   8   9
ENDBRANCH   3   8
ENDBRANCH   2   3
ENDBRANCH   1   2
BRANCH   1  11
ATOM     11  CD  ARG A   1       5.575  -1.991   3.635  0.00  0.00    +0.000 C 
BRANCH  11  12
ATOM     12  NE  ARG A   1       4.254  -1.495   4.026  0.00  0.00    +0.000 NA
ATOM     13  NH1 ARG A   1       1.980  -1.912   4.197  0.00  0.00    +0.000 N 
ATOM     14  NH2 ARG A   1       3.278  -3.583   3.345  0.00  0.00    +0.000 N 
ATOM     15  CZ  ARG A   1       3.254  -2.303   3.855  0.00  0.00    +0.000 C 
ATOM     16 HH11 ARG A   1       1.802  -0.993   4.586  0.00  0.00    +0.000 HD
ATOM     17 HH12 ARG A   1       1.184  -2.529   4.071  0.00  0.00    +0.000 HD
ATOM     18 HH21 ARG A   1       2.426  -4.125   3.257  0.00  0.00    +0.000 HD
ATOM     19 HH22 ARG A   1       4.136  -4.027   3.039  0.00  0.00    +0.000 HD
ENDBRANCH  11  12
ENDBRANCH   1  11
TORSDOF 7
ENDMDL
MODEL 9
REMARK VINA RESULT:    -3.969      2.551      3.039
REMARK INTER + INTRA:          -9.391
REMARK INTER:                  -6.057
REMARK INTRA:                  -3.335
REMARK CONF_INDEPENDENT:        2.088
REMARK UNBOUND:                 3.335
REMARK  Name = 6322
REMARK  7 active torsions:
REMARK  status: ('A' for Active; 'I' for Inactive)
REMARK    1  A    between atoms: O_1  and  C_11
REMARK    2  A    between atoms: N_3  and  CA_9
REMARK    3  A    between atoms: NE_4  and  CD_10
REMARK    4  A    between atoms: CB_7  and  CG_8
REMARK    5  A    between atoms: CB_7  and  CA_9
REMARK    6  A    between atoms: CG_8  and  CD_10
REMARK    7  A    between atoms: CA_9  and  C_11
REMARK                            x       y       z     vdW  Elec       q    Type
REMARK                         _______ _______ _______ _____ _____    ______ ____
ROOT
ATOM      1  CG  ARG A   1       6.800  -0.892   4.060  0.00  0.00    +0.000 C 
ENDROOT
BRANCH   1   2
ATOM      2  CB  ARG A   1       7.144  -2.184   3.303  0.00  0.00    +0.000 C 
BRANCH   2   3
ATOM      3  CA  ARG A   1       5.888  -2.932   2.833  0.00  0.00    +0.000 C 
BRANCH   3   4
ATOM      4  N   ARG A   1       5.484  -2.447   1.515  0.00  0.00    +0.000 NA
ATOM      5  H1  ARG A   1       6.304  -2.128   1.001  0.00  0.00    +0.000 HD
ATOM      6  H2  ARG A   1       4.882  -1.631   1.620  0.00  0.00    +0.000 HD
ENDBRANCH   3   4
BRANCH   3   8
ATOM      7  OXT ARG A   1       4.754  -2.631   4.969  0.00  0.00    +0.000 OA
ATOM      8  C   ARG A   1       4.699  -2.696   3.747  0.00  0.00    +0.000 C 
BRANCH   8   9
ATOM      9  O   ARG A   1       3.543  -2.533   3.052  0.00  0.00    +0.000 OA
ATOM     10  H   ARG A   1       3.695  -2.093   2.189  0.00  0.00    +0.000 HD
ENDBRANCH   8   9
ENDBRANCH   3   8
ENDBRANCH   2   3
ENDBRANCH   1   2
BRANCH   1  11
ATOM     11  CD  ARG A   1       6.588   0.293   3.124  0.00  0.00    +0.000 C 
BRANCH  11  12
ATOM     12  NE  ARG A   1       5.643   1.237   3.722  0.00  0.00    +0.000 NA
ATOM     13  NH1 ARG A   1       3.432   1.864   4.027  0.00  0.00    +0.000 N 
ATOM     14  NH2 ARG A   1       3.816   0.004   2.765  0.00  0.00    +0.000 N 
ATOM     15  CZ  ARG A   1       4.383   1.022   3.501  0.00  0.00    +0.000 C 
ATOM     16 HH11 ARG A   1       3.697   2.662   4.594  0.00  0.00    +0.000 HD
ATOM     17 HH12 ARG A   1       2.442   1.713   3.866  0.00  0.00    +0.000 HD
ATOM     18 HH21 ARG A   1       2.811  -0.065   2.659  0.00  0.00    +0.000 HD
ATOM     19 HH22 ARG A   1       4.374  -0.705   2.303  0.00  0.00    +0.000 HD
ENDBRANCH  11  12
ENDBRANCH   1  11
TORSDOF 7
ENDMDL
