MODEL 1
REMARK VINA RESULT:    -6.050      0.000      0.000
REMARK INTER + INTRA:          -9.735
REMARK INTER:                  -7.840
REMARK INTRA:                  -1.895
REMARK CONF_INDEPENDENT:        1.790
REMARK UNBOUND:                 1.895
REMARK  Name = 5318517
REMARK  8 active torsions:
REMARK  status: ('A' for Active; 'I' for Inactive)
REMARK    1  A    between atoms: O_1  and  C_11
REMARK    2  A    between atoms: O_2  and  C_17
REMARK    3  A    between atoms: O_4  and  C_23
REMARK    4  A    between atoms: C_6  and  C_14
REMARK    5  A    between atoms: C_8  and  C_17
REMARK    6  A    between atoms: C_8  and  C_18
REMARK    7  A    between atoms: C_9  and  C_19
REMARK    8  A    between atoms: C_19  and  C_21
REMARK                            x       y       z     vdW  Elec       q    Type
REMARK                         _______ _______ _______ _____ _____    ______ ____
ROOT
ATOM      1  C   UNL     1       5.742   1.474   4.696  0.00  0.00    +0.000 C 
ATOM      2  C   UNL     1       6.531   2.480   5.631  0.00  0.00    +0.000 C 
ATOM      3  C   UNL     1       6.159   4.005   5.502  0.00  0.00    +0.000 C 
ATOM      4  C   UNL     1       6.497   0.079   4.769  0.00  0.00    +0.000 C 
ATOM      5  C   UNL     1       5.772   2.016   3.244  0.00  0.00    +0.000 C 
ATOM      6  C   UNL     1       6.159   4.395   3.995  0.00  0.00    +0.000 C 
ATOM      7  C   UNL     1       6.594   1.956   7.085  0.00  0.00    +0.000 C 
ATOM      8  C   UNL     1       5.324   3.468   3.119  0.00  0.00    +0.000 C 
ATOM      9  C   UNL     1       4.263   1.272   5.115  0.00  0.00    +0.000 C 
ATOM     10  C   UNL     1       7.232   0.567   7.159  0.00  0.00    +0.000 C 
ATOM     11  C   UNL     1       6.564  -0.403   6.218  0.00  0.00    +0.000 C 
ATOM     12  C   UNL     1       7.257   4.863   6.194  0.00  0.00    +0.000 C 
ATOM     13  C   UNL     1       6.082  -1.571   6.677  0.00  0.00    +0.000 C 
ENDROOT
BRANCH   6  14
ATOM     14  O   UNL     1       5.722   5.739   3.798  0.00  0.00    +0.000 OA
ATOM     15  H   UNL     1       6.073   6.274   4.530  0.00  0.00    +0.000 HD
ENDBRANCH   6  14
BRANCH   3  16
ATOM     16  C   UNL     1       4.833   4.394   6.190  0.00  0.00    +0.000 C 
BRANCH  16  17
ATOM     17  O   UNL     1       4.683   5.792   6.084  0.00  0.00    +0.000 OA
ATOM     18  H   UNL     1       5.529   6.151   5.767  0.00  0.00    +0.000 HD
ENDBRANCH  16  17
ENDBRANCH   3  16
BRANCH   4  19
ATOM     19  C   UNL     1       5.985  -0.976   3.774  0.00  0.00    +0.000 C 
BRANCH  19  22
ATOM     20  O   UNL     1       6.158  -2.027  -0.862  0.00  0.00    +0.000 OA
ATOM     21  O   UNL     1       7.257  -0.063  -0.375  0.00  0.00    +0.000 OA
ATOM     22  C   UNL     1       6.345  -0.602   2.375  0.00  0.00    +0.000 C 
ATOM     23  C   UNL     1       6.260  -1.440   1.339  0.00  0.00    +0.000 C 
ATOM     24  C   UNL     1       5.741  -2.826   1.317  0.00  0.00    +0.000 C 
ATOM     25  C   UNL     1       6.633  -1.050  -0.034  0.00  0.00    +0.000 C 
ATOM     26  C   UNL     1       5.317  -2.938  -0.130  0.00  0.00    +0.000 C 
BRANCH  24  27
ATOM     27  O   UNL     1       6.801  -3.740   1.565  0.00  0.00    +0.000 OA
ATOM     28  H   UNL     1       7.021  -4.168   0.719  0.00  0.00    +0.000 HD
ENDBRANCH  24  27
ENDBRANCH  19  22
ENDBRANCH   4  19
TORSDOF 6
ENDMDL
MODEL 2
REMARK VINA RESULT:    -4.648      1.259      2.043
REMARK INTER + INTRA:          -6.777
REMARK INTER:                  -6.437
REMARK INTRA:                  -0.340
REMARK CONF_INDEPENDENT:        1.790
REMARK UNBOUND:                 0.340
REMARK  Name = 5318517
REMARK  8 active torsions:
REMARK  status: ('A' for Active; 'I' for Inactive)
REMARK    1  A    between atoms: O_1  and  C_11
REMARK    2  A    between atoms: O_2  and  C_17
REMARK    3  A    between atoms: O_4  and  C_23
REMARK    4  A    between atoms: C_6  and  C_14
REMARK    5  A    between atoms: C_8  and  C_17
REMARK    6  A    between atoms: C_8  and  C_18
REMARK    7  A    between atoms: C_9  and  C_19
REMARK    8  A    between atoms: C_19  and  C_21
REMARK                            x       y       z     vdW  Elec       q    Type
REMARK                         _______ _______ _______ _____ _____    ______ ____
ROOT
ATOM      1  C   UNL     1       5.899   1.607   4.674  0.00  0.00    +0.000 C 
ATOM      2  C   UNL     1       6.063   2.487   5.980  0.00  0.00    +0.000 C 
ATOM      3  C   UNL     1       5.122   3.744   6.108  0.00  0.00    +0.000 C 
ATOM      4  C   UNL     1       7.139   0.617   4.620  0.00  0.00    +0.000 C 
ATOM      5  C   UNL     1       5.914   2.542   3.437  0.00  0.00    +0.000 C 
ATOM      6  C   UNL     1       5.181   4.551   4.778  0.00  0.00    +0.000 C 
ATOM      7  C   UNL     1       6.124   1.600   7.246  0.00  0.00    +0.000 C 
ATOM      8  C   UNL     1       4.934   3.706   3.533  0.00  0.00    +0.000 C 
ATOM      9  C   UNL     1       4.589   0.779   4.647  0.00  0.00    +0.000 C 
ATOM     10  C   UNL     1       7.257   0.575   7.163  0.00  0.00    +0.000 C 
ATOM     11  C   UNL     1       7.189  -0.230   5.891  0.00  0.00    +0.000 C 
ATOM     12  C   UNL     1       5.660   4.678   7.230  0.00  0.00    +0.000 C 
ATOM     13  C   UNL     1       7.166  -1.572   5.937  0.00  0.00    +0.000 C 
ENDROOT
BRANCH   6  14
ATOM     14  O   UNL     1       4.265   5.645   4.784  0.00  0.00    +0.000 OA
ATOM     15  H   UNL     1       3.377   5.288   4.609  0.00  0.00    +0.000 HD
ENDBRANCH   6  14
BRANCH   3  16
ATOM     16  C   UNL     1       3.669   3.409   6.507  0.00  0.00    +0.000 C 
BRANCH  16  17
ATOM     17  O   UNL     1       2.981   4.624   6.701  0.00  0.00    +0.000 OA
ATOM     18  H   UNL     1       3.590   5.344   6.460  0.00  0.00    +0.000 HD
ENDBRANCH  16  17
ENDBRANCH   3  16
BRANCH   4  19
ATOM     19  C   UNL     1       7.254  -0.191   3.316  0.00  0.00    +0.000 C 
BRANCH  19  22
ATOM     20  O   UNL     1       5.667  -4.279   1.471  0.00  0.00    +0.000 OA
ATOM     21  O   UNL     1       5.406  -4.197   3.758  0.00  0.00    +0.000 OA
ATOM     22  C   UNL     1       6.716  -1.571   3.499  0.00  0.00    +0.000 C 
ATOM     23  C   UNL     1       6.280  -2.335   2.495  0.00  0.00    +0.000 C 
ATOM     24  C   UNL     1       6.305  -2.048   1.043  0.00  0.00    +0.000 C 
ATOM     25  C   UNL     1       5.740  -3.692   2.703  0.00  0.00    +0.000 C 
ATOM     26  C   UNL     1       6.317  -3.454   0.485  0.00  0.00    +0.000 C 
BRANCH  24  27
ATOM     27  O   UNL     1       5.096  -1.406   0.660  0.00  0.00    +0.000 OA
ATOM     28  H   UNL     1       4.950  -0.667   1.275  0.00  0.00    +0.000 HD
ENDBRANCH  24  27
ENDBRANCH  19  22
ENDBRANCH   4  19
TORSDOF 6
ENDMDL
MODEL 3
REMARK VINA RESULT:    -4.563      3.709      5.513
REMARK INTER + INTRA:          -7.169
REMARK INTER:                  -6.352
REMARK INTRA:                  -0.817
REMARK CONF_INDEPENDENT:        1.790
REMARK UNBOUND:                 0.817
REMARK  Name = 5318517
REMARK  8 active torsions:
REMARK  status: ('A' for Active; 'I' for Inactive)
REMARK    1  A    between atoms: O_1  and  C_11
REMARK    2  A    between atoms: O_2  and  C_17
REMARK    3  A    between atoms: O_4  and  C_23
REMARK    4  A    between atoms: C_6  and  C_14
REMARK    5  A    between atoms: C_8  and  C_17
REMARK    6  A    between atoms: C_8  and  C_18
REMARK    7  A    between atoms: C_9  and  C_19
REMARK    8  A    between atoms: C_19  and  C_21
REMARK                            x       y       z     vdW  Elec       q    Type
REMARK                         _______ _______ _______ _____ _____    ______ ____
ROOT
ATOM      1  C   UNL     1       4.145   2.799   5.584  0.00  0.00    +0.000 C 
ATOM      2  C   UNL     1       4.564   2.959   4.066  0.00  0.00    +0.000 C 
ATOM      3  C   UNL     1       4.118   4.287   3.345  0.00  0.00    +0.000 C 
ATOM      4  C   UNL     1       4.416   1.287   5.986  0.00  0.00    +0.000 C 
ATOM      5  C   UNL     1       2.635   3.120   5.721  0.00  0.00    +0.000 C 
ATOM      6  C   UNL     1       2.604   4.523   3.622  0.00  0.00    +0.000 C 
ATOM      7  C   UNL     1       6.050   2.584   3.855  0.00  0.00    +0.000 C 
ATOM      8  C   UNL     1       2.230   4.452   5.098  0.00  0.00    +0.000 C 
ATOM      9  C   UNL     1       4.934   3.726   6.544  0.00  0.00    +0.000 C 
ATOM     10  C   UNL     1       6.346   1.159   4.329  0.00  0.00    +0.000 C 
ATOM     11  C   UNL     1       5.884   0.937   5.746  0.00  0.00    +0.000 C 
ATOM     12  C   UNL     1       4.278   4.117   1.807  0.00  0.00    +0.000 C 
ATOM     13  C   UNL     1       6.740   0.478   6.675  0.00  0.00    +0.000 C 
ENDROOT
BRANCH   6  14
ATOM     14  O   UNL     1       2.158   5.769   3.090  0.00  0.00    +0.000 OA
ATOM     15  H   UNL     1       1.426   5.584   2.478  0.00  0.00    +0.000 HD
ENDBRANCH   6  14
BRANCH   3  16
ATOM     16  C   UNL     1       4.963   5.524   3.717  0.00  0.00    +0.000 C 
BRANCH  16  17
ATOM     17  O   UNL     1       6.191   5.068   4.241  0.00  0.00    +0.000 OA
ATOM     18  H   UNL     1       6.844   5.777   4.106  0.00  0.00    +0.000 HD
ENDBRANCH  16  17
ENDBRANCH   3  16
BRANCH   4  19
ATOM     19  C   UNL     1       3.890   0.892   7.376  0.00  0.00    +0.000 C 
BRANCH  19  22
ATOM     20  O   UNL     1      -0.136  -1.108   5.816  0.00  0.00    +0.000 OA
ATOM     21  O   UNL     1       1.012  -2.481   7.265  0.00  0.00    +0.000 OA
ATOM     22  C   UNL     1       2.983  -0.290   7.283  0.00  0.00    +0.000 C 
ATOM     23  C   UNL     1       1.764  -0.248   6.740  0.00  0.00    +0.000 C 
ATOM     24  C   UNL     1       1.096   0.888   6.066  0.00  0.00    +0.000 C 
ATOM     25  C   UNL     1       0.881  -1.428   6.670  0.00  0.00    +0.000 C 
ATOM     26  C   UNL     1       0.136   0.146   5.163  0.00  0.00    +0.000 C 
BRANCH  24  27
ATOM     27  O   UNL     1       0.354   1.641   7.016  0.00  0.00    +0.000 OA
ATOM     28  H   UNL     1      -0.516   1.218   7.109  0.00  0.00    +0.000 HD
ENDBRANCH  24  27
ENDBRANCH  19  22
ENDBRANCH   4  19
TORSDOF 6
ENDMDL
