MODEL 1
REMARK VINA RESULT:    -5.944      0.000      0.000
REMARK INTER + INTRA:          -9.702
REMARK INTER:                  -7.734
REMARK INTRA:                  -1.968
REMARK CONF_INDEPENDENT:        1.790
REMARK UNBOUND:                 1.968
REMARK  Name = 5318517
REMARK  8 active torsions:
REMARK  status: ('A' for Active; 'I' for Inactive)
REMARK    1  A    between atoms: O_1  and  C_11
REMARK    2  A    between atoms: O_2  and  C_17
REMARK    3  A    between atoms: O_4  and  C_23
REMARK    4  A    between atoms: C_6  and  C_14
REMARK    5  A    between atoms: C_8  and  C_17
REMARK    6  A    between atoms: C_8  and  C_18
REMARK    7  A    between atoms: C_9  and  C_19
REMARK    8  A    between atoms: C_19  and  C_21
REMARK                            x       y       z     vdW  Elec       q    Type
REMARK                         _______ _______ _______ _____ _____    ______ ____
ROOT
ATOM      1  C   UNL     1       5.753   1.550   4.738  0.00  0.00    +0.000 C 
ATOM      2  C   UNL     1       6.535   2.614   5.612  0.00  0.00    +0.000 C 
ATOM      3  C   UNL     1       6.164   4.128   5.383  0.00  0.00    +0.000 C 
ATOM      4  C   UNL     1       6.507   0.163   4.906  0.00  0.00    +0.000 C 
ATOM      5  C   UNL     1       5.793   1.998   3.254  0.00  0.00    +0.000 C 
ATOM      6  C   UNL     1       6.174   4.420   3.854  0.00  0.00    +0.000 C 
ATOM      7  C   UNL     1       6.588   2.185   7.097  0.00  0.00    +0.000 C 
ATOM      8  C   UNL     1       5.345   3.438   3.034  0.00  0.00    +0.000 C 
ATOM      9  C   UNL     1       4.271   1.375   5.159  0.00  0.00    +0.000 C 
ATOM     10  C   UNL     1       7.226   0.803   7.264  0.00  0.00    +0.000 C 
ATOM     11  C   UNL     1       6.565  -0.225   6.383  0.00  0.00    +0.000 C 
ATOM     12  C   UNL     1       7.257   5.029   6.026  0.00  0.00    +0.000 C 
ATOM     13  C   UNL     1       6.080  -1.361   6.912  0.00  0.00    +0.000 C 
ENDROOT
BRANCH   6  14
ATOM     14  O   UNL     1       5.738   5.748   3.568  0.00  0.00    +0.000 OA
ATOM     15  H   UNL     1       5.672   6.226   4.413  0.00  0.00    +0.000 HD
ENDBRANCH   6  14
BRANCH   3  16
ATOM     16  C   UNL     1       4.833   4.559   6.036  0.00  0.00    +0.000 C 
BRANCH  16  17
ATOM     17  O   UNL     1       4.943   5.920   6.388  0.00  0.00    +0.000 OA
ATOM     18  H   UNL     1       5.257   6.398   5.601  0.00  0.00    +0.000 HD
ENDBRANCH  16  17
ENDBRANCH   3  16
BRANCH   4  19
ATOM     19  C   UNL     1       6.003  -0.954   3.977  0.00  0.00    +0.000 C 
BRANCH  19  22
ATOM     20  O   UNL     1       5.663  -1.971  -0.658  0.00  0.00    +0.000 OA
ATOM     21  O   UNL     1       7.252  -0.358  -0.236  0.00  0.00    +0.000 OA
ATOM     22  C   UNL     1       6.374  -0.671   2.559  0.00  0.00    +0.000 C 
ATOM     23  C   UNL     1       6.024  -1.450   1.533  0.00  0.00    +0.000 C 
ATOM     24  C   UNL     1       5.167  -2.657   1.544  0.00  0.00    +0.000 C 
ATOM     25  C   UNL     1       6.414  -1.156   0.140  0.00  0.00    +0.000 C 
ATOM     26  C   UNL     1       4.656  -2.644   0.121  0.00  0.00    +0.000 C 
BRANCH  24  27
ATOM     27  O   UNL     1       5.970  -3.814   1.739  0.00  0.00    +0.000 OA
ATOM     28  H   UNL     1       5.961  -4.319   0.908  0.00  0.00    +0.000 HD
ENDBRANCH  24  27
ENDBRANCH  19  22
ENDBRANCH   4  19
TORSDOF 6
ENDMDL
MODEL 2
REMARK VINA RESULT:    -5.659      2.023      3.642
REMARK INTER + INTRA:          -8.599
REMARK INTER:                  -7.449
REMARK INTRA:                  -1.150
REMARK CONF_INDEPENDENT:        1.790
REMARK UNBOUND:                 1.150
REMARK  Name = 5318517
REMARK  8 active torsions:
REMARK  status: ('A' for Active; 'I' for Inactive)
REMARK    1  A    between atoms: O_1  and  C_11
REMARK    2  A    between atoms: O_2  and  C_17
REMARK    3  A    between atoms: O_4  and  C_23
REMARK    4  A    between atoms: C_6  and  C_14
REMARK    5  A    between atoms: C_8  and  C_17
REMARK    6  A    between atoms: C_8  and  C_18
REMARK    7  A    between atoms: C_9  and  C_19
REMARK    8  A    between atoms: C_19  and  C_21
REMARK                            x       y       z     vdW  Elec       q    Type
REMARK                         _______ _______ _______ _____ _____    ______ ____
ROOT
ATOM      1  C   UNL     1       4.728   1.591   5.003  0.00  0.00    +0.000 C 
ATOM      2  C   UNL     1       3.541   2.633   4.888  0.00  0.00    +0.000 C 
ATOM      3  C   UNL     1       2.462   2.605   6.036  0.00  0.00    +0.000 C 
ATOM      4  C   UNL     1       5.485   1.590   3.608  0.00  0.00    +0.000 C 
ATOM      5  C   UNL     1       4.134   0.187   5.284  0.00  0.00    +0.000 C 
ATOM      6  C   UNL     1       2.006   1.133   6.258  0.00  0.00    +0.000 C 
ATOM      7  C   UNL     1       4.070   4.044   4.540  0.00  0.00    +0.000 C 
ATOM      8  C   UNL     1       3.158   0.154   6.455  0.00  0.00    +0.000 C 
ATOM      9  C   UNL     1       5.741   1.930   6.128  0.00  0.00    +0.000 C 
ATOM     10  C   UNL     1       4.885   4.039   3.245  0.00  0.00    +0.000 C 
ATOM     11  C   UNL     1       5.976   2.999   3.278  0.00  0.00    +0.000 C 
ATOM     12  C   UNL     1       1.208   3.406   5.583  0.00  0.00    +0.000 C 
ATOM     13  C   UNL     1       7.252   3.347   3.039  0.00  0.00    +0.000 C 
ENDROOT
BRANCH   6  14
ATOM     14  O   UNL     1       1.108   1.020   7.361  0.00  0.00    +0.000 OA
ATOM     15  H   UNL     1       0.400   1.674   7.234  0.00  0.00    +0.000 HD
ENDBRANCH   6  14
BRANCH   3  16
ATOM     16  C   UNL     1       2.922   3.263   7.354  0.00  0.00    +0.000 C 
BRANCH  16  17
ATOM     17  O   UNL     1       3.227   4.613   7.082  0.00  0.00    +0.000 OA
ATOM     18  H   UNL     1       2.391   5.111   7.116  0.00  0.00    +0.000 HD
ENDBRANCH  16  17
ENDBRANCH   3  16
BRANCH   4  19
ATOM     19  C   UNL     1       6.557   0.497   3.464  0.00  0.00    +0.000 C 
BRANCH  19  22
ATOM     20  O   UNL     1       5.376  -2.155  -0.305  0.00  0.00    +0.000 OA
ATOM     21  O   UNL     1       7.229  -0.849  -0.708  0.00  0.00    +0.000 OA
ATOM     22  C   UNL     1       6.747   0.127   2.030  0.00  0.00    +0.000 C 
ATOM     23  C   UNL     1       6.136  -0.904   1.444  0.00  0.00    +0.000 C 
ATOM     24  C   UNL     1       5.123  -1.820   2.016  0.00  0.00    +0.000 C 
ATOM     25  C   UNL     1       6.350  -1.257   0.027  0.00  0.00    +0.000 C 
ATOM     26  C   UNL     1       4.410  -2.261   0.757  0.00  0.00    +0.000 C 
BRANCH  24  27
ATOM     27  O   UNL     1       5.767  -2.942   2.604  0.00  0.00    +0.000 OA
ATOM     28  H   UNL     1       5.632  -2.886   3.566  0.00  0.00    +0.000 HD
ENDBRANCH  24  27
ENDBRANCH  19  22
ENDBRANCH   4  19
TORSDOF 6
ENDMDL
MODEL 3
REMARK VINA RESULT:    -4.984      3.834      6.615
REMARK INTER + INTRA:          -8.119
REMARK INTER:                  -6.774
REMARK INTRA:                  -1.345
REMARK CONF_INDEPENDENT:        1.790
REMARK UNBOUND:                 1.345
REMARK  Name = 5318517
REMARK  8 active torsions:
REMARK  status: ('A' for Active; 'I' for Inactive)
REMARK    1  A    between atoms: O_1  and  C_11
REMARK    2  A    between atoms: O_2  and  C_17
REMARK    3  A    between atoms: O_4  and  C_23
REMARK    4  A    between atoms: C_6  and  C_14
REMARK    5  A    between atoms: C_8  and  C_17
REMARK    6  A    between atoms: C_8  and  C_18
REMARK    7  A    between atoms: C_9  and  C_19
REMARK    8  A    between atoms: C_19  and  C_21
REMARK                            x       y       z     vdW  Elec       q    Type
REMARK                         _______ _______ _______ _____ _____    ______ ____
ROOT
ATOM      1  C   UNL     1       6.522  -2.342   2.585  0.00  0.00    +0.000 C 
ATOM      2  C   UNL     1       6.878  -1.197   1.552  0.00  0.00    +0.000 C 
ATOM      3  C   UNL     1       6.514  -1.466   0.043  0.00  0.00    +0.000 C 
ATOM      4  C   UNL     1       7.257  -1.988   3.947  0.00  0.00    +0.000 C 
ATOM      5  C   UNL     1       7.050  -3.692   2.035  0.00  0.00    +0.000 C 
ATOM      6  C   UNL     1       7.041  -2.876  -0.354  0.00  0.00    +0.000 C 
ATOM      7  C   UNL     1       6.435   0.188   2.081  0.00  0.00    +0.000 C 
ATOM      8  C   UNL     1       6.617  -3.985   0.603  0.00  0.00    +0.000 C 
ATOM      9  C   UNL     1       5.001  -2.483   2.853  0.00  0.00    +0.000 C 
ATOM     10  C   UNL     1       7.061   0.501   3.442  0.00  0.00    +0.000 C 
ATOM     11  C   UNL     1       6.819  -0.607   4.434  0.00  0.00    +0.000 C 
ATOM     12  C   UNL     1       7.252  -0.434  -0.857  0.00  0.00    +0.000 C 
ATOM     13  C   UNL     1       6.253  -0.341   5.624  0.00  0.00    +0.000 C 
ENDROOT
BRANCH   6  14
ATOM     14  O   UNL     1       6.648  -3.232  -1.679  0.00  0.00    +0.000 OA
ATOM     15  H   UNL     1       5.741  -3.578  -1.635  0.00  0.00    +0.000 HD
ENDBRANCH   6  14
BRANCH   3  16
ATOM     16  C   UNL     1       5.014  -1.306  -0.284  0.00  0.00    +0.000 C 
BRANCH  16  17
ATOM     17  O   UNL     1       4.397  -2.562  -0.113  0.00  0.00    +0.000 OA
ATOM     18  H   UNL     1       4.666  -3.123  -0.861  0.00  0.00    +0.000 HD
ENDBRANCH  16  17
ENDBRANCH   3  16
BRANCH   4  19
ATOM     19  C   UNL     1       7.183  -3.090   5.018  0.00  0.00    +0.000 C 
BRANCH  19  22
ATOM     20  O   UNL     1       4.308  -6.775   5.904  0.00  0.00    +0.000 OA
ATOM     21  O   UNL     1       4.966  -6.697   3.699  0.00  0.00    +0.000 OA
ATOM     22  C   UNL     1       6.373  -4.246   4.532  0.00  0.00    +0.000 C 
ATOM     23  C   UNL     1       5.779  -5.126   5.341  0.00  0.00    +0.000 C 
ATOM     24  C   UNL     1       5.714  -5.118   6.820  0.00  0.00    +0.000 C 
ATOM     25  C   UNL     1       4.994  -6.269   4.837  0.00  0.00    +0.000 C 
ATOM     26  C   UNL     1       4.442  -5.905   7.044  0.00  0.00    +0.000 C 
BRANCH  24  27
ATOM     27  O   UNL     1       6.812  -5.846   7.353  0.00  0.00    +0.000 OA
ATOM     28  H   UNL     1       6.642  -6.790   7.193  0.00  0.00    +0.000 HD
ENDBRANCH  24  27
ENDBRANCH  19  22
ENDBRANCH   4  19
TORSDOF 6
ENDMDL
MODEL 4
REMARK VINA RESULT:    -4.385      1.649      7.199
REMARK INTER + INTRA:          -6.700
REMARK INTER:                  -6.175
REMARK INTRA:                  -0.525
REMARK CONF_INDEPENDENT:        1.790
REMARK UNBOUND:                 0.525
REMARK  Name = 5318517
REMARK  8 active torsions:
REMARK  status: ('A' for Active; 'I' for Inactive)
REMARK    1  A    between atoms: O_1  and  C_11
REMARK    2  A    between atoms: O_2  and  C_17
REMARK    3  A    between atoms: O_4  and  C_23
REMARK    4  A    between atoms: C_6  and  C_14
REMARK    5  A    between atoms: C_8  and  C_17
REMARK    6  A    between atoms: C_8  and  C_18
REMARK    7  A    between atoms: C_9  and  C_19
REMARK    8  A    between atoms: C_19  and  C_21
REMARK                            x       y       z     vdW  Elec       q    Type
REMARK                         _______ _______ _______ _____ _____    ______ ____
ROOT
ATOM      1  C   UNL     1       6.531  -0.693   3.424  0.00  0.00    +0.000 C 
ATOM      2  C   UNL     1       6.880  -1.106   1.937  0.00  0.00    +0.000 C 
ATOM      3  C   UNL     1       6.525  -2.581   1.510  0.00  0.00    +0.000 C 
ATOM      4  C   UNL     1       7.257   0.690   3.707  0.00  0.00    +0.000 C 
ATOM      5  C   UNL     1       7.074  -1.781   4.386  0.00  0.00    +0.000 C 
ATOM      6  C   UNL     1       7.066  -3.559   2.594  0.00  0.00    +0.000 C 
ATOM      7  C   UNL     1       6.422  -0.021   0.934  0.00  0.00    +0.000 C 
ATOM      8  C   UNL     1       6.648  -3.198   4.015  0.00  0.00    +0.000 C 
ATOM      9  C   UNL     1       5.010  -0.527   3.679  0.00  0.00    +0.000 C 
ATOM     10  C   UNL     1       7.040   1.342   1.254  0.00  0.00    +0.000 C 
ATOM     11  C   UNL     1       6.804   1.737   2.690  0.00  0.00    +0.000 C 
ATOM     12  C   UNL     1       7.257  -2.923   0.181  0.00  0.00    +0.000 C 
ATOM     13  C   UNL     1       6.231   2.917   2.983  0.00  0.00    +0.000 C 
ENDROOT
BRANCH   6  14
ATOM     14  O   UNL     1       6.682  -4.907   2.326  0.00  0.00    +0.000 OA
ATOM     15  H   UNL     1       6.303  -4.934   1.431  0.00  0.00    +0.000 HD
ENDBRANCH   6  14
BRANCH   3  16
ATOM     16  C   UNL     1       5.025  -2.815   1.231  0.00  0.00    +0.000 C 
BRANCH  16  17
ATOM     17  O   UNL     1       4.822  -2.719  -0.161  0.00  0.00    +0.000 OA
ATOM     18  H   UNL     1       4.585  -3.607  -0.481  0.00  0.00    +0.000 HD
ENDBRANCH  16  17
ENDBRANCH   3  16
BRANCH   4  19
ATOM     19  C   UNL     1       7.189   1.160   5.170  0.00  0.00    +0.000 C 
BRANCH  19  22
ATOM     20  O   UNL     1       4.012   4.610   5.970  0.00  0.00    +0.000 OA
ATOM     21  O   UNL     1       3.175   2.525   6.472  0.00  0.00    +0.000 OA
ATOM     22  C   UNL     1       5.803   1.587   5.525  0.00  0.00    +0.000 C 
ATOM     23  C   UNL     1       5.452   2.856   5.744  0.00  0.00    +0.000 C 
ATOM     24  C   UNL     1       6.282   4.075   5.611  0.00  0.00    +0.000 C 
ATOM     25  C   UNL     1       4.078   3.252   6.105  0.00  0.00    +0.000 C 
ATOM     26  C   UNL     1       5.210   5.109   5.345  0.00  0.00    +0.000 C 
BRANCH  24  27
ATOM     27  O   UNL     1       6.910   4.366   6.853  0.00  0.00    +0.000 OA
ATOM     28  H   UNL     1       6.296   4.915   7.370  0.00  0.00    +0.000 HD
ENDBRANCH  24  27
ENDBRANCH  19  22
ENDBRANCH   4  19
TORSDOF 6
ENDMDL
