MODEL 1
REMARK VINA RESULT:   730.176      0.000      0.000
REMARK INTER + INTRA:        1117.353
REMARK INTER:                 725.701
REMARK INTRA:                 391.652
REMARK CONF_INDEPENDENT:        4.474
REMARK UNBOUND:              -391.652
REMARK  Name = 60823
REMARK  17 active torsions:
REMARK  status: ('A' for Active; 'I' for Inactive)
REMARK    1  A    between atoms: O_2  and  C_16
REMARK    2  A    between atoms: O_3  and  C_22
REMARK    3  A    between atoms: O_5  and  C_35
REMARK    4  A    between atoms: N_7  and  C_10
REMARK    5  A    between atoms: N_8  and  C_34
REMARK    6  A    between atoms: C_9  and  C_12
REMARK    7  A    between atoms: C_10  and  C_13
REMARK    8  A    between atoms: C_11  and  C_18
REMARK    9  A    between atoms: C_12  and  C_19
REMARK   10  A    between atoms: C_12  and  C_20
REMARK   11  A    between atoms: C_13  and  C_16
REMARK   12  A    between atoms: C_14  and  C_23
REMARK   13  A    between atoms: C_15  and  C_21
REMARK   14  A    between atoms: C_16  and  C_17
REMARK   15  A    between atoms: C_17  and  C_22
REMARK   16  A    between atoms: C_22  and  C_24
REMARK   17  A    between atoms: C_24  and  C_35
REMARK                            x       y       z     vdW  Elec       q    Type
REMARK                         _______ _______ _______ _____ _____    ______ ____
ROOT
ATOM      1  N   UNL     1       7.237   2.086   2.975  0.00  0.00    +0.000 N 
ATOM      2  C   UNL     1       7.322   1.328   4.114  0.00  0.00    +0.000 A 
ATOM      3  C   UNL     1       7.115   1.265   1.884  0.00  0.00    +0.000 A 
ATOM      4  C   UNL     1       7.252   0.003   3.745  0.00  0.00    +0.000 A 
ATOM      5  C   UNL     1       7.121  -0.037   2.334  0.00  0.00    +0.000 A 
ENDROOT
BRANCH   3   7
ATOM      6  F   UNL     1       6.685   3.250  -3.310  0.00  0.00    +0.000 F 
ATOM      7  C   UNL     1       7.004   1.781   0.535  0.00  0.00    +0.000 A 
ATOM      8  C   UNL     1       7.770   1.226  -0.490  0.00  0.00    +0.000 A 
ATOM      9  C   UNL     1       6.129   2.833   0.260  0.00  0.00    +0.000 A 
ATOM     10  C   UNL     1       7.663   1.722  -1.789  0.00  0.00    +0.000 A 
ATOM     11  C   UNL     1       6.022   3.328  -1.040  0.00  0.00    +0.000 A 
ATOM     12  C   UNL     1       6.788   2.774  -2.064  0.00  0.00    +0.000 A 
ENDBRANCH   3   7
BRANCH   5  13
ATOM     13  C   UNL     1       7.010  -1.177   1.466  0.00  0.00    +0.000 A 
ATOM     14  C   UNL     1       6.835  -2.451   2.007  0.00  0.00    +0.000 A 
ATOM     15  C   UNL     1       7.078  -1.010   0.083  0.00  0.00    +0.000 A 
ATOM     16  C   UNL     1       6.727  -3.558   1.164  0.00  0.00    +0.000 A 
ATOM     17  C   UNL     1       6.971  -2.117  -0.759  0.00  0.00    +0.000 A 
ATOM     18  C   UNL     1       6.795  -3.391  -0.218  0.00  0.00    +0.000 A 
ENDBRANCH   5  13
BRANCH   4  21
ATOM     19  O   UNL     1       7.752  -0.965   5.817  0.00  0.00    +0.000 OA
ATOM     20  N   UNL     1       6.865  -2.337   4.152  0.00  0.00    +0.000 N 
ATOM     21  C   UNL     1       7.308  -1.101   4.661  0.00  0.00    +0.000 C 
ATOM     22  H   UNL     1       6.525  -2.337   3.191  0.00  0.00    +0.000 HD
BRANCH  20  23
ATOM     23  C   UNL     1       6.830  -3.601   4.790  0.00  0.00    +0.000 A 
ATOM     24  C   UNL     1       7.459  -4.698   4.201  0.00  0.00    +0.000 A 
ATOM     25  C   UNL     1       6.169  -3.750   6.010  0.00  0.00    +0.000 A 
ATOM     26  C   UNL     1       7.426  -5.943   4.831  0.00  0.00    +0.000 A 
ATOM     27  C   UNL     1       6.136  -4.994   6.639  0.00  0.00    +0.000 A 
ATOM     28  C   UNL     1       6.764  -6.091   6.049  0.00  0.00    +0.000 A 
ENDBRANCH  20  23
ENDBRANCH   4  21
BRANCH   2  29
ATOM     29  C   UNL     1       7.463   1.941   5.452  0.00  0.00    +0.000 C 
ATOM     30  C   UNL     1       6.664   1.196   6.547  0.00  0.00    +0.000 C 
ATOM     31  C   UNL     1       7.089   3.441   5.474  0.00  0.00    +0.000 C 
ENDBRANCH   2  29
BRANCH   1  32
ATOM     32  C   UNL     1       7.276   3.543   2.940  0.00  0.00    +0.000 C 
BRANCH  32  33
ATOM     33  C   UNL     1       5.894   4.192   2.777  0.00  0.00    +0.000 C 
BRANCH  33  34
ATOM     34  C   UNL     1       4.820   3.247   2.221  0.00  0.00    +0.000 C 
BRANCH  34  35
ATOM     35  O   UNL     1       3.548   3.682   2.712  0.00  0.00    +0.000 OA
ATOM     36  H   UNL     1       3.696   4.489   3.233  0.00  0.00    +0.000 HD
ENDBRANCH  34  35
BRANCH  34  37
ATOM     37  C   UNL     1       4.742   3.222   0.684  0.00  0.00    +0.000 C 
BRANCH  37  38
ATOM     38  C   UNL     1       3.345   3.267   0.050  0.00  0.00    +0.000 C 
BRANCH  38  39
ATOM     39  O   UNL     1       3.342   2.469  -1.131  0.00  0.00    +0.000 OA
ATOM     40  H   UNL     1       2.611   1.834  -1.060  0.00  0.00    +0.000 HD
ENDBRANCH  38  39
BRANCH  38  41
ATOM     41  C   UNL     1       2.240   2.800   0.997  0.00  0.00    +0.000 C 
BRANCH  41  43
ATOM     42  O   UNL     1       3.588   1.547   2.564  0.00  0.00    +0.000 OA
ATOM     43  C   UNL     1       2.661   1.570   1.765  0.00  0.00    +0.000 C 
BRANCH  43  44
ATOM     44  O   UNL     1       1.909   0.483   1.460  0.00  0.00    +0.000 OA
ATOM     45  H   UNL     1       1.177   0.353   2.101  0.00  0.00    +0.000 HD
ENDBRANCH  43  44
ENDBRANCH  41  43
ENDBRANCH  38  41
ENDBRANCH  37  38
ENDBRANCH  34  37
ENDBRANCH  33  34
ENDBRANCH  32  33
ENDBRANCH   1  32
TORSDOF 15
ENDMDL
