MODEL 1
REMARK VINA RESULT:   264.135      0.000      0.000
REMARK INTER + INTRA:         261.138
REMARK INTER:                 262.942
REMARK INTRA:                  -1.803
REMARK CONF_INDEPENDENT:        1.193
REMARK UNBOUND:                 1.803
REMARK  Name = 
REMARK  6 active torsions:
REMARK  status: ('A' for Active; 'I' for Inactive)
REMARK    1  A    between atoms: C_1  and  C_2
REMARK    2  A    between atoms: C_15  and  C_16
REMARK    3  A    between atoms: C_20  and  C_21
REMARK    4  A    between atoms: C_21  and  C_23
REMARK    5  A    between atoms: C_23  and  N_24
REMARK    6  A    between atoms: N_27  and  C_28
REMARK                            x       y       z     vdW  Elec       q    Type
REMARK                         _______ _______ _______ _____ _____    ______ ____
ROOT
ATOM      1  C   UNL     1       5.332   2.067  -0.410  0.00  0.00    +0.000 C 
ENDROOT
BRANCH   1   2
ATOM      2  N   UNL     1       5.892   1.012   0.308  0.00  0.00    +0.000 NA
ATOM      3  C   UNL     1       6.933   0.254  -0.255  0.00  0.00    +0.000 C 
ATOM      4  C   UNL     1       8.105   0.262   0.723  0.00  0.00    +0.000 C 
ATOM      5  N   UNL     1       7.581  -0.092   2.038  0.00  0.00    +0.000 N 
ATOM      6  C   UNL     1       6.479   0.680   2.595  0.00  0.00    +0.000 C 
ATOM      7  C   UNL     1       5.371   0.647   1.557  0.00  0.00    +0.000 C 
BRANCH   5   8
ATOM      8  C   UNL     1       7.685  -1.453   2.455  0.00  0.00    +0.000 A 
ATOM      9  C   UNL     1       7.714  -1.660   3.827  0.00  0.00    +0.000 A 
ATOM     10  C   UNL     1       8.300  -2.802   4.340  0.00  0.00    +0.000 A 
ATOM     11  N   UNL     1       7.941  -3.237   5.660  0.00  0.00    +0.000 N 
ATOM     12  C   UNL     1       6.753  -4.073   5.844  0.00  0.00    +0.000 C 
ATOM     13  C   UNL     1       7.325  -5.485   5.787  0.00  0.00    +0.000 C 
ATOM     14  C   UNL     1       8.831  -5.320   5.945  0.00  0.00    +0.000 C 
ATOM     15  C   UNL     1       8.940  -3.902   6.496  0.00  0.00    +0.000 C 
ATOM     16  N   UNL     1       8.805  -3.666   3.427  0.00  0.00    +0.000 NA
ATOM     17  C   UNL     1       8.538  -3.599   2.113  0.00  0.00    +0.000 A 
ATOM     18  N   UNL     1       8.344  -4.771   1.311  0.00  0.00    +0.000 N 
ATOM     19  C   UNL     1       7.281  -5.739   1.564  0.00  0.00    +0.000 C 
ATOM     20  C   UNL     1       7.661  -6.949   0.762  0.00  0.00    +0.000 C 
ATOM     21  C   UNL     1       8.352  -6.335  -0.430  0.00  0.00    +0.000 C 
ATOM     22  C   UNL     1       8.790  -4.956  -0.042  0.00  0.00    +0.000 C 
ATOM     23  N   UNL     1       8.222  -2.373   1.630  0.00  0.00    +0.000 NA
ENDBRANCH   5   8
ENDBRANCH   1   2
BRANCH   1  24
ATOM     24  C   UNL     1       4.783   3.192   0.417  0.00  0.00    +0.000 C 
ATOM     25  O   UNL     1       3.999   3.982  -0.107  0.00  0.00    +0.000 OA
BRANCH  24  45
ATOM     26  C   UNL     1       4.006   4.909   2.137  0.00  0.00    +0.000 C 
ATOM     27  C   UNL     1       5.221   4.286   2.453  0.00  0.00    +0.000 C 
ATOM     28  C   UNL     1       5.319   3.173   3.383  0.00  0.00    +0.000 C 
ATOM     29  C   UNL     1       5.046   3.777   4.732  0.00  0.00    +0.000 C 
ATOM     30  C   UNL     1       5.620   4.928   5.016  0.00  0.00    +0.000 C 
ATOM     31  C   UNL     1       5.403   6.128   3.986  0.00  0.00    +0.000 C 
ATOM     32  C   UNL     1       6.671   7.017   4.494  0.00  0.00    +0.000 C 
ATOM     33  C   UNL     1       7.809   6.078   4.758  0.00  0.00    +0.000 C 
ATOM     34  C   UNL     1       7.625   5.324   6.050  0.00  0.00    +0.000 C 
ATOM     35  C   UNL     1       8.268   4.155   6.092  0.00  0.00    +0.000 C 
ATOM     36  C   UNL     1       7.729   2.948   6.674  0.00  0.00    +0.000 C 
ATOM     37  O   UNL     1       8.187   1.789   6.484  0.00  0.00    +0.000 OA
ATOM     38  C   UNL     1       6.443   3.019   7.379  0.00  0.00    +0.000 C 
ATOM     39  C   UNL     1       5.810   4.165   7.279  0.00  0.00    +0.000 C 
ATOM     40  C   UNL     1       6.156   5.239   6.361  0.00  0.00    +0.000 C 
ATOM     41  C   UNL     1       5.627   6.521   6.938  0.00  0.00    +0.000 C 
ATOM     42  C   UNL     1       6.361   5.382   2.794  0.00  0.00    +0.000 C 
ATOM     43  C   UNL     1       5.800   6.337   1.614  0.00  0.00    +0.000 C 
ATOM     44  C   UNL     1       5.588   5.409   0.470  0.00  0.00    +0.000 C 
ATOM     45  C   UNL     1       6.042   3.959   1.079  0.00  0.00    +0.000 C 
ENDBRANCH  24  45
ENDBRANCH   1  24
TORSDOF 4
ENDMDL
