MODEL 1
REMARK VINA RESULT:   353.717      0.000      0.000
REMARK INTER + INTRA:         351.398
REMARK INTER:                 352.822
REMARK INTRA:                  -1.424
REMARK CONF_INDEPENDENT:        0.895
REMARK UNBOUND:                 1.424
REMARK  Name = 
REMARK  3 active torsions:
REMARK  status: ('A' for Active; 'I' for Inactive)
REMARK    1  A    between atoms: C_5  and  C_6
REMARK    2  A    between atoms: C_9  and  N_10
REMARK    3  A    between atoms: C_21  and  C_22
REMARK                            x       y       z     vdW  Elec       q    Type
REMARK                         _______ _______ _______ _____ _____    ______ ____
ROOT
ATOM      1  C   UNL     1       1.403  -4.684   0.387  0.00  0.00    +0.000 A 
ATOM      2  N   UNL     1       2.317  -3.754   0.746  0.00  0.00    +0.000 NA
ATOM      3  N   UNL     1       2.237  -2.741  -0.115  0.00  0.00    +0.000 N 
ATOM      4  C   UNL     1       2.567  -1.449   0.098  0.00  0.00    +0.000 A 
ATOM      5  C   UNL     1       1.834  -0.398  -0.435  0.00  0.00    +0.000 A 
ATOM      6  C   UNL     1       0.991  -0.683  -1.502  0.00  0.00    +0.000 A 
ATOM      7  N   UNL     1       0.863  -1.990  -1.835  0.00  0.00    +0.000 NA
ATOM      8  C   UNL     1       1.176  -2.950  -0.932  0.00  0.00    +0.000 A 
ATOM      9  C   UNL     1       0.713  -4.244  -0.734  0.00  0.00    +0.000 A 
ENDROOT
BRANCH   9  10
ATOM     10  C   UNL     1       0.093  -5.076  -1.763  0.00  0.00    +0.000 A 
ATOM     11  C   UNL     1       0.179  -6.460  -1.687  0.00  0.00    +0.000 A 
ATOM     12  C   UNL     1      -0.773  -7.289  -2.264  0.00  0.00    +0.000 A 
ATOM     13  N   UNL     1      -1.500  -6.763  -3.276  0.00  0.00    +0.000 NA
ATOM     14  C   UNL     1      -1.509  -5.418  -3.451  0.00  0.00    +0.000 A 
ATOM     15  C   UNL     1      -2.409  -4.882  -4.364  0.00  0.00    +0.000 A 
ATOM     16  C   UNL     1      -2.534  -3.501  -4.439  0.00  0.00    +0.000 A 
ATOM     17  C   UNL     1      -2.326  -2.812  -3.250  0.00  0.00    +0.000 A 
ATOM     18  C   UNL     1      -1.557  -3.356  -2.229  0.00  0.00    +0.000 A 
ATOM     19  C   UNL     1      -0.934  -4.559  -2.525  0.00  0.00    +0.000 A 
ENDBRANCH   9  10
BRANCH   5  20
ATOM     20  C   UNL     1       2.033   0.979   0.037  0.00  0.00    +0.000 A 
ATOM     21  C   UNL     1       1.067   1.629   0.786  0.00  0.00    +0.000 A 
ATOM     22  C   UNL     1       0.951   2.993   0.801  0.00  0.00    +0.000 A 
ATOM     23  C   UNL     1       1.782   3.728  -0.033  0.00  0.00    +0.000 A 
ATOM     24  C   UNL     1       3.004   3.148  -0.350  0.00  0.00    +0.000 A 
ATOM     25  C   UNL     1       3.011   1.772  -0.540  0.00  0.00    +0.000 A 
BRANCH  23  26
ATOM     26  N   UNL     1       1.528   5.119  -0.235  0.00  0.00    +0.000 N 
ATOM     27  C   UNL     1       1.030   5.853   0.926  0.00  0.00    +0.000 C 
ATOM     28  C   UNL     1       0.477   7.165   0.384  0.00  0.00    +0.000 C 
ATOM     29  N   UNL     1      -0.714   6.839  -0.397  0.00  0.00    +0.000 NA
ATOM     30  C   UNL     1      -0.430   5.820  -1.394  0.00  0.00    +0.000 C 
ATOM     31  C   UNL     1       1.061   5.602  -1.531  0.00  0.00    +0.000 C 
ATOM     32  H   UNL     1      -1.043   7.681  -0.869  0.00  0.00    +0.000 HD
ENDBRANCH  23  26
ENDBRANCH   5  20
TORSDOF 3
ENDMDL
