MODEL 1
REMARK VINA RESULT:  2413.684      0.000      0.000
REMARK INTER + INTRA:        2412.396
REMARK INTER:                2412.789
REMARK INTRA:                  -0.394
REMARK CONF_INDEPENDENT:        0.895
REMARK UNBOUND:                 0.394
REMARK  Name = 
REMARK  9 active torsions:
REMARK  status: ('A' for Active; 'I' for Inactive)
REMARK    1  A    between atoms: C_1  and  C_2
REMARK    2  A    between atoms: C_3  and  O_4
REMARK    3  A    between atoms: C_13  and  C_14
REMARK    4  A    between atoms: C_17  and  C_18
REMARK    5  A    between atoms: C_21  and  C_22
REMARK    6  A    between atoms: C_21  and  C_23
REMARK    7  A    between atoms: C_23  and  O_25
REMARK    8  A    between atoms: C_28  and  C_29
REMARK    9  A    between atoms: C_32  and  C_33
REMARK                            x       y       z     vdW  Elec       q    Type
REMARK                         _______ _______ _______ _____ _____    ______ ____
ROOT
ATOM      1  C   UNL     1      -0.297   0.388   3.710  0.00  0.00    +0.000 C 
ATOM      2  C   UNL     1      -1.016  -0.682   3.061  0.00  0.00    +0.000 C 
ATOM      3  C   UNL     1      -2.326  -0.822   3.262  0.00  0.00    +0.000 C 
ATOM      4  C   UNL     1      -3.016  -1.811   2.422  0.00  0.00    +0.000 C 
ATOM      5  O   UNL     1      -4.239  -1.652   2.191  0.00  0.00    +0.000 OA
ATOM      6  C   UNL     1      -2.209  -2.860   1.800  0.00  0.00    +0.000 C 
ATOM      7  C   UNL     1      -0.888  -2.761   1.642  0.00  0.00    +0.000 C 
ATOM      8  C   UNL     1      -0.288  -1.491   2.074  0.00  0.00    +0.000 C 
ATOM      9  C   UNL     1       0.677  -0.892   1.373  0.00  0.00    +0.000 C 
ATOM     10  C   UNL     1       1.026  -1.467   0.067  0.00  0.00    +0.000 C 
ATOM     11  C   UNL     1       0.553  -2.645  -0.344  0.00  0.00    +0.000 C 
ATOM     12  C   UNL     1      -0.184  -3.557   0.590  0.00  0.00    +0.000 C 
ATOM     13  C   UNL     1      -1.251  -4.281  -0.223  0.00  0.00    +0.000 C 
ATOM     14  C   UNL     1       0.697  -4.591   1.212  0.00  0.00    +0.000 C 
ATOM     15  C   UNL     1       1.737  -5.171   0.316  0.00  0.00    +0.000 C 
ATOM     16  C   UNL     1       2.478  -3.991  -0.290  0.00  0.00    +0.000 C 
ATOM     17  C   UNL     1       3.091  -3.123   0.721  0.00  0.00    +0.000 C 
ATOM     18  C   UNL     1       3.678  -4.644  -1.207  0.00  0.00    +0.000 C 
ATOM     19  C   UNL     1       4.544  -5.063   0.140  0.00  0.00    +0.000 C 
ATOM     20  C   UNL     1       5.912  -5.352  -0.403  0.00  0.00    +0.000 C 
ATOM     21  C   UNL     1       5.937  -6.409  -1.461  0.00  0.00    +0.000 C 
ATOM     22  C   UNL     1       6.570  -4.049  -0.845  0.00  0.00    +0.000 C 
ATOM     23  C   UNL     1       5.517  -2.987  -0.522  0.00  0.00    +0.000 C 
ATOM     24  C   UNL     1       4.435  -3.206  -1.465  0.00  0.00    +0.000 C 
ATOM     25  C   UNL     1       5.089  -3.533  -2.812  0.00  0.00    +0.000 C 
ATOM     26  C   UNL     1       3.475  -2.147  -1.731  0.00  0.00    +0.000 C 
ATOM     27  C   UNL     1       2.143  -2.516  -2.265  0.00  0.00    +0.000 C 
ATOM     28  C   UNL     1       1.500  -3.385  -1.237  0.00  0.00    +0.000 C 
ATOM     29  C   UNL     1       0.805  -4.507  -1.983  0.00  0.00    +0.000 C 
ENDROOT
BRANCH   3  30
ATOM     30  O   UNL     1      -3.023   0.028   4.124  0.00  0.00    +0.000 OA
ATOM     31  H   UNL     1      -2.809   0.050   5.035  0.00  0.00    +0.000 HD
ENDBRANCH   3  30
BRANCH  20  32
ATOM     32  C   UNL     1       6.753  -5.815   0.742  0.00  0.00    +0.000 C 
ATOM     33  O   UNL     1       7.119  -4.875   1.516  0.00  0.00    +0.000 OA
BRANCH  32  34
ATOM     34  O   UNL     1       6.270  -6.936   1.427  0.00  0.00    +0.000 OA
ATOM     35  H   UNL     1       5.469  -6.881   1.909  0.00  0.00    +0.000 HD
ENDBRANCH  32  34
ENDBRANCH  20  32
TORSDOF 3
ENDMDL
