MODEL 1
REMARK VINA RESULT:  2764.550      0.000      0.000
REMARK INTER + INTRA:        2763.105
REMARK INTER:                2763.655
REMARK INTRA:                  -0.550
REMARK CONF_INDEPENDENT:        0.895
REMARK UNBOUND:                 0.550
REMARK  Name = 
REMARK  9 active torsions:
REMARK  status: ('A' for Active; 'I' for Inactive)
REMARK    1  A    between atoms: C_1  and  C_2
REMARK    2  A    between atoms: C_3  and  O_4
REMARK    3  A    between atoms: C_13  and  C_14
REMARK    4  A    between atoms: C_17  and  C_18
REMARK    5  A    between atoms: C_21  and  C_22
REMARK    6  A    between atoms: C_21  and  C_23
REMARK    7  A    between atoms: C_23  and  O_25
REMARK    8  A    between atoms: C_28  and  C_29
REMARK    9  A    between atoms: C_32  and  C_33
REMARK                            x       y       z     vdW  Elec       q    Type
REMARK                         _______ _______ _______ _____ _____    ______ ____
ROOT
ATOM      1  C   UNL     1       1.779  -2.538  -4.863  0.00  0.00    +0.000 C 
ATOM      2  C   UNL     1       2.421  -3.644  -4.192  0.00  0.00    +0.000 C 
ATOM      3  C   UNL     1       3.077  -4.563  -4.901  0.00  0.00    +0.000 C 
ATOM      4  C   UNL     1       3.859  -5.544  -4.137  0.00  0.00    +0.000 C 
ATOM      5  O   UNL     1       4.850  -6.082  -4.689  0.00  0.00    +0.000 OA
ATOM      6  C   UNL     1       3.511  -5.750  -2.732  0.00  0.00    +0.000 C 
ATOM      7  C   UNL     1       2.807  -4.866  -2.022  0.00  0.00    +0.000 C 
ATOM      8  C   UNL     1       2.452  -3.625  -2.724  0.00  0.00    +0.000 C 
ATOM      9  C   UNL     1       2.500  -2.435  -2.120  0.00  0.00    +0.000 C 
ATOM     10  C   UNL     1       3.064  -2.382  -0.765  0.00  0.00    +0.000 C 
ATOM     11  C   UNL     1       3.349  -3.483  -0.066  0.00  0.00    +0.000 C 
ATOM     12  C   UNL     1       2.902  -4.836  -0.530  0.00  0.00    +0.000 C 
ATOM     13  C   UNL     1       3.977  -5.838  -0.123  0.00  0.00    +0.000 C 
ATOM     14  C   UNL     1       1.614  -5.270   0.090  0.00  0.00    +0.000 C 
ATOM     15  C   UNL     1       1.440  -4.912   1.526  0.00  0.00    +0.000 C 
ATOM     16  C   UNL     1       1.719  -3.421   1.626  0.00  0.00    +0.000 C 
ATOM     17  C   UNL     1       0.830  -2.618   0.780  0.00  0.00    +0.000 C 
ATOM     18  C   UNL     1       1.438  -3.021   3.197  0.00  0.00    +0.000 C 
ATOM     19  C   UNL     1      -0.199  -3.150   2.987  0.00  0.00    +0.000 C 
ATOM     20  C   UNL     1      -0.758  -2.453   4.191  0.00  0.00    +0.000 C 
ATOM     21  C   UNL     1      -0.295  -3.021   5.494  0.00  0.00    +0.000 C 
ATOM     22  C   UNL     1      -0.512  -0.953   4.072  0.00  0.00    +0.000 C 
ATOM     23  C   UNL     1       0.212  -0.813   2.732  0.00  0.00    +0.000 C 
ATOM     24  C   UNL     1       1.525  -1.400   2.930  0.00  0.00    +0.000 C 
ATOM     25  C   UNL     1       1.991  -0.966   4.325  0.00  0.00    +0.000 C 
ATOM     26  C   UNL     1       2.613  -1.073   2.024  0.00  0.00    +0.000 C 
ATOM     27  C   UNL     1       3.752  -2.016   1.915  0.00  0.00    +0.000 C 
ATOM     28  C   UNL     1       3.190  -3.303   1.412  0.00  0.00    +0.000 C 
ATOM     29  C   UNL     1       3.871  -4.413   2.187  0.00  0.00    +0.000 C 
ENDROOT
BRANCH   3  30
ATOM     30  O   UNL     1       3.128  -4.504  -6.295  0.00  0.00    +0.000 OA
ATOM     31  H   UNL     1       3.906  -4.766  -6.747  0.00  0.00    +0.000 HD
ENDBRANCH   3  30
BRANCH  20  32
ATOM     32  C   UNL     1      -2.246  -2.585   4.125  0.00  0.00    +0.000 C 
ATOM     33  O   UNL     1      -2.702  -2.605   2.939  0.00  0.00    +0.000 OA
BRANCH  32  34
ATOM     34  O   UNL     1      -2.797  -3.576   4.945  0.00  0.00    +0.000 OA
ATOM     35  H   UNL     1      -3.703  -3.799   4.865  0.00  0.00    +0.000 HD
ENDBRANCH  32  34
ENDBRANCH  20  32
TORSDOF 3
ENDMDL
