MODEL 1
REMARK VINA RESULT:  2893.971      0.000      0.000
REMARK INTER + INTRA:        2892.491
REMARK INTER:                2893.076
REMARK INTRA:                  -0.585
REMARK CONF_INDEPENDENT:        0.895
REMARK UNBOUND:                 0.585
REMARK  Name = 
REMARK  9 active torsions:
REMARK  status: ('A' for Active; 'I' for Inactive)
REMARK    1  A    between atoms: C_1  and  C_2
REMARK    2  A    between atoms: C_3  and  O_4
REMARK    3  A    between atoms: C_13  and  C_14
REMARK    4  A    between atoms: C_17  and  C_18
REMARK    5  A    between atoms: C_21  and  C_22
REMARK    6  A    between atoms: C_21  and  C_23
REMARK    7  A    between atoms: C_23  and  O_25
REMARK    8  A    between atoms: C_28  and  C_29
REMARK    9  A    between atoms: C_32  and  C_33
REMARK                            x       y       z     vdW  Elec       q    Type
REMARK                         _______ _______ _______ _____ _____    ______ ____
ROOT
ATOM      1  C   UNL     1      -2.813  -4.826  -4.372  0.00  0.00    +0.000 C 
ATOM      2  C   UNL     1      -4.164  -4.698  -3.879  0.00  0.00    +0.000 C 
ATOM      3  C   UNL     1      -5.194  -4.998  -4.671  0.00  0.00    +0.000 C 
ATOM      4  C   UNL     1      -6.520  -5.027  -4.039  0.00  0.00    +0.000 C 
ATOM      5  O   UNL     1      -7.410  -5.753  -4.546  0.00  0.00    +0.000 OA
ATOM      6  C   UNL     1      -6.694  -4.298  -2.784  0.00  0.00    +0.000 C 
ATOM      7  C   UNL     1      -5.671  -3.940  -2.006  0.00  0.00    +0.000 C 
ATOM      8  C   UNL     1      -4.343  -4.382  -2.456  0.00  0.00    +0.000 C 
ATOM      9  C   UNL     1      -3.422  -4.833  -1.600  0.00  0.00    +0.000 C 
ATOM     10  C   UNL     1      -3.825  -5.015  -0.200  0.00  0.00    +0.000 C 
ATOM     11  C   UNL     1      -4.996  -4.579   0.268  0.00  0.00    +0.000 C 
ATOM     12  C   UNL     1      -5.875  -3.679  -0.547  0.00  0.00    +0.000 C 
ATOM     13  C   UNL     1      -7.322  -4.032  -0.221  0.00  0.00    +0.000 C 
ATOM     14  C   UNL     1      -5.677  -2.231  -0.238  0.00  0.00    +0.000 C 
ATOM     15  C   UNL     1      -5.458  -1.907   1.200  0.00  0.00    +0.000 C 
ATOM     16  C   UNL     1      -4.333  -2.814   1.672  0.00  0.00    +0.000 C 
ATOM     17  C   UNL     1      -3.096  -2.632   0.905  0.00  0.00    +0.000 C 
ATOM     18  C   UNL     1      -4.042  -2.386   3.233  0.00  0.00    +0.000 C 
ATOM     19  C   UNL     1      -3.306  -0.980   2.760  0.00  0.00    +0.000 C 
ATOM     20  C   UNL     1      -2.576  -0.540   3.994  0.00  0.00    +0.000 C 
ATOM     21  C   UNL     1      -3.454  -0.360   5.191  0.00  0.00    +0.000 C 
ATOM     22  C   UNL     1      -1.400  -1.477   4.252  0.00  0.00    +0.000 C 
ATOM     23  C   UNL     1      -1.479  -2.478   3.099  0.00  0.00    +0.000 C 
ATOM     24  C   UNL     1      -2.664  -3.277   3.352  0.00  0.00    +0.000 C 
ATOM     25  C   UNL     1      -2.698  -3.543   4.862  0.00  0.00    +0.000 C 
ATOM     26  C   UNL     1      -2.820  -4.573   2.713  0.00  0.00    +0.000 C 
ATOM     27  C   UNL     1      -4.185  -5.131   2.565  0.00  0.00    +0.000 C 
ATOM     28  C   UNL     1      -4.944  -4.173   1.709  0.00  0.00    +0.000 C 
ATOM     29  C   UNL     1      -6.331  -4.053   2.308  0.00  0.00    +0.000 C 
ENDROOT
BRANCH   3  30
ATOM     30  O   UNL     1      -4.998  -5.403  -5.993  0.00  0.00    +0.000 OA
ATOM     31  H   UNL     1      -5.691  -5.826  -6.462  0.00  0.00    +0.000 HD
ENDBRANCH   3  30
BRANCH  20  32
ATOM     32  C   UNL     1      -1.934   0.773   3.681  0.00  0.00    +0.000 C 
ATOM     33  O   UNL     1      -1.387   1.324   4.687  0.00  0.00    +0.000 OA
BRANCH  32  34
ATOM     34  O   UNL     1      -1.128   0.790   2.537  0.00  0.00    +0.000 OA
ATOM     35  H   UNL     1      -0.690   0.010   2.261  0.00  0.00    +0.000 HD
ENDBRANCH  32  34
ENDBRANCH  20  32
TORSDOF 3
ENDMDL
