MODEL 1
REMARK VINA RESULT:   499.070      0.000      0.000
REMARK INTER + INTRA:         497.643
REMARK INTER:                 498.175
REMARK INTRA:                  -0.532
REMARK CONF_INDEPENDENT:        0.895
REMARK UNBOUND:                 0.532
REMARK  Name = 
REMARK  9 active torsions:
REMARK  status: ('A' for Active; 'I' for Inactive)
REMARK    1  A    between atoms: C_1  and  C_2
REMARK    2  A    between atoms: C_3  and  O_4
REMARK    3  A    between atoms: C_13  and  C_14
REMARK    4  A    between atoms: C_17  and  C_18
REMARK    5  A    between atoms: C_21  and  C_22
REMARK    6  A    between atoms: C_21  and  C_23
REMARK    7  A    between atoms: C_23  and  O_25
REMARK    8  A    between atoms: C_28  and  C_29
REMARK    9  A    between atoms: C_32  and  C_33
REMARK                            x       y       z     vdW  Elec       q    Type
REMARK                         _______ _______ _______ _____ _____    ______ ____
ROOT
ATOM      1  C   UNL     1       3.158   7.428  -2.106  0.00  0.00    +0.000 C 
ATOM      2  C   UNL     1       3.666   6.085  -2.256  0.00  0.00    +0.000 C 
ATOM      3  C   UNL     1       3.805   5.557  -3.472  0.00  0.00    +0.000 C 
ATOM      4  C   UNL     1       4.503   4.267  -3.550  0.00  0.00    +0.000 C 
ATOM      5  O   UNL     1       5.096   3.970  -4.616  0.00  0.00    +0.000 OA
ATOM      6  C   UNL     1       4.569   3.452  -2.339  0.00  0.00    +0.000 C 
ATOM      7  C   UNL     1       4.378   3.953  -1.117  0.00  0.00    +0.000 C 
ATOM      8  C   UNL     1       4.157   5.404  -1.051  0.00  0.00    +0.000 C 
ATOM      9  C   UNL     1       4.699   6.157  -0.090  0.00  0.00    +0.000 C 
ATOM     10  C   UNL     1       5.651   5.513   0.823  0.00  0.00    +0.000 C 
ATOM     11  C   UNL     1       5.842   4.192   0.840  0.00  0.00    +0.000 C 
ATOM     12  C   UNL     1       4.938   3.264   0.087  0.00  0.00    +0.000 C 
ATOM     13  C   UNL     1       5.786   2.099  -0.409  0.00  0.00    +0.000 C 
ATOM     14  C   UNL     1       3.841   2.704   0.932  0.00  0.00    +0.000 C 
ATOM     15  C   UNL     1       4.223   2.353   2.330  0.00  0.00    +0.000 C 
ATOM     16  C   UNL     1       4.897   3.588   2.905  0.00  0.00    +0.000 C 
ATOM     17  C   UNL     1       4.030   4.771   2.886  0.00  0.00    +0.000 C 
ATOM     18  C   UNL     1       5.234   3.219   4.472  0.00  0.00    +0.000 C 
ATOM     19  C   UNL     1       3.640   3.350   4.897  0.00  0.00    +0.000 C 
ATOM     20  C   UNL     1       3.685   3.439   6.393  0.00  0.00    +0.000 C 
ATOM     21  C   UNL     1       4.367   2.284   7.053  0.00  0.00    +0.000 C 
ATOM     22  C   UNL     1       4.264   4.789   6.805  0.00  0.00    +0.000 C 
ATOM     23  C   UNL     1       4.543   5.483   5.471  0.00  0.00    +0.000 C 
ATOM     24  C   UNL     1       5.652   4.759   4.876  0.00  0.00    +0.000 C 
ATOM     25  C   UNL     1       6.626   4.437   6.016  0.00  0.00    +0.000 C 
ATOM     26  C   UNL     1       6.449   5.378   3.830  0.00  0.00    +0.000 C 
ATOM     27  C   UNL     1       7.210   4.504   2.907  0.00  0.00    +0.000 C 
ATOM     28  C   UNL     1       6.205   3.663   2.194  0.00  0.00    +0.000 C 
ATOM     29  C   UNL     1       6.780   2.264   2.113  0.00  0.00    +0.000 C 
ENDROOT
BRANCH   3  30
ATOM     30  O   UNL     1       3.433   6.265  -4.617  0.00  0.00    +0.000 OA
ATOM     31  H   UNL     1       3.271   5.809  -5.419  0.00  0.00    +0.000 HD
ENDBRANCH   3  30
BRANCH  20  32
ATOM     32  C   UNL     1       2.271   3.486   6.875  0.00  0.00    +0.000 C 
ATOM     33  O   UNL     1       1.894   4.646   7.234  0.00  0.00    +0.000 OA
BRANCH  32  34
ATOM     34  O   UNL     1       1.338   2.830   6.063  0.00  0.00    +0.000 OA
ATOM     35  H   UNL     1       1.141   3.165   5.211  0.00  0.00    +0.000 HD
ENDBRANCH  32  34
ENDBRANCH  20  32
TORSDOF 3
ENDMDL
