MODEL 1
REMARK VINA RESULT:  1633.791      0.000      0.000
REMARK INTER + INTRA:        1632.486
REMARK INTER:                1632.896
REMARK INTRA:                  -0.410
REMARK CONF_INDEPENDENT:        0.895
REMARK UNBOUND:                 0.410
REMARK  Name = 
REMARK  9 active torsions:
REMARK  status: ('A' for Active; 'I' for Inactive)
REMARK    1  A    between atoms: C_1  and  C_2
REMARK    2  A    between atoms: C_3  and  O_4
REMARK    3  A    between atoms: C_13  and  C_14
REMARK    4  A    between atoms: C_17  and  C_18
REMARK    5  A    between atoms: C_21  and  C_22
REMARK    6  A    between atoms: C_21  and  C_23
REMARK    7  A    between atoms: C_23  and  O_25
REMARK    8  A    between atoms: C_28  and  C_29
REMARK    9  A    between atoms: C_32  and  C_33
REMARK                            x       y       z     vdW  Elec       q    Type
REMARK                         _______ _______ _______ _____ _____    ______ ____
ROOT
ATOM      1  C   UNL     1      -2.233   7.049   4.885  0.00  0.00    +0.000 C 
ATOM      2  C   UNL     1      -3.210   6.215   4.226  0.00  0.00    +0.000 C 
ATOM      3  C   UNL     1      -4.463   6.171   4.679  0.00  0.00    +0.000 C 
ATOM      4  C   UNL     1      -5.437   5.454   3.845  0.00  0.00    +0.000 C 
ATOM      5  O   UNL     1      -6.646   5.781   3.921  0.00  0.00    +0.000 OA
ATOM      6  C   UNL     1      -4.926   4.480   2.883  0.00  0.00    +0.000 C 
ATOM      7  C   UNL     1      -3.660   4.475   2.460  0.00  0.00    +0.000 C 
ATOM      8  C   UNL     1      -2.812   5.560   2.973  0.00  0.00    +0.000 C 
ATOM      9  C   UNL     1      -1.926   6.189   2.198  0.00  0.00    +0.000 C 
ATOM     10  C   UNL     1      -1.923   5.865   0.766  0.00  0.00    +0.000 C 
ATOM     11  C   UNL     1      -2.631   4.852   0.261  0.00  0.00    +0.000 C 
ATOM     12  C   UNL     1      -3.295   3.846   1.152  0.00  0.00    +0.000 C 
ATOM     13  C   UNL     1      -4.592   3.419   0.475  0.00  0.00    +0.000 C 
ATOM     14  C   UNL     1      -2.468   2.622   1.369  0.00  0.00    +0.000 C 
ATOM     15  C   UNL     1      -1.716   2.136   0.177  0.00  0.00    +0.000 C 
ATOM     16  C   UNL     1      -0.945   3.335  -0.353  0.00  0.00    +0.000 C 
ATOM     17  C   UNL     1      -0.030   3.907   0.640  0.00  0.00    +0.000 C 
ATOM     18  C   UNL     1      -0.053   2.767  -1.612  0.00  0.00    +0.000 C 
ATOM     19  C   UNL     1       0.990   1.992  -0.587  0.00  0.00    +0.000 C 
ATOM     20  C   UNL     1       2.170   1.684  -1.460  0.00  0.00    +0.000 C 
ATOM     21  C   UNL     1       1.838   0.873  -2.671  0.00  0.00    +0.000 C 
ATOM     22  C   UNL     1       2.909   2.977  -1.791  0.00  0.00    +0.000 C 
ATOM     23  C   UNL     1       2.103   4.050  -1.058  0.00  0.00    +0.000 C 
ATOM     24  C   UNL     1       0.838   4.143  -1.765  0.00  0.00    +0.000 C 
ATOM     25  C   UNL     1       1.163   4.037  -3.259  0.00  0.00    +0.000 C 
ATOM     26  C   UNL     1       0.006   5.326  -1.617  0.00  0.00    +0.000 C 
ATOM     27  C   UNL     1      -1.443   5.214  -1.905  0.00  0.00    +0.000 C 
ATOM     28  C   UNL     1      -1.992   4.221  -0.936  0.00  0.00    +0.000 C 
ATOM     29  C   UNL     1      -2.971   3.355  -1.703  0.00  0.00    +0.000 C 
ENDROOT
BRANCH   3  30
ATOM     30  O   UNL     1      -4.850   6.891   5.812  0.00  0.00    +0.000 OA
ATOM     31  H   UNL     1      -5.059   6.439   6.606  0.00  0.00    +0.000 HD
ENDBRANCH   3  30
BRANCH  20  32
ATOM     32  C   UNL     1       3.142   0.911  -0.629  0.00  0.00    +0.000 C 
ATOM     33  O   UNL     1       3.387   1.445   0.498  0.00  0.00    +0.000 OA
BRANCH  32  34
ATOM     34  O   UNL     1       2.899  -0.465  -0.545  0.00  0.00    +0.000 OA
ATOM     35  H   UNL     1       2.019  -0.785  -0.533  0.00  0.00    +0.000 HD
ENDBRANCH  32  34
ENDBRANCH  20  32
TORSDOF 3
ENDMDL
