MODEL 1
REMARK VINA RESULT:   468.042      0.000      0.000
REMARK INTER + INTRA:         466.711
REMARK INTER:                 467.148
REMARK INTRA:                  -0.436
REMARK CONF_INDEPENDENT:        0.895
REMARK UNBOUND:                 0.436
REMARK  Name = 
REMARK  9 active torsions:
REMARK  status: ('A' for Active; 'I' for Inactive)
REMARK    1  A    between atoms: C_1  and  C_2
REMARK    2  A    between atoms: C_3  and  O_4
REMARK    3  A    between atoms: C_13  and  C_14
REMARK    4  A    between atoms: C_17  and  C_18
REMARK    5  A    between atoms: C_21  and  C_22
REMARK    6  A    between atoms: C_21  and  C_23
REMARK    7  A    between atoms: C_23  and  O_25
REMARK    8  A    between atoms: C_28  and  C_29
REMARK    9  A    between atoms: C_32  and  C_33
REMARK                            x       y       z     vdW  Elec       q    Type
REMARK                         _______ _______ _______ _____ _____    ______ ____
ROOT
ATOM      1  C   UNL     1      -1.271  -1.176   4.127  0.00  0.00    +0.000 C 
ATOM      2  C   UNL     1      -1.217  -0.294   2.985  0.00  0.00    +0.000 C 
ATOM      3  C   UNL     1      -1.721  -0.686   1.815  0.00  0.00    +0.000 C 
ATOM      4  C   UNL     1      -1.800   0.333   0.761  0.00  0.00    +0.000 C 
ATOM      5  O   UNL     1      -2.672   0.206  -0.133  0.00  0.00    +0.000 OA
ATOM      6  C   UNL     1      -0.934   1.505   0.878  0.00  0.00    +0.000 C 
ATOM      7  C   UNL     1      -0.375   1.881   2.030  0.00  0.00    +0.000 C 
ATOM      8  C   UNL     1      -0.736   1.076   3.206  0.00  0.00    +0.000 C 
ATOM      9  C   UNL     1      -0.975   1.634   4.395  0.00  0.00    +0.000 C 
ATOM     10  C   UNL     1      -1.012   3.100   4.465  0.00  0.00    +0.000 C 
ATOM     11  C   UNL     1      -0.637   3.873   3.443  0.00  0.00    +0.000 C 
ATOM     12  C   UNL     1       0.054   3.298   2.244  0.00  0.00    +0.000 C 
ATOM     13  C   UNL     1      -0.397   4.098   1.027  0.00  0.00    +0.000 C 
ATOM     14  C   UNL     1       1.542   3.391   2.327  0.00  0.00    +0.000 C 
ATOM     15  C   UNL     1       2.074   4.649   2.925  0.00  0.00    +0.000 C 
ATOM     16  C   UNL     1       1.354   4.822   4.253  0.00  0.00    +0.000 C 
ATOM     17  C   UNL     1       1.558   3.689   5.162  0.00  0.00    +0.000 C 
ATOM     18  C   UNL     1       2.011   6.163   4.942  0.00  0.00    +0.000 C 
ATOM     19  C   UNL     1       3.409   5.352   5.301  0.00  0.00    +0.000 C 
ATOM     20  C   UNL     1       4.080   6.243   6.303  0.00  0.00    +0.000 C 
ATOM     21  C   UNL     1       4.326   7.634   5.814  0.00  0.00    +0.000 C 
ATOM     22  C   UNL     1       3.309   6.201   7.619  0.00  0.00    +0.000 C 
ATOM     23  C   UNL     1       2.161   5.232   7.332  0.00  0.00    +0.000 C 
ATOM     24  C   UNL     1       1.287   5.921   6.400  0.00  0.00    +0.000 C 
ATOM     25  C   UNL     1       1.220   7.381   6.863  0.00  0.00    +0.000 C 
ATOM     26  C   UNL     1      -0.091   5.489   6.237  0.00  0.00    +0.000 C 
ATOM     27  C   UNL     1      -0.799   5.834   4.982  0.00  0.00    +0.000 C 
ATOM     28  C   UNL     1      -0.043   5.178   3.875  0.00  0.00    +0.000 C 
ATOM     29  C   UNL     1       0.015   6.172   2.732  0.00  0.00    +0.000 C 
ENDROOT
BRANCH   3  30
ATOM     30  O   UNL     1      -2.275  -1.959   1.654  0.00  0.00    +0.000 OA
ATOM     31  H   UNL     1      -3.198  -2.056   1.525  0.00  0.00    +0.000 HD
ENDBRANCH   3  30
BRANCH  20  32
ATOM     32  C   UNL     1       5.398   5.622   6.634  0.00  0.00    +0.000 C 
ATOM     33  O   UNL     1       6.227   6.433   7.155  0.00  0.00    +0.000 OA
BRANCH  32  34
ATOM     34  O   UNL     1       5.333   4.394   7.303  0.00  0.00    +0.000 OA
ATOM     35  H   UNL     1       5.383   3.594   6.820  0.00  0.00    +0.000 HD
ENDBRANCH  32  34
ENDBRANCH  20  32
TORSDOF 3
ENDMDL
