MODEL 1
REMARK VINA RESULT:  3386.108      0.000      0.000
REMARK INTER + INTRA:        3384.822
REMARK INTER:                3385.214
REMARK INTRA:                  -0.391
REMARK CONF_INDEPENDENT:        0.895
REMARK UNBOUND:                 0.391
REMARK  Name = 
REMARK  9 active torsions:
REMARK  status: ('A' for Active; 'I' for Inactive)
REMARK    1  A    between atoms: C_1  and  C_2
REMARK    2  A    between atoms: C_3  and  O_4
REMARK    3  A    between atoms: C_13  and  C_14
REMARK    4  A    between atoms: C_17  and  C_18
REMARK    5  A    between atoms: C_21  and  C_22
REMARK    6  A    between atoms: C_21  and  C_23
REMARK    7  A    between atoms: C_23  and  O_25
REMARK    8  A    between atoms: C_28  and  C_29
REMARK    9  A    between atoms: C_32  and  C_33
REMARK                            x       y       z     vdW  Elec       q    Type
REMARK                         _______ _______ _______ _____ _____    ______ ____
ROOT
ATOM      1  C   UNL     1      -1.748   2.406  -0.803  0.00  0.00    +0.000 C 
ATOM      2  C   UNL     1      -2.466   2.200   0.433  0.00  0.00    +0.000 C 
ATOM      3  C   UNL     1      -3.561   2.914   0.694  0.00  0.00    +0.000 C 
ATOM      4  C   UNL     1      -4.337   2.514   1.875  0.00  0.00    +0.000 C 
ATOM      5  O   UNL     1      -5.566   2.771   1.900  0.00  0.00    +0.000 OA
ATOM      6  C   UNL     1      -3.658   1.730   2.906  0.00  0.00    +0.000 C 
ATOM      7  C   UNL     1      -2.531   1.054   2.677  0.00  0.00    +0.000 C 
ATOM      8  C   UNL     1      -2.037   1.089   1.293  0.00  0.00    +0.000 C 
ATOM      9  C   UNL     1      -1.522   0.010   0.701  0.00  0.00    +0.000 C 
ATOM     10  C   UNL     1      -1.596  -1.265   1.425  0.00  0.00    +0.000 C 
ATOM     11  C   UNL     1      -1.983  -1.340   2.701  0.00  0.00    +0.000 C 
ATOM     12  C   UNL     1      -2.149  -0.108   3.538  0.00  0.00    +0.000 C 
ATOM     13  C   UNL     1      -3.304  -0.359   4.500  0.00  0.00    +0.000 C 
ATOM     14  C   UNL     1      -0.938   0.214   4.350  0.00  0.00    +0.000 C 
ATOM     15  C   UNL     1      -0.228  -0.959   4.936  0.00  0.00    +0.000 C 
ATOM     16  C   UNL     1       0.020  -1.920   3.785  0.00  0.00    +0.000 C 
ATOM     17  C   UNL     1       0.811  -1.322   2.704  0.00  0.00    +0.000 C 
ATOM     18  C   UNL     1       0.880  -3.167   4.425  0.00  0.00    +0.000 C 
ATOM     19  C   UNL     1       2.246  -2.238   4.525  0.00  0.00    +0.000 C 
ATOM     20  C   UNL     1       3.337  -3.246   4.730  0.00  0.00    +0.000 C 
ATOM     21  C   UNL     1       3.142  -4.119   5.928  0.00  0.00    +0.000 C 
ATOM     22  C   UNL     1       3.550  -4.036   3.443  0.00  0.00    +0.000 C 
ATOM     23  C   UNL     1       2.532  -3.428   2.476  0.00  0.00    +0.000 C 
ATOM     24  C   UNL     1       1.229  -3.841   2.965  0.00  0.00    +0.000 C 
ATOM     25  C   UNL     1       1.374  -5.299   3.418  0.00  0.00    +0.000 C 
ATOM     26  C   UNL     1       0.076  -3.808   2.082  0.00  0.00    +0.000 C 
ATOM     27  C   UNL     1      -1.277  -3.736   2.684  0.00  0.00    +0.000 C 
ATOM     28  C   UNL     1      -1.330  -2.458   3.453  0.00  0.00    +0.000 C 
ATOM     29  C   UNL     1      -2.052  -2.757   4.751  0.00  0.00    +0.000 C 
ENDROOT
BRANCH   3  30
ATOM     30  O   UNL     1      -4.017   3.894  -0.191  0.00  0.00    +0.000 OA
ATOM     31  H   UNL     1      -4.216   3.668  -1.078  0.00  0.00    +0.000 HD
ENDBRANCH   3  30
BRANCH  20  32
ATOM     32  C   UNL     1       4.612  -2.486   4.907  0.00  0.00    +0.000 C 
ATOM     33  O   UNL     1       4.650  -1.397   4.252  0.00  0.00    +0.000 OA
BRANCH  32  34
ATOM     34  O   UNL     1       5.051  -2.350   6.229  0.00  0.00    +0.000 OA
ATOM     35  H   UNL     1       4.654  -1.715   6.791  0.00  0.00    +0.000 HD
ENDBRANCH  32  34
ENDBRANCH  20  32
TORSDOF 3
ENDMDL
