MODEL 1
REMARK VINA RESULT:  3031.304      0.000      0.000
REMARK INTER + INTRA:        3030.019
REMARK INTER:                3030.409
REMARK INTRA:                  -0.391
REMARK CONF_INDEPENDENT:        0.895
REMARK UNBOUND:                 0.391
REMARK  Name = 
REMARK  9 active torsions:
REMARK  status: ('A' for Active; 'I' for Inactive)
REMARK    1  A    between atoms: C_1  and  C_2
REMARK    2  A    between atoms: C_3  and  O_4
REMARK    3  A    between atoms: C_13  and  C_14
REMARK    4  A    between atoms: C_17  and  C_18
REMARK    5  A    between atoms: C_21  and  C_22
REMARK    6  A    between atoms: C_21  and  C_23
REMARK    7  A    between atoms: C_23  and  O_25
REMARK    8  A    between atoms: C_28  and  C_29
REMARK    9  A    between atoms: C_32  and  C_33
REMARK                            x       y       z     vdW  Elec       q    Type
REMARK                         _______ _______ _______ _____ _____    ______ ____
ROOT
ATOM      1  C   UNL     1      -5.136  -2.753  -3.892  0.00  0.00    +0.000 C 
ATOM      2  C   UNL     1      -4.864  -1.419  -3.413  0.00  0.00    +0.000 C 
ATOM      3  C   UNL     1      -5.086  -0.369  -4.205  0.00  0.00    +0.000 C 
ATOM      4  C   UNL     1      -4.968   0.957  -3.583  0.00  0.00    +0.000 C 
ATOM      5  O   UNL     1      -5.619   1.910  -4.076  0.00  0.00    +0.000 OA
ATOM      6  C   UNL     1      -4.191   1.066  -2.349  0.00  0.00    +0.000 C 
ATOM      7  C   UNL     1      -3.912   0.017  -1.574  0.00  0.00    +0.000 C 
ATOM      8  C   UNL     1      -4.493  -1.264  -2.001  0.00  0.00    +0.000 C 
ATOM      9  C   UNL     1      -5.005  -2.132  -1.126  0.00  0.00    +0.000 C 
ATOM     10  C   UNL     1      -5.109  -1.706   0.275  0.00  0.00    +0.000 C 
ATOM     11  C   UNL     1      -4.547  -0.580   0.723  0.00  0.00    +0.000 C 
ATOM     12  C   UNL     1      -3.591   0.203  -0.125  0.00  0.00    +0.000 C 
ATOM     13  C   UNL     1      -3.792   1.678   0.200  0.00  0.00    +0.000 C 
ATOM     14  C   UNL     1      -2.161  -0.134   0.146  0.00  0.00    +0.000 C 
ATOM     15  C   UNL     1      -1.818  -0.375   1.576  0.00  0.00    +0.000 C 
ATOM     16  C   UNL     1      -2.816  -1.404   2.082  0.00  0.00    +0.000 C 
ATOM     17  C   UNL     1      -2.777  -2.657   1.320  0.00  0.00    +0.000 C 
ATOM     18  C   UNL     1      -2.374  -1.727   3.633  0.00  0.00    +0.000 C 
ATOM     19  C   UNL     1      -1.061  -2.599   3.127  0.00  0.00    +0.000 C 
ATOM     20  C   UNL     1      -0.658  -3.362   4.354  0.00  0.00    +0.000 C 
ATOM     21  C   UNL     1      -0.360  -2.499   5.538  0.00  0.00    +0.000 C 
ATOM     22  C   UNL     1      -1.696  -4.440   4.647  0.00  0.00    +0.000 C 
ATOM     23  C   UNL     1      -2.718  -4.270   3.522  0.00  0.00    +0.000 C 
ATOM     24  C   UNL     1      -3.391  -3.011   3.788  0.00  0.00    +0.000 C 
ATOM     25  C   UNL     1      -3.610  -2.945   5.304  0.00  0.00    +0.000 C 
ATOM     26  C   UNL     1      -4.684  -2.734   3.183  0.00  0.00    +0.000 C 
ATOM     27  C   UNL     1      -5.111  -1.323   3.040  0.00  0.00    +0.000 C 
ATOM     28  C   UNL     1      -4.109  -0.665   2.152  0.00  0.00    +0.000 C 
ATOM     29  C   UNL     1      -3.837   0.707   2.736  0.00  0.00    +0.000 C 
ENDROOT
BRANCH   3  30
ATOM     30  O   UNL     1      -5.545  -0.531  -5.514  0.00  0.00    +0.000 OA
ATOM     31  H   UNL     1      -5.015  -0.254  -6.235  0.00  0.00    +0.000 HD
ENDBRANCH   3  30
BRANCH  20  32
ATOM     32  C   UNL     1       0.578  -4.129   4.010  0.00  0.00    +0.000 C 
ATOM     33  O   UNL     1       1.070  -3.821   2.879  0.00  0.00    +0.000 OA
BRANCH  32  34
ATOM     34  O   UNL     1       1.537  -4.208   5.026  0.00  0.00    +0.000 OA
ATOM     35  H   UNL     1       2.025  -3.447   5.270  0.00  0.00    +0.000 HD
ENDBRANCH  32  34
ENDBRANCH  20  32
TORSDOF 3
ENDMDL
