MODEL 1
REMARK VINA RESULT:    61.996      0.000      0.000
REMARK INTER + INTRA:          60.504
REMARK INTER:                  61.101
REMARK INTRA:                  -0.597
REMARK CONF_INDEPENDENT:        0.895
REMARK UNBOUND:                 0.597
REMARK  Name = 
REMARK  9 active torsions:
REMARK  status: ('A' for Active; 'I' for Inactive)
REMARK    1  A    between atoms: C_1  and  C_2
REMARK    2  A    between atoms: C_3  and  O_4
REMARK    3  A    between atoms: C_13  and  C_14
REMARK    4  A    between atoms: C_17  and  C_18
REMARK    5  A    between atoms: C_21  and  C_22
REMARK    6  A    between atoms: C_21  and  C_23
REMARK    7  A    between atoms: C_23  and  O_25
REMARK    8  A    between atoms: C_28  and  C_29
REMARK    9  A    between atoms: C_32  and  C_33
REMARK                            x       y       z     vdW  Elec       q    Type
REMARK                         _______ _______ _______ _____ _____    ______ ____
ROOT
ATOM      1  C   UNL     1       2.069  -6.935   2.156  0.00  0.00    +0.000 C 
ATOM      2  C   UNL     1       3.477  -6.675   1.971  0.00  0.00    +0.000 C 
ATOM      3  C   UNL     1       4.323  -6.830   2.990  0.00  0.00    +0.000 C 
ATOM      4  C   UNL     1       5.754  -6.733   2.674  0.00  0.00    +0.000 C 
ATOM      5  O   UNL     1       6.572  -7.337   3.410  0.00  0.00    +0.000 OA
ATOM      6  C   UNL     1       6.137  -6.037   1.447  0.00  0.00    +0.000 C 
ATOM      7  C   UNL     1       5.288  -5.824   0.440  0.00  0.00    +0.000 C 
ATOM      8  C   UNL     1       3.944  -6.394   0.607  0.00  0.00    +0.000 C 
ATOM      9  C   UNL     1       3.294  -6.975  -0.403  0.00  0.00    +0.000 C 
ATOM     10  C   UNL     1       4.023  -7.163  -1.664  0.00  0.00    +0.000 C 
ATOM     11  C   UNL     1       5.221  -6.616  -1.884  0.00  0.00    +0.000 C 
ATOM     12  C   UNL     1       5.794  -5.595  -0.949  0.00  0.00    +0.000 C 
ATOM     13  C   UNL     1       7.305  -5.795  -0.921  0.00  0.00    +0.000 C 
ATOM     14  C   UNL     1       5.528  -4.190  -1.382  0.00  0.00    +0.000 C 
ATOM     15  C   UNL     1       5.613  -3.945  -2.850  0.00  0.00    +0.000 C 
ATOM     16  C   UNL     1       4.723  -4.988  -3.505  0.00  0.00    +0.000 C 
ATOM     17  C   UNL     1       3.331  -4.918  -3.048  0.00  0.00    +0.000 C 
ATOM     18  C   UNL     1       4.756  -4.652  -5.115  0.00  0.00    +0.000 C 
ATOM     19  C   UNL     1       3.794  -3.322  -4.906  0.00  0.00    +0.000 C 
ATOM     20  C   UNL     1       3.325  -3.011  -6.296  0.00  0.00    +0.000 C 
ATOM     21  C   UNL     1       4.432  -2.777  -7.275  0.00  0.00    +0.000 C 
ATOM     22  C   UNL     1       2.340  -4.082  -6.753  0.00  0.00    +0.000 C 
ATOM     23  C   UNL     1       2.253  -5.026  -5.553  0.00  0.00    +0.000 C 
ATOM     24  C   UNL     1       3.539  -5.696  -5.485  0.00  0.00    +0.000 C 
ATOM     25  C   UNL     1       3.944  -6.012  -6.930  0.00  0.00    +0.000 C 
ATOM     26  C   UNL     1       3.673  -6.942  -4.750  0.00  0.00    +0.000 C 
ATOM     27  C   UNL     1       5.017  -7.339  -4.266  0.00  0.00    +0.000 C 
ATOM     28  C   UNL     1       5.459  -6.272  -3.322  0.00  0.00    +0.000 C 
ATOM     29  C   UNL     1       6.927  -6.019  -3.602  0.00  0.00    +0.000 C 
ENDROOT
BRANCH   3  30
ATOM     30  O   UNL     1       3.871  -7.206   4.257  0.00  0.00    +0.000 OA
ATOM     31  H   UNL     1       4.484  -7.341   4.953  0.00  0.00    +0.000 HD
ENDBRANCH   3  30
BRANCH  20  32
ATOM     32  C   UNL     1       2.501  -1.767  -6.215  0.00  0.00    +0.000 C 
ATOM     33  O   UNL     1       1.469  -1.792  -6.957  0.00  0.00    +0.000 OA
BRANCH  32  34
ATOM     34  O   UNL     1       2.239  -1.303  -4.921  0.00  0.00    +0.000 OA
ATOM     35  H   UNL     1       2.882  -0.798  -4.465  0.00  0.00    +0.000 HD
ENDBRANCH  32  34
ENDBRANCH  20  32
TORSDOF 3
ENDMDL
