MODEL 1
REMARK VINA RESULT:   836.043      0.000      0.000
REMARK INTER + INTRA:         834.795
REMARK INTER:                 835.148
REMARK INTRA:                  -0.352
REMARK CONF_INDEPENDENT:        0.895
REMARK UNBOUND:                 0.352
REMARK  Name = 
REMARK  9 active torsions:
REMARK  status: ('A' for Active; 'I' for Inactive)
REMARK    1  A    between atoms: C_1  and  C_2
REMARK    2  A    between atoms: C_3  and  O_4
REMARK    3  A    between atoms: C_13  and  C_14
REMARK    4  A    between atoms: C_17  and  C_18
REMARK    5  A    between atoms: C_21  and  C_22
REMARK    6  A    between atoms: C_21  and  C_23
REMARK    7  A    between atoms: C_23  and  O_25
REMARK    8  A    between atoms: C_28  and  C_29
REMARK    9  A    between atoms: C_32  and  C_33
REMARK                            x       y       z     vdW  Elec       q    Type
REMARK                         _______ _______ _______ _____ _____    ______ ____
ROOT
ATOM      1  C   UNL     1       5.575   5.841   5.529  0.00  0.00    +0.000 C 
ATOM      2  C   UNL     1       4.199   5.618   5.154  0.00  0.00    +0.000 C 
ATOM      3  C   UNL     1       3.215   6.083   5.924  0.00  0.00    +0.000 C 
ATOM      4  C   UNL     1       1.854   5.984   5.379  0.00  0.00    +0.000 C 
ATOM      5  O   UNL     1       0.990   6.805   5.772  0.00  0.00    +0.000 OA
ATOM      6  C   UNL     1       1.613   5.008   4.317  0.00  0.00    +0.000 C 
ATOM      7  C   UNL     1       2.592   4.489   3.574  0.00  0.00    +0.000 C 
ATOM      8  C   UNL     1       3.940   5.010   3.842  0.00  0.00    +0.000 C 
ATOM      9  C   UNL     1       4.806   5.266   2.859  0.00  0.00    +0.000 C 
ATOM     10  C   UNL     1       4.320   5.151   1.478  0.00  0.00    +0.000 C 
ATOM     11  C   UNL     1       3.127   4.630   1.181  0.00  0.00    +0.000 C 
ATOM     12  C   UNL     1       2.305   3.927   2.218  0.00  0.00    +0.000 C 
ATOM     13  C   UNL     1       0.839   4.210   1.910  0.00  0.00    +0.000 C 
ATOM     14  C   UNL     1       2.496   2.446   2.210  0.00  0.00    +0.000 C 
ATOM     15  C   UNL     1       2.633   1.824   0.862  0.00  0.00    +0.000 C 
ATOM     16  C   UNL     1       3.722   2.607   0.145  0.00  0.00    +0.000 C 
ATOM     17  C   UNL     1       5.003   2.585   0.859  0.00  0.00    +0.000 C 
ATOM     18  C   UNL     1       3.924   1.857  -1.305  0.00  0.00    +0.000 C 
ATOM     19  C   UNL     1       4.698   0.580  -0.591  0.00  0.00    +0.000 C 
ATOM     20  C   UNL     1       5.358  -0.114  -1.745  0.00  0.00    +0.000 C 
ATOM     21  C   UNL     1       4.413  -0.539  -2.823  0.00  0.00    +0.000 C 
ATOM     22  C   UNL     1       6.510   0.741  -2.263  0.00  0.00    +0.000 C 
ATOM     23  C   UNL     1       6.491   1.964  -1.345  0.00  0.00    +0.000 C 
ATOM     24  C   UNL     1       5.286   2.697  -1.691  0.00  0.00    +0.000 C 
ATOM     25  C   UNL     1       5.163   2.639  -3.218  0.00  0.00    +0.000 C 
ATOM     26  C   UNL     1       5.158   4.100  -1.331  0.00  0.00    +0.000 C 
ATOM     27  C   UNL     1       3.799   4.683  -1.224  0.00  0.00    +0.000 C 
ATOM     28  C   UNL     1       3.099   3.930  -0.142  0.00  0.00    +0.000 C 
ATOM     29  C   UNL     1       1.681   3.693  -0.620  0.00  0.00    +0.000 C 
ENDROOT
BRANCH   3  30
ATOM     30  O   UNL     1       3.484   6.757   7.117  0.00  0.00    +0.000 OA
ATOM     31  H   UNL     1       4.266   6.567   7.597  0.00  0.00    +0.000 HD
ENDBRANCH   3  30
BRANCH  20  32
ATOM     32  C   UNL     1       6.027  -1.335  -1.200  0.00  0.00    +0.000 C 
ATOM     33  O   UNL     1       6.433  -2.136  -2.099  0.00  0.00    +0.000 OA
BRANCH  32  34
ATOM     34  O   UNL     1       6.978  -1.103  -0.199  0.00  0.00    +0.000 OA
ATOM     35  H   UNL     1       7.408  -1.824   0.214  0.00  0.00    +0.000 HD
ENDBRANCH  32  34
ENDBRANCH  20  32
TORSDOF 3
ENDMDL
