MODEL 1
REMARK VINA RESULT:    -5.284      0.000      0.000
REMARK INTER + INTRA:          -9.597
REMARK INTER:                  -8.267
REMARK INTRA:                  -1.330
REMARK CONF_INDEPENDENT:        2.983
REMARK UNBOUND:                 1.330
REMARK  Name = 6437836
REMARK  15 active torsions:
REMARK  status: ('A' for Active; 'I' for Inactive)
REMARK    1  A    between atoms: O_1  and  C_22
REMARK    2  A    between atoms: C_3  and  C_4
REMARK    3  A    between atoms: C_3  and  C_7
REMARK    4  A    between atoms: C_4  and  C_10
REMARK    5  A    between atoms: C_5  and  C_6
REMARK    6  A    between atoms: C_5  and  C_8
REMARK    7  A    between atoms: C_6  and  C_9
REMARK    8  A    between atoms: C_7  and  C_11
REMARK    9  A    between atoms: C_9  and  C_13
REMARK   10  A    between atoms: C_12  and  C_15
REMARK   11  A    between atoms: C_12  and  C_16
REMARK   12  A    between atoms: C_14  and  C_17
REMARK   13  A    between atoms: C_18  and  C_19
REMARK   14  A    between atoms: C_19  and  C_20
REMARK   15  A    between atoms: C_21  and  C_22
REMARK                            x       y       z     vdW  Elec       q    Type
REMARK                         _______ _______ _______ _____ _____    ______ ____
ROOT
ATOM      1  C   UNL     1      -6.082   6.054  -6.059  0.00  0.00    +0.000 C 
ATOM      2  C   UNL     1      -6.252   7.407  -5.414  0.00  0.00    +0.000 C 
ATOM      3  C   UNL     1      -4.845   5.614  -6.371  0.00  0.00    +0.000 C 
ENDROOT
BRANCH   3   4
ATOM      4  C   UNL     1      -3.591   6.307  -6.156  0.00  0.00    +0.000 C 
ATOM      5  C   UNL     1      -2.601   5.798  -5.402  0.00  0.00    +0.000 C 
BRANCH   5   6
ATOM      6  C   UNL     1      -1.288   6.402  -5.152  0.00  0.00    +0.000 C 
ATOM      7  C   UNL     1      -0.803   7.432  -6.140  0.00  0.00    +0.000 C 
ATOM      8  C   UNL     1      -0.593   5.975  -4.078  0.00  0.00    +0.000 C 
BRANCH   8  10
ATOM      9  O   UNL     1       1.335   7.436  -4.081  0.00  0.00    +0.000 OA
ATOM     10  C   UNL     1       0.742   6.459  -3.660  0.00  0.00    +0.000 C 
BRANCH  10  11
ATOM     11  O   UNL     1       1.207   5.638  -2.690  0.00  0.00    +0.000 OA
ATOM     12  H   UNL     1       2.030   5.981  -2.280  0.00  0.00    +0.000 HD
ENDBRANCH  10  11
ENDBRANCH   8  10
ENDBRANCH   5   6
ENDBRANCH   3   4
BRANCH   1  13
ATOM     13  C   UNL     1      -7.373   5.310  -6.337  0.00  0.00    +0.000 C 
BRANCH  13  14
ATOM     14  C   UNL     1      -7.827   4.386  -5.197  0.00  0.00    +0.000 C 
BRANCH  14  16
ATOM     15  C   UNL     1      -6.725   4.454  -2.887  0.00  0.00    +0.000 C 
ATOM     16  C   UNL     1      -7.541   4.955  -3.835  0.00  0.00    +0.000 C 
ATOM     17  C   UNL     1      -5.928   3.187  -3.038  0.00  0.00    +0.000 C 
BRANCH  15  18
ATOM     18  C   UNL     1      -6.522   5.207  -1.584  0.00  0.00    +0.000 C 
BRANCH  18  19
ATOM     19  C   UNL     1      -6.703   4.368  -0.312  0.00  0.00    +0.000 C 
BRANCH  19  20
ATOM     20  C   UNL     1      -6.906   5.189   0.931  0.00  0.00    +0.000 C 
ATOM     21  C   UNL     1      -6.037   6.047   1.498  0.00  0.00    +0.000 C 
ATOM     22  C   UNL     1      -4.658   6.348   0.981  0.00  0.00    +0.000 C 
ATOM     23  C   UNL     1      -6.406   6.793   2.751  0.00  0.00    +0.000 C 
ENDBRANCH  19  20
ENDBRANCH  18  19
ENDBRANCH  15  18
ENDBRANCH  14  16
ENDBRANCH  13  14
ENDBRANCH   1  13
TORSDOF 10
ENDMDL
MODEL 2
REMARK VINA RESULT:    -4.218     12.855     15.165
REMARK INTER + INTRA:          -9.328
REMARK INTER:                  -7.201
REMARK INTRA:                  -2.126
REMARK CONF_INDEPENDENT:        2.983
REMARK UNBOUND:                 2.126
REMARK  Name = 6437836
REMARK  15 active torsions:
REMARK  status: ('A' for Active; 'I' for Inactive)
REMARK    1  A    between atoms: O_1  and  C_22
REMARK    2  A    between atoms: C_3  and  C_4
REMARK    3  A    between atoms: C_3  and  C_7
REMARK    4  A    between atoms: C_4  and  C_10
REMARK    5  A    between atoms: C_5  and  C_6
REMARK    6  A    between atoms: C_5  and  C_8
REMARK    7  A    between atoms: C_6  and  C_9
REMARK    8  A    between atoms: C_7  and  C_11
REMARK    9  A    between atoms: C_9  and  C_13
REMARK   10  A    between atoms: C_12  and  C_15
REMARK   11  A    between atoms: C_12  and  C_16
REMARK   12  A    between atoms: C_14  and  C_17
REMARK   13  A    between atoms: C_18  and  C_19
REMARK   14  A    between atoms: C_19  and  C_20
REMARK   15  A    between atoms: C_21  and  C_22
REMARK                            x       y       z     vdW  Elec       q    Type
REMARK                         _______ _______ _______ _____ _____    ______ ____
ROOT
ATOM      1  C   UNL     1       5.290  -5.260   4.058  0.00  0.00    +0.000 C 
ATOM      2  C   UNL     1       4.262  -4.823   5.071  0.00  0.00    +0.000 C 
ATOM      3  C   UNL     1       6.085  -4.340   3.473  0.00  0.00    +0.000 C 
ENDROOT
BRANCH   3   4
ATOM      4  C   UNL     1       6.082  -2.909   3.704  0.00  0.00    +0.000 C 
ATOM      5  C   UNL     1       4.961  -2.170   3.661  0.00  0.00    +0.000 C 
BRANCH   5   6
ATOM      6  C   UNL     1       4.848  -0.729   3.912  0.00  0.00    +0.000 C 
ATOM      7  C   UNL     1       3.820  -0.283   4.922  0.00  0.00    +0.000 C 
ATOM      8  C   UNL     1       5.644   0.098   3.206  0.00  0.00    +0.000 C 
BRANCH   8  10
ATOM      9  O   UNL     1       6.565   2.255   3.798  0.00  0.00    +0.000 OA
ATOM     10  C   UNL     1       5.678   1.573   3.315  0.00  0.00    +0.000 C 
BRANCH  10  11
ATOM     11  O   UNL     1       4.548   2.067   2.756  0.00  0.00    +0.000 OA
ATOM     12  H   UNL     1       4.348   2.974   3.073  0.00  0.00    +0.000 HD
ENDBRANCH  10  11
ENDBRANCH   8  10
ENDBRANCH   5   6
ENDBRANCH   3   4
BRANCH   1  13
ATOM     13  C   UNL     1       5.301  -6.746   3.757  0.00  0.00    +0.000 C 
BRANCH  13  14
ATOM     14  C   UNL     1       4.600  -7.129   2.445  0.00  0.00    +0.000 C 
BRANCH  14  16
ATOM     15  C   UNL     1       3.213  -5.693   0.841  0.00  0.00    +0.000 C 
ATOM     16  C   UNL     1       4.324  -5.943   1.562  0.00  0.00    +0.000 C 
ATOM     17  C   UNL     1       2.011  -6.596   0.797  0.00  0.00    +0.000 C 
BRANCH  15  18
ATOM     18  C   UNL     1       3.098  -4.404   0.047  0.00  0.00    +0.000 C 
BRANCH  18  19
ATOM     19  C   UNL     1       3.948  -3.239   0.570  0.00  0.00    +0.000 C 
BRANCH  19  20
ATOM     20  C   UNL     1       4.920  -2.698  -0.442  0.00  0.00    +0.000 C 
ATOM     21  C   UNL     1       6.067  -3.264  -0.860  0.00  0.00    +0.000 C 
ATOM     22  C   UNL     1       6.610  -4.579  -0.376  0.00  0.00    +0.000 C 
ATOM     23  C   UNL     1       6.928  -2.580  -1.888  0.00  0.00    +0.000 C 
ENDBRANCH  19  20
ENDBRANCH  18  19
ENDBRANCH  15  18
ENDBRANCH  14  16
ENDBRANCH  13  14
ENDBRANCH   1  13
TORSDOF 10
ENDMDL
MODEL 3
REMARK VINA RESULT:    -4.198     13.018     15.164
REMARK INTER + INTRA:          -8.441
REMARK INTER:                  -7.181
REMARK INTRA:                  -1.260
REMARK CONF_INDEPENDENT:        2.983
REMARK UNBOUND:                 1.260
REMARK  Name = 6437836
REMARK  15 active torsions:
REMARK  status: ('A' for Active; 'I' for Inactive)
REMARK    1  A    between atoms: O_1  and  C_22
REMARK    2  A    between atoms: C_3  and  C_4
REMARK    3  A    between atoms: C_3  and  C_7
REMARK    4  A    between atoms: C_4  and  C_10
REMARK    5  A    between atoms: C_5  and  C_6
REMARK    6  A    between atoms: C_5  and  C_8
REMARK    7  A    between atoms: C_6  and  C_9
REMARK    8  A    between atoms: C_7  and  C_11
REMARK    9  A    between atoms: C_9  and  C_13
REMARK   10  A    between atoms: C_12  and  C_15
REMARK   11  A    between atoms: C_12  and  C_16
REMARK   12  A    between atoms: C_14  and  C_17
REMARK   13  A    between atoms: C_18  and  C_19
REMARK   14  A    between atoms: C_19  and  C_20
REMARK   15  A    between atoms: C_21  and  C_22
REMARK                            x       y       z     vdW  Elec       q    Type
REMARK                         _______ _______ _______ _____ _____    ______ ____
ROOT
ATOM      1  C   UNL     1       4.345  -5.459   2.298  0.00  0.00    +0.000 C 
ATOM      2  C   UNL     1       4.925  -5.624   3.680  0.00  0.00    +0.000 C 
ATOM      3  C   UNL     1       3.928  -4.243   1.889  0.00  0.00    +0.000 C 
ENDROOT
BRANCH   3   4
ATOM      4  C   UNL     1       3.966  -3.007   2.643  0.00  0.00    +0.000 C 
ATOM      5  C   UNL     1       5.068  -2.243   2.729  0.00  0.00    +0.000 C 
BRANCH   5   6
ATOM      6  C   UNL     1       5.198  -0.964   3.436  0.00  0.00    +0.000 C 
ATOM      7  C   UNL     1       4.781  -0.932   4.885  0.00  0.00    +0.000 C 
ATOM      8  C   UNL     1       5.650   0.098   2.740  0.00  0.00    +0.000 C 
BRANCH   8  10
ATOM      9  O   UNL     1       6.797   1.870   3.919  0.00  0.00    +0.000 OA
ATOM     10  C   UNL     1       5.849   1.464   3.272  0.00  0.00    +0.000 C 
BRANCH  10  11
ATOM     11  O   UNL     1       4.793   2.225   2.897  0.00  0.00    +0.000 OA
ATOM     12  H   UNL     1       4.731   3.052   3.422  0.00  0.00    +0.000 HD
ENDBRANCH  10  11
ENDBRANCH   8  10
ENDBRANCH   5   6
ENDBRANCH   3   4
BRANCH   1  13
ATOM     13  C   UNL     1       4.251  -6.736   1.486  0.00  0.00    +0.000 C 
BRANCH  13  14
ATOM     14  C   UNL     1       2.835  -7.067   0.991  0.00  0.00    +0.000 C 
BRANCH  14  16
ATOM     15  C   UNL     1       3.020  -6.379  -1.468  0.00  0.00    +0.000 C 
ATOM     16  C   UNL     1       2.771  -7.278  -0.497  0.00  0.00    +0.000 C 
ATOM     17  C   UNL     1       3.423  -4.951  -1.219  0.00  0.00    +0.000 C 
BRANCH  15  18
ATOM     18  C   UNL     1       2.955  -6.799  -2.926  0.00  0.00    +0.000 C 
BRANCH  18  19
ATOM     19  C   UNL     1       2.745  -5.653  -3.924  0.00  0.00    +0.000 C 
BRANCH  19  20
ATOM     20  C   UNL     1       3.665  -5.710  -5.113  0.00  0.00    +0.000 C 
ATOM     21  C   UNL     1       5.001  -5.550  -5.124  0.00  0.00    +0.000 C 
ATOM     22  C   UNL     1       5.848  -5.270  -3.915  0.00  0.00    +0.000 C 
ATOM     23  C   UNL     1       5.772  -5.639  -6.414  0.00  0.00    +0.000 C 
ENDBRANCH  19  20
ENDBRANCH  18  19
ENDBRANCH  15  18
ENDBRANCH  14  16
ENDBRANCH  13  14
ENDBRANCH   1  13
TORSDOF 10
ENDMDL
MODEL 4
REMARK VINA RESULT:    -3.688     12.956     14.466
REMARK INTER + INTRA:          -8.151
REMARK INTER:                  -6.671
REMARK INTRA:                  -1.480
REMARK CONF_INDEPENDENT:        2.983
REMARK UNBOUND:                 1.480
REMARK  Name = 6437836
REMARK  15 active torsions:
REMARK  status: ('A' for Active; 'I' for Inactive)
REMARK    1  A    between atoms: O_1  and  C_22
REMARK    2  A    between atoms: C_3  and  C_4
REMARK    3  A    between atoms: C_3  and  C_7
REMARK    4  A    between atoms: C_4  and  C_10
REMARK    5  A    between atoms: C_5  and  C_6
REMARK    6  A    between atoms: C_5  and  C_8
REMARK    7  A    between atoms: C_6  and  C_9
REMARK    8  A    between atoms: C_7  and  C_11
REMARK    9  A    between atoms: C_9  and  C_13
REMARK   10  A    between atoms: C_12  and  C_15
REMARK   11  A    between atoms: C_12  and  C_16
REMARK   12  A    between atoms: C_14  and  C_17
REMARK   13  A    between atoms: C_18  and  C_19
REMARK   14  A    between atoms: C_19  and  C_20
REMARK   15  A    between atoms: C_21  and  C_22
REMARK                            x       y       z     vdW  Elec       q    Type
REMARK                         _______ _______ _______ _____ _____    ______ ____
ROOT
ATOM      1  C   UNL     1       4.353  -3.805  -0.531  0.00  0.00    +0.000 C 
ATOM      2  C   UNL     1       5.488  -3.482  -1.469  0.00  0.00    +0.000 C 
ATOM      3  C   UNL     1       3.528  -4.836  -0.810  0.00  0.00    +0.000 C 
ENDROOT
BRANCH   3   4
ATOM      4  C   UNL     1       3.593  -5.721  -1.955  0.00  0.00    +0.000 C 
ATOM      5  C   UNL     1       2.788  -5.587  -3.023  0.00  0.00    +0.000 C 
BRANCH   5   6
ATOM      6  C   UNL     1       2.798  -6.407  -4.240  0.00  0.00    +0.000 C 
ATOM      7  C   UNL     1       1.790  -7.525  -4.325  0.00  0.00    +0.000 C 
ATOM      8  C   UNL     1       3.720  -6.126  -5.181  0.00  0.00    +0.000 C 
BRANCH   8  10
ATOM      9  O   UNL     1       3.048  -7.478  -7.070  0.00  0.00    +0.000 OA
ATOM     10  C   UNL     1       3.889  -6.834  -6.470  0.00  0.00    +0.000 C 
BRANCH  10  11
ATOM     11  O   UNL     1       5.155  -6.631  -6.904  0.00  0.00    +0.000 OA
ATOM     12  H   UNL     1       5.376  -5.676  -6.959  0.00  0.00    +0.000 HD
ENDBRANCH  10  11
ENDBRANCH   8  10
ENDBRANCH   5   6
ENDBRANCH   3   4
BRANCH   1  13
ATOM     13  C   UNL     1       4.225  -2.879   0.662  0.00  0.00    +0.000 C 
BRANCH  13  14
ATOM     14  C   UNL     1       3.429  -3.469   1.837  0.00  0.00    +0.000 C 
BRANCH  14  16
ATOM     15  C   UNL     1       4.519  -2.868   4.075  0.00  0.00    +0.000 C 
ATOM     16  C   UNL     1       3.598  -2.684   3.109  0.00  0.00    +0.000 C 
ATOM     17  C   UNL     1       5.580  -3.934   4.042  0.00  0.00    +0.000 C 
BRANCH  15  18
ATOM     18  C   UNL     1       4.563  -1.932   5.269  0.00  0.00    +0.000 C 
BRANCH  18  19
ATOM     19  C   UNL     1       5.627  -0.828   5.191  0.00  0.00    +0.000 C 
BRANCH  19  20
ATOM     20  C   UNL     1       5.322   0.233   4.170  0.00  0.00    +0.000 C 
ATOM     21  C   UNL     1       5.691   0.255   2.876  0.00  0.00    +0.000 C 
ATOM     22  C   UNL     1       6.505  -0.807   2.191  0.00  0.00    +0.000 C 
ATOM     23  C   UNL     1       5.298   1.405   1.987  0.00  0.00    +0.000 C 
ENDBRANCH  19  20
ENDBRANCH  18  19
ENDBRANCH  15  18
ENDBRANCH  14  16
ENDBRANCH  13  14
ENDBRANCH   1  13
TORSDOF 10
ENDMDL
MODEL 5
REMARK VINA RESULT:    -3.439     13.024     15.383
REMARK INTER + INTRA:          -8.519
REMARK INTER:                  -6.422
REMARK INTRA:                  -2.096
REMARK CONF_INDEPENDENT:        2.983
REMARK UNBOUND:                 2.096
REMARK  Name = 6437836
REMARK  15 active torsions:
REMARK  status: ('A' for Active; 'I' for Inactive)
REMARK    1  A    between atoms: O_1  and  C_22
REMARK    2  A    between atoms: C_3  and  C_4
REMARK    3  A    between atoms: C_3  and  C_7
REMARK    4  A    between atoms: C_4  and  C_10
REMARK    5  A    between atoms: C_5  and  C_6
REMARK    6  A    between atoms: C_5  and  C_8
REMARK    7  A    between atoms: C_6  and  C_9
REMARK    8  A    between atoms: C_7  and  C_11
REMARK    9  A    between atoms: C_9  and  C_13
REMARK   10  A    between atoms: C_12  and  C_15
REMARK   11  A    between atoms: C_12  and  C_16
REMARK   12  A    between atoms: C_14  and  C_17
REMARK   13  A    between atoms: C_18  and  C_19
REMARK   14  A    between atoms: C_19  and  C_20
REMARK   15  A    between atoms: C_21  and  C_22
REMARK                            x       y       z     vdW  Elec       q    Type
REMARK                         _______ _______ _______ _____ _____    ______ ____
ROOT
ATOM      1  C   UNL     1       5.194  -4.661   4.566  0.00  0.00    +0.000 C 
ATOM      2  C   UNL     1       5.299  -6.138   4.850  0.00  0.00    +0.000 C 
ATOM      3  C   UNL     1       4.760  -4.242   3.359  0.00  0.00    +0.000 C 
ENDROOT
BRANCH   3   4
ATOM      4  C   UNL     1       4.359  -5.068   2.239  0.00  0.00    +0.000 C 
ATOM      5  C   UNL     1       3.304  -4.773   1.460  0.00  0.00    +0.000 C 
BRANCH   5   6
ATOM      6  C   UNL     1       2.839  -5.524   0.288  0.00  0.00    +0.000 C 
ATOM      7  C   UNL     1       1.808  -6.598   0.523  0.00  0.00    +0.000 C 
ATOM      8  C   UNL     1       3.384  -5.224  -0.908  0.00  0.00    +0.000 C 
BRANCH   8  10
ATOM      9  O   UNL     1       3.082  -7.055  -2.459  0.00  0.00    +0.000 OA
ATOM     10  C   UNL     1       3.048  -5.866  -2.199  0.00  0.00    +0.000 C 
BRANCH  10  11
ATOM     11  O   UNL     1       2.663  -4.900  -3.066  0.00  0.00    +0.000 OA
ATOM     12  H   UNL     1       3.263  -4.840  -3.840  0.00  0.00    +0.000 HD
ENDBRANCH  10  11
ENDBRANCH   8  10
ENDBRANCH   5   6
ENDBRANCH   3   4
BRANCH   1  13
ATOM     13  C   UNL     1       5.641  -3.758   5.699  0.00  0.00    +0.000 C 
BRANCH  13  14
ATOM     14  C   UNL     1       4.858  -2.440   5.801  0.00  0.00    +0.000 C 
BRANCH  14  16
ATOM     15  C   UNL     1       4.821  -0.216   4.533  0.00  0.00    +0.000 C 
ATOM     16  C   UNL     1       5.423  -1.355   4.925  0.00  0.00    +0.000 C 
ATOM     17  C   UNL     1       3.424   0.183   4.922  0.00  0.00    +0.000 C 
BRANCH  15  18
ATOM     18  C   UNL     1       5.580   0.791   3.686  0.00  0.00    +0.000 C 
BRANCH  18  19
ATOM     19  C   UNL     1       6.450   0.184   2.578  0.00  0.00    +0.000 C 
BRANCH  19  20
ATOM     20  C   UNL     1       5.668  -0.586   1.549  0.00  0.00    +0.000 C 
ATOM     21  C   UNL     1       5.913  -1.829   1.095  0.00  0.00    +0.000 C 
ATOM     22  C   UNL     1       7.051  -2.704   1.542  0.00  0.00    +0.000 C 
ATOM     23  C   UNL     1       5.023  -2.453   0.055  0.00  0.00    +0.000 C 
ENDBRANCH  19  20
ENDBRANCH  18  19
ENDBRANCH  15  18
ENDBRANCH  14  16
ENDBRANCH  13  14
ENDBRANCH   1  13
TORSDOF 10
ENDMDL
MODEL 6
REMARK VINA RESULT:    -3.087     13.287     15.190
REMARK INTER + INTRA:          -8.608
REMARK INTER:                  -6.070
REMARK INTRA:                  -2.538
REMARK CONF_INDEPENDENT:        2.983
REMARK UNBOUND:                 2.538
REMARK  Name = 6437836
REMARK  15 active torsions:
REMARK  status: ('A' for Active; 'I' for Inactive)
REMARK    1  A    between atoms: O_1  and  C_22
REMARK    2  A    between atoms: C_3  and  C_4
REMARK    3  A    between atoms: C_3  and  C_7
REMARK    4  A    between atoms: C_4  and  C_10
REMARK    5  A    between atoms: C_5  and  C_6
REMARK    6  A    between atoms: C_5  and  C_8
REMARK    7  A    between atoms: C_6  and  C_9
REMARK    8  A    between atoms: C_7  and  C_11
REMARK    9  A    between atoms: C_9  and  C_13
REMARK   10  A    between atoms: C_12  and  C_15
REMARK   11  A    between atoms: C_12  and  C_16
REMARK   12  A    between atoms: C_14  and  C_17
REMARK   13  A    between atoms: C_18  and  C_19
REMARK   14  A    between atoms: C_19  and  C_20
REMARK   15  A    between atoms: C_21  and  C_22
REMARK                            x       y       z     vdW  Elec       q    Type
REMARK                         _______ _______ _______ _____ _____    ______ ____
ROOT
ATOM      1  C   UNL     1       5.923  -1.733   1.426  0.00  0.00    +0.000 C 
ATOM      2  C   UNL     1       7.055  -2.701   1.187  0.00  0.00    +0.000 C 
ATOM      3  C   UNL     1       4.741  -1.922   0.804  0.00  0.00    +0.000 C 
ENDROOT
BRANCH   3   4
ATOM      4  C   UNL     1       4.396  -2.989  -0.113  0.00  0.00    +0.000 C 
ATOM      5  C   UNL     1       3.663  -4.054   0.255  0.00  0.00    +0.000 C 
BRANCH   5   6
ATOM      6  C   UNL     1       3.235  -5.165  -0.601  0.00  0.00    +0.000 C 
ATOM      7  C   UNL     1       2.657  -6.379   0.082  0.00  0.00    +0.000 C 
ATOM      8  C   UNL     1       3.413  -5.040  -1.931  0.00  0.00    +0.000 C 
BRANCH   8  10
ATOM      9  O   UNL     1       2.213  -6.927  -2.854  0.00  0.00    +0.000 OA
ATOM     10  C   UNL     1       3.047  -6.046  -2.954  0.00  0.00    +0.000 C 
BRANCH  10  11
ATOM     11  O   UNL     1       3.790  -5.814  -4.063  0.00  0.00    +0.000 OA
ATOM     12  H   UNL     1       4.157  -4.904  -4.075  0.00  0.00    +0.000 HD
ENDBRANCH  10  11
ENDBRANCH   8  10
ENDBRANCH   5   6
ENDBRANCH   3   4
BRANCH   1  13
ATOM     13  C   UNL     1       6.252  -0.578   2.350  0.00  0.00    +0.000 C 
BRANCH  13  14
ATOM     14  C   UNL     1       5.274  -0.409   3.522  0.00  0.00    +0.000 C 
BRANCH  14  16
ATOM     15  C   UNL     1       4.274  -2.607   4.375  0.00  0.00    +0.000 C 
ATOM     16  C   UNL     1       5.200  -1.628   4.401  0.00  0.00    +0.000 C 
ATOM     17  C   UNL     1       3.111  -2.649   3.423  0.00  0.00    +0.000 C 
BRANCH  15  18
ATOM     18  C   UNL     1       4.399  -3.794   5.313  0.00  0.00    +0.000 C 
BRANCH  18  19
ATOM     19  C   UNL     1       5.646  -4.662   5.101  0.00  0.00    +0.000 C 
BRANCH  19  20
ATOM     20  C   UNL     1       5.990  -4.884   3.654  0.00  0.00    +0.000 C 
ATOM     21  C   UNL     1       5.531  -5.855   2.842  0.00  0.00    +0.000 C 
ATOM     22  C   UNL     1       4.565  -6.934   3.245  0.00  0.00    +0.000 C 
ATOM     23  C   UNL     1       5.982  -5.930   1.409  0.00  0.00    +0.000 C 
ENDBRANCH  19  20
ENDBRANCH  18  19
ENDBRANCH  15  18
ENDBRANCH  14  16
ENDBRANCH  13  14
ENDBRANCH   1  13
TORSDOF 10
ENDMDL
MODEL 7
REMARK VINA RESULT:    -2.929     13.035     15.269
REMARK INTER + INTRA:          -7.958
REMARK INTER:                  -5.912
REMARK INTRA:                  -2.045
REMARK CONF_INDEPENDENT:        2.983
REMARK UNBOUND:                 2.045
REMARK  Name = 6437836
REMARK  15 active torsions:
REMARK  status: ('A' for Active; 'I' for Inactive)
REMARK    1  A    between atoms: O_1  and  C_22
REMARK    2  A    between atoms: C_3  and  C_4
REMARK    3  A    between atoms: C_3  and  C_7
REMARK    4  A    between atoms: C_4  and  C_10
REMARK    5  A    between atoms: C_5  and  C_6
REMARK    6  A    between atoms: C_5  and  C_8
REMARK    7  A    between atoms: C_6  and  C_9
REMARK    8  A    between atoms: C_7  and  C_11
REMARK    9  A    between atoms: C_9  and  C_13
REMARK   10  A    between atoms: C_12  and  C_15
REMARK   11  A    between atoms: C_12  and  C_16
REMARK   12  A    between atoms: C_14  and  C_17
REMARK   13  A    between atoms: C_18  and  C_19
REMARK   14  A    between atoms: C_19  and  C_20
REMARK   15  A    between atoms: C_21  and  C_22
REMARK                            x       y       z     vdW  Elec       q    Type
REMARK                         _______ _______ _______ _____ _____    ______ ____
ROOT
ATOM      1  C   UNL     1       4.408  -5.893   1.249  0.00  0.00    +0.000 C 
ATOM      2  C   UNL     1       5.705  -5.857   0.481  0.00  0.00    +0.000 C 
ATOM      3  C   UNL     1       3.242  -5.697   0.599  0.00  0.00    +0.000 C 
ENDROOT
BRANCH   3   4
ATOM      4  C   UNL     1       3.061  -5.442  -0.815  0.00  0.00    +0.000 C 
ATOM      5  C   UNL     1       3.160  -6.409  -1.745  0.00  0.00    +0.000 C 
BRANCH   5   6
ATOM      6  C   UNL     1       2.962  -6.261  -3.191  0.00  0.00    +0.000 C 
ATOM      7  C   UNL     1       1.548  -6.350  -3.706  0.00  0.00    +0.000 C 
ATOM      8  C   UNL     1       4.055  -6.087  -3.961  0.00  0.00    +0.000 C 
BRANCH   8  10
ATOM      9  O   UNL     1       3.609  -6.688  -6.261  0.00  0.00    +0.000 OA
ATOM     10  C   UNL     1       4.062  -5.920  -5.432  0.00  0.00    +0.000 C 
BRANCH  10  11
ATOM     11  O   UNL     1       4.647  -4.734  -5.722  0.00  0.00    +0.000 OA
ATOM     12  H   UNL     1       4.720  -4.157  -4.932  0.00  0.00    +0.000 HD
ENDBRANCH  10  11
ENDBRANCH   8  10
ENDBRANCH   5   6
ENDBRANCH   3   4
BRANCH   1  13
ATOM     13  C   UNL     1       4.553  -6.118   2.741  0.00  0.00    +0.000 C 
BRANCH  13  14
ATOM     14  C   UNL     1       5.955  -5.816   3.291  0.00  0.00    +0.000 C 
BRANCH  14  16
ATOM     15  C   UNL     1       5.557  -3.333   3.776  0.00  0.00    +0.000 C 
ATOM     16  C   UNL     1       6.285  -4.349   3.273  0.00  0.00    +0.000 C 
ATOM     17  C   UNL     1       4.234  -3.503   4.473  0.00  0.00    +0.000 C 
BRANCH  15  18
ATOM     18  C   UNL     1       6.087  -1.912   3.709  0.00  0.00    +0.000 C 
BRANCH  18  19
ATOM     19  C   UNL     1       5.648  -1.112   2.476  0.00  0.00    +0.000 C 
BRANCH  19  20
ATOM     20  C   UNL     1       6.064  -1.734   1.172  0.00  0.00    +0.000 C 
ATOM     21  C   UNL     1       5.279  -2.363   0.277  0.00  0.00    +0.000 C 
ATOM     22  C   UNL     1       3.798  -2.571   0.421  0.00  0.00    +0.000 C 
ATOM     23  C   UNL     1       5.865  -2.932  -0.987  0.00  0.00    +0.000 C 
ENDBRANCH  19  20
ENDBRANCH  18  19
ENDBRANCH  15  18
ENDBRANCH  14  16
ENDBRANCH  13  14
ENDBRANCH   1  13
TORSDOF 10
ENDMDL
MODEL 8
REMARK VINA RESULT:    -2.890     13.044     14.795
REMARK INTER + INTRA:          -8.081
REMARK INTER:                  -5.873
REMARK INTRA:                  -2.208
REMARK CONF_INDEPENDENT:        2.983
REMARK UNBOUND:                 2.208
REMARK  Name = 6437836
REMARK  15 active torsions:
REMARK  status: ('A' for Active; 'I' for Inactive)
REMARK    1  A    between atoms: O_1  and  C_22
REMARK    2  A    between atoms: C_3  and  C_4
REMARK    3  A    between atoms: C_3  and  C_7
REMARK    4  A    between atoms: C_4  and  C_10
REMARK    5  A    between atoms: C_5  and  C_6
REMARK    6  A    between atoms: C_5  and  C_8
REMARK    7  A    between atoms: C_6  and  C_9
REMARK    8  A    between atoms: C_7  and  C_11
REMARK    9  A    between atoms: C_9  and  C_13
REMARK   10  A    between atoms: C_12  and  C_15
REMARK   11  A    between atoms: C_12  and  C_16
REMARK   12  A    between atoms: C_14  and  C_17
REMARK   13  A    between atoms: C_18  and  C_19
REMARK   14  A    between atoms: C_19  and  C_20
REMARK   15  A    between atoms: C_21  and  C_22
REMARK                            x       y       z     vdW  Elec       q    Type
REMARK                         _______ _______ _______ _____ _____    ______ ____
ROOT
ATOM      1  C   UNL     1       6.455  -1.698   0.949  0.00  0.00    +0.000 C 
ATOM      2  C   UNL     1       4.966  -1.511   0.795  0.00  0.00    +0.000 C 
ATOM      3  C   UNL     1       7.036  -2.829   0.499  0.00  0.00    +0.000 C 
ENDROOT
BRANCH   3   4
ATOM      4  C   UNL     1       6.384  -3.949  -0.149  0.00  0.00    +0.000 C 
ATOM      5  C   UNL     1       5.621  -3.808  -1.246  0.00  0.00    +0.000 C 
BRANCH   5   6
ATOM      6  C   UNL     1       4.948  -4.878  -1.992  0.00  0.00    +0.000 C 
ATOM      7  C   UNL     1       5.772  -5.638  -3.000  0.00  0.00    +0.000 C 
ATOM      8  C   UNL     1       3.639  -5.088  -1.749  0.00  0.00    +0.000 C 
BRANCH   8  10
ATOM      9  O   UNL     1       2.410  -7.165  -1.913  0.00  0.00    +0.000 OA
ATOM     10  C   UNL     1       2.790  -6.113  -2.396  0.00  0.00    +0.000 C 
BRANCH  10  11
ATOM     11  O   UNL     1       2.469  -5.677  -3.637  0.00  0.00    +0.000 OA
ATOM     12  H   UNL     1       2.847  -4.792  -3.825  0.00  0.00    +0.000 HD
ENDBRANCH  10  11
ENDBRANCH   8  10
ENDBRANCH   5   6
ENDBRANCH   3   4
BRANCH   1  13
ATOM     13  C   UNL     1       7.173  -0.565   1.656  0.00  0.00    +0.000 C 
BRANCH  13  14
ATOM     14  C   UNL     1       6.341   0.125   2.748  0.00  0.00    +0.000 C 
BRANCH  14  16
ATOM     15  C   UNL     1       4.964  -0.772   4.712  0.00  0.00    +0.000 C 
ATOM     16  C   UNL     1       6.054  -0.774   3.919  0.00  0.00    +0.000 C 
ATOM     17  C   UNL     1       3.800   0.166   4.550  0.00  0.00    +0.000 C 
BRANCH  15  18
ATOM     18  C   UNL     1       4.831  -1.801   5.820  0.00  0.00    +0.000 C 
BRANCH  18  19
ATOM     19  C   UNL     1       4.660  -3.250   5.346  0.00  0.00    +0.000 C 
BRANCH  19  20
ATOM     20  C   UNL     1       3.926  -3.376   4.039  0.00  0.00    +0.000 C 
ATOM     21  C   UNL     1       4.282  -4.107   2.967  0.00  0.00    +0.000 C 
ATOM     22  C   UNL     1       5.519  -4.954   2.870  0.00  0.00    +0.000 C 
ATOM     23  C   UNL     1       3.424  -4.119   1.730  0.00  0.00    +0.000 C 
ENDBRANCH  19  20
ENDBRANCH  18  19
ENDBRANCH  15  18
ENDBRANCH  14  16
ENDBRANCH  13  14
ENDBRANCH   1  13
TORSDOF 10
ENDMDL
MODEL 9
REMARK VINA RESULT:    -2.428     13.484     16.235
REMARK INTER + INTRA:          -7.946
REMARK INTER:                  -5.411
REMARK INTRA:                  -2.535
REMARK CONF_INDEPENDENT:        2.983
REMARK UNBOUND:                 2.535
REMARK  Name = 6437836
REMARK  15 active torsions:
REMARK  status: ('A' for Active; 'I' for Inactive)
REMARK    1  A    between atoms: O_1  and  C_22
REMARK    2  A    between atoms: C_3  and  C_4
REMARK    3  A    between atoms: C_3  and  C_7
REMARK    4  A    between atoms: C_4  and  C_10
REMARK    5  A    between atoms: C_5  and  C_6
REMARK    6  A    between atoms: C_5  and  C_8
REMARK    7  A    between atoms: C_6  and  C_9
REMARK    8  A    between atoms: C_7  and  C_11
REMARK    9  A    between atoms: C_9  and  C_13
REMARK   10  A    between atoms: C_12  and  C_15
REMARK   11  A    between atoms: C_12  and  C_16
REMARK   12  A    between atoms: C_14  and  C_17
REMARK   13  A    between atoms: C_18  and  C_19
REMARK   14  A    between atoms: C_19  and  C_20
REMARK   15  A    between atoms: C_21  and  C_22
REMARK                            x       y       z     vdW  Elec       q    Type
REMARK                         _______ _______ _______ _____ _____    ______ ____
ROOT
ATOM      1  C   UNL     1       5.231  -4.816   6.997  0.00  0.00    +0.000 C 
ATOM      2  C   UNL     1       3.724  -4.837   6.964  0.00  0.00    +0.000 C 
ATOM      3  C   UNL     1       5.892  -3.701   6.622  0.00  0.00    +0.000 C 
ENDROOT
BRANCH   3   4
ATOM      4  C   UNL     1       5.313  -2.453   6.168  0.00  0.00    +0.000 C 
ATOM      5  C   UNL     1       5.562  -1.937   4.952  0.00  0.00    +0.000 C 
BRANCH   5   6
ATOM      6  C   UNL     1       5.002  -0.704   4.388  0.00  0.00    +0.000 C 
ATOM      7  C   UNL     1       3.668  -0.246   4.923  0.00  0.00    +0.000 C 
ATOM      8  C   UNL     1       5.698  -0.083   3.416  0.00  0.00    +0.000 C 
BRANCH   8  10
ATOM      9  O   UNL     1       4.982   1.289   1.557  0.00  0.00    +0.000 OA
ATOM     10  C   UNL     1       5.301   1.165   2.726  0.00  0.00    +0.000 C 
BRANCH  10  11
ATOM     11  O   UNL     1       5.325   2.175   3.627  0.00  0.00    +0.000 OA
ATOM     12  H   UNL     1       5.067   3.032   3.225  0.00  0.00    +0.000 HD
ENDBRANCH  10  11
ENDBRANCH   8  10
ENDBRANCH   5   6
ENDBRANCH   3   4
BRANCH   1  13
ATOM     13  C   UNL     1       5.881  -6.115   7.429  0.00  0.00    +0.000 C 
BRANCH  13  14
ATOM     14  C   UNL     1       6.170  -7.090   6.278  0.00  0.00    +0.000 C 
BRANCH  14  16
ATOM     15  C   UNL     1       6.149  -6.174   3.887  0.00  0.00    +0.000 C 
ATOM     16  C   UNL     1       6.751  -6.410   5.068  0.00  0.00    +0.000 C 
ATOM     17  C   UNL     1       4.733  -6.566   3.563  0.00  0.00    +0.000 C 
BRANCH  15  18
ATOM     18  C   UNL     1       6.887  -5.418   2.796  0.00  0.00    +0.000 C 
BRANCH  18  19
ATOM     19  C   UNL     1       6.547  -3.926   2.694  0.00  0.00    +0.000 C 
BRANCH  19  20
ATOM     20  C   UNL     1       5.752  -3.569   1.468  0.00  0.00    +0.000 C 
ATOM     21  C   UNL     1       4.440  -3.275   1.398  0.00  0.00    +0.000 C 
ATOM     22  C   UNL     1       3.496  -3.253   2.567  0.00  0.00    +0.000 C 
ATOM     23  C   UNL     1       3.801  -2.938   0.078  0.00  0.00    +0.000 C 
ENDBRANCH  19  20
ENDBRANCH  18  19
ENDBRANCH  15  18
ENDBRANCH  14  16
ENDBRANCH  13  14
ENDBRANCH   1  13
TORSDOF 10
ENDMDL
