MODEL 1
REMARK VINA RESULT:    -4.237      0.000      0.000
REMARK INTER + INTRA:          -8.627
REMARK INTER:                  -7.220
REMARK INTRA:                  -1.407
REMARK CONF_INDEPENDENT:        2.983
REMARK UNBOUND:                 1.407
REMARK  Name = 6437836
REMARK  15 active torsions:
REMARK  status: ('A' for Active; 'I' for Inactive)
REMARK    1  A    between atoms: O_1  and  C_22
REMARK    2  A    between atoms: C_3  and  C_4
REMARK    3  A    between atoms: C_3  and  C_7
REMARK    4  A    between atoms: C_4  and  C_10
REMARK    5  A    between atoms: C_5  and  C_6
REMARK    6  A    between atoms: C_5  and  C_8
REMARK    7  A    between atoms: C_6  and  C_9
REMARK    8  A    between atoms: C_7  and  C_11
REMARK    9  A    between atoms: C_9  and  C_13
REMARK   10  A    between atoms: C_12  and  C_15
REMARK   11  A    between atoms: C_12  and  C_16
REMARK   12  A    between atoms: C_14  and  C_17
REMARK   13  A    between atoms: C_18  and  C_19
REMARK   14  A    between atoms: C_19  and  C_20
REMARK   15  A    between atoms: C_21  and  C_22
REMARK                            x       y       z     vdW  Elec       q    Type
REMARK                         _______ _______ _______ _____ _____    ______ ____
ROOT
ATOM      1  C   UNL     1      -4.563   1.734  -5.646  0.00  0.00    +0.000 C 
ATOM      2  C   UNL     1      -4.077   3.157  -5.762  0.00  0.00    +0.000 C 
ATOM      3  C   UNL     1      -4.524   1.110  -4.450  0.00  0.00    +0.000 C 
ENDROOT
BRANCH   3   4
ATOM      4  C   UNL     1      -4.051   1.656  -3.195  0.00  0.00    +0.000 C 
ATOM      5  C   UNL     1      -4.077   2.971  -2.919  0.00  0.00    +0.000 C 
BRANCH   5   6
ATOM      6  C   UNL     1      -3.654   3.617  -1.671  0.00  0.00    +0.000 C 
ATOM      7  C   UNL     1      -4.740   4.100  -0.744  0.00  0.00    +0.000 C 
ATOM      8  C   UNL     1      -2.332   3.760  -1.453  0.00  0.00    +0.000 C 
BRANCH   8  10
ATOM      9  O   UNL     1      -1.992   4.176   0.905  0.00  0.00    +0.000 OA
ATOM     10  C   UNL     1      -1.712   4.382  -0.262  0.00  0.00    +0.000 C 
BRANCH  10  11
ATOM     11  O   UNL     1      -0.738   5.225  -0.680  0.00  0.00    +0.000 OA
ATOM     12  H   UNL     1      -0.097   5.429   0.034  0.00  0.00    +0.000 HD
ENDBRANCH  10  11
ENDBRANCH   8  10
ENDBRANCH   5   6
ENDBRANCH   3   4
BRANCH   1  13
ATOM     13  C   UNL     1      -5.033   1.110  -6.945  0.00  0.00    +0.000 C 
BRANCH  13  14
ATOM     14  C   UNL     1      -4.314  -0.197  -7.313  0.00  0.00    +0.000 C 
BRANCH  14  16
ATOM     15  C   UNL     1      -4.738  -2.708  -7.043  0.00  0.00    +0.000 C 
ATOM     16  C   UNL     1      -5.133  -1.421  -7.005  0.00  0.00    +0.000 C 
ATOM     17  C   UNL     1      -3.351  -3.159  -7.412  0.00  0.00    +0.000 C 
BRANCH  15  18
ATOM     18  C   UNL     1      -5.703  -3.811  -6.643  0.00  0.00    +0.000 C 
BRANCH  18  19
ATOM     19  C   UNL     1      -6.217  -3.734  -5.200  0.00  0.00    +0.000 C 
BRANCH  19  20
ATOM     20  C   UNL     1      -6.957  -2.461  -4.888  0.00  0.00    +0.000 C 
ATOM     21  C   UNL     1      -6.635  -1.530  -3.972  0.00  0.00    +0.000 C 
ATOM     22  C   UNL     1      -5.444  -1.591  -3.058  0.00  0.00    +0.000 C 
ATOM     23  C   UNL     1      -7.493  -0.307  -3.790  0.00  0.00    +0.000 C 
ENDBRANCH  19  20
ENDBRANCH  18  19
ENDBRANCH  15  18
ENDBRANCH  14  16
ENDBRANCH  13  14
ENDBRANCH   1  13
TORSDOF 10
ENDMDL
MODEL 2
REMARK VINA RESULT:    -2.048      1.280      2.556
REMARK INTER + INTRA:          -5.859
REMARK INTER:                  -5.031
REMARK INTRA:                  -0.828
REMARK CONF_INDEPENDENT:        2.983
REMARK UNBOUND:                 0.828
REMARK  Name = 6437836
REMARK  15 active torsions:
REMARK  status: ('A' for Active; 'I' for Inactive)
REMARK    1  A    between atoms: O_1  and  C_22
REMARK    2  A    between atoms: C_3  and  C_4
REMARK    3  A    between atoms: C_3  and  C_7
REMARK    4  A    between atoms: C_4  and  C_10
REMARK    5  A    between atoms: C_5  and  C_6
REMARK    6  A    between atoms: C_5  and  C_8
REMARK    7  A    between atoms: C_6  and  C_9
REMARK    8  A    between atoms: C_7  and  C_11
REMARK    9  A    between atoms: C_9  and  C_13
REMARK   10  A    between atoms: C_12  and  C_15
REMARK   11  A    between atoms: C_12  and  C_16
REMARK   12  A    between atoms: C_14  and  C_17
REMARK   13  A    between atoms: C_18  and  C_19
REMARK   14  A    between atoms: C_19  and  C_20
REMARK   15  A    between atoms: C_21  and  C_22
REMARK                            x       y       z     vdW  Elec       q    Type
REMARK                         _______ _______ _______ _____ _____    ______ ____
ROOT
ATOM      1  C   UNL     1      -4.734   1.691  -5.807  0.00  0.00    +0.000 C 
ATOM      2  C   UNL     1      -4.057   2.920  -6.361  0.00  0.00    +0.000 C 
ATOM      3  C   UNL     1      -4.607   1.392  -4.498  0.00  0.00    +0.000 C 
ENDROOT
BRANCH   3   4
ATOM      4  C   UNL     1      -3.866   2.136  -3.499  0.00  0.00    +0.000 C 
ATOM      5  C   UNL     1      -4.467   2.813  -2.505  0.00  0.00    +0.000 C 
BRANCH   5   6
ATOM      6  C   UNL     1      -3.809   3.565  -1.431  0.00  0.00    +0.000 C 
ATOM      7  C   UNL     1      -4.687   4.111  -0.334  0.00  0.00    +0.000 C 
ATOM      8  C   UNL     1      -2.475   3.743  -1.512  0.00  0.00    +0.000 C 
BRANCH   8  10
ATOM      9  O   UNL     1      -0.854   5.374  -0.763  0.00  0.00    +0.000 OA
ATOM     10  C   UNL     1      -1.636   4.469  -0.533  0.00  0.00    +0.000 C 
BRANCH  10  11
ATOM     11  O   UNL     1      -1.896   3.974   0.700  0.00  0.00    +0.000 OA
ATOM     12  H   UNL     1      -1.119   3.510   1.081  0.00  0.00    +0.000 HD
ENDBRANCH  10  11
ENDBRANCH   8  10
ENDBRANCH   5   6
ENDBRANCH   3   4
BRANCH   1  13
ATOM     13  C   UNL     1      -5.489   0.861  -6.826  0.00  0.00    +0.000 C 
BRANCH  13  14
ATOM     14  C   UNL     1      -6.594  -0.022  -6.227  0.00  0.00    +0.000 C 
BRANCH  14  16
ATOM     15  C   UNL     1      -5.092  -2.096  -6.192  0.00  0.00    +0.000 C 
ATOM     16  C   UNL     1      -6.070  -1.323  -5.682  0.00  0.00    +0.000 C 
ATOM     17  C   UNL     1      -4.324  -1.774  -7.445  0.00  0.00    +0.000 C 
BRANCH  15  18
ATOM     18  C   UNL     1      -4.663  -3.357  -5.463  0.00  0.00    +0.000 C 
BRANCH  18  19
ATOM     19  C   UNL     1      -5.690  -3.917  -4.471  0.00  0.00    +0.000 C 
BRANCH  19  20
ATOM     20  C   UNL     1      -6.264  -5.245  -4.880  0.00  0.00    +0.000 C 
ATOM     21  C   UNL     1      -6.346  -5.755  -6.124  0.00  0.00    +0.000 C 
ATOM     22  C   UNL     1      -5.869  -5.068  -7.372  0.00  0.00    +0.000 C 
ATOM     23  C   UNL     1      -6.956  -7.111  -6.356  0.00  0.00    +0.000 C 
ENDBRANCH  19  20
ENDBRANCH  18  19
ENDBRANCH  15  18
ENDBRANCH  14  16
ENDBRANCH  13  14
ENDBRANCH   1  13
TORSDOF 10
ENDMDL
