MODEL 1
REMARK VINA RESULT:    -4.518      0.000      0.000
REMARK INTER + INTRA:          -7.391
REMARK INTER:                  -6.308
REMARK INTRA:                  -1.083
REMARK CONF_INDEPENDENT:        1.790
REMARK UNBOUND:                 1.083
REMARK  Name = 449171
REMARK  11 active torsions:
REMARK  status: ('A' for Active; 'I' for Inactive)
REMARK    1  A    between atoms: O_1  and  C_22
REMARK    2  A    between atoms: C_3  and  C_9
REMARK    3  A    between atoms: C_3  and  C_10
REMARK    4  A    between atoms: C_6  and  C_11
REMARK    5  A    between atoms: C_8  and  C_12
REMARK    6  A    between atoms: C_13  and  C_14
REMARK    7  A    between atoms: C_14  and  C_15
REMARK    8  A    between atoms: C_16  and  C_17
REMARK    9  A    between atoms: C_18  and  C_19
REMARK   10  A    between atoms: C_19  and  C_20
REMARK   11  A    between atoms: C_21  and  C_22
REMARK                            x       y       z     vdW  Elec       q    Type
REMARK                         _______ _______ _______ _____ _____    ______ ____
ROOT
ATOM      1  C   UNL     1      -6.515   0.668  -2.363  0.00  0.00    +0.000 C 
ATOM      2  C   UNL     1      -7.859   0.140  -1.916  0.00  0.00    +0.000 C 
ATOM      3  C   UNL     1      -6.041   1.791  -1.782  0.00  0.00    +0.000 C 
ENDROOT
BRANCH   1   5
ATOM      4  C   UNL     1      -6.301  -0.425  -4.605  0.00  0.00    +0.000 C 
ATOM      5  C   UNL     1      -5.810  -0.081  -3.404  0.00  0.00    +0.000 C 
BRANCH   4   9
ATOM      6  C   UNL     1      -5.584  -2.712  -5.446  0.00  0.00    +0.000 C 
ATOM      7  C   UNL     1      -4.992  -3.422  -6.695  0.00  0.00    +0.000 C 
ATOM      8  C   UNL     1      -3.700  -2.778  -7.164  0.00  0.00    +0.000 C 
ATOM      9  C   UNL     1      -5.538  -1.172  -5.592  0.00  0.00    +0.000 C 
ATOM     10  C   UNL     1      -3.947  -1.325  -7.540  0.00  0.00    +0.000 C 
ATOM     11  C   UNL     1      -4.814  -0.559  -6.561  0.00  0.00    +0.000 C 
ATOM     12  C   UNL     1      -4.777  -3.137  -4.197  0.00  0.00    +0.000 C 
ATOM     13  C   UNL     1      -7.032  -3.241  -5.301  0.00  0.00    +0.000 C 
ATOM     14  C   UNL     1      -4.755   0.932  -6.808  0.00  0.00    +0.000 C 
ENDBRANCH   4   9
ENDBRANCH   1   5
BRANCH   3  15
ATOM     15  C   UNL     1      -4.791   2.484  -2.041  0.00  0.00    +0.000 C 
ATOM     16  C   UNL     1      -4.513   3.693  -1.521  0.00  0.00    +0.000 C 
BRANCH  16  17
ATOM     17  C   UNL     1      -3.290   4.478  -1.723  0.00  0.00    +0.000 C 
ATOM     18  C   UNL     1      -3.372   5.651  -2.666  0.00  0.00    +0.000 C 
ATOM     19  C   UNL     1      -2.175   4.087  -1.074  0.00  0.00    +0.000 C 
BRANCH  19  21
ATOM     20  O   UNL     1      -0.431   5.451  -2.048  0.00  0.00    +0.000 OA
ATOM     21  C   UNL     1      -0.852   4.746  -1.149  0.00  0.00    +0.000 C 
BRANCH  21  22
ATOM     22  O   UNL     1      -0.167   4.456  -0.017  0.00  0.00    +0.000 OA
ATOM     23  H   UNL     1       0.594   3.861  -0.189  0.00  0.00    +0.000 HD
ENDBRANCH  21  22
ENDBRANCH  19  21
ENDBRANCH  16  17
ENDBRANCH   3  15
TORSDOF 6
ENDMDL
