MODEL 1
REMARK VINA RESULT:    -2.462      0.000      0.000
REMARK INTER + INTRA:          -6.204
REMARK INTER:                  -5.445
REMARK INTRA:                  -0.759
REMARK CONF_INDEPENDENT:        2.983
REMARK UNBOUND:                 0.759
REMARK  Name = 6437836
REMARK  15 active torsions:
REMARK  status: ('A' for Active; 'I' for Inactive)
REMARK    1  A    between atoms: O_1  and  C_22
REMARK    2  A    between atoms: C_3  and  C_4
REMARK    3  A    between atoms: C_3  and  C_7
REMARK    4  A    between atoms: C_4  and  C_10
REMARK    5  A    between atoms: C_5  and  C_6
REMARK    6  A    between atoms: C_5  and  C_8
REMARK    7  A    between atoms: C_6  and  C_9
REMARK    8  A    between atoms: C_7  and  C_11
REMARK    9  A    between atoms: C_9  and  C_13
REMARK   10  A    between atoms: C_12  and  C_15
REMARK   11  A    between atoms: C_12  and  C_16
REMARK   12  A    between atoms: C_14  and  C_17
REMARK   13  A    between atoms: C_18  and  C_19
REMARK   14  A    between atoms: C_19  and  C_20
REMARK   15  A    between atoms: C_21  and  C_22
REMARK                            x       y       z     vdW  Elec       q    Type
REMARK                         _______ _______ _______ _____ _____    ______ ____
ROOT
ATOM      1  C   UNL     1      -6.870   1.355  -2.579  0.00  0.00    +0.000 C 
ATOM      2  C   UNL     1      -7.750   2.575  -2.471  0.00  0.00    +0.000 C 
ATOM      3  C   UNL     1      -5.572   1.434  -2.218  0.00  0.00    +0.000 C 
ENDROOT
BRANCH   3   4
ATOM      4  C   UNL     1      -4.874   2.599  -1.714  0.00  0.00    +0.000 C 
ATOM      5  C   UNL     1      -3.550   2.775  -1.867  0.00  0.00    +0.000 C 
BRANCH   5   6
ATOM      6  C   UNL     1      -2.760   3.929  -1.425  0.00  0.00    +0.000 C 
ATOM      7  C   UNL     1      -1.948   3.766  -0.165  0.00  0.00    +0.000 C 
ATOM      8  C   UNL     1      -2.835   5.060  -2.155  0.00  0.00    +0.000 C 
BRANCH   8  10
ATOM      9  O   UNL     1      -0.976   6.607  -2.190  0.00  0.00    +0.000 OA
ATOM     10  C   UNL     1      -2.117   6.323  -1.873  0.00  0.00    +0.000 C 
BRANCH  10  11
ATOM     11  O   UNL     1      -2.958   7.151  -1.208  0.00  0.00    +0.000 OA
ATOM     12  H   UNL     1      -3.210   6.791  -0.331  0.00  0.00    +0.000 HD
ENDBRANCH  10  11
ENDBRANCH   8  10
ENDBRANCH   5   6
ENDBRANCH   3   4
BRANCH   1  13
ATOM     13  C   UNL     1      -7.550   0.122  -3.138  0.00  0.00    +0.000 C 
BRANCH  13  14
ATOM     14  C   UNL     1      -7.539   0.037  -4.672  0.00  0.00    +0.000 C 
BRANCH  14  16
ATOM     15  C   UNL     1      -6.985   2.396  -5.498  0.00  0.00    +0.000 C 
ATOM     16  C   UNL     1      -7.827   1.358  -5.332  0.00  0.00    +0.000 C 
ATOM     17  C   UNL     1      -5.555   2.411  -5.032  0.00  0.00    +0.000 C 
BRANCH  15  18
ATOM     18  C   UNL     1      -7.446   3.636  -6.244  0.00  0.00    +0.000 C 
BRANCH  18  19
ATOM     19  C   UNL     1      -6.561   4.050  -7.426  0.00  0.00    +0.000 C 
BRANCH  19  20
ATOM     20  C   UNL     1      -5.195   4.532  -7.020  0.00  0.00    +0.000 C 
ATOM     21  C   UNL     1      -4.044   3.834  -7.028  0.00  0.00    +0.000 C 
ATOM     22  C   UNL     1      -3.906   2.399  -7.453  0.00  0.00    +0.000 C 
ATOM     23  C   UNL     1      -2.757   4.476  -6.585  0.00  0.00    +0.000 C 
ENDBRANCH  19  20
ENDBRANCH  18  19
ENDBRANCH  15  18
ENDBRANCH  14  16
ENDBRANCH  13  14
ENDBRANCH   1  13
TORSDOF 10
ENDMDL
