MODEL 1
REMARK VINA RESULT:    -7.325      0.000      0.000
REMARK INTER + INTRA:         -10.150
REMARK INTER:                  -9.115
REMARK INTRA:                  -1.035
REMARK CONF_INDEPENDENT:        1.790
REMARK UNBOUND:                 1.035
REMARK  Name = 5282379
REMARK  11 active torsions:
REMARK  status: ('A' for Active; 'I' for Inactive)
REMARK    1  A    between atoms: O_1  and  C_22
REMARK    2  A    between atoms: C_3  and  C_9
REMARK    3  A    between atoms: C_3  and  C_10
REMARK    4  A    between atoms: C_6  and  C_11
REMARK    5  A    between atoms: C_8  and  C_12
REMARK    6  A    between atoms: C_13  and  C_14
REMARK    7  A    between atoms: C_14  and  C_15
REMARK    8  A    between atoms: C_16  and  C_17
REMARK    9  A    between atoms: C_18  and  C_19
REMARK   10  A    between atoms: C_19  and  C_20
REMARK   11  A    between atoms: C_21  and  C_22
REMARK                            x       y       z     vdW  Elec       q    Type
REMARK                         _______ _______ _______ _____ _____    ______ ____
ROOT
ATOM      1  C   UNL     1       2.027   4.128  -1.947  0.00  0.00    +0.000 C 
ATOM      2  C   UNL     1       0.555   4.399  -1.733  0.00  0.00    +0.000 C 
ATOM      3  C   UNL     1       2.665   4.787  -2.939  0.00  0.00    +0.000 C 
ENDROOT
BRANCH   1   5
ATOM      4  C   UNL     1       3.771   3.374  -0.316  0.00  0.00    +0.000 C 
ATOM      5  C   UNL     1       2.670   3.162  -1.056  0.00  0.00    +0.000 C 
BRANCH   4   9
ATOM      6  C   UNL     1       5.173   1.262  -0.167  0.00  0.00    +0.000 C 
ATOM      7  C   UNL     1       5.503   0.082   0.788  0.00  0.00    +0.000 C 
ATOM      8  C   UNL     1       5.972   0.560   2.151  0.00  0.00    +0.000 C 
ATOM      9  C   UNL     1       4.355   2.362   0.549  0.00  0.00    +0.000 C 
ATOM     10  C   UNL     1       4.885   1.393   2.813  0.00  0.00    +0.000 C 
ATOM     11  C   UNL     1       4.211   2.394   1.898  0.00  0.00    +0.000 C 
ATOM     12  C   UNL     1       4.400   0.643  -1.358  0.00  0.00    +0.000 C 
ATOM     13  C   UNL     1       6.495   1.862  -0.698  0.00  0.00    +0.000 C 
ATOM     14  C   UNL     1       3.388   3.398   2.674  0.00  0.00    +0.000 C 
ENDBRANCH   4   9
ENDBRANCH   1   5
BRANCH   3  15
ATOM     15  C   UNL     1       2.125   5.759  -3.872  0.00  0.00    +0.000 C 
ATOM     16  C   UNL     1       1.045   5.508  -4.632  0.00  0.00    +0.000 C 
BRANCH  16  17
ATOM     17  C   UNL     1       0.424   6.413  -5.605  0.00  0.00    +0.000 C 
ATOM     18  C   UNL     1       1.342   7.295  -6.412  0.00  0.00    +0.000 C 
ATOM     19  C   UNL     1      -0.922   6.412  -5.697  0.00  0.00    +0.000 C 
BRANCH  19  21
ATOM     20  O   UNL     1      -1.611   5.022  -3.843  0.00  0.00    +0.000 OA
ATOM     21  C   UNL     1      -1.847   5.576  -4.900  0.00  0.00    +0.000 C 
BRANCH  21  22
ATOM     22  O   UNL     1      -3.043   5.540  -5.536  0.00  0.00    +0.000 OA
ATOM     23  H   UNL     1      -2.989   5.060  -6.390  0.00  0.00    +0.000 HD
ENDBRANCH  21  22
ENDBRANCH  19  21
ENDBRANCH  16  17
ENDBRANCH   3  15
TORSDOF 6
ENDMDL
MODEL 2
REMARK VINA RESULT:    -7.175      4.770      9.214
REMARK INTER + INTRA:         -10.127
REMARK INTER:                  -8.965
REMARK INTRA:                  -1.162
REMARK CONF_INDEPENDENT:        1.790
REMARK UNBOUND:                 1.162
REMARK  Name = 5282379
REMARK  11 active torsions:
REMARK  status: ('A' for Active; 'I' for Inactive)
REMARK    1  A    between atoms: O_1  and  C_22
REMARK    2  A    between atoms: C_3  and  C_9
REMARK    3  A    between atoms: C_3  and  C_10
REMARK    4  A    between atoms: C_6  and  C_11
REMARK    5  A    between atoms: C_8  and  C_12
REMARK    6  A    between atoms: C_13  and  C_14
REMARK    7  A    between atoms: C_14  and  C_15
REMARK    8  A    between atoms: C_16  and  C_17
REMARK    9  A    between atoms: C_18  and  C_19
REMARK   10  A    between atoms: C_19  and  C_20
REMARK   11  A    between atoms: C_21  and  C_22
REMARK                            x       y       z     vdW  Elec       q    Type
REMARK                         _______ _______ _______ _____ _____    ______ ____
ROOT
ATOM      1  C   UNL     1       2.287   4.726   2.528  0.00  0.00    +0.000 C 
ATOM      2  C   UNL     1       1.288   4.939   3.642  0.00  0.00    +0.000 C 
ATOM      3  C   UNL     1       3.549   4.368   2.855  0.00  0.00    +0.000 C 
ENDROOT
BRANCH   1   5
ATOM      4  C   UNL     1       1.069   4.066   0.443  0.00  0.00    +0.000 C 
ATOM      5  C   UNL     1       1.819   4.922   1.156  0.00  0.00    +0.000 C 
BRANCH   4   9
ATOM      6  C   UNL     1      -0.733   5.025  -1.067  0.00  0.00    +0.000 C 
ATOM      7  C   UNL     1      -1.234   4.998  -2.538  0.00  0.00    +0.000 C 
ATOM      8  C   UNL     1      -0.136   5.350  -3.525  0.00  0.00    +0.000 C 
ATOM      9  C   UNL     1       0.640   4.329  -0.921  0.00  0.00    +0.000 C 
ATOM     10  C   UNL     1       1.006   4.351  -3.414  0.00  0.00    +0.000 C 
ATOM     11  C   UNL     1       1.406   4.005  -1.994  0.00  0.00    +0.000 C 
ATOM     12  C   UNL     1      -1.832   4.327  -0.229  0.00  0.00    +0.000 C 
ATOM     13  C   UNL     1      -0.620   6.495  -0.603  0.00  0.00    +0.000 C 
ATOM     14  C   UNL     1       2.730   3.279  -1.946  0.00  0.00    +0.000 C 
ENDBRANCH   4   9
ENDBRANCH   1   5
BRANCH   3  15
ATOM     15  C   UNL     1       4.112   4.148   4.175  0.00  0.00    +0.000 C 
ATOM     16  C   UNL     1       5.431   4.238   4.422  0.00  0.00    +0.000 C 
BRANCH  16  17
ATOM     17  C   UNL     1       6.101   4.030   5.710  0.00  0.00    +0.000 C 
ATOM     18  C   UNL     1       6.581   5.255   6.445  0.00  0.00    +0.000 C 
ATOM     19  C   UNL     1       6.263   2.761   6.139  0.00  0.00    +0.000 C 
BRANCH  19  21
ATOM     20  O   UNL     1       6.322   1.054   4.426  0.00  0.00    +0.000 OA
ATOM     21  C   UNL     1       5.825   1.541   5.425  0.00  0.00    +0.000 C 
BRANCH  21  22
ATOM     22  O   UNL     1       4.765   1.017   6.089  0.00  0.00    +0.000 OA
ATOM     23  H   UNL     1       4.339   1.677   6.676  0.00  0.00    +0.000 HD
ENDBRANCH  21  22
ENDBRANCH  19  21
ENDBRANCH  16  17
ENDBRANCH   3  15
TORSDOF 6
ENDMDL
MODEL 3
REMARK VINA RESULT:    -7.019      3.588      4.459
REMARK INTER + INTRA:          -9.968
REMARK INTER:                  -8.809
REMARK INTRA:                  -1.159
REMARK CONF_INDEPENDENT:        1.790
REMARK UNBOUND:                 1.159
REMARK  Name = 5282379
REMARK  11 active torsions:
REMARK  status: ('A' for Active; 'I' for Inactive)
REMARK    1  A    between atoms: O_1  and  C_22
REMARK    2  A    between atoms: C_3  and  C_9
REMARK    3  A    between atoms: C_3  and  C_10
REMARK    4  A    between atoms: C_6  and  C_11
REMARK    5  A    between atoms: C_8  and  C_12
REMARK    6  A    between atoms: C_13  and  C_14
REMARK    7  A    between atoms: C_14  and  C_15
REMARK    8  A    between atoms: C_16  and  C_17
REMARK    9  A    between atoms: C_18  and  C_19
REMARK   10  A    between atoms: C_19  and  C_20
REMARK   11  A    between atoms: C_21  and  C_22
REMARK                            x       y       z     vdW  Elec       q    Type
REMARK                         _______ _______ _______ _____ _____    ______ ____
ROOT
ATOM      1  C   UNL     1       2.900   4.760   0.590  0.00  0.00    +0.000 C 
ATOM      2  C   UNL     1       3.110   5.719  -0.560  0.00  0.00    +0.000 C 
ATOM      3  C   UNL     1       1.806   4.917   1.367  0.00  0.00    +0.000 C 
ENDROOT
BRANCH   1   5
ATOM      4  C   UNL     1       3.709   2.528   1.386  0.00  0.00    +0.000 C 
ATOM      5  C   UNL     1       3.904   3.715   0.787  0.00  0.00    +0.000 C 
BRANCH   4   9
ATOM      6  C   UNL     1       5.200   0.813   0.253  0.00  0.00    +0.000 C 
ATOM      7  C   UNL     1       6.099  -0.416   0.562  0.00  0.00    +0.000 C 
ATOM      8  C   UNL     1       7.151  -0.109   1.613  0.00  0.00    +0.000 C 
ATOM      9  C   UNL     1       4.759   1.536   1.547  0.00  0.00    +0.000 C 
ATOM     10  C   UNL     1       6.481   0.306   2.915  0.00  0.00    +0.000 C 
ATOM     11  C   UNL     1       5.330   1.277   2.751  0.00  0.00    +0.000 C 
ATOM     12  C   UNL     1       3.994   0.268  -0.550  0.00  0.00    +0.000 C 
ATOM     13  C   UNL     1       5.986   1.795  -0.646  0.00  0.00    +0.000 C 
ATOM     14  C   UNL     1       4.926   1.895   4.070  0.00  0.00    +0.000 C 
ENDBRANCH   4   9
ENDBRANCH   1   5
BRANCH   3  15
ATOM     15  C   UNL     1       0.755   5.913   1.258  0.00  0.00    +0.000 C 
ATOM     16  C   UNL     1      -0.378   5.695   0.568  0.00  0.00    +0.000 C 
BRANCH  16  17
ATOM     17  C   UNL     1      -1.494   6.631   0.391  0.00  0.00    +0.000 C 
ATOM     18  C   UNL     1      -1.558   7.393  -0.908  0.00  0.00    +0.000 C 
ATOM     19  C   UNL     1      -2.372   6.764   1.406  0.00  0.00    +0.000 C 
BRANCH  19  21
ATOM     20  O   UNL     1      -1.984   6.502   3.779  0.00  0.00    +0.000 OA
ATOM     21  C   UNL     1      -2.318   6.048   2.700  0.00  0.00    +0.000 C 
BRANCH  21  22
ATOM     22  O   UNL     1      -2.733   4.773   2.499  0.00  0.00    +0.000 OA
ATOM     23  H   UNL     1      -2.985   4.333   3.338  0.00  0.00    +0.000 HD
ENDBRANCH  21  22
ENDBRANCH  19  21
ENDBRANCH  16  17
ENDBRANCH   3  15
TORSDOF 6
ENDMDL
MODEL 4
REMARK VINA RESULT:    -6.855      4.818      9.066
REMARK INTER + INTRA:          -9.923
REMARK INTER:                  -8.645
REMARK INTRA:                  -1.278
REMARK CONF_INDEPENDENT:        1.790
REMARK UNBOUND:                 1.278
REMARK  Name = 5282379
REMARK  11 active torsions:
REMARK  status: ('A' for Active; 'I' for Inactive)
REMARK    1  A    between atoms: O_1  and  C_22
REMARK    2  A    between atoms: C_3  and  C_9
REMARK    3  A    between atoms: C_3  and  C_10
REMARK    4  A    between atoms: C_6  and  C_11
REMARK    5  A    between atoms: C_8  and  C_12
REMARK    6  A    between atoms: C_13  and  C_14
REMARK    7  A    between atoms: C_14  and  C_15
REMARK    8  A    between atoms: C_16  and  C_17
REMARK    9  A    between atoms: C_18  and  C_19
REMARK   10  A    between atoms: C_19  and  C_20
REMARK   11  A    between atoms: C_21  and  C_22
REMARK                            x       y       z     vdW  Elec       q    Type
REMARK                         _______ _______ _______ _____ _____    ______ ____
ROOT
ATOM      1  C   UNL     1       1.872   5.424   2.656  0.00  0.00    +0.000 C 
ATOM      2  C   UNL     1       1.163   4.484   3.605  0.00  0.00    +0.000 C 
ATOM      3  C   UNL     1       2.870   6.195   3.141  0.00  0.00    +0.000 C 
ENDROOT
BRANCH   1   5
ATOM      4  C   UNL     1       1.090   4.365   0.526  0.00  0.00    +0.000 C 
ATOM      5  C   UNL     1       1.426   5.437   1.263  0.00  0.00    +0.000 C 
BRANCH   4   9
ATOM      6  C   UNL     1      -0.733   5.099  -1.082  0.00  0.00    +0.000 C 
ATOM      7  C   UNL     1      -1.233   4.886  -2.537  0.00  0.00    +0.000 C 
ATOM      8  C   UNL     1      -0.143   5.143  -3.563  0.00  0.00    +0.000 C 
ATOM      9  C   UNL     1       0.655   4.455  -0.858  0.00  0.00    +0.000 C 
ATOM     10  C   UNL     1       1.020   4.189  -3.337  0.00  0.00    +0.000 C 
ATOM     11  C   UNL     1       1.428   4.023  -1.887  0.00  0.00    +0.000 C 
ATOM     12  C   UNL     1      -1.816   4.481  -0.164  0.00  0.00    +0.000 C 
ATOM     13  C   UNL     1      -0.652   6.616  -0.796  0.00  0.00    +0.000 C 
ATOM     14  C   UNL     1       2.768   3.336  -1.757  0.00  0.00    +0.000 C 
ENDBRANCH   4   9
ENDBRANCH   1   5
BRANCH   3  15
ATOM     15  C   UNL     1       3.387   6.258   4.495  0.00  0.00    +0.000 C 
ATOM     16  C   UNL     1       4.367   5.447   4.934  0.00  0.00    +0.000 C 
BRANCH  16  17
ATOM     17  C   UNL     1       4.954   5.424   6.278  0.00  0.00    +0.000 C 
ATOM     18  C   UNL     1       6.362   5.941   6.426  0.00  0.00    +0.000 C 
ATOM     19  C   UNL     1       4.207   4.924   7.284  0.00  0.00    +0.000 C 
BRANCH  19  21
ATOM     20  O   UNL     1       1.808   4.885   7.589  0.00  0.00    +0.000 OA
ATOM     21  C   UNL     1       2.833   4.387   7.162  0.00  0.00    +0.000 C 
BRANCH  21  22
ATOM     22  O   UNL     1       2.890   3.230   6.457  0.00  0.00    +0.000 OA
ATOM     23  H   UNL     1       3.702   2.718   6.659  0.00  0.00    +0.000 HD
ENDBRANCH  21  22
ENDBRANCH  19  21
ENDBRANCH  16  17
ENDBRANCH   3  15
TORSDOF 6
ENDMDL
MODEL 5
REMARK VINA RESULT:    -6.803      1.153      2.392
REMARK INTER + INTRA:          -9.752
REMARK INTER:                  -8.593
REMARK INTRA:                  -1.159
REMARK CONF_INDEPENDENT:        1.790
REMARK UNBOUND:                 1.159
REMARK  Name = 5282379
REMARK  11 active torsions:
REMARK  status: ('A' for Active; 'I' for Inactive)
REMARK    1  A    between atoms: O_1  and  C_22
REMARK    2  A    between atoms: C_3  and  C_9
REMARK    3  A    between atoms: C_3  and  C_10
REMARK    4  A    between atoms: C_6  and  C_11
REMARK    5  A    between atoms: C_8  and  C_12
REMARK    6  A    between atoms: C_13  and  C_14
REMARK    7  A    between atoms: C_14  and  C_15
REMARK    8  A    between atoms: C_16  and  C_17
REMARK    9  A    between atoms: C_18  and  C_19
REMARK   10  A    between atoms: C_19  and  C_20
REMARK   11  A    between atoms: C_21  and  C_22
REMARK                            x       y       z     vdW  Elec       q    Type
REMARK                         _______ _______ _______ _____ _____    ______ ____
ROOT
ATOM      1  C   UNL     1       2.688   3.328  -1.596  0.00  0.00    +0.000 C 
ATOM      2  C   UNL     1       1.233   2.986  -1.826  0.00  0.00    +0.000 C 
ATOM      3  C   UNL     1       3.304   4.143  -2.480  0.00  0.00    +0.000 C 
ENDROOT
BRANCH   1   5
ATOM      4  C   UNL     1       4.649   2.802  -0.131  0.00  0.00    +0.000 C 
ATOM      5  C   UNL     1       3.338   2.749  -0.420  0.00  0.00    +0.000 C 
BRANCH   4   9
ATOM      6  C   UNL     1       5.291   3.115   2.306  0.00  0.00    +0.000 C 
ATOM      7  C   UNL     1       6.176   2.496   3.423  0.00  0.00    +0.000 C 
ATOM      8  C   UNL     1       5.896   1.018   3.625  0.00  0.00    +0.000 C 
ATOM      9  C   UNL     1       5.225   2.200   1.060  0.00  0.00    +0.000 C 
ATOM     10  C   UNL     1       6.181   0.253   2.341  0.00  0.00    +0.000 C 
ATOM     11  C   UNL     1       5.656   0.913   1.083  0.00  0.00    +0.000 C 
ATOM     12  C   UNL     1       5.914   4.495   1.983  0.00  0.00    +0.000 C 
ATOM     13  C   UNL     1       3.865   3.337   2.861  0.00  0.00    +0.000 C 
ATOM     14  C   UNL     1       5.679  -0.031  -0.097  0.00  0.00    +0.000 C 
ENDBRANCH   4   9
ENDBRANCH   1   5
BRANCH   3  15
ATOM     15  C   UNL     1       2.755   4.767  -3.670  0.00  0.00    +0.000 C 
ATOM     16  C   UNL     1       1.685   5.581  -3.631  0.00  0.00    +0.000 C 
BRANCH  16  17
ATOM     17  C   UNL     1       1.050   6.254  -4.769  0.00  0.00    +0.000 C 
ATOM     18  C   UNL     1       1.928   7.110  -5.644  0.00  0.00    +0.000 C 
ATOM     19  C   UNL     1      -0.277   6.082  -4.942  0.00  0.00    +0.000 C 
BRANCH  19  21
ATOM     20  O   UNL     1      -0.964   4.921  -2.935  0.00  0.00    +0.000 OA
ATOM     21  C   UNL     1      -1.167   5.269  -4.083  0.00  0.00    +0.000 C 
BRANCH  21  22
ATOM     22  O   UNL     1      -2.289   4.980  -4.787  0.00  0.00    +0.000 OA
ATOM     23  H   UNL     1      -2.438   4.014  -4.859  0.00  0.00    +0.000 HD
ENDBRANCH  21  22
ENDBRANCH  19  21
ENDBRANCH  16  17
ENDBRANCH   3  15
TORSDOF 6
ENDMDL
MODEL 6
REMARK VINA RESULT:    -6.700      1.693      2.790
REMARK INTER + INTRA:          -9.644
REMARK INTER:                  -8.490
REMARK INTRA:                  -1.154
REMARK CONF_INDEPENDENT:        1.790
REMARK UNBOUND:                 1.154
REMARK  Name = 5282379
REMARK  11 active torsions:
REMARK  status: ('A' for Active; 'I' for Inactive)
REMARK    1  A    between atoms: O_1  and  C_22
REMARK    2  A    between atoms: C_3  and  C_9
REMARK    3  A    between atoms: C_3  and  C_10
REMARK    4  A    between atoms: C_6  and  C_11
REMARK    5  A    between atoms: C_8  and  C_12
REMARK    6  A    between atoms: C_13  and  C_14
REMARK    7  A    between atoms: C_14  and  C_15
REMARK    8  A    between atoms: C_16  and  C_17
REMARK    9  A    between atoms: C_18  and  C_19
REMARK   10  A    between atoms: C_19  and  C_20
REMARK   11  A    between atoms: C_21  and  C_22
REMARK                            x       y       z     vdW  Elec       q    Type
REMARK                         _______ _______ _______ _____ _____    ______ ____
ROOT
ATOM      1  C   UNL     1       4.131   3.474  -0.831  0.00  0.00    +0.000 C 
ATOM      2  C   UNL     1       3.168   2.465  -1.414  0.00  0.00    +0.000 C 
ATOM      3  C   UNL     1       4.465   4.551  -1.577  0.00  0.00    +0.000 C 
ENDROOT
BRANCH   1   5
ATOM      4  C   UNL     1       3.951   2.698   1.543  0.00  0.00    +0.000 C 
ATOM      5  C   UNL     1       4.643   3.216   0.514  0.00  0.00    +0.000 C 
BRANCH   4   9
ATOM      6  C   UNL     1       5.780   1.563   2.888  0.00  0.00    +0.000 C 
ATOM      7  C   UNL     1       6.145   1.143   4.339  0.00  0.00    +0.000 C 
ATOM      8  C   UNL     1       6.070   2.307   5.311  0.00  0.00    +0.000 C 
ATOM      9  C   UNL     1       4.528   2.470   2.857  0.00  0.00    +0.000 C 
ATOM     10  C   UNL     1       4.658   2.871   5.341  0.00  0.00    +0.000 C 
ATOM     11  C   UNL     1       4.014   3.035   3.979  0.00  0.00    +0.000 C 
ATOM     12  C   UNL     1       5.566   0.246   2.103  0.00  0.00    +0.000 C 
ATOM     13  C   UNL     1       6.980   2.316   2.268  0.00  0.00    +0.000 C 
ATOM     14  C   UNL     1       2.767   3.887   4.047  0.00  0.00    +0.000 C 
ENDBRANCH   4   9
ENDBRANCH   1   5
BRANCH   3  15
ATOM     15  C   UNL     1       4.016   4.899  -2.912  0.00  0.00    +0.000 C 
ATOM     16  C   UNL     1       2.950   5.688  -3.134  0.00  0.00    +0.000 C 
BRANCH  16  17
ATOM     17  C   UNL     1       2.413   6.095  -4.438  0.00  0.00    +0.000 C 
ATOM     18  C   UNL     1       3.264   7.007  -5.282  0.00  0.00    +0.000 C 
ATOM     19  C   UNL     1       1.188   5.645  -4.782  0.00  0.00    +0.000 C 
BRANCH  19  21
ATOM     20  O   UNL     1      -0.825   4.985  -3.616  0.00  0.00    +0.000 OA
ATOM     21  C   UNL     1       0.322   4.770  -3.961  0.00  0.00    +0.000 C 
BRANCH  21  22
ATOM     22  O   UNL     1       1.016   3.644  -3.661  0.00  0.00    +0.000 OA
ATOM     23  H   UNL     1       1.922   3.662  -4.037  0.00  0.00    +0.000 HD
ENDBRANCH  21  22
ENDBRANCH  19  21
ENDBRANCH  16  17
ENDBRANCH   3  15
TORSDOF 6
ENDMDL
MODEL 7
REMARK VINA RESULT:    -6.430      1.775      3.576
REMARK INTER + INTRA:          -9.415
REMARK INTER:                  -8.220
REMARK INTRA:                  -1.195
REMARK CONF_INDEPENDENT:        1.790
REMARK UNBOUND:                 1.195
REMARK  Name = 5282379
REMARK  11 active torsions:
REMARK  status: ('A' for Active; 'I' for Inactive)
REMARK    1  A    between atoms: O_1  and  C_22
REMARK    2  A    between atoms: C_3  and  C_9
REMARK    3  A    between atoms: C_3  and  C_10
REMARK    4  A    between atoms: C_6  and  C_11
REMARK    5  A    between atoms: C_8  and  C_12
REMARK    6  A    between atoms: C_13  and  C_14
REMARK    7  A    between atoms: C_14  and  C_15
REMARK    8  A    between atoms: C_16  and  C_17
REMARK    9  A    between atoms: C_18  and  C_19
REMARK   10  A    between atoms: C_19  and  C_20
REMARK   11  A    between atoms: C_21  and  C_22
REMARK                            x       y       z     vdW  Elec       q    Type
REMARK                         _______ _______ _______ _____ _____    ______ ____
ROOT
ATOM      1  C   UNL     1       3.728   3.700  -0.573  0.00  0.00    +0.000 C 
ATOM      2  C   UNL     1       2.218   3.640  -0.614  0.00  0.00    +0.000 C 
ATOM      3  C   UNL     1       4.388   4.076  -1.691  0.00  0.00    +0.000 C 
ENDROOT
BRANCH   1   5
ATOM      4  C   UNL     1       3.776   3.142   1.867  0.00  0.00    +0.000 C 
ATOM      5  C   UNL     1       4.383   3.344   0.686  0.00  0.00    +0.000 C 
BRANCH   4   9
ATOM      6  C   UNL     1       4.322   3.769   4.266  0.00  0.00    +0.000 C 
ATOM      7  C   UNL     1       5.342   3.476   5.401  0.00  0.00    +0.000 C 
ATOM      8  C   UNL     1       5.460   1.992   5.700  0.00  0.00    +0.000 C 
ATOM      9  C   UNL     1       4.494   2.790   3.081  0.00  0.00    +0.000 C 
ATOM     10  C   UNL     1       5.931   1.247   4.460  0.00  0.00    +0.000 C 
ATOM     11  C   UNL     1       5.247   1.665   3.174  0.00  0.00    +0.000 C 
ATOM     12  C   UNL     1       4.560   5.240   3.847  0.00  0.00    +0.000 C 
ATOM     13  C   UNL     1       2.890   3.646   4.835  0.00  0.00    +0.000 C 
ATOM     14  C   UNL     1       5.513   0.685   2.054  0.00  0.00    +0.000 C 
ENDBRANCH   4   9
ENDBRANCH   1   5
BRANCH   3  15
ATOM     15  C   UNL     1       3.839   4.447  -2.982  0.00  0.00    +0.000 C 
ATOM     16  C   UNL     1       3.075   5.540  -3.156  0.00  0.00    +0.000 C 
BRANCH  16  17
ATOM     17  C   UNL     1       2.469   6.001  -4.410  0.00  0.00    +0.000 C 
ATOM     18  C   UNL     1       3.305   6.886  -5.298  0.00  0.00    +0.000 C 
ATOM     19  C   UNL     1       1.202   5.621  -4.674  0.00  0.00    +0.000 C 
BRANCH  19  21
ATOM     20  O   UNL     1      -0.764   5.033  -3.393  0.00  0.00    +0.000 OA
ATOM     21  C   UNL     1       0.351   4.774  -3.808  0.00  0.00    +0.000 C 
BRANCH  21  22
ATOM     22  O   UNL     1       1.014   3.618  -3.560  0.00  0.00    +0.000 OA
ATOM     23  H   UNL     1       1.871   3.578  -4.035  0.00  0.00    +0.000 HD
ENDBRANCH  21  22
ENDBRANCH  19  21
ENDBRANCH  16  17
ENDBRANCH   3  15
TORSDOF 6
ENDMDL
MODEL 8
REMARK VINA RESULT:    -6.273      4.827      9.038
REMARK INTER + INTRA:          -9.246
REMARK INTER:                  -8.063
REMARK INTRA:                  -1.183
REMARK CONF_INDEPENDENT:        1.790
REMARK UNBOUND:                 1.183
REMARK  Name = 5282379
REMARK  11 active torsions:
REMARK  status: ('A' for Active; 'I' for Inactive)
REMARK    1  A    between atoms: O_1  and  C_22
REMARK    2  A    between atoms: C_3  and  C_9
REMARK    3  A    between atoms: C_3  and  C_10
REMARK    4  A    between atoms: C_6  and  C_11
REMARK    5  A    between atoms: C_8  and  C_12
REMARK    6  A    between atoms: C_13  and  C_14
REMARK    7  A    between atoms: C_14  and  C_15
REMARK    8  A    between atoms: C_16  and  C_17
REMARK    9  A    between atoms: C_18  and  C_19
REMARK   10  A    between atoms: C_19  and  C_20
REMARK   11  A    between atoms: C_21  and  C_22
REMARK                            x       y       z     vdW  Elec       q    Type
REMARK                         _______ _______ _______ _____ _____    ______ ____
ROOT
ATOM      1  C   UNL     1       2.029   4.404   2.667  0.00  0.00    +0.000 C 
ATOM      2  C   UNL     1       1.074   4.366   3.838  0.00  0.00    +0.000 C 
ATOM      3  C   UNL     1       3.315   4.042   2.874  0.00  0.00    +0.000 C 
ENDROOT
BRANCH   1   5
ATOM      4  C   UNL     1       1.484   4.115   0.241  0.00  0.00    +0.000 C 
ATOM      5  C   UNL     1       1.494   4.834   1.376  0.00  0.00    +0.000 C 
BRANCH   4   9
ATOM      6  C   UNL     1       1.970   4.970  -2.100  0.00  0.00    +0.000 C 
ATOM      7  C   UNL     1       1.318   5.756  -3.271  0.00  0.00    +0.000 C 
ATOM      8  C   UNL     1      -0.005   5.149  -3.704  0.00  0.00    +0.000 C 
ATOM      9  C   UNL     1       0.934   4.610  -1.010  0.00  0.00    +0.000 C 
ATOM     10  C   UNL     1      -0.988   5.162  -2.543  0.00  0.00    +0.000 C 
ATOM     11  C   UNL     1      -0.403   4.727  -1.215  0.00  0.00    +0.000 C 
ATOM     12  C   UNL     1       3.099   5.878  -1.553  0.00  0.00    +0.000 C 
ATOM     13  C   UNL     1       2.607   3.676  -2.657  0.00  0.00    +0.000 C 
ATOM     14  C   UNL     1      -1.480   4.449  -0.192  0.00  0.00    +0.000 C 
ENDBRANCH   4   9
ENDBRANCH   1   5
BRANCH   3  15
ATOM     15  C   UNL     1       3.943   3.603   4.106  0.00  0.00    +0.000 C 
ATOM     16  C   UNL     1       5.246   3.277   4.177  0.00  0.00    +0.000 C 
BRANCH  16  17
ATOM     17  C   UNL     1       5.975   2.818   5.365  0.00  0.00    +0.000 C 
ATOM     18  C   UNL     1       6.555   1.428   5.326  0.00  0.00    +0.000 C 
ATOM     19  C   UNL     1       6.057   3.658   6.417  0.00  0.00    +0.000 C 
BRANCH  19  21
ATOM     20  O   UNL     1       5.999   6.061   6.153  0.00  0.00    +0.000 OA
ATOM     21  C   UNL     1       5.475   5.017   6.492  0.00  0.00    +0.000 C 
BRANCH  21  22
ATOM     22  O   UNL     1       4.218   4.914   6.989  0.00  0.00    +0.000 OA
ATOM     23  H   UNL     1       4.053   4.033   7.389  0.00  0.00    +0.000 HD
ENDBRANCH  21  22
ENDBRANCH  19  21
ENDBRANCH  16  17
ENDBRANCH   3  15
TORSDOF 6
ENDMDL
MODEL 9
REMARK VINA RESULT:    -6.257      2.095      2.717
REMARK INTER + INTRA:          -9.270
REMARK INTER:                  -8.046
REMARK INTRA:                  -1.223
REMARK CONF_INDEPENDENT:        1.790
REMARK UNBOUND:                 1.223
REMARK  Name = 5282379
REMARK  11 active torsions:
REMARK  status: ('A' for Active; 'I' for Inactive)
REMARK    1  A    between atoms: O_1  and  C_22
REMARK    2  A    between atoms: C_3  and  C_9
REMARK    3  A    between atoms: C_3  and  C_10
REMARK    4  A    between atoms: C_6  and  C_11
REMARK    5  A    between atoms: C_8  and  C_12
REMARK    6  A    between atoms: C_13  and  C_14
REMARK    7  A    between atoms: C_14  and  C_15
REMARK    8  A    between atoms: C_16  and  C_17
REMARK    9  A    between atoms: C_18  and  C_19
REMARK   10  A    between atoms: C_19  and  C_20
REMARK   11  A    between atoms: C_21  and  C_22
REMARK                            x       y       z     vdW  Elec       q    Type
REMARK                         _______ _______ _______ _____ _____    ______ ____
ROOT
ATOM      1  C   UNL     1       3.537   3.849  -1.609  0.00  0.00    +0.000 C 
ATOM      2  C   UNL     1       4.319   4.782  -2.505  0.00  0.00    +0.000 C 
ATOM      3  C   UNL     1       2.269   3.536  -1.957  0.00  0.00    +0.000 C 
ENDROOT
BRANCH   1   5
ATOM      4  C   UNL     1       3.674   2.541   0.522  0.00  0.00    +0.000 C 
ATOM      5  C   UNL     1       4.211   3.340  -0.415  0.00  0.00    +0.000 C 
BRANCH   4   9
ATOM      6  C   UNL     1       5.527   1.047   1.404  0.00  0.00    +0.000 C 
ATOM      7  C   UNL     1       6.048   0.394   2.714  0.00  0.00    +0.000 C 
ATOM      8  C   UNL     1       6.264   1.414   3.818  0.00  0.00    +0.000 C 
ATOM      9  C   UNL     1       4.407   2.075   1.687  0.00  0.00    +0.000 C 
ATOM     10  C   UNL     1       4.953   2.112   4.146  0.00  0.00    +0.000 C 
ATOM     11  C   UNL     1       4.140   2.529   2.938  0.00  0.00    +0.000 C 
ATOM     12  C   UNL     1       5.037  -0.119   0.512  0.00  0.00    +0.000 C 
ATOM     13  C   UNL     1       6.705   1.750   0.691  0.00  0.00    +0.000 C 
ATOM     14  C   UNL     1       3.033   3.488   3.311  0.00  0.00    +0.000 C 
ENDBRANCH   4   9
ENDBRANCH   1   5
BRANCH   3  15
ATOM     15  C   UNL     1       1.513   3.982  -3.112  0.00  0.00    +0.000 C 
ATOM     16  C   UNL     1       1.329   5.283  -3.398  0.00  0.00    +0.000 C 
BRANCH  16  17
ATOM     17  C   UNL     1       0.581   5.838  -4.531  0.00  0.00    +0.000 C 
ATOM     18  C   UNL     1      -0.923   5.843  -4.431  0.00  0.00    +0.000 C 
ATOM     19  C   UNL     1       1.284   6.285  -5.592  0.00  0.00    +0.000 C 
BRANCH  19  21
ATOM     20  O   UNL     1       3.572   6.753  -4.963  0.00  0.00    +0.000 OA
ATOM     21  C   UNL     1       2.758   6.268  -5.727  0.00  0.00    +0.000 C 
BRANCH  21  22
ATOM     22  O   UNL     1       3.074   5.588  -6.856  0.00  0.00    +0.000 OA
ATOM     23  H   UNL     1       2.459   4.840  -7.018  0.00  0.00    +0.000 HD
ENDBRANCH  21  22
ENDBRANCH  19  21
ENDBRANCH  16  17
ENDBRANCH   3  15
TORSDOF 6
ENDMDL
