MODEL 1
REMARK VINA RESULT:    -8.407      0.000      0.000
REMARK INTER + INTRA:         -11.664
REMARK INTER:                 -10.197
REMARK INTRA:                  -1.467
REMARK CONF_INDEPENDENT:        1.790
REMARK UNBOUND:                 1.467
REMARK  Name = 449171
REMARK  11 active torsions:
REMARK  status: ('A' for Active; 'I' for Inactive)
REMARK    1  A    between atoms: O_1  and  C_22
REMARK    2  A    between atoms: C_3  and  C_9
REMARK    3  A    between atoms: C_3  and  C_10
REMARK    4  A    between atoms: C_6  and  C_11
REMARK    5  A    between atoms: C_8  and  C_12
REMARK    6  A    between atoms: C_13  and  C_14
REMARK    7  A    between atoms: C_14  and  C_15
REMARK    8  A    between atoms: C_16  and  C_17
REMARK    9  A    between atoms: C_18  and  C_19
REMARK   10  A    between atoms: C_19  and  C_20
REMARK   11  A    between atoms: C_21  and  C_22
REMARK                            x       y       z     vdW  Elec       q    Type
REMARK                         _______ _______ _______ _____ _____    ______ ____
ROOT
ATOM      1  C   UNL     1       4.917   3.295   5.167  0.00  0.00    +0.000 C 
ATOM      2  C   UNL     1       6.351   3.276   5.644  0.00  0.00    +0.000 C 
ATOM      3  C   UNL     1       3.979   3.842   5.971  0.00  0.00    +0.000 C 
ENDROOT
BRANCH   1   5
ATOM      4  C   UNL     1       5.507   2.593   2.838  0.00  0.00    +0.000 C 
ATOM      5  C   UNL     1       4.637   2.715   3.853  0.00  0.00    +0.000 C 
BRANCH   4   9
ATOM      6  C   UNL     1       4.518   2.970   0.529  0.00  0.00    +0.000 C 
ATOM      7  C   UNL     1       4.447   2.334  -0.887  0.00  0.00    +0.000 C 
ATOM      8  C   UNL     1       3.961   0.896  -0.848  0.00  0.00    +0.000 C 
ATOM      9  C   UNL     1       5.155   2.004   1.556  0.00  0.00    +0.000 C 
ATOM     10  C   UNL     1       4.907   0.047  -0.013  0.00  0.00    +0.000 C 
ATOM     11  C   UNL     1       5.349   0.688   1.288  0.00  0.00    +0.000 C 
ATOM     12  C   UNL     1       3.087   3.339   0.985  0.00  0.00    +0.000 C 
ATOM     13  C   UNL     1       5.337   4.275   0.370  0.00  0.00    +0.000 C 
ATOM     14  C   UNL     1       6.011  -0.312   2.209  0.00  0.00    +0.000 C 
ENDBRANCH   4   9
ENDBRANCH   1   5
BRANCH   3  15
ATOM     15  C   UNL     1       2.552   3.973   5.736  0.00  0.00    +0.000 C 
ATOM     16  C   UNL     1       2.047   4.348   4.547  0.00  0.00    +0.000 C 
BRANCH  16  17
ATOM     17  C   UNL     1       0.630   4.517   4.206  0.00  0.00    +0.000 C 
ATOM     18  C   UNL     1      -0.367   3.683   4.969  0.00  0.00    +0.000 C 
ATOM     19  C   UNL     1       0.317   5.385   3.223  0.00  0.00    +0.000 C 
BRANCH  19  21
ATOM     20  O   UNL     1      -1.924   6.285   3.336  0.00  0.00    +0.000 OA
ATOM     21  C   UNL     1      -1.047   5.691   2.738  0.00  0.00    +0.000 C 
BRANCH  21  22
ATOM     22  O   UNL     1      -1.167   5.213   1.475  0.00  0.00    +0.000 OA
ATOM     23  H   UNL     1      -0.575   4.448   1.314  0.00  0.00    +0.000 HD
ENDBRANCH  21  22
ENDBRANCH  19  21
ENDBRANCH  16  17
ENDBRANCH   3  15
TORSDOF 6
ENDMDL
MODEL 2
REMARK VINA RESULT:    -8.364      0.682      2.083
REMARK INTER + INTRA:         -11.646
REMARK INTER:                 -10.153
REMARK INTRA:                  -1.492
REMARK CONF_INDEPENDENT:        1.790
REMARK UNBOUND:                 1.492
REMARK  Name = 449171
REMARK  11 active torsions:
REMARK  status: ('A' for Active; 'I' for Inactive)
REMARK    1  A    between atoms: O_1  and  C_22
REMARK    2  A    between atoms: C_3  and  C_9
REMARK    3  A    between atoms: C_3  and  C_10
REMARK    4  A    between atoms: C_6  and  C_11
REMARK    5  A    between atoms: C_8  and  C_12
REMARK    6  A    between atoms: C_13  and  C_14
REMARK    7  A    between atoms: C_14  and  C_15
REMARK    8  A    between atoms: C_16  and  C_17
REMARK    9  A    between atoms: C_18  and  C_19
REMARK   10  A    between atoms: C_19  and  C_20
REMARK   11  A    between atoms: C_21  and  C_22
REMARK                            x       y       z     vdW  Elec       q    Type
REMARK                         _______ _______ _______ _____ _____    ______ ____
ROOT
ATOM      1  C   UNL     1       4.913   3.090   5.149  0.00  0.00    +0.000 C 
ATOM      2  C   UNL     1       6.342   3.083   5.642  0.00  0.00    +0.000 C 
ATOM      3  C   UNL     1       3.966   3.649   5.933  0.00  0.00    +0.000 C 
ENDROOT
BRANCH   1   5
ATOM      4  C   UNL     1       4.932   3.025   2.646  0.00  0.00    +0.000 C 
ATOM      5  C   UNL     1       4.649   2.486   3.843  0.00  0.00    +0.000 C 
BRANCH   4   9
ATOM      6  C   UNL     1       5.549   1.163   1.033  0.00  0.00    +0.000 C 
ATOM      7  C   UNL     1       4.985   0.350  -0.165  0.00  0.00    +0.000 C 
ATOM      8  C   UNL     1       4.501   1.247  -1.291  0.00  0.00    +0.000 C 
ATOM      9  C   UNL     1       4.638   2.363   1.386  0.00  0.00    +0.000 C 
ATOM     10  C   UNL     1       3.388   2.156  -0.792  0.00  0.00    +0.000 C 
ATOM     11  C   UNL     1       3.646   2.785   0.562  0.00  0.00    +0.000 C 
ATOM     12  C   UNL     1       6.962   1.677   0.671  0.00  0.00    +0.000 C 
ATOM     13  C   UNL     1       5.675   0.161   2.207  0.00  0.00    +0.000 C 
ATOM     14  C   UNL     1       2.678   3.910   0.851  0.00  0.00    +0.000 C 
ENDBRANCH   4   9
ENDBRANCH   1   5
BRANCH   3  15
ATOM     15  C   UNL     1       2.541   3.772   5.680  0.00  0.00    +0.000 C 
ATOM     16  C   UNL     1       2.051   4.368   4.578  0.00  0.00    +0.000 C 
BRANCH  16  17
ATOM     17  C   UNL     1       0.637   4.551   4.230  0.00  0.00    +0.000 C 
ATOM     18  C   UNL     1      -0.368   3.699   4.961  0.00  0.00    +0.000 C 
ATOM     19  C   UNL     1       0.335   5.447   3.269  0.00  0.00    +0.000 C 
BRANCH  19  21
ATOM     20  O   UNL     1      -1.865   6.447   3.343  0.00  0.00    +0.000 OA
ATOM     21  C   UNL     1      -1.024   5.770   2.782  0.00  0.00    +0.000 C 
BRANCH  21  22
ATOM     22  O   UNL     1      -1.186   5.199   1.563  0.00  0.00    +0.000 OA
ATOM     23  H   UNL     1      -0.562   4.456   1.420  0.00  0.00    +0.000 HD
ENDBRANCH  21  22
ENDBRANCH  19  21
ENDBRANCH  16  17
ENDBRANCH   3  15
TORSDOF 6
ENDMDL
MODEL 3
REMARK VINA RESULT:    -8.027      2.423      4.220
REMARK INTER + INTRA:         -11.382
REMARK INTER:                  -9.817
REMARK INTRA:                  -1.565
REMARK CONF_INDEPENDENT:        1.790
REMARK UNBOUND:                 1.565
REMARK  Name = 449171
REMARK  11 active torsions:
REMARK  status: ('A' for Active; 'I' for Inactive)
REMARK    1  A    between atoms: O_1  and  C_22
REMARK    2  A    between atoms: C_3  and  C_9
REMARK    3  A    between atoms: C_3  and  C_10
REMARK    4  A    between atoms: C_6  and  C_11
REMARK    5  A    between atoms: C_8  and  C_12
REMARK    6  A    between atoms: C_13  and  C_14
REMARK    7  A    between atoms: C_14  and  C_15
REMARK    8  A    between atoms: C_16  and  C_17
REMARK    9  A    between atoms: C_18  and  C_19
REMARK   10  A    between atoms: C_19  and  C_20
REMARK   11  A    between atoms: C_21  and  C_22
REMARK                            x       y       z     vdW  Elec       q    Type
REMARK                         _______ _______ _______ _____ _____    ______ ____
ROOT
ATOM      1  C   UNL     1       2.330   4.408  -0.088  0.00  0.00    +0.000 C 
ATOM      2  C   UNL     1       2.030   4.645  -1.550  0.00  0.00    +0.000 C 
ATOM      3  C   UNL     1       1.835   5.278   0.819  0.00  0.00    +0.000 C 
ENDROOT
BRANCH   1   5
ATOM      4  C   UNL     1       4.230   3.230   1.039  0.00  0.00    +0.000 C 
ATOM      5  C   UNL     1       3.143   3.240   0.252  0.00  0.00    +0.000 C 
BRANCH   4   9
ATOM      6  C   UNL     1       5.402   1.180   0.104  0.00  0.00    +0.000 C 
ATOM      7  C   UNL     1       6.442   0.091   0.483  0.00  0.00    +0.000 C 
ATOM      8  C   UNL     1       6.078  -0.630   1.768  0.00  0.00    +0.000 C 
ATOM      9  C   UNL     1       4.990   2.026   1.332  0.00  0.00    +0.000 C 
ATOM     10  C   UNL     1       6.013   0.359   2.922  0.00  0.00    +0.000 C 
ATOM     11  C   UNL     1       5.296   1.656   2.601  0.00  0.00    +0.000 C 
ATOM     12  C   UNL     1       4.151   0.494  -0.493  0.00  0.00    +0.000 C 
ATOM     13  C   UNL     1       6.067   2.039  -1.000  0.00  0.00    +0.000 C 
ATOM     14  C   UNL     1       4.982   2.446   3.851  0.00  0.00    +0.000 C 
ENDBRANCH   4   9
ENDBRANCH   1   5
BRANCH   3  15
ATOM     15  C   UNL     1       1.987   5.262   2.264  0.00  0.00    +0.000 C 
ATOM     16  C   UNL     1       1.512   4.264   3.030  0.00  0.00    +0.000 C 
BRANCH  16  17
ATOM     17  C   UNL     1       1.606   4.154   4.490  0.00  0.00    +0.000 C 
ATOM     18  C   UNL     1       0.367   3.715   5.229  0.00  0.00    +0.000 C 
ATOM     19  C   UNL     1       2.779   4.473   5.072  0.00  0.00    +0.000 C 
BRANCH  19  21
ATOM     20  O   UNL     1       2.262   4.352   7.432  0.00  0.00    +0.000 OA
ATOM     21  C   UNL     1       3.068   4.427   6.523  0.00  0.00    +0.000 C 
BRANCH  21  22
ATOM     22  O   UNL     1       4.412   4.457   6.690  0.00  0.00    +0.000 OA
ATOM     23  H   UNL     1       4.731   3.713   7.244  0.00  0.00    +0.000 HD
ENDBRANCH  21  22
ENDBRANCH  19  21
ENDBRANCH  16  17
ENDBRANCH   3  15
TORSDOF 6
ENDMDL
MODEL 4
REMARK VINA RESULT:    -7.985      2.293      5.818
REMARK INTER + INTRA:         -11.421
REMARK INTER:                  -9.775
REMARK INTRA:                  -1.645
REMARK CONF_INDEPENDENT:        1.790
REMARK UNBOUND:                 1.645
REMARK  Name = 449171
REMARK  11 active torsions:
REMARK  status: ('A' for Active; 'I' for Inactive)
REMARK    1  A    between atoms: O_1  and  C_22
REMARK    2  A    between atoms: C_3  and  C_9
REMARK    3  A    between atoms: C_3  and  C_10
REMARK    4  A    between atoms: C_6  and  C_11
REMARK    5  A    between atoms: C_8  and  C_12
REMARK    6  A    between atoms: C_13  and  C_14
REMARK    7  A    between atoms: C_14  and  C_15
REMARK    8  A    between atoms: C_16  and  C_17
REMARK    9  A    between atoms: C_18  and  C_19
REMARK   10  A    between atoms: C_19  and  C_20
REMARK   11  A    between atoms: C_21  and  C_22
REMARK                            x       y       z     vdW  Elec       q    Type
REMARK                         _______ _______ _______ _____ _____    ______ ____
ROOT
ATOM      1  C   UNL     1       6.009   0.093   1.501  0.00  0.00    +0.000 C 
ATOM      2  C   UNL     1       7.111  -0.772   2.069  0.00  0.00    +0.000 C 
ATOM      3  C   UNL     1       5.813   0.090   0.165  0.00  0.00    +0.000 C 
ENDROOT
BRANCH   1   5
ATOM      4  C   UNL     1       5.298   2.210   2.633  0.00  0.00    +0.000 C 
ATOM      5  C   UNL     1       5.219   0.883   2.447  0.00  0.00    +0.000 C 
BRANCH   4   9
ATOM      6  C   UNL     1       4.972   2.884   5.060  0.00  0.00    +0.000 C 
ATOM      7  C   UNL     1       4.210   3.903   5.952  0.00  0.00    +0.000 C 
ATOM      8  C   UNL     1       2.714   3.889   5.692  0.00  0.00    +0.000 C 
ATOM      9  C   UNL     1       4.477   2.928   3.595  0.00  0.00    +0.000 C 
ATOM     10  C   UNL     1       2.433   4.252   4.242  0.00  0.00    +0.000 C 
ATOM     11  C   UNL     1       3.340   3.574   3.235  0.00  0.00    +0.000 C 
ATOM     12  C   UNL     1       4.763   1.462   5.633  0.00  0.00    +0.000 C 
ATOM     13  C   UNL     1       6.472   3.248   5.181  0.00  0.00    +0.000 C 
ATOM     14  C   UNL     1       2.813   3.712   1.824  0.00  0.00    +0.000 C 
ENDBRANCH   4   9
ENDBRANCH   1   5
BRANCH   3  15
ATOM     15  C   UNL     1       4.830   0.831  -0.606  0.00  0.00    +0.000 C 
ATOM     16  C   UNL     1       4.882   2.167  -0.751  0.00  0.00    +0.000 C 
BRANCH  16  17
ATOM     17  C   UNL     1       3.941   3.009  -1.499  0.00  0.00    +0.000 C 
ATOM     18  C   UNL     1       4.492   4.256  -2.142  0.00  0.00    +0.000 C 
ATOM     19  C   UNL     1       2.649   2.625  -1.542  0.00  0.00    +0.000 C 
BRANCH  19  21
ATOM     20  O   UNL     1       1.661   4.282  -3.001  0.00  0.00    +0.000 OA
ATOM     21  C   UNL     1       1.556   3.337  -2.241  0.00  0.00    +0.000 C 
BRANCH  21  22
ATOM     22  O   UNL     1       0.383   2.742  -1.914  0.00  0.00    +0.000 OA
ATOM     23  H   UNL     1       0.452   1.764  -1.922  0.00  0.00    +0.000 HD
ENDBRANCH  21  22
ENDBRANCH  19  21
ENDBRANCH  16  17
ENDBRANCH   3  15
TORSDOF 6
ENDMDL
MODEL 5
REMARK VINA RESULT:    -7.814      2.888      5.987
REMARK INTER + INTRA:         -11.151
REMARK INTER:                  -9.604
REMARK INTRA:                  -1.547
REMARK CONF_INDEPENDENT:        1.790
REMARK UNBOUND:                 1.547
REMARK  Name = 449171
REMARK  11 active torsions:
REMARK  status: ('A' for Active; 'I' for Inactive)
REMARK    1  A    between atoms: O_1  and  C_22
REMARK    2  A    between atoms: C_3  and  C_9
REMARK    3  A    between atoms: C_3  and  C_10
REMARK    4  A    between atoms: C_6  and  C_11
REMARK    5  A    between atoms: C_8  and  C_12
REMARK    6  A    between atoms: C_13  and  C_14
REMARK    7  A    between atoms: C_14  and  C_15
REMARK    8  A    between atoms: C_16  and  C_17
REMARK    9  A    between atoms: C_18  and  C_19
REMARK   10  A    between atoms: C_19  and  C_20
REMARK   11  A    between atoms: C_21  and  C_22
REMARK                            x       y       z     vdW  Elec       q    Type
REMARK                         _______ _______ _______ _____ _____    ______ ____
ROOT
ATOM      1  C   UNL     1       6.152  -0.385   1.770  0.00  0.00    +0.000 C 
ATOM      2  C   UNL     1       6.814  -1.670   2.211  0.00  0.00    +0.000 C 
ATOM      3  C   UNL     1       5.366  -0.412   0.671  0.00  0.00    +0.000 C 
ENDROOT
BRANCH   1   5
ATOM      4  C   UNL     1       5.483   1.678   3.020  0.00  0.00    +0.000 C 
ATOM      5  C   UNL     1       6.406   0.813   2.570  0.00  0.00    +0.000 C 
BRANCH   4   9
ATOM      6  C   UNL     1       5.275   2.850   5.264  0.00  0.00    +0.000 C 
ATOM      7  C   UNL     1       5.913   3.986   6.111  0.00  0.00    +0.000 C 
ATOM      8  C   UNL     1       5.964   5.304   5.359  0.00  0.00    +0.000 C 
ATOM      9  C   UNL     1       5.812   2.852   3.813  0.00  0.00    +0.000 C 
ATOM     10  C   UNL     1       6.798   5.153   4.096  0.00  0.00    +0.000 C 
ATOM     11  C   UNL     1       6.523   3.890   3.306  0.00  0.00    +0.000 C 
ATOM     12  C   UNL     1       3.740   3.038   5.246  0.00  0.00    +0.000 C 
ATOM     13  C   UNL     1       5.602   1.530   6.005  0.00  0.00    +0.000 C 
ATOM     14  C   UNL     1       7.129   3.952   1.922  0.00  0.00    +0.000 C 
ENDBRANCH   4   9
ENDBRANCH   1   5
BRANCH   3  15
ATOM     15  C   UNL     1       4.633   0.682   0.058  0.00  0.00    +0.000 C 
ATOM     16  C   UNL     1       5.245   1.690  -0.589  0.00  0.00    +0.000 C 
BRANCH  16  17
ATOM     17  C   UNL     1       4.602   2.840  -1.235  0.00  0.00    +0.000 C 
ATOM     18  C   UNL     1       5.409   4.109  -1.345  0.00  0.00    +0.000 C 
ATOM     19  C   UNL     1       3.332   2.694  -1.664  0.00  0.00    +0.000 C 
BRANCH  19  21
ATOM     20  O   UNL     1       1.474   4.217  -1.941  0.00  0.00    +0.000 OA
ATOM     21  C   UNL     1       2.519   3.733  -2.334  0.00  0.00    +0.000 C 
BRANCH  21  22
ATOM     22  O   UNL     1       3.149   4.092  -3.479  0.00  0.00    +0.000 OA
ATOM     23  H   UNL     1       3.275   3.330  -4.084  0.00  0.00    +0.000 HD
ENDBRANCH  21  22
ENDBRANCH  19  21
ENDBRANCH  16  17
ENDBRANCH   3  15
TORSDOF 6
ENDMDL
MODEL 6
REMARK VINA RESULT:    -7.731      2.731      5.826
REMARK INTER + INTRA:         -11.205
REMARK INTER:                  -9.521
REMARK INTRA:                  -1.684
REMARK CONF_INDEPENDENT:        1.790
REMARK UNBOUND:                 1.684
REMARK  Name = 449171
REMARK  11 active torsions:
REMARK  status: ('A' for Active; 'I' for Inactive)
REMARK    1  A    between atoms: O_1  and  C_22
REMARK    2  A    between atoms: C_3  and  C_9
REMARK    3  A    between atoms: C_3  and  C_10
REMARK    4  A    between atoms: C_6  and  C_11
REMARK    5  A    between atoms: C_8  and  C_12
REMARK    6  A    between atoms: C_13  and  C_14
REMARK    7  A    between atoms: C_14  and  C_15
REMARK    8  A    between atoms: C_16  and  C_17
REMARK    9  A    between atoms: C_18  and  C_19
REMARK   10  A    between atoms: C_19  and  C_20
REMARK   11  A    between atoms: C_21  and  C_22
REMARK                            x       y       z     vdW  Elec       q    Type
REMARK                         _______ _______ _______ _____ _____    ______ ____
ROOT
ATOM      1  C   UNL     1       4.960   4.052   5.278  0.00  0.00    +0.000 C 
ATOM      2  C   UNL     1       5.311   4.463   6.689  0.00  0.00    +0.000 C 
ATOM      3  C   UNL     1       5.803   3.227   4.620  0.00  0.00    +0.000 C 
ENDROOT
BRANCH   1   5
ATOM      4  C   UNL     1       2.791   3.877   4.040  0.00  0.00    +0.000 C 
ATOM      5  C   UNL     1       3.717   4.578   4.714  0.00  0.00    +0.000 C 
BRANCH   4   9
ATOM      6  C   UNL     1       1.694   5.073   2.086  0.00  0.00    +0.000 C 
ATOM      7  C   UNL     1       0.300   5.415   1.492  0.00  0.00    +0.000 C 
ATOM      8  C   UNL     1      -0.600   6.109   2.499  0.00  0.00    +0.000 C 
ATOM      9  C   UNL     1       1.576   4.471   3.506  0.00  0.00    +0.000 C 
ATOM     10  C   UNL     1      -0.825   5.209   3.704  0.00  0.00    +0.000 C 
ATOM     11  C   UNL     1       0.421   4.517   4.217  0.00  0.00    +0.000 C 
ATOM     12  C   UNL     1       2.547   6.362   2.141  0.00  0.00    +0.000 C 
ATOM     13  C   UNL     1       2.353   4.089   1.088  0.00  0.00    +0.000 C 
ATOM     14  C   UNL     1       0.202   3.909   5.584  0.00  0.00    +0.000 C 
ENDBRANCH   4   9
ENDBRANCH   1   5
BRANCH   3  15
ATOM     15  C   UNL     1       5.684   2.701   3.271  0.00  0.00    +0.000 C 
ATOM     16  C   UNL     1       5.235   1.459   3.017  0.00  0.00    +0.000 C 
BRANCH  16  17
ATOM     17  C   UNL     1       5.082   0.830   1.700  0.00  0.00    +0.000 C 
ATOM     18  C   UNL     1       5.567  -0.589   1.554  0.00  0.00    +0.000 C 
ATOM     19  C   UNL     1       4.543   1.567   0.708  0.00  0.00    +0.000 C 
BRANCH  19  21
ATOM     20  O   UNL     1       3.455   0.336  -1.067  0.00  0.00    +0.000 OA
ATOM     21  C   UNL     1       4.309   1.113  -0.680  0.00  0.00    +0.000 C 
BRANCH  21  22
ATOM     22  O   UNL     1       5.205   1.732  -1.487  0.00  0.00    +0.000 OA
ATOM     23  H   UNL     1       5.761   1.091  -1.979  0.00  0.00    +0.000 HD
ENDBRANCH  21  22
ENDBRANCH  19  21
ENDBRANCH  16  17
ENDBRANCH   3  15
TORSDOF 6
ENDMDL
MODEL 7
REMARK VINA RESULT:    -7.647      1.554      5.015
REMARK INTER + INTRA:         -11.222
REMARK INTER:                  -9.436
REMARK INTRA:                  -1.785
REMARK CONF_INDEPENDENT:        1.790
REMARK UNBOUND:                 1.785
REMARK  Name = 449171
REMARK  11 active torsions:
REMARK  status: ('A' for Active; 'I' for Inactive)
REMARK    1  A    between atoms: O_1  and  C_22
REMARK    2  A    between atoms: C_3  and  C_9
REMARK    3  A    between atoms: C_3  and  C_10
REMARK    4  A    between atoms: C_6  and  C_11
REMARK    5  A    between atoms: C_8  and  C_12
REMARK    6  A    between atoms: C_13  and  C_14
REMARK    7  A    between atoms: C_14  and  C_15
REMARK    8  A    between atoms: C_16  and  C_17
REMARK    9  A    between atoms: C_18  and  C_19
REMARK   10  A    between atoms: C_19  and  C_20
REMARK   11  A    between atoms: C_21  and  C_22
REMARK                            x       y       z     vdW  Elec       q    Type
REMARK                         _______ _______ _______ _____ _____    ______ ____
ROOT
ATOM      1  C   UNL     1       3.696   3.103   1.029  0.00  0.00    +0.000 C 
ATOM      2  C   UNL     1       4.538   1.916   0.622  0.00  0.00    +0.000 C 
ATOM      3  C   UNL     1       2.765   3.559   0.162  0.00  0.00    +0.000 C 
ENDROOT
BRANCH   1   5
ATOM      4  C   UNL     1       3.435   3.256   3.514  0.00  0.00    +0.000 C 
ATOM      5  C   UNL     1       3.945   3.684   2.349  0.00  0.00    +0.000 C 
BRANCH   4   9
ATOM      6  C   UNL     1       2.609   4.785   5.367  0.00  0.00    +0.000 C 
ATOM      7  C   UNL     1       2.891   5.174   6.844  0.00  0.00    +0.000 C 
ATOM      8  C   UNL     1       4.335   5.588   7.065  0.00  0.00    +0.000 C 
ATOM      9  C   UNL     1       3.730   3.887   4.791  0.00  0.00    +0.000 C 
ATOM     10  C   UNL     1       5.267   4.439   6.709  0.00  0.00    +0.000 C 
ATOM     11  C   UNL     1       4.918   3.719   5.423  0.00  0.00    +0.000 C 
ATOM     12  C   UNL     1       2.496   6.075   4.521  0.00  0.00    +0.000 C 
ATOM     13  C   UNL     1       1.234   4.074   5.367  0.00  0.00    +0.000 C 
ATOM     14  C   UNL     1       6.044   2.821   4.961  0.00  0.00    +0.000 C 
ENDBRANCH   4   9
ENDBRANCH   1   5
BRANCH   3  15
ATOM     15  C   UNL     1       1.847   4.673   0.325  0.00  0.00    +0.000 C 
ATOM     16  C   UNL     1       1.081   4.824   1.420  0.00  0.00    +0.000 C 
BRANCH  16  17
ATOM     17  C   UNL     1       0.121   5.903   1.681  0.00  0.00    +0.000 C 
ATOM     18  C   UNL     1       0.510   7.292   1.243  0.00  0.00    +0.000 C 
ATOM     19  C   UNL     1      -1.028   5.586   2.311  0.00  0.00    +0.000 C 
BRANCH  19  21
ATOM     20  O   UNL     1      -2.242   7.150   3.700  0.00  0.00    +0.000 OA
ATOM     21  C   UNL     1      -2.113   6.528   2.661  0.00  0.00    +0.000 C 
BRANCH  21  22
ATOM     22  O   UNL     1      -2.957   6.616   1.605  0.00  0.00    +0.000 OA
ATOM     23  H   UNL     1      -3.367   5.751   1.389  0.00  0.00    +0.000 HD
ENDBRANCH  21  22
ENDBRANCH  19  21
ENDBRANCH  16  17
ENDBRANCH   3  15
TORSDOF 6
ENDMDL
MODEL 8
REMARK VINA RESULT:    -7.582      3.187      5.747
REMARK INTER + INTRA:         -11.128
REMARK INTER:                  -9.372
REMARK INTRA:                  -1.757
REMARK CONF_INDEPENDENT:        1.790
REMARK UNBOUND:                 1.757
REMARK  Name = 449171
REMARK  11 active torsions:
REMARK  status: ('A' for Active; 'I' for Inactive)
REMARK    1  A    between atoms: O_1  and  C_22
REMARK    2  A    between atoms: C_3  and  C_9
REMARK    3  A    between atoms: C_3  and  C_10
REMARK    4  A    between atoms: C_6  and  C_11
REMARK    5  A    between atoms: C_8  and  C_12
REMARK    6  A    between atoms: C_13  and  C_14
REMARK    7  A    between atoms: C_14  and  C_15
REMARK    8  A    between atoms: C_16  and  C_17
REMARK    9  A    between atoms: C_18  and  C_19
REMARK   10  A    between atoms: C_19  and  C_20
REMARK   11  A    between atoms: C_21  and  C_22
REMARK                            x       y       z     vdW  Elec       q    Type
REMARK                         _______ _______ _______ _____ _____    ______ ____
ROOT
ATOM      1  C   UNL     1       6.127  -0.407   1.744  0.00  0.00    +0.000 C 
ATOM      2  C   UNL     1       6.810  -1.671   2.211  0.00  0.00    +0.000 C 
ATOM      3  C   UNL     1       5.431  -0.442   0.587  0.00  0.00    +0.000 C 
ENDROOT
BRANCH   1   5
ATOM      4  C   UNL     1       5.280   1.619   2.947  0.00  0.00    +0.000 C 
ATOM      5  C   UNL     1       6.267   0.783   2.584  0.00  0.00    +0.000 C 
BRANCH   4   9
ATOM      6  C   UNL     1       5.723   4.118   3.035  0.00  0.00    +0.000 C 
ATOM      7  C   UNL     1       5.652   5.337   3.996  0.00  0.00    +0.000 C 
ATOM      8  C   UNL     1       6.414   5.096   5.287  0.00  0.00    +0.000 C 
ATOM      9  C   UNL     1       5.496   2.786   3.788  0.00  0.00    +0.000 C 
ATOM     10  C   UNL     1       5.829   3.900   6.023  0.00  0.00    +0.000 C 
ATOM     11  C   UNL     1       5.520   2.706   5.141  0.00  0.00    +0.000 C 
ATOM     12  C   UNL     1       7.112   4.096   2.354  0.00  0.00    +0.000 C 
ATOM     13  C   UNL     1       4.647   4.367   1.950  0.00  0.00    +0.000 C 
ATOM     14  C   UNL     1       5.255   1.461   5.957  0.00  0.00    +0.000 C 
ENDBRANCH   4   9
ENDBRANCH   1   5
BRANCH   3  15
ATOM     15  C   UNL     1       4.700   0.633  -0.061  0.00  0.00    +0.000 C 
ATOM     16  C   UNL     1       5.302   1.749  -0.510  0.00  0.00    +0.000 C 
BRANCH  16  17
ATOM     17  C   UNL     1       4.659   2.891  -1.170  0.00  0.00    +0.000 C 
ATOM     18  C   UNL     1       5.458   4.165  -1.275  0.00  0.00    +0.000 C 
ATOM     19  C   UNL     1       3.396   2.734  -1.614  0.00  0.00    +0.000 C 
BRANCH  19  21
ATOM     20  O   UNL     1       1.494   4.187  -1.963  0.00  0.00    +0.000 OA
ATOM     21  C   UNL     1       2.584   3.763  -2.301  0.00  0.00    +0.000 C 
BRANCH  21  22
ATOM     22  O   UNL     1       3.273   4.195  -3.385  0.00  0.00    +0.000 OA
ATOM     23  H   UNL     1       3.010   3.718  -4.201  0.00  0.00    +0.000 HD
ENDBRANCH  21  22
ENDBRANCH  19  21
ENDBRANCH  16  17
ENDBRANCH   3  15
TORSDOF 6
ENDMDL
MODEL 9
REMARK VINA RESULT:    -7.415      3.060      5.189
REMARK INTER + INTRA:         -11.024
REMARK INTER:                  -9.205
REMARK INTRA:                  -1.818
REMARK CONF_INDEPENDENT:        1.790
REMARK UNBOUND:                 1.818
REMARK  Name = 449171
REMARK  11 active torsions:
REMARK  status: ('A' for Active; 'I' for Inactive)
REMARK    1  A    between atoms: O_1  and  C_22
REMARK    2  A    between atoms: C_3  and  C_9
REMARK    3  A    between atoms: C_3  and  C_10
REMARK    4  A    between atoms: C_6  and  C_11
REMARK    5  A    between atoms: C_8  and  C_12
REMARK    6  A    between atoms: C_13  and  C_14
REMARK    7  A    between atoms: C_14  and  C_15
REMARK    8  A    between atoms: C_16  and  C_17
REMARK    9  A    between atoms: C_18  and  C_19
REMARK   10  A    between atoms: C_19  and  C_20
REMARK   11  A    between atoms: C_21  and  C_22
REMARK                            x       y       z     vdW  Elec       q    Type
REMARK                         _______ _______ _______ _____ _____    ______ ____
ROOT
ATOM      1  C   UNL     1       0.337   5.075   2.903  0.00  0.00    +0.000 C 
ATOM      2  C   UNL     1      -0.819   5.960   2.498  0.00  0.00    +0.000 C 
ATOM      3  C   UNL     1       0.605   4.929   4.219  0.00  0.00    +0.000 C 
ENDROOT
BRANCH   1   5
ATOM      4  C   UNL     1       2.423   4.506   1.640  0.00  0.00    +0.000 C 
ATOM      5  C   UNL     1       1.096   4.427   1.833  0.00  0.00    +0.000 C 
BRANCH   4   9
ATOM      6  C   UNL     1       4.262   2.889   0.967  0.00  0.00    +0.000 C 
ATOM      7  C   UNL     1       4.735   2.004  -0.219  0.00  0.00    +0.000 C 
ATOM      8  C   UNL     1       4.880   2.797  -1.506  0.00  0.00    +0.000 C 
ATOM      9  C   UNL     1       3.109   3.832   0.550  0.00  0.00    +0.000 C 
ATOM     10  C   UNL     1       3.542   3.407  -1.896  0.00  0.00    +0.000 C 
ATOM     11  C   UNL     1       2.777   4.037  -0.750  0.00  0.00    +0.000 C 
ATOM     12  C   UNL     1       5.457   3.727   1.476  0.00  0.00    +0.000 C 
ATOM     13  C   UNL     1       3.836   1.908   2.088  0.00  0.00    +0.000 C 
ATOM     14  C   UNL     1       1.636   4.897  -1.244  0.00  0.00    +0.000 C 
ENDBRANCH   4   9
ENDBRANCH   1   5
BRANCH   3  15
ATOM     15  C   UNL     1       1.652   4.142   4.847  0.00  0.00    +0.000 C 
ATOM     16  C   UNL     1       2.922   4.575   4.944  0.00  0.00    +0.000 C 
BRANCH  16  17
ATOM     17  C   UNL     1       4.051   3.860   5.550  0.00  0.00    +0.000 C 
ATOM     18  C   UNL     1       4.984   4.659   6.424  0.00  0.00    +0.000 C 
ATOM     19  C   UNL     1       4.193   2.549   5.267  0.00  0.00    +0.000 C 
BRANCH  19  21
ATOM     20  O   UNL     1       6.458   1.760   5.575  0.00  0.00    +0.000 OA
ATOM     21  C   UNL     1       5.261   1.663   5.779  0.00  0.00    +0.000 C 
BRANCH  21  22
ATOM     22  O   UNL     1       4.689   0.709   6.553  0.00  0.00    +0.000 OA
ATOM     23  H   UNL     1       4.000   1.081   7.144  0.00  0.00    +0.000 HD
ENDBRANCH  21  22
ENDBRANCH  19  21
ENDBRANCH  16  17
ENDBRANCH   3  15
TORSDOF 6
ENDMDL
