MODEL 1
REMARK VINA RESULT:    -8.292      0.000      0.000
REMARK INTER + INTRA:         -12.949
REMARK INTER:                 -11.275
REMARK INTRA:                  -1.674
REMARK CONF_INDEPENDENT:        2.983
REMARK UNBOUND:                 1.674
REMARK  Name = 6437836
REMARK  15 active torsions:
REMARK  status: ('A' for Active; 'I' for Inactive)
REMARK    1  A    between atoms: O_1  and  C_22
REMARK    2  A    between atoms: C_3  and  C_4
REMARK    3  A    between atoms: C_3  and  C_7
REMARK    4  A    between atoms: C_4  and  C_10
REMARK    5  A    between atoms: C_5  and  C_6
REMARK    6  A    between atoms: C_5  and  C_8
REMARK    7  A    between atoms: C_6  and  C_9
REMARK    8  A    between atoms: C_7  and  C_11
REMARK    9  A    between atoms: C_9  and  C_13
REMARK   10  A    between atoms: C_12  and  C_15
REMARK   11  A    between atoms: C_12  and  C_16
REMARK   12  A    between atoms: C_14  and  C_17
REMARK   13  A    between atoms: C_18  and  C_19
REMARK   14  A    between atoms: C_19  and  C_20
REMARK   15  A    between atoms: C_21  and  C_22
REMARK                            x       y       z     vdW  Elec       q    Type
REMARK                         _______ _______ _______ _____ _____    ______ ____
ROOT
ATOM      1  C   UNL     1       3.369   5.152   6.312  0.00  0.00    +0.000 C 
ATOM      2  C   UNL     1       3.088   6.618   6.099  0.00  0.00    +0.000 C 
ATOM      3  C   UNL     1       2.541   4.229   5.780  0.00  0.00    +0.000 C 
ENDROOT
BRANCH   3   4
ATOM      4  C   UNL     1       1.354   4.474   4.986  0.00  0.00    +0.000 C 
ATOM      5  C   UNL     1       1.402   5.012   3.755  0.00  0.00    +0.000 C 
BRANCH   5   6
ATOM      6  C   UNL     1       0.267   5.267   2.862  0.00  0.00    +0.000 C 
ATOM      7  C   UNL     1       0.552   5.321   1.383  0.00  0.00    +0.000 C 
ATOM      8  C   UNL     1      -0.943   5.465   3.423  0.00  0.00    +0.000 C 
BRANCH   8  10
ATOM      9  O   UNL     1      -3.018   6.608   2.934  0.00  0.00    +0.000 OA
ATOM     10  C   UNL     1      -2.203   5.736   2.694  0.00  0.00    +0.000 C 
BRANCH  10  11
ATOM     11  O   UNL     1      -2.302   4.852   1.673  0.00  0.00    +0.000 OA
ATOM     12  H   UNL     1      -2.831   4.063   1.920  0.00  0.00    +0.000 HD
ENDBRANCH  10  11
ENDBRANCH   8  10
ENDBRANCH   5   6
ENDBRANCH   3   4
BRANCH   1  13
ATOM     13  C   UNL     1       4.581   4.850   7.171  0.00  0.00    +0.000 C 
BRANCH  13  14
ATOM     14  C   UNL     1       5.920   4.932   6.422  0.00  0.00    +0.000 C 
BRANCH  14  16
ATOM     15  C   UNL     1       5.777   2.995   4.753  0.00  0.00    +0.000 C 
ATOM     16  C   UNL     1       5.864   4.305   5.056  0.00  0.00    +0.000 C 
ATOM     17  C   UNL     1       5.716   1.891   5.774  0.00  0.00    +0.000 C 
BRANCH  15  18
ATOM     18  C   UNL     1       5.676   2.555   3.303  0.00  0.00    +0.000 C 
BRANCH  18  19
ATOM     19  C   UNL     1       4.312   1.989   2.888  0.00  0.00    +0.000 C 
BRANCH  19  20
ATOM     20  C   UNL     1       4.156   1.816   1.402  0.00  0.00    +0.000 C 
ATOM     21  C   UNL     1       4.571   0.780   0.650  0.00  0.00    +0.000 C 
ATOM     22  C   UNL     1       5.296  -0.430   1.170  0.00  0.00    +0.000 C 
ATOM     23  C   UNL     1       4.331   0.769  -0.836  0.00  0.00    +0.000 C 
ENDBRANCH  19  20
ENDBRANCH  18  19
ENDBRANCH  15  18
ENDBRANCH  14  16
ENDBRANCH  13  14
ENDBRANCH   1  13
TORSDOF 10
ENDMDL
MODEL 2
REMARK VINA RESULT:    -7.916      1.613      3.414
REMARK INTER + INTRA:         -12.616
REMARK INTER:                 -10.899
REMARK INTRA:                  -1.717
REMARK CONF_INDEPENDENT:        2.983
REMARK UNBOUND:                 1.717
REMARK  Name = 6437836
REMARK  15 active torsions:
REMARK  status: ('A' for Active; 'I' for Inactive)
REMARK    1  A    between atoms: O_1  and  C_22
REMARK    2  A    between atoms: C_3  and  C_4
REMARK    3  A    between atoms: C_3  and  C_7
REMARK    4  A    between atoms: C_4  and  C_10
REMARK    5  A    between atoms: C_5  and  C_6
REMARK    6  A    between atoms: C_5  and  C_8
REMARK    7  A    between atoms: C_6  and  C_9
REMARK    8  A    between atoms: C_7  and  C_11
REMARK    9  A    between atoms: C_9  and  C_13
REMARK   10  A    between atoms: C_12  and  C_15
REMARK   11  A    between atoms: C_12  and  C_16
REMARK   12  A    between atoms: C_14  and  C_17
REMARK   13  A    between atoms: C_18  and  C_19
REMARK   14  A    between atoms: C_19  and  C_20
REMARK   15  A    between atoms: C_21  and  C_22
REMARK                            x       y       z     vdW  Elec       q    Type
REMARK                         _______ _______ _______ _____ _____    ______ ____
ROOT
ATOM      1  C   UNL     1       4.793   2.768   4.729  0.00  0.00    +0.000 C 
ATOM      2  C   UNL     1       4.174   1.769   5.673  0.00  0.00    +0.000 C 
ATOM      3  C   UNL     1       4.060   3.809   4.283  0.00  0.00    +0.000 C 
ENDROOT
BRANCH   3   4
ATOM      4  C   UNL     1       2.681   4.110   4.609  0.00  0.00    +0.000 C 
ATOM      5  C   UNL     1       1.747   4.338   3.670  0.00  0.00    +0.000 C 
BRANCH   5   6
ATOM      6  C   UNL     1       0.324   4.617   3.895  0.00  0.00    +0.000 C 
ATOM      7  C   UNL     1      -0.329   3.954   5.082  0.00  0.00    +0.000 C 
ATOM      8  C   UNL     1      -0.308   5.417   3.014  0.00  0.00    +0.000 C 
BRANCH   8  10
ATOM      9  O   UNL     1      -2.179   6.923   3.298  0.00  0.00    +0.000 OA
ATOM     10  C   UNL     1      -1.733   5.814   3.068  0.00  0.00    +0.000 C 
BRANCH  10  11
ATOM     11  O   UNL     1      -2.488   4.724   2.791  0.00  0.00    +0.000 OA
ATOM     12  H   UNL     1      -3.234   4.624   3.422  0.00  0.00    +0.000 HD
ENDBRANCH  10  11
ENDBRANCH   8  10
ENDBRANCH   5   6
ENDBRANCH   3   4
BRANCH   1  13
ATOM     13  C   UNL     1       6.225   2.470   4.331  0.00  0.00    +0.000 C 
BRANCH  13  14
ATOM     14  C   UNL     1       6.394   1.196   3.490  0.00  0.00    +0.000 C 
BRANCH  14  16
ATOM     15  C   UNL     1       5.444   0.241   1.312  0.00  0.00    +0.000 C 
ATOM     16  C   UNL     1       5.472   1.154   2.302  0.00  0.00    +0.000 C 
ATOM     17  C   UNL     1       6.367  -0.943   1.225  0.00  0.00    +0.000 C 
BRANCH  15  18
ATOM     18  C   UNL     1       4.395   0.338   0.218  0.00  0.00    +0.000 C 
BRANCH  18  19
ATOM     19  C   UNL     1       4.750   1.277  -0.942  0.00  0.00    +0.000 C 
BRANCH  19  20
ATOM     20  C   UNL     1       3.583   2.075  -1.455  0.00  0.00    +0.000 C 
ATOM     21  C   UNL     1       2.973   3.113  -0.853  0.00  0.00    +0.000 C 
ATOM     22  C   UNL     1       3.353   3.682   0.485  0.00  0.00    +0.000 C 
ATOM     23  C   UNL     1       1.808   3.802  -1.512  0.00  0.00    +0.000 C 
ENDBRANCH  19  20
ENDBRANCH  18  19
ENDBRANCH  15  18
ENDBRANCH  14  16
ENDBRANCH  13  14
ENDBRANCH   1  13
TORSDOF 10
ENDMDL
MODEL 3
REMARK VINA RESULT:    -7.826      2.512      5.628
REMARK INTER + INTRA:         -12.556
REMARK INTER:                 -10.809
REMARK INTRA:                  -1.746
REMARK CONF_INDEPENDENT:        2.983
REMARK UNBOUND:                 1.746
REMARK  Name = 6437836
REMARK  15 active torsions:
REMARK  status: ('A' for Active; 'I' for Inactive)
REMARK    1  A    between atoms: O_1  and  C_22
REMARK    2  A    between atoms: C_3  and  C_4
REMARK    3  A    between atoms: C_3  and  C_7
REMARK    4  A    between atoms: C_4  and  C_10
REMARK    5  A    between atoms: C_5  and  C_6
REMARK    6  A    between atoms: C_5  and  C_8
REMARK    7  A    between atoms: C_6  and  C_9
REMARK    8  A    between atoms: C_7  and  C_11
REMARK    9  A    between atoms: C_9  and  C_13
REMARK   10  A    between atoms: C_12  and  C_15
REMARK   11  A    between atoms: C_12  and  C_16
REMARK   12  A    between atoms: C_14  and  C_17
REMARK   13  A    between atoms: C_18  and  C_19
REMARK   14  A    between atoms: C_19  and  C_20
REMARK   15  A    between atoms: C_21  and  C_22
REMARK                            x       y       z     vdW  Elec       q    Type
REMARK                         _______ _______ _______ _____ _____    ______ ____
ROOT
ATOM      1  C   UNL     1       5.701   1.415   3.905  0.00  0.00    +0.000 C 
ATOM      2  C   UNL     1       6.445   0.420   3.049  0.00  0.00    +0.000 C 
ATOM      3  C   UNL     1       4.604   2.028   3.416  0.00  0.00    +0.000 C 
ENDROOT
BRANCH   3   4
ATOM      4  C   UNL     1       4.012   1.847   2.106  0.00  0.00    +0.000 C 
ATOM      5  C   UNL     1       4.504   2.433   1.001  0.00  0.00    +0.000 C 
BRANCH   5   6
ATOM      6  C   UNL     1       4.000   2.287  -0.369  0.00  0.00    +0.000 C 
ATOM      7  C   UNL     1       4.496   1.105  -1.163  0.00  0.00    +0.000 C 
ATOM      8  C   UNL     1       3.158   3.231  -0.834  0.00  0.00    +0.000 C 
BRANCH   8  10
ATOM      9  O   UNL     1       3.028   3.725  -3.198  0.00  0.00    +0.000 OA
ATOM     10  C   UNL     1       2.546   3.260  -2.182  0.00  0.00    +0.000 C 
BRANCH  10  11
ATOM     11  O   UNL     1       1.339   2.648  -2.114  0.00  0.00    +0.000 OA
ATOM     12  H   UNL     1       1.096   2.221  -2.963  0.00  0.00    +0.000 HD
ENDBRANCH  10  11
ENDBRANCH   8  10
ENDBRANCH   5   6
ENDBRANCH   3   4
BRANCH   1  13
ATOM     13  C   UNL     1       6.309   1.664   5.272  0.00  0.00    +0.000 C 
BRANCH  13  14
ATOM     14  C   UNL     1       6.525   3.148   5.605  0.00  0.00    +0.000 C 
BRANCH  14  16
ATOM     15  C   UNL     1       5.157   5.072   6.596  0.00  0.00    +0.000 C 
ATOM     16  C   UNL     1       5.332   3.776   6.272  0.00  0.00    +0.000 C 
ATOM     17  C   UNL     1       6.166   6.156   6.331  0.00  0.00    +0.000 C 
BRANCH  15  18
ATOM     18  C   UNL     1       3.850   5.529   7.221  0.00  0.00    +0.000 C 
BRANCH  18  19
ATOM     19  C   UNL     1       2.609   4.737   6.786  0.00  0.00    +0.000 C 
BRANCH  19  20
ATOM     20  C   UNL     1       2.355   4.779   5.304  0.00  0.00    +0.000 C 
ATOM     21  C   UNL     1       1.258   4.355   4.649  0.00  0.00    +0.000 C 
ATOM     22  C   UNL     1       0.050   3.737   5.294  0.00  0.00    +0.000 C 
ATOM     23  C   UNL     1       1.168   4.473   3.151  0.00  0.00    +0.000 C 
ENDBRANCH  19  20
ENDBRANCH  18  19
ENDBRANCH  15  18
ENDBRANCH  14  16
ENDBRANCH  13  14
ENDBRANCH   1  13
TORSDOF 10
ENDMDL
MODEL 4
REMARK VINA RESULT:    -7.316      1.291      2.102
REMARK INTER + INTRA:         -12.157
REMARK INTER:                 -10.299
REMARK INTRA:                  -1.858
REMARK CONF_INDEPENDENT:        2.983
REMARK UNBOUND:                 1.858
REMARK  Name = 6437836
REMARK  15 active torsions:
REMARK  status: ('A' for Active; 'I' for Inactive)
REMARK    1  A    between atoms: O_1  and  C_22
REMARK    2  A    between atoms: C_3  and  C_4
REMARK    3  A    between atoms: C_3  and  C_7
REMARK    4  A    between atoms: C_4  and  C_10
REMARK    5  A    between atoms: C_5  and  C_6
REMARK    6  A    between atoms: C_5  and  C_8
REMARK    7  A    between atoms: C_6  and  C_9
REMARK    8  A    between atoms: C_7  and  C_11
REMARK    9  A    between atoms: C_9  and  C_13
REMARK   10  A    between atoms: C_12  and  C_15
REMARK   11  A    between atoms: C_12  and  C_16
REMARK   12  A    between atoms: C_14  and  C_17
REMARK   13  A    between atoms: C_18  and  C_19
REMARK   14  A    between atoms: C_19  and  C_20
REMARK   15  A    between atoms: C_21  and  C_22
REMARK                            x       y       z     vdW  Elec       q    Type
REMARK                         _______ _______ _______ _____ _____    ______ ____
ROOT
ATOM      1  C   UNL     1       3.761   3.999   5.077  0.00  0.00    +0.000 C 
ATOM      2  C   UNL     1       2.845   3.333   6.072  0.00  0.00    +0.000 C 
ATOM      3  C   UNL     1       3.237   4.681   4.037  0.00  0.00    +0.000 C 
ENDROOT
BRANCH   3   4
ATOM      4  C   UNL     1       1.832   4.868   3.735  0.00  0.00    +0.000 C 
ATOM      5  C   UNL     1       1.393   5.212   2.512  0.00  0.00    +0.000 C 
BRANCH   5   6
ATOM      6  C   UNL     1      -0.003   5.392   2.098  0.00  0.00    +0.000 C 
ATOM      7  C   UNL     1      -0.287   5.395   0.617  0.00  0.00    +0.000 C 
ATOM      8  C   UNL     1      -0.928   5.572   3.062  0.00  0.00    +0.000 C 
BRANCH   8  10
ATOM      9  O   UNL     1      -2.978   6.828   2.804  0.00  0.00    +0.000 OA
ATOM     10  C   UNL     1      -2.379   5.769   2.846  0.00  0.00    +0.000 C 
BRANCH  10  11
ATOM     11  O   UNL     1      -2.952   4.555   2.672  0.00  0.00    +0.000 OA
ATOM     12  H   UNL     1      -2.544   3.870   3.245  0.00  0.00    +0.000 HD
ENDBRANCH  10  11
ENDBRANCH   8  10
ENDBRANCH   5   6
ENDBRANCH   3   4
BRANCH   1  13
ATOM     13  C   UNL     1       5.241   3.796   5.334  0.00  0.00    +0.000 C 
BRANCH  13  14
ATOM     14  C   UNL     1       5.641   2.337   5.598  0.00  0.00    +0.000 C 
BRANCH  14  16
ATOM     15  C   UNL     1       6.098   1.751   3.148  0.00  0.00    +0.000 C 
ATOM     16  C   UNL     1       5.581   1.481   4.362  0.00  0.00    +0.000 C 
ATOM     17  C   UNL     1       6.856   3.005   2.808  0.00  0.00    +0.000 C 
BRANCH  15  18
ATOM     18  C   UNL     1       5.981   0.731   2.029  0.00  0.00    +0.000 C 
BRANCH  18  19
ATOM     19  C   UNL     1       4.546   0.399   1.599  0.00  0.00    +0.000 C 
BRANCH  19  20
ATOM     20  C   UNL     1       4.175   0.955   0.251  0.00  0.00    +0.000 C 
ATOM     21  C   UNL     1       3.798   2.214  -0.040  0.00  0.00    +0.000 C 
ATOM     22  C   UNL     1       3.669   3.331   0.957  0.00  0.00    +0.000 C 
ATOM     23  C   UNL     1       3.460   2.603  -1.454  0.00  0.00    +0.000 C 
ENDBRANCH  19  20
ENDBRANCH  18  19
ENDBRANCH  15  18
ENDBRANCH  14  16
ENDBRANCH  13  14
ENDBRANCH   1  13
TORSDOF 10
ENDMDL
MODEL 5
REMARK VINA RESULT:    -7.204      2.498      3.847
REMARK INTER + INTRA:         -12.143
REMARK INTER:                 -10.187
REMARK INTRA:                  -1.955
REMARK CONF_INDEPENDENT:        2.983
REMARK UNBOUND:                 1.955
REMARK  Name = 6437836
REMARK  15 active torsions:
REMARK  status: ('A' for Active; 'I' for Inactive)
REMARK    1  A    between atoms: O_1  and  C_22
REMARK    2  A    between atoms: C_3  and  C_4
REMARK    3  A    between atoms: C_3  and  C_7
REMARK    4  A    between atoms: C_4  and  C_10
REMARK    5  A    between atoms: C_5  and  C_6
REMARK    6  A    between atoms: C_5  and  C_8
REMARK    7  A    between atoms: C_6  and  C_9
REMARK    8  A    between atoms: C_7  and  C_11
REMARK    9  A    between atoms: C_9  and  C_13
REMARK   10  A    between atoms: C_12  and  C_15
REMARK   11  A    between atoms: C_12  and  C_16
REMARK   12  A    between atoms: C_14  and  C_17
REMARK   13  A    between atoms: C_18  and  C_19
REMARK   14  A    between atoms: C_19  and  C_20
REMARK   15  A    between atoms: C_21  and  C_22
REMARK                            x       y       z     vdW  Elec       q    Type
REMARK                         _______ _______ _______ _____ _____    ______ ____
ROOT
ATOM      1  C   UNL     1       1.340   4.514   5.314  0.00  0.00    +0.000 C 
ATOM      2  C   UNL     1       0.060   3.720   5.247  0.00  0.00    +0.000 C 
ATOM      3  C   UNL     1       1.962   4.876   4.173  0.00  0.00    +0.000 C 
ENDROOT
BRANCH   3   4
ATOM      4  C   UNL     1       1.538   4.589   2.818  0.00  0.00    +0.000 C 
ATOM      5  C   UNL     1       2.260   4.944   1.741  0.00  0.00    +0.000 C 
BRANCH   5   6
ATOM      6  C   UNL     1       1.936   4.671   0.336  0.00  0.00    +0.000 C 
ATOM      7  C   UNL     1       0.877   5.530  -0.306  0.00  0.00    +0.000 C 
ATOM      8  C   UNL     1       2.582   3.657  -0.273  0.00  0.00    +0.000 C 
BRANCH   8  10
ATOM      9  O   UNL     1       3.202   3.313  -2.585  0.00  0.00    +0.000 OA
ATOM     10  C   UNL     1       2.395   3.229  -1.677  0.00  0.00    +0.000 C 
BRANCH  10  11
ATOM     11  O   UNL     1       1.159   2.690  -1.796  0.00  0.00    +0.000 OA
ATOM     12  H   UNL     1       1.171   1.848  -2.301  0.00  0.00    +0.000 HD
ENDBRANCH  10  11
ENDBRANCH   8  10
ENDBRANCH   5   6
ENDBRANCH   3   4
BRANCH   1  13
ATOM     13  C   UNL     1       1.841   4.805   6.715  0.00  0.00    +0.000 C 
BRANCH  13  14
ATOM     14  C   UNL     1       3.285   5.324   6.774  0.00  0.00    +0.000 C 
BRANCH  14  16
ATOM     15  C   UNL     1       5.512   4.450   5.859  0.00  0.00    +0.000 C 
ATOM     16  C   UNL     1       4.300   4.271   6.419  0.00  0.00    +0.000 C 
ATOM     17  C   UNL     1       6.081   5.790   5.480  0.00  0.00    +0.000 C 
BRANCH  15  18
ATOM     18  C   UNL     1       6.423   3.259   5.624  0.00  0.00    +0.000 C 
BRANCH  18  19
ATOM     19  C   UNL     1       5.708   1.907   5.499  0.00  0.00    +0.000 C 
BRANCH  19  20
ATOM     20  C   UNL     1       5.964   1.206   4.193  0.00  0.00    +0.000 C 
ATOM     21  C   UNL     1       5.325   1.392   3.023  0.00  0.00    +0.000 C 
ATOM     22  C   UNL     1       4.197   2.360   2.799  0.00  0.00    +0.000 C 
ATOM     23  C   UNL     1       5.713   0.599   1.804  0.00  0.00    +0.000 C 
ENDBRANCH  19  20
ENDBRANCH  18  19
ENDBRANCH  15  18
ENDBRANCH  14  16
ENDBRANCH  13  14
ENDBRANCH   1  13
TORSDOF 10
ENDMDL
MODEL 6
REMARK VINA RESULT:    -7.001      3.036      6.133
REMARK INTER + INTRA:         -12.121
REMARK INTER:                  -9.984
REMARK INTRA:                  -2.137
REMARK CONF_INDEPENDENT:        2.983
REMARK UNBOUND:                 2.137
REMARK  Name = 6437836
REMARK  15 active torsions:
REMARK  status: ('A' for Active; 'I' for Inactive)
REMARK    1  A    between atoms: O_1  and  C_22
REMARK    2  A    between atoms: C_3  and  C_4
REMARK    3  A    between atoms: C_3  and  C_7
REMARK    4  A    between atoms: C_4  and  C_10
REMARK    5  A    between atoms: C_5  and  C_6
REMARK    6  A    between atoms: C_5  and  C_8
REMARK    7  A    between atoms: C_6  and  C_9
REMARK    8  A    between atoms: C_7  and  C_11
REMARK    9  A    between atoms: C_9  and  C_13
REMARK   10  A    between atoms: C_12  and  C_15
REMARK   11  A    between atoms: C_12  and  C_16
REMARK   12  A    between atoms: C_14  and  C_17
REMARK   13  A    between atoms: C_18  and  C_19
REMARK   14  A    between atoms: C_19  and  C_20
REMARK   15  A    between atoms: C_21  and  C_22
REMARK                            x       y       z     vdW  Elec       q    Type
REMARK                         _______ _______ _______ _____ _____    ______ ____
ROOT
ATOM      1  C   UNL     1       5.670   0.474   2.327  0.00  0.00    +0.000 C 
ATOM      2  C   UNL     1       4.295   1.073   2.171  0.00  0.00    +0.000 C 
ATOM      3  C   UNL     1       6.409   0.773   3.415  0.00  0.00    +0.000 C 
ENDROOT
BRANCH   3   4
ATOM      4  C   UNL     1       6.036   1.641   4.514  0.00  0.00    +0.000 C 
ATOM      5  C   UNL     1       5.759   2.945   4.347  0.00  0.00    +0.000 C 
BRANCH   5   6
ATOM      6  C   UNL     1       5.341   3.896   5.383  0.00  0.00    +0.000 C 
ATOM      7  C   UNL     1       6.425   4.696   6.061  0.00  0.00    +0.000 C 
ATOM      8  C   UNL     1       4.028   3.968   5.679  0.00  0.00    +0.000 C 
BRANCH   8  10
ATOM      9  O   UNL     1       3.521   6.070   6.763  0.00  0.00    +0.000 OA
ATOM     10  C   UNL     1       3.414   4.859   6.689  0.00  0.00    +0.000 C 
BRANCH  10  11
ATOM     11  O   UNL     1       2.673   4.100   7.531  0.00  0.00    +0.000 OA
ATOM     12  H   UNL     1       2.697   3.150   7.287  0.00  0.00    +0.000 HD
ENDBRANCH  10  11
ENDBRANCH   8  10
ENDBRANCH   5   6
ENDBRANCH   3   4
BRANCH   1  13
ATOM     13  C   UNL     1       6.117  -0.411   1.181  0.00  0.00    +0.000 C 
BRANCH  13  14
ATOM     14  C   UNL     1       7.026   0.290   0.160  0.00  0.00    +0.000 C 
BRANCH  14  16
ATOM     15  C   UNL     1       5.251   1.832  -0.856  0.00  0.00    +0.000 C 
ATOM     16  C   UNL     1       6.465   1.602  -0.318  0.00  0.00    +0.000 C 
ATOM     17  C   UNL     1       4.208   0.771  -1.078  0.00  0.00    +0.000 C 
BRANCH  15  18
ATOM     18  C   UNL     1       4.842   3.246  -1.230  0.00  0.00    +0.000 C 
BRANCH  18  19
ATOM     19  C   UNL     1       3.336   3.526  -1.162  0.00  0.00    +0.000 C 
BRANCH  19  20
ATOM     20  C   UNL     1       2.787   3.547   0.239  0.00  0.00    +0.000 C 
ATOM     21  C   UNL     1       3.349   4.097   1.331  0.00  0.00    +0.000 C 
ATOM     22  C   UNL     1       4.672   4.809   1.357  0.00  0.00    +0.000 C 
ATOM     23  C   UNL     1       2.657   4.026   2.666  0.00  0.00    +0.000 C 
ENDBRANCH  19  20
ENDBRANCH  18  19
ENDBRANCH  15  18
ENDBRANCH  14  16
ENDBRANCH  13  14
ENDBRANCH   1  13
TORSDOF 10
ENDMDL
MODEL 7
REMARK VINA RESULT:    -6.924      3.500      7.558
REMARK INTER + INTRA:         -12.043
REMARK INTER:                  -9.907
REMARK INTRA:                  -2.136
REMARK CONF_INDEPENDENT:        2.983
REMARK UNBOUND:                 2.136
REMARK  Name = 6437836
REMARK  15 active torsions:
REMARK  status: ('A' for Active; 'I' for Inactive)
REMARK    1  A    between atoms: O_1  and  C_22
REMARK    2  A    between atoms: C_3  and  C_4
REMARK    3  A    between atoms: C_3  and  C_7
REMARK    4  A    between atoms: C_4  and  C_10
REMARK    5  A    between atoms: C_5  and  C_6
REMARK    6  A    between atoms: C_5  and  C_8
REMARK    7  A    between atoms: C_6  and  C_9
REMARK    8  A    between atoms: C_7  and  C_11
REMARK    9  A    between atoms: C_9  and  C_13
REMARK   10  A    between atoms: C_12  and  C_15
REMARK   11  A    between atoms: C_12  and  C_16
REMARK   12  A    between atoms: C_14  and  C_17
REMARK   13  A    between atoms: C_18  and  C_19
REMARK   14  A    between atoms: C_19  and  C_20
REMARK   15  A    between atoms: C_21  and  C_22
REMARK                            x       y       z     vdW  Elec       q    Type
REMARK                         _______ _______ _______ _____ _____    ______ ____
ROOT
ATOM      1  C   UNL     1       3.836   3.218  -1.375  0.00  0.00    +0.000 C 
ATOM      2  C   UNL     1       4.860   4.206  -0.874  0.00  0.00    +0.000 C 
ATOM      3  C   UNL     1       3.783   1.981  -0.838  0.00  0.00    +0.000 C 
ENDROOT
BRANCH   3   4
ATOM      4  C   UNL     1       4.625   1.447   0.213  0.00  0.00    +0.000 C 
ATOM      5  C   UNL     1       4.460   1.767   1.508  0.00  0.00    +0.000 C 
BRANCH   5   6
ATOM      6  C   UNL     1       5.234   1.258   2.645  0.00  0.00    +0.000 C 
ATOM      7  C   UNL     1       6.256   0.187   2.359  0.00  0.00    +0.000 C 
ATOM      8  C   UNL     1       4.960   1.757   3.867  0.00  0.00    +0.000 C 
BRANCH   8  10
ATOM      9  O   UNL     1       6.826   1.325   5.344  0.00  0.00    +0.000 OA
ATOM     10  C   UNL     1       5.628   1.372   5.131  0.00  0.00    +0.000 C 
BRANCH  10  11
ATOM     11  O   UNL     1       4.673   1.096   6.050  0.00  0.00    +0.000 OA
ATOM     12  H   UNL     1       5.021   1.138   6.966  0.00  0.00    +0.000 HD
ENDBRANCH  10  11
ENDBRANCH   8  10
ENDBRANCH   5   6
ENDBRANCH   3   4
BRANCH   1  13
ATOM     13  C   UNL     1       2.958   3.722  -2.503  0.00  0.00    +0.000 C 
BRANCH  13  14
ATOM     14  C   UNL     1       1.513   4.035  -2.086  0.00  0.00    +0.000 C 
BRANCH  14  16
ATOM     15  C   UNL     1       1.599   4.980   0.293  0.00  0.00    +0.000 C 
ATOM     16  C   UNL     1       1.316   4.006  -0.595  0.00  0.00    +0.000 C 
ATOM     17  C   UNL     1       2.182   6.317  -0.073  0.00  0.00    +0.000 C 
BRANCH  15  18
ATOM     18  C   UNL     1       1.277   4.783   1.764  0.00  0.00    +0.000 C 
BRANCH  18  19
ATOM     19  C   UNL     1       2.250   3.876   2.527  0.00  0.00    +0.000 C 
BRANCH  19  20
ATOM     20  C   UNL     1       2.455   4.280   3.962  0.00  0.00    +0.000 C 
ATOM     21  C   UNL     1       1.561   4.220   4.966  0.00  0.00    +0.000 C 
ATOM     22  C   UNL     1       0.147   3.728   4.836  0.00  0.00    +0.000 C 
ATOM     23  C   UNL     1       1.936   4.670   6.352  0.00  0.00    +0.000 C 
ENDBRANCH  19  20
ENDBRANCH  18  19
ENDBRANCH  15  18
ENDBRANCH  14  16
ENDBRANCH  13  14
ENDBRANCH   1  13
TORSDOF 10
ENDMDL
MODEL 8
REMARK VINA RESULT:    -6.811      2.312      5.095
REMARK INTER + INTRA:         -12.104
REMARK INTER:                  -9.794
REMARK INTRA:                  -2.310
REMARK CONF_INDEPENDENT:        2.983
REMARK UNBOUND:                 2.310
REMARK  Name = 6437836
REMARK  15 active torsions:
REMARK  status: ('A' for Active; 'I' for Inactive)
REMARK    1  A    between atoms: O_1  and  C_22
REMARK    2  A    between atoms: C_3  and  C_4
REMARK    3  A    between atoms: C_3  and  C_7
REMARK    4  A    between atoms: C_4  and  C_10
REMARK    5  A    between atoms: C_5  and  C_6
REMARK    6  A    between atoms: C_5  and  C_8
REMARK    7  A    between atoms: C_6  and  C_9
REMARK    8  A    between atoms: C_7  and  C_11
REMARK    9  A    between atoms: C_9  and  C_13
REMARK   10  A    between atoms: C_12  and  C_15
REMARK   11  A    between atoms: C_12  and  C_16
REMARK   12  A    between atoms: C_14  and  C_17
REMARK   13  A    between atoms: C_18  and  C_19
REMARK   14  A    between atoms: C_19  and  C_20
REMARK   15  A    between atoms: C_21  and  C_22
REMARK                            x       y       z     vdW  Elec       q    Type
REMARK                         _______ _______ _______ _____ _____    ______ ____
ROOT
ATOM      1  C   UNL     1       3.189   4.838  -0.050  0.00  0.00    +0.000 C 
ATOM      2  C   UNL     1       1.877   4.105  -0.167  0.00  0.00    +0.000 C 
ATOM      3  C   UNL     1       3.559   5.362   1.137  0.00  0.00    +0.000 C 
ENDROOT
BRANCH   3   4
ATOM      4  C   UNL     1       2.820   5.311   2.382  0.00  0.00    +0.000 C 
ATOM      5  C   UNL     1       2.601   4.165   3.049  0.00  0.00    +0.000 C 
BRANCH   5   6
ATOM      6  C   UNL     1       1.898   4.012   4.328  0.00  0.00    +0.000 C 
ATOM      7  C   UNL     1       2.741   3.974   5.577  0.00  0.00    +0.000 C 
ATOM      8  C   UNL     1       0.556   3.887   4.298  0.00  0.00    +0.000 C 
BRANCH   8  10
ATOM      9  O   UNL     1      -0.410   4.463   6.439  0.00  0.00    +0.000 OA
ATOM     10  C   UNL     1      -0.326   3.724   5.475  0.00  0.00    +0.000 C 
BRANCH  10  11
ATOM     11  O   UNL     1      -1.068   2.605   5.299  0.00  0.00    +0.000 OA
ATOM     12  H   UNL     1      -1.764   2.729   4.618  0.00  0.00    +0.000 HD
ENDBRANCH  10  11
ENDBRANCH   8  10
ENDBRANCH   5   6
ENDBRANCH   3   4
BRANCH   1  13
ATOM     13  C   UNL     1       3.978   4.949  -1.340  0.00  0.00    +0.000 C 
BRANCH  13  14
ATOM     14  C   UNL     1       4.818   3.707  -1.675  0.00  0.00    +0.000 C 
BRANCH  14  16
ATOM     15  C   UNL     1       4.971   1.651  -0.155  0.00  0.00    +0.000 C 
ATOM     16  C   UNL     1       5.237   2.938  -0.452  0.00  0.00    +0.000 C 
ATOM     17  C   UNL     1       4.177   0.725  -1.035  0.00  0.00    +0.000 C 
BRANCH  15  18
ATOM     18  C   UNL     1       5.532   1.033   1.113  0.00  0.00    +0.000 C 
BRANCH  18  19
ATOM     19  C   UNL     1       4.779   1.393   2.401  0.00  0.00    +0.000 C 
BRANCH  19  20
ATOM     20  C   UNL     1       5.391   2.541   3.158  0.00  0.00    +0.000 C 
ATOM     21  C   UNL     1       5.694   2.589   4.468  0.00  0.00    +0.000 C 
ATOM     22  C   UNL     1       5.466   1.474   5.450  0.00  0.00    +0.000 C 
ATOM     23  C   UNL     1       6.305   3.827   5.066  0.00  0.00    +0.000 C 
ENDBRANCH  19  20
ENDBRANCH  18  19
ENDBRANCH  15  18
ENDBRANCH  14  16
ENDBRANCH  13  14
ENDBRANCH   1  13
TORSDOF 10
ENDMDL
MODEL 9
REMARK VINA RESULT:    -6.580      3.368      7.264
REMARK INTER + INTRA:         -11.873
REMARK INTER:                  -9.563
REMARK INTRA:                  -2.310
REMARK CONF_INDEPENDENT:        2.983
REMARK UNBOUND:                 2.310
REMARK  Name = 6437836
REMARK  15 active torsions:
REMARK  status: ('A' for Active; 'I' for Inactive)
REMARK    1  A    between atoms: O_1  and  C_22
REMARK    2  A    between atoms: C_3  and  C_4
REMARK    3  A    between atoms: C_3  and  C_7
REMARK    4  A    between atoms: C_4  and  C_10
REMARK    5  A    between atoms: C_5  and  C_6
REMARK    6  A    between atoms: C_5  and  C_8
REMARK    7  A    between atoms: C_6  and  C_9
REMARK    8  A    between atoms: C_7  and  C_11
REMARK    9  A    between atoms: C_9  and  C_13
REMARK   10  A    between atoms: C_12  and  C_15
REMARK   11  A    between atoms: C_12  and  C_16
REMARK   12  A    between atoms: C_14  and  C_17
REMARK   13  A    between atoms: C_18  and  C_19
REMARK   14  A    between atoms: C_19  and  C_20
REMARK   15  A    between atoms: C_21  and  C_22
REMARK                            x       y       z     vdW  Elec       q    Type
REMARK                         _______ _______ _______ _____ _____    ______ ____
ROOT
ATOM      1  C   UNL     1       2.277   5.115   0.257  0.00  0.00    +0.000 C 
ATOM      2  C   UNL     1       3.369   6.052   0.709  0.00  0.00    +0.000 C 
ATOM      3  C   UNL     1       2.369   3.798   0.535  0.00  0.00    +0.000 C 
ENDROOT
BRANCH   3   4
ATOM      4  C   UNL     1       3.436   3.128   1.249  0.00  0.00    +0.000 C 
ATOM      5  C   UNL     1       3.422   2.956   2.582  0.00  0.00    +0.000 C 
BRANCH   5   6
ATOM      6  C   UNL     1       4.432   2.266   3.391  0.00  0.00    +0.000 C 
ATOM      7  C   UNL     1       5.299   1.250   2.691  0.00  0.00    +0.000 C 
ATOM      8  C   UNL     1       4.498   2.563   4.704  0.00  0.00    +0.000 C 
BRANCH   8  10
ATOM      9  O   UNL     1       6.472   2.476   6.099  0.00  0.00    +0.000 OA
ATOM     10  C   UNL     1       5.444   1.976   5.680  0.00  0.00    +0.000 C 
BRANCH  10  11
ATOM     11  O   UNL     1       4.964   0.771   6.066  0.00  0.00    +0.000 OA
ATOM     12  H   UNL     1       4.824   0.724   7.036  0.00  0.00    +0.000 HD
ENDBRANCH  10  11
ENDBRANCH   8  10
ENDBRANCH   5   6
ENDBRANCH   3   4
BRANCH   1  13
ATOM     13  C   UNL     1       1.157   5.769  -0.528  0.00  0.00    +0.000 C 
BRANCH  13  14
ATOM     14  C   UNL     1      -0.147   5.951   0.264  0.00  0.00    +0.000 C 
BRANCH  14  16
ATOM     15  C   UNL     1      -0.931   5.592   2.675  0.00  0.00    +0.000 C 
ATOM     16  C   UNL     1      -0.060   5.407   1.664  0.00  0.00    +0.000 C 
ATOM     17  C   UNL     1      -2.192   6.405   2.570  0.00  0.00    +0.000 C 
BRANCH  15  18
ATOM     18  C   UNL     1      -0.697   4.911   4.012  0.00  0.00    +0.000 C 
BRANCH  18  19
ATOM     19  C   UNL     1       0.678   4.251   4.175  0.00  0.00    +0.000 C 
BRANCH  19  20
ATOM     20  C   UNL     1       1.201   4.282   5.585  0.00  0.00    +0.000 C 
ATOM     21  C   UNL     1       2.304   4.908   6.036  0.00  0.00    +0.000 C 
ATOM     22  C   UNL     1       3.249   5.713   5.189  0.00  0.00    +0.000 C 
ATOM     23  C   UNL     1       2.684   4.835   7.491  0.00  0.00    +0.000 C 
ENDBRANCH  19  20
ENDBRANCH  18  19
ENDBRANCH  15  18
ENDBRANCH  14  16
ENDBRANCH  13  14
ENDBRANCH   1  13
TORSDOF 10
ENDMDL
