MODEL 1
REMARK VINA RESULT:    -7.281      0.000      0.000
REMARK INTER + INTRA:         -10.017
REMARK INTER:                  -9.070
REMARK INTRA:                  -0.947
REMARK CONF_INDEPENDENT:        1.790
REMARK UNBOUND:                 0.947
REMARK  Name = 444795
REMARK  11 active torsions:
REMARK  status: ('A' for Active; 'I' for Inactive)
REMARK    1  A    between atoms: O_1  and  C_22
REMARK    2  A    between atoms: C_3  and  C_9
REMARK    3  A    between atoms: C_3  and  C_10
REMARK    4  A    between atoms: C_6  and  C_11
REMARK    5  A    between atoms: C_8  and  C_12
REMARK    6  A    between atoms: C_13  and  C_14
REMARK    7  A    between atoms: C_14  and  C_15
REMARK    8  A    between atoms: C_16  and  C_17
REMARK    9  A    between atoms: C_18  and  C_19
REMARK   10  A    between atoms: C_19  and  C_20
REMARK   11  A    between atoms: C_21  and  C_22
REMARK                            x       y       z     vdW  Elec       q    Type
REMARK                         _______ _______ _______ _____ _____    ______ ____
ROOT
ATOM      1  C   UNL     1       2.729   3.735   0.234  0.00  0.00    +0.000 C 
ATOM      2  C   UNL     1       1.504   4.515   0.656  0.00  0.00    +0.000 C 
ATOM      3  C   UNL     1       2.876   3.423  -1.072  0.00  0.00    +0.000 C 
ENDROOT
BRANCH   1   5
ATOM      4  C   UNL     1       3.402   3.163   2.577  0.00  0.00    +0.000 C 
ATOM      5  C   UNL     1       3.684   3.365   1.279  0.00  0.00    +0.000 C 
BRANCH   4   9
ATOM      6  C   UNL     1       4.461   3.690   4.825  0.00  0.00    +0.000 C 
ATOM      7  C   UNL     1       5.737   3.412   5.666  0.00  0.00    +0.000 C 
ATOM      8  C   UNL     1       6.013   1.927   5.818  0.00  0.00    +0.000 C 
ATOM      9  C   UNL     1       4.407   2.797   3.561  0.00  0.00    +0.000 C 
ATOM     10  C   UNL     1       6.221   1.292   4.451  0.00  0.00    +0.000 C 
ATOM     11  C   UNL     1       5.228   1.730   3.394  0.00  0.00    +0.000 C 
ATOM     12  C   UNL     1       4.504   5.196   4.471  0.00  0.00    +0.000 C 
ATOM     13  C   UNL     1       3.215   3.425   5.699  0.00  0.00    +0.000 C 
ATOM     14  C   UNL     1       5.281   0.839   2.174  0.00  0.00    +0.000 C 
ENDBRANCH   4   9
ENDBRANCH   1   5
BRANCH   3  15
ATOM     15  C   UNL     1       1.994   3.739  -2.181  0.00  0.00    +0.000 C 
ATOM     16  C   UNL     1       1.969   4.951  -2.763  0.00  0.00    +0.000 C 
BRANCH  16  17
ATOM     17  C   UNL     1       1.118   5.374  -3.881  0.00  0.00    +0.000 C 
ATOM     18  C   UNL     1       1.793   6.053  -5.044  0.00  0.00    +0.000 C 
ATOM     19  C   UNL     1      -0.208   5.147  -3.784  0.00  0.00    +0.000 C 
BRANCH  19  21
ATOM     20  O   UNL     1      -1.153   6.381  -5.638  0.00  0.00    +0.000 OA
ATOM     21  C   UNL     1      -1.224   5.499  -4.800  0.00  0.00    +0.000 C 
BRANCH  21  22
ATOM     22  O   UNL     1      -2.269   4.647  -4.671  0.00  0.00    +0.000 OA
ATOM     23  H   UNL     1      -2.130   3.814  -5.170  0.00  0.00    +0.000 HD
ENDBRANCH  21  22
ENDBRANCH  19  21
ENDBRANCH  16  17
ENDBRANCH   3  15
TORSDOF 6
ENDMDL
MODEL 2
REMARK VINA RESULT:    -7.128      4.450      9.424
REMARK INTER + INTRA:          -9.889
REMARK INTER:                  -8.918
REMARK INTRA:                  -0.971
REMARK CONF_INDEPENDENT:        1.790
REMARK UNBOUND:                 0.971
REMARK  Name = 444795
REMARK  11 active torsions:
REMARK  status: ('A' for Active; 'I' for Inactive)
REMARK    1  A    between atoms: O_1  and  C_22
REMARK    2  A    between atoms: C_3  and  C_9
REMARK    3  A    between atoms: C_3  and  C_10
REMARK    4  A    between atoms: C_6  and  C_11
REMARK    5  A    between atoms: C_8  and  C_12
REMARK    6  A    between atoms: C_13  and  C_14
REMARK    7  A    between atoms: C_14  and  C_15
REMARK    8  A    between atoms: C_16  and  C_17
REMARK    9  A    between atoms: C_18  and  C_19
REMARK   10  A    between atoms: C_19  and  C_20
REMARK   11  A    between atoms: C_21  and  C_22
REMARK                            x       y       z     vdW  Elec       q    Type
REMARK                         _______ _______ _______ _____ _____    ______ ____
ROOT
ATOM      1  C   UNL     1       3.972   3.443  -1.439  0.00  0.00    +0.000 C 
ATOM      2  C   UNL     1       5.220   4.244  -1.142  0.00  0.00    +0.000 C 
ATOM      3  C   UNL     1       3.758   2.304  -0.746  0.00  0.00    +0.000 C 
ENDROOT
BRANCH   1   5
ATOM      4  C   UNL     1       2.838   5.255  -2.742  0.00  0.00    +0.000 C 
ATOM      5  C   UNL     1       3.070   3.961  -2.467  0.00  0.00    +0.000 C 
BRANCH   4   9
ATOM      6  C   UNL     1       0.439   5.818  -3.360  0.00  0.00    +0.000 C 
ATOM      7  C   UNL     1      -0.491   6.003  -4.590  0.00  0.00    +0.000 C 
ATOM      8  C   UNL     1       0.063   7.009  -5.583  0.00  0.00    +0.000 C 
ATOM      9  C   UNL     1       1.923   5.696  -3.782  0.00  0.00    +0.000 C 
ATOM     10  C   UNL     1       1.415   6.541  -6.101  0.00  0.00    +0.000 C 
ATOM     11  C   UNL     1       2.346   6.001  -5.035  0.00  0.00    +0.000 C 
ATOM     12  C   UNL     1      -0.065   4.549  -2.632  0.00  0.00    +0.000 C 
ATOM     13  C   UNL     1       0.269   7.029  -2.414  0.00  0.00    +0.000 C 
ATOM     14  C   UNL     1       3.762   5.860  -5.547  0.00  0.00    +0.000 C 
ENDBRANCH   4   9
ENDBRANCH   1   5
BRANCH   3  15
ATOM     15  C   UNL     1       4.584   1.705   0.288  0.00  0.00    +0.000 C 
ATOM     16  C   UNL     1       4.434   1.997   1.592  0.00  0.00    +0.000 C 
BRANCH  16  17
ATOM     17  C   UNL     1       5.214   1.455   2.710  0.00  0.00    +0.000 C 
ATOM     18  C   UNL     1       6.270   0.430   2.383  0.00  0.00    +0.000 C 
ATOM     19  C   UNL     1       4.922   1.891   3.952  0.00  0.00    +0.000 C 
BRANCH  19  21
ATOM     20  O   UNL     1       6.779   1.550   5.465  0.00  0.00    +0.000 OA
ATOM     21  C   UNL     1       5.593   1.465   5.201  0.00  0.00    +0.000 C 
BRANCH  21  22
ATOM     22  O   UNL     1       4.653   0.973   6.043  0.00  0.00    +0.000 OA
ATOM     23  H   UNL     1       4.220   1.681   6.565  0.00  0.00    +0.000 HD
ENDBRANCH  21  22
ENDBRANCH  19  21
ENDBRANCH  16  17
ENDBRANCH   3  15
TORSDOF 6
ENDMDL
MODEL 3
REMARK VINA RESULT:    -7.035      1.357      2.826
REMARK INTER + INTRA:          -9.828
REMARK INTER:                  -8.825
REMARK INTRA:                  -1.003
REMARK CONF_INDEPENDENT:        1.790
REMARK UNBOUND:                 1.003
REMARK  Name = 444795
REMARK  11 active torsions:
REMARK  status: ('A' for Active; 'I' for Inactive)
REMARK    1  A    between atoms: O_1  and  C_22
REMARK    2  A    between atoms: C_3  and  C_9
REMARK    3  A    between atoms: C_3  and  C_10
REMARK    4  A    between atoms: C_6  and  C_11
REMARK    5  A    between atoms: C_8  and  C_12
REMARK    6  A    between atoms: C_13  and  C_14
REMARK    7  A    between atoms: C_14  and  C_15
REMARK    8  A    between atoms: C_16  and  C_17
REMARK    9  A    between atoms: C_18  and  C_19
REMARK   10  A    between atoms: C_19  and  C_20
REMARK   11  A    between atoms: C_21  and  C_22
REMARK                            x       y       z     vdW  Elec       q    Type
REMARK                         _______ _______ _______ _____ _____    ______ ____
ROOT
ATOM      1  C   UNL     1       3.294   3.734  -1.273  0.00  0.00    +0.000 C 
ATOM      2  C   UNL     1       4.115   4.387  -2.362  0.00  0.00    +0.000 C 
ATOM      3  C   UNL     1       1.977   3.532  -1.493  0.00  0.00    +0.000 C 
ENDROOT
BRANCH   1   5
ATOM      4  C   UNL     1       3.831   2.215   0.644  0.00  0.00    +0.000 C 
ATOM      5  C   UNL     1       3.987   3.361  -0.040  0.00  0.00    +0.000 C 
BRANCH   4   9
ATOM      6  C   UNL     1       5.727   0.912   1.720  0.00  0.00    +0.000 C 
ATOM      7  C   UNL     1       6.244   0.431   3.103  0.00  0.00    +0.000 C 
ATOM      8  C   UNL     1       6.389   1.573   4.091  0.00  0.00    +0.000 C 
ATOM      9  C   UNL     1       4.556   1.913   1.866  0.00  0.00    +0.000 C 
ATOM     10  C   UNL     1       5.042   2.244   4.316  0.00  0.00    +0.000 C 
ATOM     11  C   UNL     1       4.240   2.488   3.054  0.00  0.00    +0.000 C 
ATOM     12  C   UNL     1       5.308  -0.366   0.953  0.00  0.00    +0.000 C 
ATOM     13  C   UNL     1       6.890   1.585   0.955  0.00  0.00    +0.000 C 
ATOM     14  C   UNL     1       3.084   3.431   3.299  0.00  0.00    +0.000 C 
ENDBRANCH   4   9
ENDBRANCH   1   5
BRANCH   3  15
ATOM     15  C   UNL     1       1.196   3.862  -2.672  0.00  0.00    +0.000 C 
ATOM     16  C   UNL     1       0.999   5.129  -3.078  0.00  0.00    +0.000 C 
BRANCH  16  17
ATOM     17  C   UNL     1       0.226   5.569  -4.245  0.00  0.00    +0.000 C 
ATOM     18  C   UNL     1       0.975   6.290  -5.337  0.00  0.00    +0.000 C 
ATOM     19  C   UNL     1      -1.099   5.321  -4.254  0.00  0.00    +0.000 C 
BRANCH  19  21
ATOM     20  O   UNL     1      -1.866   6.502  -6.221  0.00  0.00    +0.000 OA
ATOM     21  C   UNL     1      -2.042   5.685  -5.334  0.00  0.00    +0.000 C 
BRANCH  21  22
ATOM     22  O   UNL     1      -3.159   4.930  -5.198  0.00  0.00    +0.000 OA
ATOM     23  H   UNL     1      -2.948   3.980  -5.080  0.00  0.00    +0.000 HD
ENDBRANCH  21  22
ENDBRANCH  19  21
ENDBRANCH  16  17
ENDBRANCH   3  15
TORSDOF 6
ENDMDL
MODEL 4
REMARK VINA RESULT:    -6.773      1.262      1.649
REMARK INTER + INTRA:          -9.559
REMARK INTER:                  -8.562
REMARK INTRA:                  -0.996
REMARK CONF_INDEPENDENT:        1.790
REMARK UNBOUND:                 0.996
REMARK  Name = 444795
REMARK  11 active torsions:
REMARK  status: ('A' for Active; 'I' for Inactive)
REMARK    1  A    between atoms: O_1  and  C_22
REMARK    2  A    between atoms: C_3  and  C_9
REMARK    3  A    between atoms: C_3  and  C_10
REMARK    4  A    between atoms: C_6  and  C_11
REMARK    5  A    between atoms: C_8  and  C_12
REMARK    6  A    between atoms: C_13  and  C_14
REMARK    7  A    between atoms: C_14  and  C_15
REMARK    8  A    between atoms: C_16  and  C_17
REMARK    9  A    between atoms: C_18  and  C_19
REMARK   10  A    between atoms: C_19  and  C_20
REMARK   11  A    between atoms: C_21  and  C_22
REMARK                            x       y       z     vdW  Elec       q    Type
REMARK                         _______ _______ _______ _____ _____    ______ ____
ROOT
ATOM      1  C   UNL     1       3.609   3.693  -1.479  0.00  0.00    +0.000 C 
ATOM      2  C   UNL     1       4.362   4.501  -2.512  0.00  0.00    +0.000 C 
ATOM      3  C   UNL     1       2.302   3.430  -1.695  0.00  0.00    +0.000 C 
ENDROOT
BRANCH   1   5
ATOM      4  C   UNL     1       3.828   2.713   0.814  0.00  0.00    +0.000 C 
ATOM      5  C   UNL     1       4.353   3.246  -0.301  0.00  0.00    +0.000 C 
BRANCH   4   9
ATOM      6  C   UNL     1       4.723   3.302   3.118  0.00  0.00    +0.000 C 
ATOM      7  C   UNL     1       5.823   2.900   4.137  0.00  0.00    +0.000 C 
ATOM      8  C   UNL     1       5.790   1.418   4.465  0.00  0.00    +0.000 C 
ATOM      9  C   UNL     1       4.633   2.291   1.949  0.00  0.00    +0.000 C 
ATOM     10  C   UNL     1       6.016   0.599   3.202  0.00  0.00    +0.000 C 
ATOM     11  C   UNL     1       5.246   1.081   1.990  0.00  0.00    +0.000 C 
ATOM     12  C   UNL     1       5.092   4.724   2.630  0.00  0.00    +0.000 C 
ATOM     13  C   UNL     1       3.362   3.371   3.848  0.00  0.00    +0.000 C 
ATOM     14  C   UNL     1       5.255   0.058   0.878  0.00  0.00    +0.000 C 
ENDBRANCH   4   9
ENDBRANCH   1   5
BRANCH   3  15
ATOM     15  C   UNL     1       1.475   3.823  -2.822  0.00  0.00    +0.000 C 
ATOM     16  C   UNL     1       1.207   5.110  -3.109  0.00  0.00    +0.000 C 
BRANCH  16  17
ATOM     17  C   UNL     1       0.383   5.612  -4.214  0.00  0.00    +0.000 C 
ATOM     18  C   UNL     1       1.070   6.451  -5.261  0.00  0.00    +0.000 C 
ATOM     19  C   UNL     1      -0.931   5.310  -4.209  0.00  0.00    +0.000 C 
BRANCH  19  21
ATOM     20  O   UNL     1      -1.794   6.601  -6.063  0.00  0.00    +0.000 OA
ATOM     21  C   UNL     1      -1.919   5.722  -5.229  0.00  0.00    +0.000 C 
BRANCH  21  22
ATOM     22  O   UNL     1      -3.012   4.931  -5.108  0.00  0.00    +0.000 OA
ATOM     23  H   UNL     1      -2.812   3.993  -5.311  0.00  0.00    +0.000 HD
ENDBRANCH  21  22
ENDBRANCH  19  21
ENDBRANCH  16  17
ENDBRANCH   3  15
TORSDOF 6
ENDMDL
MODEL 5
REMARK VINA RESULT:    -6.700      2.093      3.271
REMARK INTER + INTRA:          -9.512
REMARK INTER:                  -8.490
REMARK INTRA:                  -1.022
REMARK CONF_INDEPENDENT:        1.790
REMARK UNBOUND:                 1.022
REMARK  Name = 444795
REMARK  11 active torsions:
REMARK  status: ('A' for Active; 'I' for Inactive)
REMARK    1  A    between atoms: O_1  and  C_22
REMARK    2  A    between atoms: C_3  and  C_9
REMARK    3  A    between atoms: C_3  and  C_10
REMARK    4  A    between atoms: C_6  and  C_11
REMARK    5  A    between atoms: C_8  and  C_12
REMARK    6  A    between atoms: C_13  and  C_14
REMARK    7  A    between atoms: C_14  and  C_15
REMARK    8  A    between atoms: C_16  and  C_17
REMARK    9  A    between atoms: C_18  and  C_19
REMARK   10  A    between atoms: C_19  and  C_20
REMARK   11  A    between atoms: C_21  and  C_22
REMARK                            x       y       z     vdW  Elec       q    Type
REMARK                         _______ _______ _______ _____ _____    ______ ____
ROOT
ATOM      1  C   UNL     1       0.221   5.748   1.583  0.00  0.00    +0.000 C 
ATOM      2  C   UNL     1      -1.247   5.414   1.442  0.00  0.00    +0.000 C 
ATOM      3  C   UNL     1       0.907   6.114   0.479  0.00  0.00    +0.000 C 
ENDROOT
BRANCH   1   5
ATOM      4  C   UNL     1       1.773   4.800   3.304  0.00  0.00    +0.000 C 
ATOM      5  C   UNL     1       0.807   5.651   2.920  0.00  0.00    +0.000 C 
BRANCH   4   9
ATOM      6  C   UNL     1       3.824   5.043   4.783  0.00  0.00    +0.000 C 
ATOM      7  C   UNL     1       4.353   4.693   6.200  0.00  0.00    +0.000 C 
ATOM      8  C   UNL     1       3.430   5.192   7.298  0.00  0.00    +0.000 C 
ATOM      9  C   UNL     1       2.307   4.761   4.655  0.00  0.00    +0.000 C 
ATOM     10  C   UNL     1       2.055   4.555   7.154  0.00  0.00    +0.000 C 
ATOM     11  C   UNL     1       1.524   4.515   5.735  0.00  0.00    +0.000 C 
ATOM     12  C   UNL     1       4.659   4.194   3.795  0.00  0.00    +0.000 C 
ATOM     13  C   UNL     1       4.097   6.538   4.500  0.00  0.00    +0.000 C 
ATOM     14  C   UNL     1       0.051   4.177   5.699  0.00  0.00    +0.000 C 
ENDBRANCH   4   9
ENDBRANCH   1   5
BRANCH   3  15
ATOM     15  C   UNL     1       0.424   6.241  -0.885  0.00  0.00    +0.000 C 
ATOM     16  C   UNL     1       0.687   5.325  -1.833  0.00  0.00    +0.000 C 
BRANCH  16  17
ATOM     17  C   UNL     1       0.254   5.360  -3.235  0.00  0.00    +0.000 C 
ATOM     18  C   UNL     1       1.328   5.301  -4.291  0.00  0.00    +0.000 C 
ATOM     19  C   UNL     1      -1.067   5.465  -3.484  0.00  0.00    +0.000 C 
BRANCH  19  21
ATOM     20  O   UNL     1      -1.412   6.266  -5.740  0.00  0.00    +0.000 OA
ATOM     21  C   UNL     1      -1.695   5.516  -4.823  0.00  0.00    +0.000 C 
BRANCH  21  22
ATOM     22  O   UNL     1      -2.648   4.555  -4.884  0.00  0.00    +0.000 OA
ATOM     23  H   UNL     1      -2.724   4.170  -5.782  0.00  0.00    +0.000 HD
ENDBRANCH  21  22
ENDBRANCH  19  21
ENDBRANCH  16  17
ENDBRANCH   3  15
TORSDOF 6
ENDMDL
MODEL 6
REMARK VINA RESULT:    -6.327      1.331      1.975
REMARK INTER + INTRA:          -8.755
REMARK INTER:                  -8.116
REMARK INTRA:                  -0.639
REMARK CONF_INDEPENDENT:        1.790
REMARK UNBOUND:                 0.639
REMARK  Name = 444795
REMARK  11 active torsions:
REMARK  status: ('A' for Active; 'I' for Inactive)
REMARK    1  A    between atoms: O_1  and  C_22
REMARK    2  A    between atoms: C_3  and  C_9
REMARK    3  A    between atoms: C_3  and  C_10
REMARK    4  A    between atoms: C_6  and  C_11
REMARK    5  A    between atoms: C_8  and  C_12
REMARK    6  A    between atoms: C_13  and  C_14
REMARK    7  A    between atoms: C_14  and  C_15
REMARK    8  A    between atoms: C_16  and  C_17
REMARK    9  A    between atoms: C_18  and  C_19
REMARK   10  A    between atoms: C_19  and  C_20
REMARK   11  A    between atoms: C_21  and  C_22
REMARK                            x       y       z     vdW  Elec       q    Type
REMARK                         _______ _______ _______ _____ _____    ______ ____
ROOT
ATOM      1  C   UNL     1       3.905   2.614  -0.412  0.00  0.00    +0.000 C 
ATOM      2  C   UNL     1       3.835   1.484  -1.414  0.00  0.00    +0.000 C 
ATOM      3  C   UNL     1       3.495   3.842  -0.798  0.00  0.00    +0.000 C 
ENDROOT
BRANCH   1   5
ATOM      4  C   UNL     1       4.589   3.170   1.931  0.00  0.00    +0.000 C 
ATOM      5  C   UNL     1       4.419   2.301   0.922  0.00  0.00    +0.000 C 
BRANCH   4   9
ATOM      6  C   UNL     1       4.801   3.765   4.392  0.00  0.00    +0.000 C 
ATOM      7  C   UNL     1       5.632   3.428   5.659  0.00  0.00    +0.000 C 
ATOM      8  C   UNL     1       5.647   1.939   5.958  0.00  0.00    +0.000 C 
ATOM      9  C   UNL     1       5.107   2.785   3.233  0.00  0.00    +0.000 C 
ATOM     10  C   UNL     1       6.264   1.180   4.793  0.00  0.00    +0.000 C 
ATOM     11  C   UNL     1       5.794   1.631   3.425  0.00  0.00    +0.000 C 
ATOM     12  C   UNL     1       5.156   5.227   4.026  0.00  0.00    +0.000 C 
ATOM     13  C   UNL     1       3.298   3.697   4.743  0.00  0.00    +0.000 C 
ATOM     14  C   UNL     1       6.182   0.645   2.347  0.00  0.00    +0.000 C 
ENDBRANCH   4   9
ENDBRANCH   1   5
BRANCH   3  15
ATOM     15  C   UNL     1       2.973   4.258  -2.087  0.00  0.00    +0.000 C 
ATOM     16  C   UNL     1       1.792   4.888  -2.220  0.00  0.00    +0.000 C 
BRANCH  16  17
ATOM     17  C   UNL     1       1.174   5.343  -3.471  0.00  0.00    +0.000 C 
ATOM     18  C   UNL     1      -0.330   5.300  -3.553  0.00  0.00    +0.000 C 
ATOM     19  C   UNL     1       1.988   5.747  -4.466  0.00  0.00    +0.000 C 
BRANCH  19  21
ATOM     20  O   UNL     1       0.562   6.890  -6.050  0.00  0.00    +0.000 OA
ATOM     21  C   UNL     1       1.558   6.237  -5.794  0.00  0.00    +0.000 C 
BRANCH  21  22
ATOM     22  O   UNL     1       2.483   5.858  -6.709  0.00  0.00    +0.000 OA
ATOM     23  H   UNL     1       2.771   4.930  -6.578  0.00  0.00    +0.000 HD
ENDBRANCH  21  22
ENDBRANCH  19  21
ENDBRANCH  16  17
ENDBRANCH   3  15
TORSDOF 6
ENDMDL
MODEL 7
REMARK VINA RESULT:    -6.190      1.597      2.902
REMARK INTER + INTRA:          -8.892
REMARK INTER:                  -7.980
REMARK INTRA:                  -0.912
REMARK CONF_INDEPENDENT:        1.790
REMARK UNBOUND:                 0.912
REMARK  Name = 444795
REMARK  11 active torsions:
REMARK  status: ('A' for Active; 'I' for Inactive)
REMARK    1  A    between atoms: O_1  and  C_22
REMARK    2  A    between atoms: C_3  and  C_9
REMARK    3  A    between atoms: C_3  and  C_10
REMARK    4  A    between atoms: C_6  and  C_11
REMARK    5  A    between atoms: C_8  and  C_12
REMARK    6  A    between atoms: C_13  and  C_14
REMARK    7  A    between atoms: C_14  and  C_15
REMARK    8  A    between atoms: C_16  and  C_17
REMARK    9  A    between atoms: C_18  and  C_19
REMARK   10  A    between atoms: C_19  and  C_20
REMARK   11  A    between atoms: C_21  and  C_22
REMARK                            x       y       z     vdW  Elec       q    Type
REMARK                         _______ _______ _______ _____ _____    ______ ____
ROOT
ATOM      1  C   UNL     1       3.654   2.542  -0.287  0.00  0.00    +0.000 C 
ATOM      2  C   UNL     1       4.033   1.412  -1.218  0.00  0.00    +0.000 C 
ATOM      3  C   UNL     1       3.007   3.610  -0.801  0.00  0.00    +0.000 C 
ENDROOT
BRANCH   1   5
ATOM      4  C   UNL     1       4.392   3.393   1.949  0.00  0.00    +0.000 C 
ATOM      5  C   UNL     1       4.018   2.402   1.123  0.00  0.00    +0.000 C 
BRANCH   4   9
ATOM      6  C   UNL     1       6.137   2.558   3.595  0.00  0.00    +0.000 C 
ATOM      7  C   UNL     1       6.299   2.097   5.069  0.00  0.00    +0.000 C 
ATOM      8  C   UNL     1       5.778   3.128   6.054  0.00  0.00    +0.000 C 
ATOM      9  C   UNL     1       4.741   3.178   3.343  0.00  0.00    +0.000 C 
ATOM     10  C   UNL     1       4.296   3.376   5.815  0.00  0.00    +0.000 C 
ATOM     11  C   UNL     1       3.907   3.519   4.357  0.00  0.00    +0.000 C 
ATOM     12  C   UNL     1       6.380   1.300   2.726  0.00  0.00    +0.000 C 
ATOM     13  C   UNL     1       7.232   3.599   3.270  0.00  0.00    +0.000 C 
ATOM     14  C   UNL     1       2.511   4.077   4.203  0.00  0.00    +0.000 C 
ENDBRANCH   4   9
ENDBRANCH   1   5
BRANCH   3  15
ATOM     15  C   UNL     1       2.602   3.847  -2.175  0.00  0.00    +0.000 C 
ATOM     16  C   UNL     1       1.931   4.950  -2.552  0.00  0.00    +0.000 C 
BRANCH  16  17
ATOM     17  C   UNL     1       1.472   5.282  -3.906  0.00  0.00    +0.000 C 
ATOM     18  C   UNL     1       0.019   5.036  -4.222  0.00  0.00    +0.000 C 
ATOM     19  C   UNL     1       2.381   5.761  -4.779  0.00  0.00    +0.000 C 
BRANCH  19  21
ATOM     20  O   UNL     1       1.169   6.795  -6.599  0.00  0.00    +0.000 OA
ATOM     21  C   UNL     1       2.114   6.150  -6.181  0.00  0.00    +0.000 C 
BRANCH  21  22
ATOM     22  O   UNL     1       3.127   5.686  -6.953  0.00  0.00    +0.000 OA
ATOM     23  H   UNL     1       3.162   4.706  -6.963  0.00  0.00    +0.000 HD
ENDBRANCH  21  22
ENDBRANCH  19  21
ENDBRANCH  16  17
ENDBRANCH   3  15
TORSDOF 6
ENDMDL
MODEL 8
REMARK VINA RESULT:    -6.188      2.959      4.202
REMARK INTER + INTRA:          -8.923
REMARK INTER:                  -7.978
REMARK INTRA:                  -0.945
REMARK CONF_INDEPENDENT:        1.790
REMARK UNBOUND:                 0.945
REMARK  Name = 444795
REMARK  11 active torsions:
REMARK  status: ('A' for Active; 'I' for Inactive)
REMARK    1  A    between atoms: O_1  and  C_22
REMARK    2  A    between atoms: C_3  and  C_9
REMARK    3  A    between atoms: C_3  and  C_10
REMARK    4  A    between atoms: C_6  and  C_11
REMARK    5  A    between atoms: C_8  and  C_12
REMARK    6  A    between atoms: C_13  and  C_14
REMARK    7  A    between atoms: C_14  and  C_15
REMARK    8  A    between atoms: C_16  and  C_17
REMARK    9  A    between atoms: C_18  and  C_19
REMARK   10  A    between atoms: C_19  and  C_20
REMARK   11  A    between atoms: C_21  and  C_22
REMARK                            x       y       z     vdW  Elec       q    Type
REMARK                         _______ _______ _______ _____ _____    ______ ____
ROOT
ATOM      1  C   UNL     1       2.008   4.265  -2.311  0.00  0.00    +0.000 C 
ATOM      2  C   UNL     1       0.814   3.555  -1.716  0.00  0.00    +0.000 C 
ATOM      3  C   UNL     1       1.790   5.282  -3.171  0.00  0.00    +0.000 C 
ENDROOT
BRANCH   1   5
ATOM      4  C   UNL     1       3.685   3.335  -0.700  0.00  0.00    +0.000 C 
ATOM      5  C   UNL     1       3.336   3.797  -1.912  0.00  0.00    +0.000 C 
BRANCH   4   9
ATOM      6  C   UNL     1       5.138   1.449   0.187  0.00  0.00    +0.000 C 
ATOM      7  C   UNL     1       6.548   1.170   0.773  0.00  0.00    +0.000 C 
ATOM      8  C   UNL     1       7.657   1.677  -0.132  0.00  0.00    +0.000 C 
ATOM      9  C   UNL     1       5.029   2.887  -0.376  0.00  0.00    +0.000 C 
ATOM     10  C   UNL     1       7.530   3.182  -0.319  0.00  0.00    +0.000 C 
ATOM     11  C   UNL     1       6.119   3.670  -0.575  0.00  0.00    +0.000 C 
ATOM     12  C   UNL     1       4.139   1.200   1.344  0.00  0.00    +0.000 C 
ATOM     13  C   UNL     1       4.850   0.430  -0.939  0.00  0.00    +0.000 C 
ATOM     14  C   UNL     1       6.101   5.099  -1.068  0.00  0.00    +0.000 C 
ENDBRANCH   4   9
ENDBRANCH   1   5
BRANCH   3  15
ATOM     15  C   UNL     1       0.522   5.822  -3.630  0.00  0.00    +0.000 C 
ATOM     16  C   UNL     1      -0.300   5.141  -4.448  0.00  0.00    +0.000 C 
BRANCH  16  17
ATOM     17  C   UNL     1      -1.594   5.595  -4.972  0.00  0.00    +0.000 C 
ATOM     18  C   UNL     1      -1.727   7.057  -5.310  0.00  0.00    +0.000 C 
ATOM     19  C   UNL     1      -2.579   4.682  -5.095  0.00  0.00    +0.000 C 
BRANCH  19  21
ATOM     20  O   UNL     1      -4.557   5.996  -5.555  0.00  0.00    +0.000 OA
ATOM     21  C   UNL     1      -3.944   4.944  -5.600  0.00  0.00    +0.000 C 
BRANCH  21  22
ATOM     22  O   UNL     1      -4.417   3.805  -6.162  0.00  0.00    +0.000 OA
ATOM     23  H   UNL     1      -3.693   3.200  -6.430  0.00  0.00    +0.000 HD
ENDBRANCH  21  22
ENDBRANCH  19  21
ENDBRANCH  16  17
ENDBRANCH   3  15
TORSDOF 6
ENDMDL
MODEL 9
REMARK VINA RESULT:    -6.026      1.772      3.199
REMARK INTER + INTRA:          -8.689
REMARK INTER:                  -7.816
REMARK INTRA:                  -0.873
REMARK CONF_INDEPENDENT:        1.790
REMARK UNBOUND:                 0.873
REMARK  Name = 444795
REMARK  11 active torsions:
REMARK  status: ('A' for Active; 'I' for Inactive)
REMARK    1  A    between atoms: O_1  and  C_22
REMARK    2  A    between atoms: C_3  and  C_9
REMARK    3  A    between atoms: C_3  and  C_10
REMARK    4  A    between atoms: C_6  and  C_11
REMARK    5  A    between atoms: C_8  and  C_12
REMARK    6  A    between atoms: C_13  and  C_14
REMARK    7  A    between atoms: C_14  and  C_15
REMARK    8  A    between atoms: C_16  and  C_17
REMARK    9  A    between atoms: C_18  and  C_19
REMARK   10  A    between atoms: C_19  and  C_20
REMARK   11  A    between atoms: C_21  and  C_22
REMARK                            x       y       z     vdW  Elec       q    Type
REMARK                         _______ _______ _______ _____ _____    ______ ____
ROOT
ATOM      1  C   UNL     1       3.182   4.101   0.883  0.00  0.00    +0.000 C 
ATOM      2  C   UNL     1       3.661   2.749   0.406  0.00  0.00    +0.000 C 
ATOM      3  C   UNL     1       2.562   4.913  -0.000  0.00  0.00    +0.000 C 
ENDROOT
BRANCH   1   5
ATOM      4  C   UNL     1       2.967   3.775   3.357  0.00  0.00    +0.000 C 
ATOM      5  C   UNL     1       3.423   4.444   2.285  0.00  0.00    +0.000 C 
BRANCH   4   9
ATOM      6  C   UNL     1       4.744   4.371   5.071  0.00  0.00    +0.000 C 
ATOM      7  C   UNL     1       4.962   4.507   6.602  0.00  0.00    +0.000 C 
ATOM      8  C   UNL     1       3.946   5.433   7.248  0.00  0.00    +0.000 C 
ATOM      9  C   UNL     1       3.247   4.178   4.724  0.00  0.00    +0.000 C 
ATOM     10  C   UNL     1       2.539   4.893   7.034  0.00  0.00    +0.000 C 
ATOM     11  C   UNL     1       2.262   4.392   5.631  0.00  0.00    +0.000 C 
ATOM     12  C   UNL     1       5.605   3.164   4.624  0.00  0.00    +0.000 C 
ATOM     13  C   UNL     1       5.277   5.642   4.372  0.00  0.00    +0.000 C 
ATOM     14  C   UNL     1       0.784   4.178   5.396  0.00  0.00    +0.000 C 
ENDBRANCH   4   9
ENDBRANCH   1   5
BRANCH   3  15
ATOM     15  C   UNL     1       2.274   4.672  -1.403  0.00  0.00    +0.000 C 
ATOM     16  C   UNL     1       1.920   5.655  -2.248  0.00  0.00    +0.000 C 
BRANCH  16  17
ATOM     17  C   UNL     1       1.604   5.518  -3.675  0.00  0.00    +0.000 C 
ATOM     18  C   UNL     1       0.515   4.547  -4.051  0.00  0.00    +0.000 C 
ATOM     19  C   UNL     1       2.320   6.250  -4.552  0.00  0.00    +0.000 C 
BRANCH  19  21
ATOM     20  O   UNL     1       1.208   6.689  -6.655  0.00  0.00    +0.000 OA
ATOM     21  C   UNL     1       2.152   6.250  -6.022  0.00  0.00    +0.000 C 
BRANCH  21  22
ATOM     22  O   UNL     1       3.255   5.692  -6.577  0.00  0.00    +0.000 OA
ATOM     23  H   UNL     1       3.061   4.821  -6.984  0.00  0.00    +0.000 HD
ENDBRANCH  21  22
ENDBRANCH  19  21
ENDBRANCH  16  17
ENDBRANCH   3  15
TORSDOF 6
ENDMDL
