MODEL 1
REMARK VINA RESULT:    95.805      0.000      0.000
REMARK INTER + INTRA:          93.497
REMARK INTER:                  94.016
REMARK INTRA:                  -0.518
REMARK CONF_INDEPENDENT:        1.790
REMARK UNBOUND:                 0.518
REMARK  Name = 5282379
REMARK  11 active torsions:
REMARK  status: ('A' for Active; 'I' for Inactive)
REMARK    1  A    between atoms: O_1  and  C_22
REMARK    2  A    between atoms: C_3  and  C_9
REMARK    3  A    between atoms: C_3  and  C_10
REMARK    4  A    between atoms: C_6  and  C_11
REMARK    5  A    between atoms: C_8  and  C_12
REMARK    6  A    between atoms: C_13  and  C_14
REMARK    7  A    between atoms: C_14  and  C_15
REMARK    8  A    between atoms: C_16  and  C_17
REMARK    9  A    between atoms: C_18  and  C_19
REMARK   10  A    between atoms: C_19  and  C_20
REMARK   11  A    between atoms: C_21  and  C_22
REMARK                            x       y       z     vdW  Elec       q    Type
REMARK                         _______ _______ _______ _____ _____    ______ ____
ROOT
ATOM      1  C   UNL     1       1.131  -1.018   1.670  0.00  0.00    +0.000 C 
ATOM      2  C   UNL     1       1.983  -1.998   2.444  0.00  0.00    +0.000 C 
ATOM      3  C   UNL     1      -0.156  -1.344   1.417  0.00  0.00    +0.000 C 
ENDROOT
BRANCH   1   5
ATOM      4  C   UNL     1       2.888   0.764   1.743  0.00  0.00    +0.000 C 
ATOM      5  C   UNL     1       1.761   0.232   1.243  0.00  0.00    +0.000 C 
BRANCH   4   9
ATOM      6  C   UNL     1       2.434   3.097   0.849  0.00  0.00    +0.000 C 
ATOM      7  C   UNL     1       3.119   4.267   0.090  0.00  0.00    +0.000 C 
ATOM      8  C   UNL     1       4.408   4.710   0.758  0.00  0.00    +0.000 C 
ATOM      9  C   UNL     1       3.456   2.015   1.268  0.00  0.00    +0.000 C 
ATOM     10  C   UNL     1       5.396   3.553   0.802  0.00  0.00    +0.000 C 
ATOM     11  C   UNL     1       4.796   2.226   1.216  0.00  0.00    +0.000 C 
ATOM     12  C   UNL     1       1.355   2.539  -0.110  0.00  0.00    +0.000 C 
ATOM     13  C   UNL     1       1.732   3.659   2.107  0.00  0.00    +0.000 C 
ATOM     14  C   UNL     1       5.863   1.209   1.553  0.00  0.00    +0.000 C 
ENDBRANCH   4   9
ENDBRANCH   1   5
BRANCH   3  15
ATOM     15  C   UNL     1      -0.874  -2.548   1.793  0.00  0.00    +0.000 C 
ATOM     16  C   UNL     1      -0.819  -3.679   1.067  0.00  0.00    +0.000 C 
BRANCH  16  17
ATOM     17  C   UNL     1      -1.507  -4.943   1.354  0.00  0.00    +0.000 C 
ATOM     18  C   UNL     1      -1.094  -5.688   2.597  0.00  0.00    +0.000 C 
ATOM     19  C   UNL     1      -2.443  -5.363   0.479  0.00  0.00    +0.000 C 
BRANCH  19  21
ATOM     20  O   UNL     1      -2.356  -4.783  -1.867  0.00  0.00    +0.000 OA
ATOM     21  C   UNL     1      -2.849  -4.665  -0.761  0.00  0.00    +0.000 C 
BRANCH  21  22
ATOM     22  O   UNL     1      -3.905  -3.864  -0.472  0.00  0.00    +0.000 OA
ATOM     23  H   UNL     1      -4.216  -3.369  -1.259  0.00  0.00    +0.000 HD
ENDBRANCH  21  22
ENDBRANCH  19  21
ENDBRANCH  16  17
ENDBRANCH   3  15
TORSDOF 6
ENDMDL
