MODEL 1
REMARK VINA RESULT:   114.332      0.000      0.000
REMARK INTER + INTRA:         111.420
REMARK INTER:                 112.542
REMARK INTRA:                  -1.121
REMARK CONF_INDEPENDENT:        1.790
REMARK UNBOUND:                 1.121
REMARK  Name = 449171
REMARK  11 active torsions:
REMARK  status: ('A' for Active; 'I' for Inactive)
REMARK    1  A    between atoms: O_1  and  C_22
REMARK    2  A    between atoms: C_3  and  C_9
REMARK    3  A    between atoms: C_3  and  C_10
REMARK    4  A    between atoms: C_6  and  C_11
REMARK    5  A    between atoms: C_8  and  C_12
REMARK    6  A    between atoms: C_13  and  C_14
REMARK    7  A    between atoms: C_14  and  C_15
REMARK    8  A    between atoms: C_16  and  C_17
REMARK    9  A    between atoms: C_18  and  C_19
REMARK   10  A    between atoms: C_19  and  C_20
REMARK   11  A    between atoms: C_21  and  C_22
REMARK                            x       y       z     vdW  Elec       q    Type
REMARK                         _______ _______ _______ _____ _____    ______ ____
ROOT
ATOM      1  C   UNL     1       2.124   0.609   1.196  0.00  0.00    +0.000 C 
ATOM      2  C   UNL     1       3.415   0.725   1.972  0.00  0.00    +0.000 C 
ATOM      3  C   UNL     1       1.603   1.726   0.642  0.00  0.00    +0.000 C 
ENDROOT
BRANCH   1   5
ATOM      4  C   UNL     1       0.387  -1.125   1.694  0.00  0.00    +0.000 C 
ATOM      5  C   UNL     1       1.517  -0.719   1.093  0.00  0.00    +0.000 C 
BRANCH   4   9
ATOM      6  C   UNL     1       0.715  -3.452   0.732  0.00  0.00    +0.000 C 
ATOM      7  C   UNL     1       0.205  -4.913   0.872  0.00  0.00    +0.000 C 
ATOM      8  C   UNL     1      -1.305  -5.009   0.748  0.00  0.00    +0.000 C 
ATOM      9  C   UNL     1      -0.156  -2.465   1.545  0.00  0.00    +0.000 C 
ATOM     10  C   UNL     1      -1.972  -4.187   1.840  0.00  0.00    +0.000 C 
ATOM     11  C   UNL     1      -1.358  -2.819   2.063  0.00  0.00    +0.000 C 
ATOM     12  C   UNL     1       0.691  -3.053  -0.762  0.00  0.00    +0.000 C 
ATOM     13  C   UNL     1       2.186  -3.466   1.215  0.00  0.00    +0.000 C 
ATOM     14  C   UNL     1      -2.247  -1.938   2.912  0.00  0.00    +0.000 C 
ENDBRANCH   4   9
ENDBRANCH   1   5
BRANCH   3  15
ATOM     15  C   UNL     1       0.386   1.865  -0.139  0.00  0.00    +0.000 C 
ATOM     16  C   UNL     1      -0.762   2.326   0.389  0.00  0.00    +0.000 C 
BRANCH  16  17
ATOM     17  C   UNL     1      -2.043   2.499  -0.307  0.00  0.00    +0.000 C 
ATOM     18  C   UNL     1      -2.254   3.793  -1.051  0.00  0.00    +0.000 C 
ATOM     19  C   UNL     1      -2.949   1.505  -0.215  0.00  0.00    +0.000 C 
BRANCH  19  21
ATOM     20  O   UNL     1      -5.132   2.371  -0.794  0.00  0.00    +0.000 OA
ATOM     21  C   UNL     1      -4.289   1.494  -0.842  0.00  0.00    +0.000 C 
BRANCH  21  22
ATOM     22  O   UNL     1      -4.432   0.329  -1.520  0.00  0.00    +0.000 OA
ATOM     23  H   UNL     1      -4.162  -0.446  -0.981  0.00  0.00    +0.000 HD
ENDBRANCH  21  22
ENDBRANCH  19  21
ENDBRANCH  16  17
ENDBRANCH   3  15
TORSDOF 6
ENDMDL
