MODEL 1
REMARK VINA RESULT:   131.694      0.000      0.000
REMARK INTER + INTRA:         131.701
REMARK INTER:                 129.904
REMARK INTRA:                   1.797
REMARK CONF_INDEPENDENT:        1.790
REMARK UNBOUND:                -1.797
REMARK  Name = 444795
REMARK  11 active torsions:
REMARK  status: ('A' for Active; 'I' for Inactive)
REMARK    1  A    between atoms: O_1  and  C_22
REMARK    2  A    between atoms: C_3  and  C_9
REMARK    3  A    between atoms: C_3  and  C_10
REMARK    4  A    between atoms: C_6  and  C_11
REMARK    5  A    between atoms: C_8  and  C_12
REMARK    6  A    between atoms: C_13  and  C_14
REMARK    7  A    between atoms: C_14  and  C_15
REMARK    8  A    between atoms: C_16  and  C_17
REMARK    9  A    between atoms: C_18  and  C_19
REMARK   10  A    between atoms: C_19  and  C_20
REMARK   11  A    between atoms: C_21  and  C_22
REMARK                            x       y       z     vdW  Elec       q    Type
REMARK                         _______ _______ _______ _____ _____    ______ ____
ROOT
ATOM      1  C   UNL     1       1.964  -0.825   2.119  0.00  0.00    +0.000 C 
ATOM      2  C   UNL     1       1.223  -1.009   3.423  0.00  0.00    +0.000 C 
ATOM      3  C   UNL     1       1.858  -1.786   1.176  0.00  0.00    +0.000 C 
ENDROOT
BRANCH   1   5
ATOM      4  C   UNL     1       2.599   1.328   1.008  0.00  0.00    +0.000 C 
ATOM      5  C   UNL     1       2.757   0.395   1.962  0.00  0.00    +0.000 C 
BRANCH   4   9
ATOM      6  C   UNL     1       2.669   3.844   0.664  0.00  0.00    +0.000 C 
ATOM      7  C   UNL     1       3.640   4.995   0.288  0.00  0.00    +0.000 C 
ATOM      8  C   UNL     1       4.870   5.023   1.177  0.00  0.00    +0.000 C 
ATOM      9  C   UNL     1       3.428   2.518   0.914  0.00  0.00    +0.000 C 
ATOM     10  C   UNL     1       5.640   3.717   1.046  0.00  0.00    +0.000 C 
ATOM     11  C   UNL     1       4.776   2.472   1.058  0.00  0.00    +0.000 C 
ATOM     12  C   UNL     1       1.669   3.728  -0.512  0.00  0.00    +0.000 C 
ATOM     13  C   UNL     1       1.888   4.240   1.937  0.00  0.00    +0.000 C 
ATOM     14  C   UNL     1       5.602   1.221   1.251  0.00  0.00    +0.000 C 
ENDBRANCH   4   9
ENDBRANCH   1   5
BRANCH   3  15
ATOM     15  C   UNL     1       1.104  -3.026   1.230  0.00  0.00    +0.000 C 
ATOM     16  C   UNL     1      -0.230  -3.068   1.067  0.00  0.00    +0.000 C 
BRANCH  16  17
ATOM     17  C   UNL     1      -1.084  -4.261   1.108  0.00  0.00    +0.000 C 
ATOM     18  C   UNL     1      -0.900  -5.203   2.270  0.00  0.00    +0.000 C 
ATOM     19  C   UNL     1      -1.957  -4.447   0.097  0.00  0.00    +0.000 C 
BRANCH  19  21
ATOM     20  O   UNL     1      -3.634  -5.816  -0.981  0.00  0.00    +0.000 OA
ATOM     21  C   UNL     1      -2.896  -5.581  -0.040  0.00  0.00    +0.000 C 
BRANCH  21  22
ATOM     22  O   UNL     1      -2.790  -6.359   1.064  0.00  0.00    +0.000 OA
ATOM     23  H   UNL     1      -1.944  -6.211   1.538  0.00  0.00    +0.000 HD
ENDBRANCH  21  22
ENDBRANCH  19  21
ENDBRANCH  16  17
ENDBRANCH   3  15
TORSDOF 6
ENDMDL
