MODEL 1
REMARK VINA RESULT:    -7.263      0.000      0.000
REMARK INTER + INTRA:          -9.863
REMARK INTER:                  -9.053
REMARK INTRA:                  -0.810
REMARK CONF_INDEPENDENT:        1.790
REMARK UNBOUND:                 0.810
REMARK  Name = 449171
REMARK  11 active torsions:
REMARK  status: ('A' for Active; 'I' for Inactive)
REMARK    1  A    between atoms: O_1  and  C_22
REMARK    2  A    between atoms: C_3  and  C_9
REMARK    3  A    between atoms: C_3  and  C_10
REMARK    4  A    between atoms: C_6  and  C_11
REMARK    5  A    between atoms: C_8  and  C_12
REMARK    6  A    between atoms: C_13  and  C_14
REMARK    7  A    between atoms: C_14  and  C_15
REMARK    8  A    between atoms: C_16  and  C_17
REMARK    9  A    between atoms: C_18  and  C_19
REMARK   10  A    between atoms: C_19  and  C_20
REMARK   11  A    between atoms: C_21  and  C_22
REMARK                            x       y       z     vdW  Elec       q    Type
REMARK                         _______ _______ _______ _____ _____    ______ ____
ROOT
ATOM      1  C   UNL     1       1.831  -1.044  -6.610  0.00  0.00    +0.000 C 
ATOM      2  C   UNL     1       3.139  -0.373  -6.961  0.00  0.00    +0.000 C 
ATOM      3  C   UNL     1       0.708  -0.294  -6.595  0.00  0.00    +0.000 C 
ENDROOT
BRANCH   1   5
ATOM      4  C   UNL     1       2.635  -3.072  -5.381  0.00  0.00    +0.000 C 
ATOM      5  C   UNL     1       1.869  -2.475  -6.308  0.00  0.00    +0.000 C 
BRANCH   4   9
ATOM      6  C   UNL     1       2.954  -4.941  -3.691  0.00  0.00    +0.000 C 
ATOM      7  C   UNL     1       2.629  -6.442  -3.457  0.00  0.00    +0.000 C 
ATOM      8  C   UNL     1       3.100  -7.318  -4.604  0.00  0.00    +0.000 C 
ATOM      9  C   UNL     1       2.618  -4.505  -5.137  0.00  0.00    +0.000 C 
ATOM     10  C   UNL     1       2.414  -6.899  -5.896  0.00  0.00    +0.000 C 
ATOM     11  C   UNL     1       2.350  -5.401  -6.119  0.00  0.00    +0.000 C 
ATOM     12  C   UNL     1       4.457  -4.703  -3.416  0.00  0.00    +0.000 C 
ATOM     13  C   UNL     1       2.130  -4.157  -2.640  0.00  0.00    +0.000 C 
ATOM     14  C   UNL     1       1.962  -5.063  -7.541  0.00  0.00    +0.000 C 
ENDBRANCH   4   9
ENDBRANCH   1   5
BRANCH   3  15
ATOM     15  C   UNL     1      -0.651  -0.707  -6.291  0.00  0.00    +0.000 C 
ATOM     16  C   UNL     1      -1.649   0.174  -6.101  0.00  0.00    +0.000 C 
BRANCH  16  17
ATOM     17  C   UNL     1      -3.048  -0.136  -5.784  0.00  0.00    +0.000 C 
ATOM     18  C   UNL     1      -3.447  -0.114  -4.331  0.00  0.00    +0.000 C 
ATOM     19  C   UNL     1      -3.874  -0.440  -6.806  0.00  0.00    +0.000 C 
BRANCH  19  21
ATOM     20  O   UNL     1      -5.793  -1.880  -6.504  0.00  0.00    +0.000 OA
ATOM     21  C   UNL     1      -5.309  -0.779  -6.689  0.00  0.00    +0.000 C 
BRANCH  21  22
ATOM     22  O   UNL     1      -6.027   0.366  -6.800  0.00  0.00    +0.000 OA
ATOM     23  H   UNL     1      -5.520   1.075  -7.249  0.00  0.00    +0.000 HD
ENDBRANCH  21  22
ENDBRANCH  19  21
ENDBRANCH  16  17
ENDBRANCH   3  15
TORSDOF 6
ENDMDL
