MODEL 1
REMARK VINA RESULT:    -5.652      0.000      0.000
REMARK INTER + INTRA:          -9.709
REMARK INTER:                  -8.635
REMARK INTRA:                  -1.074
REMARK CONF_INDEPENDENT:        2.983
REMARK UNBOUND:                 1.074
REMARK  Name = 6437836
REMARK  15 active torsions:
REMARK  status: ('A' for Active; 'I' for Inactive)
REMARK    1  A    between atoms: O_1  and  C_22
REMARK    2  A    between atoms: C_3  and  C_4
REMARK    3  A    between atoms: C_3  and  C_7
REMARK    4  A    between atoms: C_4  and  C_10
REMARK    5  A    between atoms: C_5  and  C_6
REMARK    6  A    between atoms: C_5  and  C_8
REMARK    7  A    between atoms: C_6  and  C_9
REMARK    8  A    between atoms: C_7  and  C_11
REMARK    9  A    between atoms: C_9  and  C_13
REMARK   10  A    between atoms: C_12  and  C_15
REMARK   11  A    between atoms: C_12  and  C_16
REMARK   12  A    between atoms: C_14  and  C_17
REMARK   13  A    between atoms: C_18  and  C_19
REMARK   14  A    between atoms: C_19  and  C_20
REMARK   15  A    between atoms: C_21  and  C_22
REMARK                            x       y       z     vdW  Elec       q    Type
REMARK                         _______ _______ _______ _____ _____    ______ ____
ROOT
ATOM      1  C   UNL     1      -0.551   0.110  -6.625  0.00  0.00    +0.000 C 
ATOM      2  C   UNL     1      -1.158   0.223  -5.248  0.00  0.00    +0.000 C 
ATOM      3  C   UNL     1      -0.553   1.180  -7.446  0.00  0.00    +0.000 C 
ENDROOT
BRANCH   3   4
ATOM      4  C   UNL     1      -1.090   2.496  -7.164  0.00  0.00    +0.000 C 
ATOM      5  C   UNL     1      -0.312   3.586  -7.042  0.00  0.00    +0.000 C 
BRANCH   5   6
ATOM      6  C   UNL     1      -0.759   4.961  -6.792  0.00  0.00    +0.000 C 
ATOM      7  C   UNL     1       0.309   6.009  -6.609  0.00  0.00    +0.000 C 
ATOM      8  C   UNL     1      -2.085   5.188  -6.714  0.00  0.00    +0.000 C 
BRANCH   8  10
ATOM      9  O   UNL     1      -2.730   7.466  -7.210  0.00  0.00    +0.000 OA
ATOM     10  C   UNL     1      -2.728   6.499  -6.470  0.00  0.00    +0.000 C 
BRANCH  10  11
ATOM     11  O   UNL     1      -3.353   6.449  -5.270  0.00  0.00    +0.000 OA
ATOM     12  H   UNL     1      -2.762   6.723  -4.536  0.00  0.00    +0.000 HD
ENDBRANCH  10  11
ENDBRANCH   8  10
ENDBRANCH   5   6
ENDBRANCH   3   4
BRANCH   1  13
ATOM     13  C   UNL     1      -0.012  -1.263  -6.976  0.00  0.00    +0.000 C 
BRANCH  13  14
ATOM     14  C   UNL     1       1.442  -1.500  -6.539  0.00  0.00    +0.000 C 
BRANCH  14  16
ATOM     15  C   UNL     1       2.290  -3.837  -5.926  0.00  0.00    +0.000 C 
ATOM     16  C   UNL     1       1.914  -2.901  -6.819  0.00  0.00    +0.000 C 
ATOM     17  C   UNL     1       2.298  -3.633  -4.436  0.00  0.00    +0.000 C 
BRANCH  15  18
ATOM     18  C   UNL     1       2.687  -5.223  -6.403  0.00  0.00    +0.000 C 
BRANCH  18  19
ATOM     19  C   UNL     1       2.933  -6.249  -5.288  0.00  0.00    +0.000 C 
BRANCH  19  20
ATOM     20  C   UNL     1       4.383  -6.410  -4.923  0.00  0.00    +0.000 C 
ATOM     21  C   UNL     1       4.959  -6.175  -3.729  0.00  0.00    +0.000 C 
ATOM     22  C   UNL     1       4.239  -5.689  -2.503  0.00  0.00    +0.000 C 
ATOM     23  C   UNL     1       6.436  -6.390  -3.537  0.00  0.00    +0.000 C 
ENDBRANCH  19  20
ENDBRANCH  18  19
ENDBRANCH  15  18
ENDBRANCH  14  16
ENDBRANCH  13  14
ENDBRANCH   1  13
TORSDOF 10
ENDMDL
MODEL 2
REMARK VINA RESULT:    -4.919      1.539      1.924
REMARK INTER + INTRA:          -8.948
REMARK INTER:                  -7.902
REMARK INTRA:                  -1.047
REMARK CONF_INDEPENDENT:        2.983
REMARK UNBOUND:                 1.047
REMARK  Name = 6437836
REMARK  15 active torsions:
REMARK  status: ('A' for Active; 'I' for Inactive)
REMARK    1  A    between atoms: O_1  and  C_22
REMARK    2  A    between atoms: C_3  and  C_4
REMARK    3  A    between atoms: C_3  and  C_7
REMARK    4  A    between atoms: C_4  and  C_10
REMARK    5  A    between atoms: C_5  and  C_6
REMARK    6  A    between atoms: C_5  and  C_8
REMARK    7  A    between atoms: C_6  and  C_9
REMARK    8  A    between atoms: C_7  and  C_11
REMARK    9  A    between atoms: C_9  and  C_13
REMARK   10  A    between atoms: C_12  and  C_15
REMARK   11  A    between atoms: C_12  and  C_16
REMARK   12  A    between atoms: C_14  and  C_17
REMARK   13  A    between atoms: C_18  and  C_19
REMARK   14  A    between atoms: C_19  and  C_20
REMARK   15  A    between atoms: C_21  and  C_22
REMARK                            x       y       z     vdW  Elec       q    Type
REMARK                         _______ _______ _______ _____ _____    ______ ____
ROOT
ATOM      1  C   UNL     1      -1.284   0.359  -6.406  0.00  0.00    +0.000 C 
ATOM      2  C   UNL     1      -1.473   0.313  -4.911  0.00  0.00    +0.000 C 
ATOM      3  C   UNL     1      -1.413   1.532  -7.060  0.00  0.00    +0.000 C 
ENDROOT
BRANCH   3   4
ATOM      4  C   UNL     1      -1.727   2.824  -6.484  0.00  0.00    +0.000 C 
ATOM      5  C   UNL     1      -0.809   3.793  -6.332  0.00  0.00    +0.000 C 
BRANCH   5   6
ATOM      6  C   UNL     1      -1.032   5.140  -5.793  0.00  0.00    +0.000 C 
ATOM      7  C   UNL     1      -1.169   6.265  -6.787  0.00  0.00    +0.000 C 
ATOM      8  C   UNL     1      -1.069   5.284  -4.453  0.00  0.00    +0.000 C 
BRANCH   8  10
ATOM      9  O   UNL     1      -0.494   7.474  -3.604  0.00  0.00    +0.000 OA
ATOM     10  C   UNL     1      -1.282   6.553  -3.723  0.00  0.00    +0.000 C 
BRANCH  10  11
ATOM     11  O   UNL     1      -2.536   6.544  -3.211  0.00  0.00    +0.000 OA
ATOM     12  H   UNL     1      -2.532   6.564  -2.230  0.00  0.00    +0.000 HD
ENDBRANCH  10  11
ENDBRANCH   8  10
ENDBRANCH   5   6
ENDBRANCH   3   4
BRANCH   1  13
ATOM     13  C   UNL     1      -0.991  -0.979  -7.056  0.00  0.00    +0.000 C 
BRANCH  13  14
ATOM     14  C   UNL     1       0.497  -1.226  -7.350  0.00  0.00    +0.000 C 
BRANCH  14  16
ATOM     15  C   UNL     1       2.247  -3.022  -6.832  0.00  0.00    +0.000 C 
ATOM     16  C   UNL     1       0.991  -2.535  -6.797  0.00  0.00    +0.000 C 
ATOM     17  C   UNL     1       3.416  -2.309  -7.453  0.00  0.00    +0.000 C 
BRANCH  15  18
ATOM     18  C   UNL     1       2.564  -4.350  -6.166  0.00  0.00    +0.000 C 
BRANCH  18  19
ATOM     19  C   UNL     1       2.271  -4.410  -4.662  0.00  0.00    +0.000 C 
BRANCH  19  20
ATOM     20  C   UNL     1       3.507  -4.430  -3.805  0.00  0.00    +0.000 C 
ATOM     21  C   UNL     1       4.226  -5.503  -3.428  0.00  0.00    +0.000 C 
ATOM     22  C   UNL     1       3.915  -6.926  -3.800  0.00  0.00    +0.000 C 
ATOM     23  C   UNL     1       5.445  -5.341  -2.561  0.00  0.00    +0.000 C 
ENDBRANCH  19  20
ENDBRANCH  18  19
ENDBRANCH  15  18
ENDBRANCH  14  16
ENDBRANCH  13  14
ENDBRANCH   1  13
TORSDOF 10
ENDMDL
MODEL 3
REMARK VINA RESULT:    -4.483      6.108     11.101
REMARK INTER + INTRA:          -8.444
REMARK INTER:                  -7.466
REMARK INTRA:                  -0.978
REMARK CONF_INDEPENDENT:        2.983
REMARK UNBOUND:                 0.978
REMARK  Name = 6437836
REMARK  15 active torsions:
REMARK  status: ('A' for Active; 'I' for Inactive)
REMARK    1  A    between atoms: O_1  and  C_22
REMARK    2  A    between atoms: C_3  and  C_4
REMARK    3  A    between atoms: C_3  and  C_7
REMARK    4  A    between atoms: C_4  and  C_10
REMARK    5  A    between atoms: C_5  and  C_6
REMARK    6  A    between atoms: C_5  and  C_8
REMARK    7  A    between atoms: C_6  and  C_9
REMARK    8  A    between atoms: C_7  and  C_11
REMARK    9  A    between atoms: C_9  and  C_13
REMARK   10  A    between atoms: C_12  and  C_15
REMARK   11  A    between atoms: C_12  and  C_16
REMARK   12  A    between atoms: C_14  and  C_17
REMARK   13  A    between atoms: C_18  and  C_19
REMARK   14  A    between atoms: C_19  and  C_20
REMARK   15  A    between atoms: C_21  and  C_22
REMARK                            x       y       z     vdW  Elec       q    Type
REMARK                         _______ _______ _______ _____ _____    ______ ____
ROOT
ATOM      1  C   UNL     1       3.477  -6.322  -5.425  0.00  0.00    +0.000 C 
ATOM      2  C   UNL     1       4.552  -7.155  -6.077  0.00  0.00    +0.000 C 
ATOM      3  C   UNL     1       3.582  -6.000  -4.119  0.00  0.00    +0.000 C 
ENDROOT
BRANCH   3   4
ATOM      4  C   UNL     1       4.648  -6.370  -3.210  0.00  0.00    +0.000 C 
ATOM      5  C   UNL     1       4.640  -6.037  -1.908  0.00  0.00    +0.000 C 
BRANCH   5   6
ATOM      6  C   UNL     1       5.650  -6.390  -0.904  0.00  0.00    +0.000 C 
ATOM      7  C   UNL     1       7.037  -6.703  -1.403  0.00  0.00    +0.000 C 
ATOM      8  C   UNL     1       5.264  -6.440   0.386  0.00  0.00    +0.000 C 
BRANCH   8  10
ATOM      9  O   UNL     1       7.173  -7.403   1.516  0.00  0.00    +0.000 OA
ATOM     10  C   UNL     1       6.130  -6.775   1.539  0.00  0.00    +0.000 C 
BRANCH  10  11
ATOM     11  O   UNL     1       5.581  -6.238   2.654  0.00  0.00    +0.000 OA
ATOM     12  H   UNL     1       5.064  -5.428   2.455  0.00  0.00    +0.000 HD
ENDBRANCH  10  11
ENDBRANCH   8  10
ENDBRANCH   5   6
ENDBRANCH   3   4
BRANCH   1  13
ATOM     13  C   UNL     1       2.321  -5.945  -6.330  0.00  0.00    +0.000 C 
BRANCH  13  14
ATOM     14  C   UNL     1       2.631  -4.799  -7.305  0.00  0.00    +0.000 C 
BRANCH  14  16
ATOM     15  C   UNL     1       1.470  -2.526  -7.109  0.00  0.00    +0.000 C 
ATOM     16  C   UNL     1       1.490  -3.829  -7.448  0.00  0.00    +0.000 C 
ATOM     17  C   UNL     1       2.635  -1.788  -6.506  0.00  0.00    +0.000 C 
BRANCH  15  18
ATOM     18  C   UNL     1       0.232  -1.689  -7.382  0.00  0.00    +0.000 C 
BRANCH  18  19
ATOM     19  C   UNL     1       0.349  -0.209  -6.994  0.00  0.00    +0.000 C 
BRANCH  19  20
ATOM     20  C   UNL     1      -0.621   0.213  -5.924  0.00  0.00    +0.000 C 
ATOM     21  C   UNL     1      -1.965   0.169  -5.973  0.00  0.00    +0.000 C 
ATOM     22  C   UNL     1      -2.772  -0.319  -7.142  0.00  0.00    +0.000 C 
ATOM     23  C   UNL     1      -2.789   0.636  -4.803  0.00  0.00    +0.000 C 
ENDBRANCH  19  20
ENDBRANCH  18  19
ENDBRANCH  15  18
ENDBRANCH  14  16
ENDBRANCH  13  14
ENDBRANCH   1  13
TORSDOF 10
ENDMDL
MODEL 4
REMARK VINA RESULT:    -4.471      1.955      3.892
REMARK INTER + INTRA:          -8.069
REMARK INTER:                  -7.454
REMARK INTRA:                  -0.615
REMARK CONF_INDEPENDENT:        2.983
REMARK UNBOUND:                 0.615
REMARK  Name = 6437836
REMARK  15 active torsions:
REMARK  status: ('A' for Active; 'I' for Inactive)
REMARK    1  A    between atoms: O_1  and  C_22
REMARK    2  A    between atoms: C_3  and  C_4
REMARK    3  A    between atoms: C_3  and  C_7
REMARK    4  A    between atoms: C_4  and  C_10
REMARK    5  A    between atoms: C_5  and  C_6
REMARK    6  A    between atoms: C_5  and  C_8
REMARK    7  A    between atoms: C_6  and  C_9
REMARK    8  A    between atoms: C_7  and  C_11
REMARK    9  A    between atoms: C_9  and  C_13
REMARK   10  A    between atoms: C_12  and  C_15
REMARK   11  A    between atoms: C_12  and  C_16
REMARK   12  A    between atoms: C_14  and  C_17
REMARK   13  A    between atoms: C_18  and  C_19
REMARK   14  A    between atoms: C_19  and  C_20
REMARK   15  A    between atoms: C_21  and  C_22
REMARK                            x       y       z     vdW  Elec       q    Type
REMARK                         _______ _______ _______ _____ _____    ______ ____
ROOT
ATOM      1  C   UNL     1       1.677  -2.644  -6.595  0.00  0.00    +0.000 C 
ATOM      2  C   UNL     1       2.675  -1.530  -6.402  0.00  0.00    +0.000 C 
ATOM      3  C   UNL     1       0.444  -2.363  -7.065  0.00  0.00    +0.000 C 
ENDROOT
BRANCH   3   4
ATOM      4  C   UNL     1      -0.076  -1.060  -7.429  0.00  0.00    +0.000 C 
ATOM      5  C   UNL     1      -0.970  -0.400  -6.675  0.00  0.00    +0.000 C 
BRANCH   5   6
ATOM      6  C   UNL     1      -1.530   0.931  -6.938  0.00  0.00    +0.000 C 
ATOM      7  C   UNL     1      -2.970   0.998  -7.379  0.00  0.00    +0.000 C 
ATOM      8  C   UNL     1      -0.716   1.996  -6.797  0.00  0.00    +0.000 C 
BRANCH   8  10
ATOM      9  O   UNL     1      -2.178   3.837  -7.364  0.00  0.00    +0.000 OA
ATOM     10  C   UNL     1      -1.092   3.410  -7.015  0.00  0.00    +0.000 C 
BRANCH  10  11
ATOM     11  O   UNL     1      -0.017   4.184  -6.734  0.00  0.00    +0.000 OA
ATOM     12  H   UNL     1       0.790   3.649  -6.572  0.00  0.00    +0.000 HD
ENDBRANCH  10  11
ENDBRANCH   8  10
ENDBRANCH   5   6
ENDBRANCH   3   4
BRANCH   1  13
ATOM     13  C   UNL     1       2.167  -4.020  -6.190  0.00  0.00    +0.000 C 
BRANCH  13  14
ATOM     14  C   UNL     1       2.617  -4.123  -4.725  0.00  0.00    +0.000 C 
BRANCH  14  16
ATOM     15  C   UNL     1       4.429  -5.588  -3.662  0.00  0.00    +0.000 C 
ATOM     16  C   UNL     1       3.331  -5.413  -4.423  0.00  0.00    +0.000 C 
ATOM     17  C   UNL     1       5.156  -4.478  -2.954  0.00  0.00    +0.000 C 
BRANCH  15  18
ATOM     18  C   UNL     1       4.976  -6.985  -3.428  0.00  0.00    +0.000 C 
BRANCH  18  19
ATOM     19  C   UNL     1       6.506  -7.084  -3.369  0.00  0.00    +0.000 C 
BRANCH  19  20
ATOM     20  C   UNL     1       7.037  -7.422  -2.003  0.00  0.00    +0.000 C 
ATOM     21  C   UNL     1       6.499  -7.103  -0.812  0.00  0.00    +0.000 C 
ATOM     22  C   UNL     1       5.231  -6.320  -0.618  0.00  0.00    +0.000 C 
ATOM     23  C   UNL     1       7.168  -7.525   0.469  0.00  0.00    +0.000 C 
ENDBRANCH  19  20
ENDBRANCH  18  19
ENDBRANCH  15  18
ENDBRANCH  14  16
ENDBRANCH  13  14
ENDBRANCH   1  13
TORSDOF 10
ENDMDL
MODEL 5
REMARK VINA RESULT:    -4.408      6.376      9.949
REMARK INTER + INTRA:          -8.447
REMARK INTER:                  -7.391
REMARK INTRA:                  -1.056
REMARK CONF_INDEPENDENT:        2.983
REMARK UNBOUND:                 1.056
REMARK  Name = 6437836
REMARK  15 active torsions:
REMARK  status: ('A' for Active; 'I' for Inactive)
REMARK    1  A    between atoms: O_1  and  C_22
REMARK    2  A    between atoms: C_3  and  C_4
REMARK    3  A    between atoms: C_3  and  C_7
REMARK    4  A    between atoms: C_4  and  C_10
REMARK    5  A    between atoms: C_5  and  C_6
REMARK    6  A    between atoms: C_5  and  C_8
REMARK    7  A    between atoms: C_6  and  C_9
REMARK    8  A    between atoms: C_7  and  C_11
REMARK    9  A    between atoms: C_9  and  C_13
REMARK   10  A    between atoms: C_12  and  C_15
REMARK   11  A    between atoms: C_12  and  C_16
REMARK   12  A    between atoms: C_14  and  C_17
REMARK   13  A    between atoms: C_18  and  C_19
REMARK   14  A    between atoms: C_19  and  C_20
REMARK   15  A    between atoms: C_21  and  C_22
REMARK                            x       y       z     vdW  Elec       q    Type
REMARK                         _______ _______ _______ _____ _____    ______ ____
ROOT
ATOM      1  C   UNL     1      -2.204   1.325  -5.847  0.00  0.00    +0.000 C 
ATOM      2  C   UNL     1      -1.424   0.382  -4.965  0.00  0.00    +0.000 C 
ATOM      3  C   UNL     1      -3.270   0.867  -6.536  0.00  0.00    +0.000 C 
ENDROOT
BRANCH   3   4
ATOM      4  C   UNL     1      -3.793  -0.484  -6.540  0.00  0.00    +0.000 C 
ATOM      5  C   UNL     1      -4.229  -1.097  -5.426  0.00  0.00    +0.000 C 
BRANCH   5   6
ATOM      6  C   UNL     1      -4.805  -2.443  -5.330  0.00  0.00    +0.000 C 
ATOM      7  C   UNL     1      -6.179  -2.648  -5.916  0.00  0.00    +0.000 C 
ATOM      8  C   UNL     1      -4.084  -3.393  -4.703  0.00  0.00    +0.000 C 
BRANCH   8  10
ATOM      9  O   UNL     1      -4.504  -5.687  -5.342  0.00  0.00    +0.000 OA
ATOM     10  C   UNL     1      -4.491  -4.802  -4.506  0.00  0.00    +0.000 C 
BRANCH  10  11
ATOM     11  O   UNL     1      -4.834  -4.968  -3.206  0.00  0.00    +0.000 OA
ATOM     12  H   UNL     1      -5.557  -4.361  -2.937  0.00  0.00    +0.000 HD
ENDBRANCH  10  11
ENDBRANCH   8  10
ENDBRANCH   5   6
ENDBRANCH   3   4
BRANCH   1  13
ATOM     13  C   UNL     1      -1.667   2.741  -5.903  0.00  0.00    +0.000 C 
BRANCH  13  14
ATOM     14  C   UNL     1      -1.008   3.114  -7.240  0.00  0.00    +0.000 C 
BRANCH  14  16
ATOM     15  C   UNL     1       0.893   4.828  -7.314  0.00  0.00    +0.000 C 
ATOM     16  C   UNL     1      -0.410   4.494  -7.231  0.00  0.00    +0.000 C 
ATOM     17  C   UNL     1       2.016   3.835  -7.436  0.00  0.00    +0.000 C 
BRANCH  15  18
ATOM     18  C   UNL     1       1.302   6.290  -7.343  0.00  0.00    +0.000 C 
BRANCH  18  19
ATOM     19  C   UNL     1       0.383   7.239  -6.561  0.00  0.00    +0.000 C 
BRANCH  19  20
ATOM     20  C   UNL     1      -0.158   6.644  -5.290  0.00  0.00    +0.000 C 
ATOM     21  C   UNL     1      -1.427   6.274  -5.034  0.00  0.00    +0.000 C 
ATOM     22  C   UNL     1      -2.574   6.394  -5.998  0.00  0.00    +0.000 C 
ATOM     23  C   UNL     1      -1.799   5.692  -3.697  0.00  0.00    +0.000 C 
ENDBRANCH  19  20
ENDBRANCH  18  19
ENDBRANCH  15  18
ENDBRANCH  14  16
ENDBRANCH  13  14
ENDBRANCH   1  13
TORSDOF 10
ENDMDL
