MODEL 1
REMARK VINA RESULT:    -6.505      0.000      0.000
REMARK INTER + INTRA:          -8.772
REMARK INTER:                  -8.295
REMARK INTRA:                  -0.477
REMARK CONF_INDEPENDENT:        1.790
REMARK UNBOUND:                 0.477
REMARK  Name = 444795
REMARK  11 active torsions:
REMARK  status: ('A' for Active; 'I' for Inactive)
REMARK    1  A    between atoms: O_1  and  C_22
REMARK    2  A    between atoms: C_3  and  C_9
REMARK    3  A    between atoms: C_3  and  C_10
REMARK    4  A    between atoms: C_6  and  C_11
REMARK    5  A    between atoms: C_8  and  C_12
REMARK    6  A    between atoms: C_13  and  C_14
REMARK    7  A    between atoms: C_14  and  C_15
REMARK    8  A    between atoms: C_16  and  C_17
REMARK    9  A    between atoms: C_18  and  C_19
REMARK   10  A    between atoms: C_19  and  C_20
REMARK   11  A    between atoms: C_21  and  C_22
REMARK                            x       y       z     vdW  Elec       q    Type
REMARK                         _______ _______ _______ _____ _____    ______ ____
ROOT
ATOM      1  C   UNL     1      -2.421   1.542  -5.811  0.00  0.00    +0.000 C 
ATOM      2  C   UNL     1      -2.166   0.889  -4.472  0.00  0.00    +0.000 C 
ATOM      3  C   UNL     1      -3.157   0.872  -6.724  0.00  0.00    +0.000 C 
ENDROOT
BRANCH   1   5
ATOM      4  C   UNL     1      -0.690   3.140  -6.658  0.00  0.00    +0.000 C 
ATOM      5  C   UNL     1      -1.848   2.870  -6.033  0.00  0.00    +0.000 C 
BRANCH   4   9
ATOM      6  C   UNL     1      -1.208   5.627  -6.620  0.00  0.00    +0.000 C 
ATOM      7  C   UNL     1      -0.662   6.992  -7.119  0.00  0.00    +0.000 C 
ATOM      8  C   UNL     1       0.777   7.226  -6.696  0.00  0.00    +0.000 C 
ATOM      9  C   UNL     1      -0.181   4.489  -6.841  0.00  0.00    +0.000 C 
ATOM     10  C   UNL     1       1.673   6.140  -7.271  0.00  0.00    +0.000 C 
ATOM     11  C   UNL     1       1.114   4.736  -7.161  0.00  0.00    +0.000 C 
ATOM     12  C   UNL     1      -2.523   5.382  -7.400  0.00  0.00    +0.000 C 
ATOM     13  C   UNL     1      -1.541   5.737  -5.115  0.00  0.00    +0.000 C 
ATOM     14  C   UNL     1       2.168   3.690  -7.446  0.00  0.00    +0.000 C 
ENDBRANCH   4   9
ENDBRANCH   1   5
BRANCH   3  15
ATOM     15  C   UNL     1      -3.768  -0.440  -6.606  0.00  0.00    +0.000 C 
ATOM     16  C   UNL     1      -4.110  -0.975  -5.421  0.00  0.00    +0.000 C 
BRANCH  16  17
ATOM     17  C   UNL     1      -4.724  -2.288  -5.192  0.00  0.00    +0.000 C 
ATOM     18  C   UNL     1      -5.996  -2.595  -5.941  0.00  0.00    +0.000 C 
ATOM     19  C   UNL     1      -4.127  -3.120  -4.315  0.00  0.00    +0.000 C 
BRANCH  19  21
ATOM     20  O   UNL     1      -5.199  -4.802  -2.947  0.00  0.00    +0.000 OA
ATOM     21  C   UNL     1      -4.592  -4.476  -3.952  0.00  0.00    +0.000 C 
BRANCH  21  22
ATOM     22  O   UNL     1      -4.251  -5.326  -4.951  0.00  0.00    +0.000 OA
ATOM     23  H   UNL     1      -5.037  -5.669  -5.426  0.00  0.00    +0.000 HD
ENDBRANCH  21  22
ENDBRANCH  19  21
ENDBRANCH  16  17
ENDBRANCH   3  15
TORSDOF 6
ENDMDL
MODEL 2
REMARK VINA RESULT:    -5.351      6.363      7.379
REMARK INTER + INTRA:          -7.799
REMARK INTER:                  -7.141
REMARK INTRA:                  -0.658
REMARK CONF_INDEPENDENT:        1.790
REMARK UNBOUND:                 0.658
REMARK  Name = 444795
REMARK  11 active torsions:
REMARK  status: ('A' for Active; 'I' for Inactive)
REMARK    1  A    between atoms: O_1  and  C_22
REMARK    2  A    between atoms: C_3  and  C_9
REMARK    3  A    between atoms: C_3  and  C_10
REMARK    4  A    between atoms: C_6  and  C_11
REMARK    5  A    between atoms: C_8  and  C_12
REMARK    6  A    between atoms: C_13  and  C_14
REMARK    7  A    between atoms: C_14  and  C_15
REMARK    8  A    between atoms: C_16  and  C_17
REMARK    9  A    between atoms: C_18  and  C_19
REMARK   10  A    between atoms: C_19  and  C_20
REMARK   11  A    between atoms: C_21  and  C_22
REMARK                            x       y       z     vdW  Elec       q    Type
REMARK                         _______ _______ _______ _____ _____    ______ ____
ROOT
ATOM      1  C   UNL     1       1.613  -2.621  -6.136  0.00  0.00    +0.000 C 
ATOM      2  C   UNL     1       1.436  -3.607  -7.268  0.00  0.00    +0.000 C 
ATOM      3  C   UNL     1       2.290  -3.017  -5.036  0.00  0.00    +0.000 C 
ENDROOT
BRANCH   1   5
ATOM      4  C   UNL     1      -0.240  -1.013  -6.637  0.00  0.00    +0.000 C 
ATOM      5  C   UNL     1       1.033  -1.289  -6.307  0.00  0.00    +0.000 C 
BRANCH   4   9
ATOM      6  C   UNL     1      -2.261   0.522  -6.528  0.00  0.00    +0.000 C 
ATOM      7  C   UNL     1      -2.759   1.915  -6.998  0.00  0.00    +0.000 C 
ATOM      8  C   UNL     1      -1.816   3.031  -6.586  0.00  0.00    +0.000 C 
ATOM      9  C   UNL     1      -0.747   0.340  -6.791  0.00  0.00    +0.000 C 
ATOM     10  C   UNL     1      -0.443   2.807  -7.202  0.00  0.00    +0.000 C 
ATOM     11  C   UNL     1       0.060   1.380  -7.121  0.00  0.00    +0.000 C 
ATOM     12  C   UNL     1      -3.113  -0.517  -7.297  0.00  0.00    +0.000 C 
ATOM     13  C   UNL     1      -2.545   0.369  -5.017  0.00  0.00    +0.000 C 
ATOM     14  C   UNL     1       1.533   1.287  -7.447  0.00  0.00    +0.000 C 
ENDBRANCH   4   9
ENDBRANCH   1   5
BRANCH   3  15
ATOM     15  C   UNL     1       2.902  -4.306  -4.767  0.00  0.00    +0.000 C 
ATOM     16  C   UNL     1       3.512  -4.588  -3.602  0.00  0.00    +0.000 C 
BRANCH  16  17
ATOM     17  C   UNL     1       4.163  -5.850  -3.232  0.00  0.00    +0.000 C 
ATOM     18  C   UNL     1       3.629  -7.112  -3.859  0.00  0.00    +0.000 C 
ATOM     19  C   UNL     1       5.176  -5.800  -2.344  0.00  0.00    +0.000 C 
BRANCH  19  21
ATOM     20  O   UNL     1       5.919  -7.443  -0.731  0.00  0.00    +0.000 OA
ATOM     21  C   UNL     1       5.952  -6.958  -1.848  0.00  0.00    +0.000 C 
BRANCH  21  22
ATOM     22  O   UNL     1       6.714  -7.428  -2.866  0.00  0.00    +0.000 OA
ATOM     23  H   UNL     1       7.643  -7.121  -2.803  0.00  0.00    +0.000 HD
ENDBRANCH  21  22
ENDBRANCH  19  21
ENDBRANCH  16  17
ENDBRANCH   3  15
TORSDOF 6
ENDMDL
MODEL 3
REMARK VINA RESULT:    -5.272      6.620      9.614
REMARK INTER + INTRA:          -8.034
REMARK INTER:                  -7.062
REMARK INTRA:                  -0.972
REMARK CONF_INDEPENDENT:        1.790
REMARK UNBOUND:                 0.972
REMARK  Name = 444795
REMARK  11 active torsions:
REMARK  status: ('A' for Active; 'I' for Inactive)
REMARK    1  A    between atoms: O_1  and  C_22
REMARK    2  A    between atoms: C_3  and  C_9
REMARK    3  A    between atoms: C_3  and  C_10
REMARK    4  A    between atoms: C_6  and  C_11
REMARK    5  A    between atoms: C_8  and  C_12
REMARK    6  A    between atoms: C_13  and  C_14
REMARK    7  A    between atoms: C_14  and  C_15
REMARK    8  A    between atoms: C_16  and  C_17
REMARK    9  A    between atoms: C_18  and  C_19
REMARK   10  A    between atoms: C_19  and  C_20
REMARK   11  A    between atoms: C_21  and  C_22
REMARK                            x       y       z     vdW  Elec       q    Type
REMARK                         _______ _______ _______ _____ _____    ______ ____
ROOT
ATOM      1  C   UNL     1       1.726  -1.546  -6.601  0.00  0.00    +0.000 C 
ATOM      2  C   UNL     1       2.567  -0.331  -6.918  0.00  0.00    +0.000 C 
ATOM      3  C   UNL     1       0.383  -1.444  -6.707  0.00  0.00    +0.000 C 
ENDROOT
BRANCH   1   5
ATOM      4  C   UNL     1       1.945  -3.731  -5.398  0.00  0.00    +0.000 C 
ATOM      5  C   UNL     1       2.428  -2.764  -6.195  0.00  0.00    +0.000 C 
BRANCH   4   9
ATOM      6  C   UNL     1       3.030  -5.069  -3.530  0.00  0.00    +0.000 C 
ATOM      7  C   UNL     1       4.078  -6.187  -3.283  0.00  0.00    +0.000 C 
ATOM      8  C   UNL     1       3.784  -7.440  -4.089  0.00  0.00    +0.000 C 
ATOM      9  C   UNL     1       2.704  -4.916  -5.036  0.00  0.00    +0.000 C 
ATOM     10  C   UNL     1       3.801  -7.119  -5.577  0.00  0.00    +0.000 C 
ATOM     11  C   UNL     1       3.083  -5.840  -5.955  0.00  0.00    +0.000 C 
ATOM     12  C   UNL     1       3.636  -3.776  -2.932  0.00  0.00    +0.000 C 
ATOM     13  C   UNL     1       1.737  -5.411  -2.755  0.00  0.00    +0.000 C 
ATOM     14  C   UNL     1       2.857  -5.746  -7.447  0.00  0.00    +0.000 C 
ENDBRANCH   4   9
ENDBRANCH   1   5
BRANCH   3  15
ATOM     15  C   UNL     1      -0.409  -0.292  -7.098  0.00  0.00    +0.000 C 
ATOM     16  C   UNL     1      -0.499   0.814  -6.339  0.00  0.00    +0.000 C 
BRANCH  16  17
ATOM     17  C   UNL     1      -1.272   2.026  -6.638  0.00  0.00    +0.000 C 
ATOM     18  C   UNL     1      -2.599   1.845  -7.328  0.00  0.00    +0.000 C 
ATOM     19  C   UNL     1      -0.737   3.215  -6.297  0.00  0.00    +0.000 C 
BRANCH  19  21
ATOM     20  O   UNL     1      -2.328   4.794  -7.207  0.00  0.00    +0.000 OA
ATOM     21  C   UNL     1      -1.358   4.540  -6.514  0.00  0.00    +0.000 C 
BRANCH  21  22
ATOM     22  O   UNL     1      -0.678   5.456  -5.783  0.00  0.00    +0.000 OA
ATOM     23  H   UNL     1      -0.125   5.036  -5.091  0.00  0.00    +0.000 HD
ENDBRANCH  21  22
ENDBRANCH  19  21
ENDBRANCH  16  17
ENDBRANCH   3  15
TORSDOF 6
ENDMDL
MODEL 4
REMARK VINA RESULT:    -4.939      6.941      9.779
REMARK INTER + INTRA:          -7.581
REMARK INTER:                  -6.729
REMARK INTRA:                  -0.851
REMARK CONF_INDEPENDENT:        1.790
REMARK UNBOUND:                 0.851
REMARK  Name = 444795
REMARK  11 active torsions:
REMARK  status: ('A' for Active; 'I' for Inactive)
REMARK    1  A    between atoms: O_1  and  C_22
REMARK    2  A    between atoms: C_3  and  C_9
REMARK    3  A    between atoms: C_3  and  C_10
REMARK    4  A    between atoms: C_6  and  C_11
REMARK    5  A    between atoms: C_8  and  C_12
REMARK    6  A    between atoms: C_13  and  C_14
REMARK    7  A    between atoms: C_14  and  C_15
REMARK    8  A    between atoms: C_16  and  C_17
REMARK    9  A    between atoms: C_18  and  C_19
REMARK   10  A    between atoms: C_19  and  C_20
REMARK   11  A    between atoms: C_21  and  C_22
REMARK                            x       y       z     vdW  Elec       q    Type
REMARK                         _______ _______ _______ _____ _____    ______ ____
ROOT
ATOM      1  C   UNL     1       1.333  -2.225  -6.783  0.00  0.00    +0.000 C 
ATOM      2  C   UNL     1       0.011  -2.536  -7.447  0.00  0.00    +0.000 C 
ATOM      3  C   UNL     1       1.653  -0.932  -6.558  0.00  0.00    +0.000 C 
ENDROOT
BRANCH   1   5
ATOM      4  C   UNL     1       2.242  -3.965  -5.228  0.00  0.00    +0.000 C 
ATOM      5  C   UNL     1       2.188  -3.357  -6.424  0.00  0.00    +0.000 C 
BRANCH   4   9
ATOM      6  C   UNL     1       3.211  -6.162  -6.054  0.00  0.00    +0.000 C 
ATOM      7  C   UNL     1       3.926  -7.445  -5.549  0.00  0.00    +0.000 C 
ATOM      8  C   UNL     1       5.175  -7.128  -4.746  0.00  0.00    +0.000 C 
ATOM      9  C   UNL     1       3.120  -5.087  -4.944  0.00  0.00    +0.000 C 
ATOM     10  C   UNL     1       4.813  -6.298  -3.524  0.00  0.00    +0.000 C 
ATOM     11  C   UNL     1       3.831  -5.175  -3.792  0.00  0.00    +0.000 C 
ATOM     12  C   UNL     1       1.814  -6.617  -6.540  0.00  0.00    +0.000 C 
ATOM     13  C   UNL     1       3.991  -5.594  -7.262  0.00  0.00    +0.000 C 
ATOM     14  C   UNL     1       3.763  -4.203  -2.636  0.00  0.00    +0.000 C 
ENDBRANCH   4   9
ENDBRANCH   1   5
BRANCH   3  15
ATOM     15  C   UNL     1       0.882   0.257  -6.871  0.00  0.00    +0.000 C 
ATOM     16  C   UNL     1      -0.367   0.452  -6.412  0.00  0.00    +0.000 C 
BRANCH  16  17
ATOM     17  C   UNL     1      -1.230   1.610  -6.673  0.00  0.00    +0.000 C 
ATOM     18  C   UNL     1      -2.593   1.339  -7.253  0.00  0.00    +0.000 C 
ATOM     19  C   UNL     1      -0.740   2.836  -6.398  0.00  0.00    +0.000 C 
BRANCH  19  21
ATOM     20  O   UNL     1      -2.332   4.357  -7.399  0.00  0.00    +0.000 OA
ATOM     21  C   UNL     1      -1.452   4.118  -6.591  0.00  0.00    +0.000 C 
BRANCH  21  22
ATOM     22  O   UNL     1      -0.979   5.009  -5.687  0.00  0.00    +0.000 OA
ATOM     23  H   UNL     1      -0.203   4.661  -5.199  0.00  0.00    +0.000 HD
ENDBRANCH  21  22
ENDBRANCH  19  21
ENDBRANCH  16  17
ENDBRANCH   3  15
TORSDOF 6
ENDMDL
MODEL 5
REMARK VINA RESULT:    -4.392      4.124      4.974
REMARK INTER + INTRA:          -6.936
REMARK INTER:                  -6.182
REMARK INTRA:                  -0.754
REMARK CONF_INDEPENDENT:        1.790
REMARK UNBOUND:                 0.754
REMARK  Name = 444795
REMARK  11 active torsions:
REMARK  status: ('A' for Active; 'I' for Inactive)
REMARK    1  A    between atoms: O_1  and  C_22
REMARK    2  A    between atoms: C_3  and  C_9
REMARK    3  A    between atoms: C_3  and  C_10
REMARK    4  A    between atoms: C_6  and  C_11
REMARK    5  A    between atoms: C_8  and  C_12
REMARK    6  A    between atoms: C_13  and  C_14
REMARK    7  A    between atoms: C_14  and  C_15
REMARK    8  A    between atoms: C_16  and  C_17
REMARK    9  A    between atoms: C_18  and  C_19
REMARK   10  A    between atoms: C_19  and  C_20
REMARK   11  A    between atoms: C_21  and  C_22
REMARK                            x       y       z     vdW  Elec       q    Type
REMARK                         _______ _______ _______ _____ _____    ______ ____
ROOT
ATOM      1  C   UNL     1      -0.730   0.586  -6.037  0.00  0.00    +0.000 C 
ATOM      2  C   UNL     1      -1.406  -0.289  -5.005  0.00  0.00    +0.000 C 
ATOM      3  C   UNL     1       0.190   0.026  -6.852  0.00  0.00    +0.000 C 
ENDROOT
BRANCH   1   5
ATOM      4  C   UNL     1      -1.066   2.870  -5.068  0.00  0.00    +0.000 C 
ATOM      5  C   UNL     1      -1.122   1.995  -6.086  0.00  0.00    +0.000 C 
BRANCH   4   9
ATOM      6  C   UNL     1      -1.459   4.837  -6.627  0.00  0.00    +0.000 C 
ATOM      7  C   UNL     1      -1.620   6.381  -6.623  0.00  0.00    +0.000 C 
ATOM      8  C   UNL     1      -2.708   6.843  -5.670  0.00  0.00    +0.000 C 
ATOM      9  C   UNL     1      -1.475   4.259  -5.190  0.00  0.00    +0.000 C 
ATOM     10  C   UNL     1      -2.373   6.416  -4.248  0.00  0.00    +0.000 C 
ATOM     11  C   UNL     1      -1.865   4.994  -4.119  0.00  0.00    +0.000 C 
ATOM     12  C   UNL     1      -0.124   4.549  -7.355  0.00  0.00    +0.000 C 
ATOM     13  C   UNL     1      -2.611   4.213  -7.447  0.00  0.00    +0.000 C 
ATOM     14  C   UNL     1      -1.861   4.531  -2.681  0.00  0.00    +0.000 C 
ENDBRANCH   4   9
ENDBRANCH   1   5
BRANCH   3  15
ATOM     15  C   UNL     1       0.648  -1.351  -6.888  0.00  0.00    +0.000 C 
ATOM     16  C   UNL     1       1.490  -1.857  -5.970  0.00  0.00    +0.000 C 
BRANCH  16  17
ATOM     17  C   UNL     1       2.016  -3.227  -5.918  0.00  0.00    +0.000 C 
ATOM     18  C   UNL     1       2.099  -3.984  -7.218  0.00  0.00    +0.000 C 
ATOM     19  C   UNL     1       2.367  -3.722  -4.714  0.00  0.00    +0.000 C 
BRANCH  19  21
ATOM     20  O   UNL     1       2.806  -6.057  -5.168  0.00  0.00    +0.000 OA
ATOM     21  C   UNL     1       2.913  -5.073  -4.458  0.00  0.00    +0.000 C 
BRANCH  21  22
ATOM     22  O   UNL     1       3.593  -5.043  -3.286  0.00  0.00    +0.000 OA
ATOM     23  H   UNL     1       3.061  -4.650  -2.562  0.00  0.00    +0.000 HD
ENDBRANCH  21  22
ENDBRANCH  19  21
ENDBRANCH  16  17
ENDBRANCH   3  15
TORSDOF 6
ENDMDL
MODEL 6
REMARK VINA RESULT:    -3.812      3.956      4.412
REMARK INTER + INTRA:          -6.237
REMARK INTER:                  -5.602
REMARK INTRA:                  -0.636
REMARK CONF_INDEPENDENT:        1.790
REMARK UNBOUND:                 0.636
REMARK  Name = 444795
REMARK  11 active torsions:
REMARK  status: ('A' for Active; 'I' for Inactive)
REMARK    1  A    between atoms: O_1  and  C_22
REMARK    2  A    between atoms: C_3  and  C_9
REMARK    3  A    between atoms: C_3  and  C_10
REMARK    4  A    between atoms: C_6  and  C_11
REMARK    5  A    between atoms: C_8  and  C_12
REMARK    6  A    between atoms: C_13  and  C_14
REMARK    7  A    between atoms: C_14  and  C_15
REMARK    8  A    between atoms: C_16  and  C_17
REMARK    9  A    between atoms: C_18  and  C_19
REMARK   10  A    between atoms: C_19  and  C_20
REMARK   11  A    between atoms: C_21  and  C_22
REMARK                            x       y       z     vdW  Elec       q    Type
REMARK                         _______ _______ _______ _____ _____    ______ ____
ROOT
ATOM      1  C   UNL     1      -0.550   0.928  -6.405  0.00  0.00    +0.000 C 
ATOM      2  C   UNL     1      -1.462   0.082  -5.546  0.00  0.00    +0.000 C 
ATOM      3  C   UNL     1       0.457   0.319  -7.068  0.00  0.00    +0.000 C 
ENDROOT
BRANCH   1   5
ATOM      4  C   UNL     1       0.048   3.323  -6.825  0.00  0.00    +0.000 C 
ATOM      5  C   UNL     1      -0.821   2.365  -6.462  0.00  0.00    +0.000 C 
BRANCH   4   9
ATOM      6  C   UNL     1      -1.776   5.072  -6.566  0.00  0.00    +0.000 C 
ATOM      7  C   UNL     1      -2.103   6.551  -6.908  0.00  0.00    +0.000 C 
ATOM      8  C   UNL     1      -1.034   7.506  -6.409  0.00  0.00    +0.000 C 
ATOM      9  C   UNL     1      -0.293   4.735  -6.856  0.00  0.00    +0.000 C 
ATOM     10  C   UNL     1       0.304   7.175  -7.053  0.00  0.00    +0.000 C 
ATOM     11  C   UNL     1       0.632   5.697  -7.102  0.00  0.00    +0.000 C 
ATOM     12  C   UNL     1      -2.744   4.213  -7.414  0.00  0.00    +0.000 C 
ATOM     13  C   UNL     1      -2.079   4.823  -5.071  0.00  0.00    +0.000 C 
ATOM     14  C   UNL     1       2.085   5.457  -7.447  0.00  0.00    +0.000 C 
ENDBRANCH   4   9
ENDBRANCH   1   5
BRANCH   3  15
ATOM     15  C   UNL     1       0.810  -1.089  -7.081  0.00  0.00    +0.000 C 
ATOM     16  C   UNL     1       1.482  -1.675  -6.074  0.00  0.00    +0.000 C 
BRANCH  16  17
ATOM     17  C   UNL     1       1.891  -3.082  -5.991  0.00  0.00    +0.000 C 
ATOM     18  C   UNL     1       1.668  -3.939  -7.210  0.00  0.00    +0.000 C 
ATOM     19  C   UNL     1       2.417  -3.518  -4.828  0.00  0.00    +0.000 C 
BRANCH  19  21
ATOM     20  O   UNL     1       3.749  -5.512  -5.147  0.00  0.00    +0.000 OA
ATOM     21  C   UNL     1       2.885  -4.893  -4.550  0.00  0.00    +0.000 C 
BRANCH  21  22
ATOM     22  O   UNL     1       2.204  -5.368  -3.480  0.00  0.00    +0.000 OA
ATOM     23  H   UNL     1       1.317  -5.705  -3.729  0.00  0.00    +0.000 HD
ENDBRANCH  21  22
ENDBRANCH  19  21
ENDBRANCH  16  17
ENDBRANCH   3  15
TORSDOF 6
ENDMDL
