MODEL 1
REMARK VINA RESULT:    -6.978      0.000      0.000
REMARK INTER + INTRA:          -9.817
REMARK INTER:                  -8.768
REMARK INTRA:                  -1.048
REMARK CONF_INDEPENDENT:        1.790
REMARK UNBOUND:                 1.048
REMARK  Name = 5282379
REMARK  11 active torsions:
REMARK  status: ('A' for Active; 'I' for Inactive)
REMARK    1  A    between atoms: O_1  and  C_22
REMARK    2  A    between atoms: C_3  and  C_9
REMARK    3  A    between atoms: C_3  and  C_10
REMARK    4  A    between atoms: C_6  and  C_11
REMARK    5  A    between atoms: C_8  and  C_12
REMARK    6  A    between atoms: C_13  and  C_14
REMARK    7  A    between atoms: C_14  and  C_15
REMARK    8  A    between atoms: C_16  and  C_17
REMARK    9  A    between atoms: C_18  and  C_19
REMARK   10  A    between atoms: C_19  and  C_20
REMARK   11  A    between atoms: C_21  and  C_22
REMARK                            x       y       z     vdW  Elec       q    Type
REMARK                         _______ _______ _______ _____ _____    ______ ____
ROOT
ATOM      1  C   UNL     1       1.788  -1.815  -6.787  0.00  0.00    +0.000 C 
ATOM      2  C   UNL     1       2.636  -0.582  -6.996  0.00  0.00    +0.000 C 
ATOM      3  C   UNL     1       0.450  -1.712  -6.953  0.00  0.00    +0.000 C 
ENDROOT
BRANCH   1   5
ATOM      4  C   UNL     1       2.140  -3.879  -5.413  0.00  0.00    +0.000 C 
ATOM      5  C   UNL     1       2.477  -3.051  -6.417  0.00  0.00    +0.000 C 
BRANCH   4   9
ATOM      6  C   UNL     1       2.832  -6.196  -6.186  0.00  0.00    +0.000 C 
ATOM      7  C   UNL     1       3.387  -7.545  -5.651  0.00  0.00    +0.000 C 
ATOM      8  C   UNL     1       4.666  -7.365  -4.854  0.00  0.00    +0.000 C 
ATOM      9  C   UNL     1       2.875  -5.094  -5.103  0.00  0.00    +0.000 C 
ATOM     10  C   UNL     1       4.409  -6.468  -3.652  0.00  0.00    +0.000 C 
ATOM     11  C   UNL     1       3.572  -5.241  -3.948  0.00  0.00    +0.000 C 
ATOM     12  C   UNL     1       1.388  -6.488  -6.664  0.00  0.00    +0.000 C 
ATOM     13  C   UNL     1       3.674  -5.756  -7.406  0.00  0.00    +0.000 C 
ATOM     14  C   UNL     1       3.625  -4.241  -2.815  0.00  0.00    +0.000 C 
ENDBRANCH   4   9
ENDBRANCH   1   5
BRANCH   3  15
ATOM     15  C   UNL     1      -0.327  -0.542  -7.318  0.00  0.00    +0.000 C 
ATOM     16  C   UNL     1      -1.524  -0.270  -6.769  0.00  0.00    +0.000 C 
BRANCH  16  17
ATOM     17  C   UNL     1      -2.390   0.876  -7.069  0.00  0.00    +0.000 C 
ATOM     18  C   UNL     1      -1.717   2.180  -7.411  0.00  0.00    +0.000 C 
ATOM     19  C   UNL     1      -3.725   0.693  -6.997  0.00  0.00    +0.000 C 
BRANCH  19  21
ATOM     20  O   UNL     1      -5.152  -1.229  -7.343  0.00  0.00    +0.000 OA
ATOM     21  C   UNL     1      -4.410  -0.569  -6.639  0.00  0.00    +0.000 C 
BRANCH  21  22
ATOM     22  O   UNL     1      -4.056  -0.901  -5.373  0.00  0.00    +0.000 OA
ATOM     23  H   UNL     1      -3.518  -1.720  -5.346  0.00  0.00    +0.000 HD
ENDBRANCH  21  22
ENDBRANCH  19  21
ENDBRANCH  16  17
ENDBRANCH   3  15
TORSDOF 6
ENDMDL
MODEL 2
REMARK VINA RESULT:    -6.320      0.985      2.374
REMARK INTER + INTRA:          -9.335
REMARK INTER:                  -8.109
REMARK INTRA:                  -1.226
REMARK CONF_INDEPENDENT:        1.790
REMARK UNBOUND:                 1.226
REMARK  Name = 5282379
REMARK  11 active torsions:
REMARK  status: ('A' for Active; 'I' for Inactive)
REMARK    1  A    between atoms: O_1  and  C_22
REMARK    2  A    between atoms: C_3  and  C_9
REMARK    3  A    between atoms: C_3  and  C_10
REMARK    4  A    between atoms: C_6  and  C_11
REMARK    5  A    between atoms: C_8  and  C_12
REMARK    6  A    between atoms: C_13  and  C_14
REMARK    7  A    between atoms: C_14  and  C_15
REMARK    8  A    between atoms: C_16  and  C_17
REMARK    9  A    between atoms: C_18  and  C_19
REMARK   10  A    between atoms: C_19  and  C_20
REMARK   11  A    between atoms: C_21  and  C_22
REMARK                            x       y       z     vdW  Elec       q    Type
REMARK                         _______ _______ _______ _____ _____    ______ ____
ROOT
ATOM      1  C   UNL     1       1.381  -2.270  -6.720  0.00  0.00    +0.000 C 
ATOM      2  C   UNL     1       0.142  -2.792  -7.411  0.00  0.00    +0.000 C 
ATOM      3  C   UNL     1       1.535  -0.932  -6.601  0.00  0.00    +0.000 C 
ENDROOT
BRANCH   1   5
ATOM      4  C   UNL     1       2.050  -4.352  -5.501  0.00  0.00    +0.000 C 
ATOM      5  C   UNL     1       2.340  -3.255  -6.221  0.00  0.00    +0.000 C 
BRANCH   4   9
ATOM      6  C   UNL     1       3.324  -5.286  -3.513  0.00  0.00    +0.000 C 
ATOM      7  C   UNL     1       4.604  -6.091  -3.154  0.00  0.00    +0.000 C 
ATOM      8  C   UNL     1       4.680  -7.412  -3.899  0.00  0.00    +0.000 C 
ATOM      9  C   UNL     1       3.060  -5.289  -5.037  0.00  0.00    +0.000 C 
ATOM     10  C   UNL     1       4.704  -7.163  -5.399  0.00  0.00    +0.000 C 
ATOM     11  C   UNL     1       3.712  -6.126  -5.883  0.00  0.00    +0.000 C 
ATOM     12  C   UNL     1       3.551  -3.857  -2.963  0.00  0.00    +0.000 C 
ATOM     13  C   UNL     1       2.116  -5.910  -2.778  0.00  0.00    +0.000 C 
ATOM     14  C   UNL     1       3.556  -6.158  -7.387  0.00  0.00    +0.000 C 
ENDBRANCH   4   9
ENDBRANCH   1   5
BRANCH   3  15
ATOM     15  C   UNL     1       0.650   0.124  -7.057  0.00  0.00    +0.000 C 
ATOM     16  C   UNL     1      -0.566   0.329  -6.521  0.00  0.00    +0.000 C 
BRANCH  16  17
ATOM     17  C   UNL     1      -1.536   1.358  -6.910  0.00  0.00    +0.000 C 
ATOM     18  C   UNL     1      -1.001   2.733  -7.216  0.00  0.00    +0.000 C 
ATOM     19  C   UNL     1      -2.840   1.014  -6.946  0.00  0.00    +0.000 C 
BRANCH  19  21
ATOM     20  O   UNL     1      -3.840  -1.139  -7.409  0.00  0.00    +0.000 OA
ATOM     21  C   UNL     1      -3.395  -0.320  -6.626  0.00  0.00    +0.000 C 
BRANCH  21  22
ATOM     22  O   UNL     1      -3.307  -0.507  -5.286  0.00  0.00    +0.000 OA
ATOM     23  H   UNL     1      -2.600  -1.144  -5.050  0.00  0.00    +0.000 HD
ENDBRANCH  21  22
ENDBRANCH  19  21
ENDBRANCH  16  17
ENDBRANCH   3  15
TORSDOF 6
ENDMDL
MODEL 3
REMARK VINA RESULT:    -5.808      3.471      9.114
REMARK INTER + INTRA:          -8.458
REMARK INTER:                  -7.597
REMARK INTRA:                  -0.861
REMARK CONF_INDEPENDENT:        1.790
REMARK UNBOUND:                 0.861
REMARK  Name = 5282379
REMARK  11 active torsions:
REMARK  status: ('A' for Active; 'I' for Inactive)
REMARK    1  A    between atoms: O_1  and  C_22
REMARK    2  A    between atoms: C_3  and  C_9
REMARK    3  A    between atoms: C_3  and  C_10
REMARK    4  A    between atoms: C_6  and  C_11
REMARK    5  A    between atoms: C_8  and  C_12
REMARK    6  A    between atoms: C_13  and  C_14
REMARK    7  A    between atoms: C_14  and  C_15
REMARK    8  A    between atoms: C_16  and  C_17
REMARK    9  A    between atoms: C_18  and  C_19
REMARK   10  A    between atoms: C_19  and  C_20
REMARK   11  A    between atoms: C_21  and  C_22
REMARK                            x       y       z     vdW  Elec       q    Type
REMARK                         _______ _______ _______ _____ _____    ______ ____
ROOT
ATOM      1  C   UNL     1      -0.335   0.141  -6.695  0.00  0.00    +0.000 C 
ATOM      2  C   UNL     1      -1.590  -0.600  -7.096  0.00  0.00    +0.000 C 
ATOM      3  C   UNL     1       0.815  -0.559  -6.574  0.00  0.00    +0.000 C 
ENDROOT
BRANCH   1   5
ATOM      4  C   UNL     1       0.190   2.548  -7.142  0.00  0.00    +0.000 C 
ATOM      5  C   UNL     1      -0.448   1.581  -6.463  0.00  0.00    +0.000 C 
BRANCH   4   9
ATOM      6  C   UNL     1      -1.390   4.397  -6.415  0.00  0.00    +0.000 C 
ATOM      7  C   UNL     1      -1.540   5.944  -6.415  0.00  0.00    +0.000 C 
ATOM      8  C   UNL     1      -0.345   6.637  -5.786  0.00  0.00    +0.000 C 
ATOM      9  C   UNL     1       0.027   3.963  -6.853  0.00  0.00    +0.000 C 
ATOM     10  C   UNL     1       0.920   6.301  -6.562  0.00  0.00    +0.000 C 
ATOM     11  C   UNL     1       1.059   4.841  -6.941  0.00  0.00    +0.000 C 
ATOM     12  C   UNL     1      -2.485   3.863  -7.370  0.00  0.00    +0.000 C 
ATOM     13  C   UNL     1      -1.677   3.866  -4.992  0.00  0.00    +0.000 C 
ATOM     14  C   UNL     1       2.458   4.515  -7.411  0.00  0.00    +0.000 C 
ENDBRANCH   4   9
ENDBRANCH   1   5
BRANCH   3  15
ATOM     15  C   UNL     1       1.035  -1.979  -6.781  0.00  0.00    +0.000 C 
ATOM     16  C   UNL     1       1.735  -2.735  -5.917  0.00  0.00    +0.000 C 
BRANCH  16  17
ATOM     17  C   UNL     1       2.019  -4.170  -6.034  0.00  0.00    +0.000 C 
ATOM     18  C   UNL     1       1.874  -4.794  -7.398  0.00  0.00    +0.000 C 
ATOM     19  C   UNL     1       2.368  -4.836  -4.914  0.00  0.00    +0.000 C 
BRANCH  19  21
ATOM     20  O   UNL     1       2.804  -3.111  -3.277  0.00  0.00    +0.000 OA
ATOM     21  C   UNL     1       2.493  -4.253  -3.560  0.00  0.00    +0.000 C 
BRANCH  21  22
ATOM     22  O   UNL     1       2.175  -5.210  -2.654  0.00  0.00    +0.000 OA
ATOM     23  H   UNL     1       2.090  -4.843  -1.748  0.00  0.00    +0.000 HD
ENDBRANCH  21  22
ENDBRANCH  19  21
ENDBRANCH  16  17
ENDBRANCH   3  15
TORSDOF 6
ENDMDL
MODEL 4
REMARK VINA RESULT:    -5.150      3.185      8.446
REMARK INTER + INTRA:          -7.275
REMARK INTER:                  -6.940
REMARK INTRA:                  -0.336
REMARK CONF_INDEPENDENT:        1.790
REMARK UNBOUND:                 0.336
REMARK  Name = 5282379
REMARK  11 active torsions:
REMARK  status: ('A' for Active; 'I' for Inactive)
REMARK    1  A    between atoms: O_1  and  C_22
REMARK    2  A    between atoms: C_3  and  C_9
REMARK    3  A    between atoms: C_3  and  C_10
REMARK    4  A    between atoms: C_6  and  C_11
REMARK    5  A    between atoms: C_8  and  C_12
REMARK    6  A    between atoms: C_13  and  C_14
REMARK    7  A    between atoms: C_14  and  C_15
REMARK    8  A    between atoms: C_16  and  C_17
REMARK    9  A    between atoms: C_18  and  C_19
REMARK   10  A    between atoms: C_19  and  C_20
REMARK   11  A    between atoms: C_21  and  C_22
REMARK                            x       y       z     vdW  Elec       q    Type
REMARK                         _______ _______ _______ _____ _____    ______ ____
ROOT
ATOM      1  C   UNL     1       1.854  -2.978  -5.921  0.00  0.00    +0.000 C 
ATOM      2  C   UNL     1       1.827  -3.925  -7.100  0.00  0.00    +0.000 C 
ATOM      3  C   UNL     1       2.406  -3.407  -4.764  0.00  0.00    +0.000 C 
ENDROOT
BRANCH   1   5
ATOM      4  C   UNL     1       0.083  -1.371  -6.662  0.00  0.00    +0.000 C 
ATOM      5  C   UNL     1       1.277  -1.648  -6.113  0.00  0.00    +0.000 C 
BRANCH   4   9
ATOM      6  C   UNL     1      -1.947   0.153  -6.597  0.00  0.00    +0.000 C 
ATOM      7  C   UNL     1      -2.440   1.549  -7.070  0.00  0.00    +0.000 C 
ATOM      8  C   UNL     1      -1.512   2.666  -6.627  0.00  0.00    +0.000 C 
ATOM      9  C   UNL     1      -0.426  -0.019  -6.821  0.00  0.00    +0.000 C 
ATOM     10  C   UNL     1      -0.123   2.452  -7.209  0.00  0.00    +0.000 C 
ATOM     11  C   UNL     1       0.384   1.027  -7.123  0.00  0.00    +0.000 C 
ATOM     12  C   UNL     1      -2.774  -0.884  -7.394  0.00  0.00    +0.000 C 
ATOM     13  C   UNL     1      -2.270  -0.010  -5.094  0.00  0.00    +0.000 C 
ATOM     14  C   UNL     1       1.866   0.941  -7.410  0.00  0.00    +0.000 C 
ENDBRANCH   4   9
ENDBRANCH   1   5
BRANCH   3  15
ATOM     15  C   UNL     1       3.002  -4.697  -4.471  0.00  0.00    +0.000 C 
ATOM     16  C   UNL     1       3.758  -4.913  -3.380  0.00  0.00    +0.000 C 
BRANCH  16  17
ATOM     17  C   UNL     1       4.408  -6.171  -2.995  0.00  0.00    +0.000 C 
ATOM     18  C   UNL     1       5.148  -6.193  -1.682  0.00  0.00    +0.000 C 
ATOM     19  C   UNL     1       4.320  -7.212  -3.848  0.00  0.00    +0.000 C 
BRANCH  19  21
ATOM     20  O   UNL     1       2.431  -7.362  -5.350  0.00  0.00    +0.000 OA
ATOM     21  C   UNL     1       3.623  -7.210  -5.153  0.00  0.00    +0.000 C 
BRANCH  21  22
ATOM     22  O   UNL     1       4.540  -6.982  -6.125  0.00  0.00    +0.000 OA
ATOM     23  H   UNL     1       4.213  -6.343  -6.794  0.00  0.00    +0.000 HD
ENDBRANCH  21  22
ENDBRANCH  19  21
ENDBRANCH  16  17
ENDBRANCH   3  15
TORSDOF 6
ENDMDL
MODEL 5
REMARK VINA RESULT:    -4.896      3.793      8.809
REMARK INTER + INTRA:          -7.656
REMARK INTER:                  -6.686
REMARK INTRA:                  -0.971
REMARK CONF_INDEPENDENT:        1.790
REMARK UNBOUND:                 0.971
REMARK  Name = 5282379
REMARK  11 active torsions:
REMARK  status: ('A' for Active; 'I' for Inactive)
REMARK    1  A    between atoms: O_1  and  C_22
REMARK    2  A    between atoms: C_3  and  C_9
REMARK    3  A    between atoms: C_3  and  C_10
REMARK    4  A    between atoms: C_6  and  C_11
REMARK    5  A    between atoms: C_8  and  C_12
REMARK    6  A    between atoms: C_13  and  C_14
REMARK    7  A    between atoms: C_14  and  C_15
REMARK    8  A    between atoms: C_16  and  C_17
REMARK    9  A    between atoms: C_18  and  C_19
REMARK   10  A    between atoms: C_19  and  C_20
REMARK   11  A    between atoms: C_21  and  C_22
REMARK                            x       y       z     vdW  Elec       q    Type
REMARK                         _______ _______ _______ _____ _____    ______ ____
ROOT
ATOM      1  C   UNL     1       1.394  -2.981  -6.251  0.00  0.00    +0.000 C 
ATOM      2  C   UNL     1       0.990  -3.863  -7.411  0.00  0.00    +0.000 C 
ATOM      3  C   UNL     1       2.234  -3.486  -5.321  0.00  0.00    +0.000 C 
ENDROOT
BRANCH   1   5
ATOM      4  C   UNL     1      -0.261  -1.199  -6.846  0.00  0.00    +0.000 C 
ATOM      5  C   UNL     1       0.844  -1.626  -6.212  0.00  0.00    +0.000 C 
BRANCH   4   9
ATOM      6  C   UNL     1      -2.239   0.323  -6.378  0.00  0.00    +0.000 C 
ATOM      7  C   UNL     1      -2.737   1.779  -6.598  0.00  0.00    +0.000 C 
ATOM      8  C   UNL     1      -1.747   2.809  -6.084  0.00  0.00    +0.000 C 
ATOM      9  C   UNL     1      -0.749   0.168  -6.761  0.00  0.00    +0.000 C 
ATOM     10  C   UNL     1      -0.420   2.665  -6.814  0.00  0.00    +0.000 C 
ATOM     11  C   UNL     1       0.058   1.237  -6.982  0.00  0.00    +0.000 C 
ATOM     12  C   UNL     1      -3.159  -0.577  -7.239  0.00  0.00    +0.000 C 
ATOM     13  C   UNL     1      -2.433  -0.054  -4.892  0.00  0.00    +0.000 C 
ATOM     14  C   UNL     1       1.506   1.177  -7.411  0.00  0.00    +0.000 C 
ENDBRANCH   4   9
ENDBRANCH   1   5
BRANCH   3  15
ATOM     15  C   UNL     1       2.834  -4.807  -5.267  0.00  0.00    +0.000 C 
ATOM     16  C   UNL     1       3.576  -5.221  -4.225  0.00  0.00    +0.000 C 
BRANCH  16  17
ATOM     17  C   UNL     1       4.229  -6.526  -4.074  0.00  0.00    +0.000 C 
ATOM     18  C   UNL     1       3.905  -7.584  -5.097  0.00  0.00    +0.000 C 
ATOM     19  C   UNL     1       5.054  -6.700  -3.021  0.00  0.00    +0.000 C 
BRANCH  19  21
ATOM     20  O   UNL     1       5.157  -5.765  -0.793  0.00  0.00    +0.000 OA
ATOM     21  C   UNL     1       5.369  -5.687  -1.988  0.00  0.00    +0.000 C 
BRANCH  21  22
ATOM     22  O   UNL     1       5.972  -4.635  -2.595  0.00  0.00    +0.000 OA
ATOM     23  H   UNL     1       5.348  -3.894  -2.749  0.00  0.00    +0.000 HD
ENDBRANCH  21  22
ENDBRANCH  19  21
ENDBRANCH  16  17
ENDBRANCH   3  15
TORSDOF 6
ENDMDL
