MODEL 1
REMARK VINA RESULT:   112.983      0.000      0.000
REMARK INTER + INTRA:         110.317
REMARK INTER:                 111.193
REMARK INTRA:                  -0.876
REMARK CONF_INDEPENDENT:        1.790
REMARK UNBOUND:                 0.876
REMARK  Name = 5282379
REMARK  11 active torsions:
REMARK  status: ('A' for Active; 'I' for Inactive)
REMARK    1  A    between atoms: O_1  and  C_22
REMARK    2  A    between atoms: C_3  and  C_9
REMARK    3  A    between atoms: C_3  and  C_10
REMARK    4  A    between atoms: C_6  and  C_11
REMARK    5  A    between atoms: C_8  and  C_12
REMARK    6  A    between atoms: C_13  and  C_14
REMARK    7  A    between atoms: C_14  and  C_15
REMARK    8  A    between atoms: C_16  and  C_17
REMARK    9  A    between atoms: C_18  and  C_19
REMARK   10  A    between atoms: C_19  and  C_20
REMARK   11  A    between atoms: C_21  and  C_22
REMARK                            x       y       z     vdW  Elec       q    Type
REMARK                         _______ _______ _______ _____ _____    ______ ____
ROOT
ATOM      1  C   UNL     1       0.713   3.308   2.074  0.00  0.00    +0.000 C 
ATOM      2  C   UNL     1      -0.195   4.443   2.489  0.00  0.00    +0.000 C 
ATOM      3  C   UNL     1       0.162   2.229   1.476  0.00  0.00    +0.000 C 
ENDROOT
BRANCH   1   5
ATOM      4  C   UNL     1       2.968   2.493   2.796  0.00  0.00    +0.000 C 
ATOM      5  C   UNL     1       2.142   3.454   2.349  0.00  0.00    +0.000 C 
BRANCH   4   9
ATOM      6  C   UNL     1       4.712   3.679   4.210  0.00  0.00    +0.000 C 
ATOM      7  C   UNL     1       6.214   4.077   4.214  0.00  0.00    +0.000 C 
ATOM      8  C   UNL     1       7.125   2.885   3.985  0.00  0.00    +0.000 C 
ATOM      9  C   UNL     1       4.382   2.713   3.048  0.00  0.00    +0.000 C 
ATOM     10  C   UNL     1       6.824   2.251   2.635  0.00  0.00    +0.000 C 
ATOM     11  C   UNL     1       5.350   2.093   2.326  0.00  0.00    +0.000 C 
ATOM     12  C   UNL     1       3.919   5.005   4.107  0.00  0.00    +0.000 C 
ATOM     13  C   UNL     1       4.368   3.004   5.558  0.00  0.00    +0.000 C 
ATOM     14  C   UNL     1       5.120   1.179   1.144  0.00  0.00    +0.000 C 
ENDBRANCH   4   9
ENDBRANCH   1   5
BRANCH   3  15
ATOM     15  C   UNL     1      -1.233   1.986   1.158  0.00  0.00    +0.000 C 
ATOM     16  C   UNL     1      -1.653   1.704  -0.088  0.00  0.00    +0.000 C 
BRANCH  16  17
ATOM     17  C   UNL     1      -3.033   1.449  -0.515  0.00  0.00    +0.000 C 
ATOM     18  C   UNL     1      -4.040   2.547  -0.291  0.00  0.00    +0.000 C 
ATOM     19  C   UNL     1      -3.312   0.246  -1.058  0.00  0.00    +0.000 C 
BRANCH  19  21
ATOM     20  O   UNL     1      -1.138  -0.771  -1.349  0.00  0.00    +0.000 OA
ATOM     21  C   UNL     1      -2.349  -0.858  -1.266  0.00  0.00    +0.000 C 
BRANCH  21  22
ATOM     22  O   UNL     1      -3.042  -2.021  -1.328  0.00  0.00    +0.000 OA
ATOM     23  H   UNL     1      -3.270  -2.360  -0.437  0.00  0.00    +0.000 HD
ENDBRANCH  21  22
ENDBRANCH  19  21
ENDBRANCH  16  17
ENDBRANCH   3  15
TORSDOF 6
ENDMDL
