MODEL 1
REMARK VINA RESULT:  2095.355      0.000      0.000
REMARK INTER + INTRA:        2087.761
REMARK INTER:                2090.880
REMARK INTRA:                  -3.119
REMARK CONF_INDEPENDENT:        4.474
REMARK UNBOUND:                 3.119
REMARK  Name = 60823
REMARK  17 active torsions:
REMARK  status: ('A' for Active; 'I' for Inactive)
REMARK    1  A    between atoms: O_2  and  C_16
REMARK    2  A    between atoms: O_3  and  C_22
REMARK    3  A    between atoms: O_5  and  C_35
REMARK    4  A    between atoms: N_7  and  C_10
REMARK    5  A    between atoms: N_8  and  C_34
REMARK    6  A    between atoms: C_9  and  C_12
REMARK    7  A    between atoms: C_10  and  C_13
REMARK    8  A    between atoms: C_11  and  C_18
REMARK    9  A    between atoms: C_12  and  C_19
REMARK   10  A    between atoms: C_12  and  C_20
REMARK   11  A    between atoms: C_13  and  C_16
REMARK   12  A    between atoms: C_14  and  C_23
REMARK   13  A    between atoms: C_15  and  C_21
REMARK   14  A    between atoms: C_16  and  C_17
REMARK   15  A    between atoms: C_17  and  C_22
REMARK   16  A    between atoms: C_22  and  C_24
REMARK   17  A    between atoms: C_24  and  C_35
REMARK                            x       y       z     vdW  Elec       q    Type
REMARK                         _______ _______ _______ _____ _____    ______ ____
ROOT
ATOM      1  N   UNL     1      -0.625   4.233   1.455  0.00  0.00    +0.000 N 
ATOM      2  C   UNL     1       0.493   3.502   1.147  0.00  0.00    +0.000 A 
ATOM      3  C   UNL     1      -0.888   4.129   2.796  0.00  0.00    +0.000 A 
ATOM      4  C   UNL     1       0.951   2.923   2.310  0.00  0.00    +0.000 A 
ATOM      5  C   UNL     1       0.078   3.319   3.353  0.00  0.00    +0.000 A 
ENDROOT
BRANCH   3   7
ATOM      6  F   UNL     1      -5.220   6.698   5.191  0.00  0.00    +0.000 F 
ATOM      7  C   UNL     1      -2.014   4.796   3.419  0.00  0.00    +0.000 A 
ATOM      8  C   UNL     1      -1.794   5.809   4.353  0.00  0.00    +0.000 A 
ATOM      9  C   UNL     1      -3.316   4.427   3.083  0.00  0.00    +0.000 A 
ATOM     10  C   UNL     1      -2.878   6.451   4.952  0.00  0.00    +0.000 A 
ATOM     11  C   UNL     1      -4.399   5.070   3.682  0.00  0.00    +0.000 A 
ATOM     12  C   UNL     1      -4.181   6.082   4.616  0.00  0.00    +0.000 A 
ENDBRANCH   3   7
BRANCH   5  13
ATOM     13  C   UNL     1       0.124   2.985   4.750  0.00  0.00    +0.000 A 
ATOM     14  C   UNL     1      -0.827   3.511   5.624  0.00  0.00    +0.000 A 
ATOM     15  C   UNL     1       1.118   2.134   5.232  0.00  0.00    +0.000 A 
ATOM     16  C   UNL     1      -0.784   3.187   6.981  0.00  0.00    +0.000 A 
ATOM     17  C   UNL     1       1.162   1.810   6.587  0.00  0.00    +0.000 A 
ATOM     18  C   UNL     1       0.211   2.337   7.462  0.00  0.00    +0.000 A 
ENDBRANCH   5  13
BRANCH   4  21
ATOM     19  O   UNL     1       2.110   0.924   1.927  0.00  0.00    +0.000 OA
ATOM     20  N   UNL     1       3.214   2.630   3.074  0.00  0.00    +0.000 N 
ATOM     21  C   UNL     1       2.110   2.079   2.396  0.00  0.00    +0.000 C 
ATOM     22  H   UNL     1       3.105   3.581   3.422  0.00  0.00    +0.000 HD
BRANCH  20  23
ATOM     23  C   UNL     1       4.472   2.039   3.352  0.00  0.00    +0.000 A 
ATOM     24  C   UNL     1       5.631   2.815   3.311  0.00  0.00    +0.000 A 
ATOM     25  C   UNL     1       4.551   0.683   3.669  0.00  0.00    +0.000 A 
ATOM     26  C   UNL     1       6.869   2.233   3.586  0.00  0.00    +0.000 A 
ATOM     27  C   UNL     1       5.790   0.102   3.943  0.00  0.00    +0.000 A 
ATOM     28  C   UNL     1       6.949   0.877   3.902  0.00  0.00    +0.000 A 
ENDBRANCH  20  23
ENDBRANCH   4  21
BRANCH   2  29
ATOM     29  C   UNL     1       1.020   3.423  -0.233  0.00  0.00    +0.000 C 
ATOM     30  C   UNL     1       1.993   2.239  -0.443  0.00  0.00    +0.000 C 
ATOM     31  C   UNL     1       1.698   4.732  -0.698  0.00  0.00    +0.000 C 
ENDBRANCH   2  29
BRANCH   1  32
ATOM     32  C   UNL     1      -1.411   4.997   0.493  0.00  0.00    +0.000 C 
BRANCH  32  33
ATOM     33  C   UNL     1      -2.704   4.295   0.057  0.00  0.00    +0.000 C 
BRANCH  33  34
ATOM     34  C   UNL     1      -2.513   3.280  -1.079  0.00  0.00    +0.000 C 
BRANCH  34  35
ATOM     35  O   UNL     1      -3.225   2.088  -0.734  0.00  0.00    +0.000 OA
ATOM     36  H   UNL     1      -3.185   1.992   0.233  0.00  0.00    +0.000 HD
ENDBRANCH  34  35
BRANCH  34  37
ATOM     37  C   UNL     1      -3.041   3.760  -2.443  0.00  0.00    +0.000 C 
BRANCH  37  38
ATOM     38  C   UNL     1      -2.466   5.072  -2.995  0.00  0.00    +0.000 C 
BRANCH  38  39
ATOM     39  O   UNL     1      -3.509   6.041  -3.075  0.00  0.00    +0.000 OA
ATOM     40  H   UNL     1      -3.119   6.913  -2.902  0.00  0.00    +0.000 HD
ENDBRANCH  38  39
BRANCH  38  41
ATOM     41  C   UNL     1      -1.308   5.620  -2.162  0.00  0.00    +0.000 C 
BRANCH  41  43
ATOM     42  O   UNL     1       0.376   6.907  -3.324  0.00  0.00    +0.000 OA
ATOM     43  C   UNL     1      -0.071   5.812  -3.006  0.00  0.00    +0.000 C 
BRANCH  43  44
ATOM     44  O   UNL     1       0.487   4.637  -3.389  0.00  0.00    +0.000 OA
ATOM     45  H   UNL     1       0.501   3.983  -2.658  0.00  0.00    +0.000 HD
ENDBRANCH  43  44
ENDBRANCH  41  43
ENDBRANCH  38  41
ENDBRANCH  37  38
ENDBRANCH  34  37
ENDBRANCH  33  34
ENDBRANCH  32  33
ENDBRANCH   1  32
TORSDOF 15
ENDMDL
