MODEL 1
REMARK VINA RESULT:     1.948      0.000      0.000
REMARK INTER + INTRA:          -5.060
REMARK INTER:                  -0.438
REMARK INTRA:                  -4.622
REMARK CONF_INDEPENDENT:        2.386
REMARK UNBOUND:                 4.622
REMARK  Name = 54454
REMARK  13 active torsions:
REMARK  status: ('A' for Active; 'I' for Inactive)
REMARK    1  A    between atoms: O_1  and  C_8
REMARK    2  A    between atoms: O_1  and  C_22
REMARK    3  A    between atoms: O_3  and  C_23
REMARK    4  A    between atoms: C_7  and  C_11
REMARK    5  A    between atoms: C_9  and  C_18
REMARK    6  A    between atoms: C_11  and  C_15
REMARK    7  A    between atoms: C_13  and  C_20
REMARK    8  A    between atoms: C_15  and  C_19
REMARK    9  A    between atoms: C_22  and  C_24
REMARK   10  A    between atoms: C_24  and  C_27
REMARK   11  A    between atoms: C_24  and  C_28
REMARK   12  A    between atoms: C_24  and  C_29
REMARK   13  A    between atoms: C_27  and  C_30
REMARK                            x       y       z     vdW  Elec       q    Type
REMARK                         _______ _______ _______ _____ _____    ______ ____
ROOT
ATOM      1  C   UNL     1      -5.134  -2.965  -5.675  0.00  0.00    +0.000 C 
ATOM      2  C   UNL     1      -6.568  -2.575  -5.207  0.00  0.00    +0.000 C 
ATOM      3  C   UNL     1      -4.044  -2.675  -4.618  0.00  0.00    +0.000 C 
ATOM      4  C   UNL     1      -7.622  -2.869  -6.315  0.00  0.00    +0.000 C 
ATOM      5  C   UNL     1      -5.095  -4.416  -6.145  0.00  0.00    +0.000 C 
ATOM      6  C   UNL     1      -2.690  -3.251  -5.043  0.00  0.00    +0.000 C 
ATOM      7  C   UNL     1      -2.731  -4.764  -5.325  0.00  0.00    +0.000 C 
ATOM      8  C   UNL     1      -4.016  -5.202  -5.978  0.00  0.00    +0.000 C 
ATOM      9  C   UNL     1      -7.426  -4.244  -6.898  0.00  0.00    +0.000 C 
ATOM     10  C   UNL     1      -6.283  -4.936  -6.798  0.00  0.00    +0.000 C 
ATOM     11  C   UNL     1      -7.650  -1.844  -7.454  0.00  0.00    +0.000 C 
ATOM     12  C   UNL     1      -2.479  -5.594  -4.063  0.00  0.00    +0.000 C 
ENDROOT
BRANCH   3  13
ATOM     13  O   UNL     1      -4.429  -3.199  -3.351  0.00  0.00    +0.000 OA
BRANCH  13  15
ATOM     14  O   UNL     1      -3.001  -1.760  -2.264  0.00  0.00    +0.000 OA
ATOM     15  C   UNL     1      -3.698  -2.768  -2.276  0.00  0.00    +0.000 C 
BRANCH  15  16
ATOM     16  C   UNL     1      -3.862  -3.722  -1.085  0.00  0.00    +0.000 C 
ATOM     17  C   UNL     1      -3.872  -2.912   0.224  0.00  0.00    +0.000 C 
ATOM     18  C   UNL     1      -2.646  -4.666  -1.054  0.00  0.00    +0.000 C 
BRANCH  16  19
ATOM     19  C   UNL     1      -5.156  -4.560  -1.224  0.00  0.00    +0.000 C 
ATOM     20  C   UNL     1      -4.982  -5.897  -1.936  0.00  0.00    +0.000 C 
ENDBRANCH  16  19
ENDBRANCH  15  16
ENDBRANCH  13  15
ENDBRANCH   3  13
BRANCH   2  21
ATOM     21  C   UNL     1      -6.658  -1.128  -4.709  0.00  0.00    +0.000 C 
BRANCH  21  22
ATOM     22  C   UNL     1      -6.913  -1.082  -3.208  0.00  0.00    +0.000 C 
BRANCH  22  25
ATOM     23  O   UNL     1      -4.777  -0.033  -3.457  0.00  0.00    +0.000 OA
ATOM     24  O   UNL     1      -2.823   0.987  -3.906  0.00  0.00    +0.000 OA
ATOM     25  C   UNL     1      -5.708  -0.518  -2.466  0.00  0.00    +0.000 C 
ATOM     26  C   UNL     1      -6.126   0.567  -1.485  0.00  0.00    +0.000 C 
ATOM     27  C   UNL     1      -4.887   1.203  -0.882  0.00  0.00    +0.000 C 
ATOM     28  C   UNL     1      -4.001   1.761  -1.979  0.00  0.00    +0.000 C 
ATOM     29  C   UNL     1      -3.794   0.851  -3.166  0.00  0.00    +0.000 C 
BRANCH  27  30
ATOM     30  O   UNL     1      -4.146   0.247  -0.130  0.00  0.00    +0.000 OA
ATOM     31  H   UNL     1      -3.827  -0.430  -0.750  0.00  0.00    +0.000 HD
ENDBRANCH  27  30
ENDBRANCH  22  25
ENDBRANCH  21  22
ENDBRANCH   2  21
TORSDOF 8
ENDMDL
MODEL 2
REMARK VINA RESULT:     1.992      4.911      7.711
REMARK INTER + INTRA:          -5.066
REMARK INTER:                  -0.394
REMARK INTRA:                  -4.672
REMARK CONF_INDEPENDENT:        2.386
REMARK UNBOUND:                 4.672
REMARK  Name = 54454
REMARK  13 active torsions:
REMARK  status: ('A' for Active; 'I' for Inactive)
REMARK    1  A    between atoms: O_1  and  C_8
REMARK    2  A    between atoms: O_1  and  C_22
REMARK    3  A    between atoms: O_3  and  C_23
REMARK    4  A    between atoms: C_7  and  C_11
REMARK    5  A    between atoms: C_9  and  C_18
REMARK    6  A    between atoms: C_11  and  C_15
REMARK    7  A    between atoms: C_13  and  C_20
REMARK    8  A    between atoms: C_15  and  C_19
REMARK    9  A    between atoms: C_22  and  C_24
REMARK   10  A    between atoms: C_24  and  C_27
REMARK   11  A    between atoms: C_24  and  C_28
REMARK   12  A    between atoms: C_24  and  C_29
REMARK   13  A    between atoms: C_27  and  C_30
REMARK                            x       y       z     vdW  Elec       q    Type
REMARK                         _______ _______ _______ _____ _____    ______ ____
ROOT
ATOM      1  C   UNL     1      -3.747   1.413  -3.314  0.00  0.00    +0.000 C 
ATOM      2  C   UNL     1      -4.666   2.303  -2.427  0.00  0.00    +0.000 C 
ATOM      3  C   UNL     1      -3.593   1.940  -4.759  0.00  0.00    +0.000 C 
ATOM      4  C   UNL     1      -4.802   1.717  -0.990  0.00  0.00    +0.000 C 
ATOM      5  C   UNL     1      -2.393   1.196  -2.644  0.00  0.00    +0.000 C 
ATOM      6  C   UNL     1      -2.533   1.147  -5.531  0.00  0.00    +0.000 C 
ATOM      7  C   UNL     1      -1.155   1.142  -4.846  0.00  0.00    +0.000 C 
ATOM      8  C   UNL     1      -1.250   1.079  -3.344  0.00  0.00    +0.000 C 
ATOM      9  C   UNL     1      -3.457   1.327  -0.435  0.00  0.00    +0.000 C 
ATOM     10  C   UNL     1      -2.375   1.112  -1.195  0.00  0.00    +0.000 C 
ATOM     11  C   UNL     1      -5.753   0.521  -0.879  0.00  0.00    +0.000 C 
ATOM     12  C   UNL     1      -0.297   2.339  -5.264  0.00  0.00    +0.000 C 
ENDROOT
BRANCH   3  13
ATOM     13  O   UNL     1      -3.264   3.326  -4.751  0.00  0.00    +0.000 OA
BRANCH  13  15
ATOM     14  O   UNL     1      -3.783   3.518  -6.983  0.00  0.00    +0.000 OA
ATOM     15  C   UNL     1      -3.237   3.945  -5.972  0.00  0.00    +0.000 C 
BRANCH  15  16
ATOM     16  C   UNL     1      -2.423   5.244  -5.909  0.00  0.00    +0.000 C 
ATOM     17  C   UNL     1      -3.366   6.449  -6.074  0.00  0.00    +0.000 C 
ATOM     18  C   UNL     1      -1.431   5.248  -7.087  0.00  0.00    +0.000 C 
BRANCH  16  19
ATOM     19  C   UNL     1      -1.636   5.338  -4.579  0.00  0.00    +0.000 C 
ATOM     20  C   UNL     1      -1.680   6.704  -3.903  0.00  0.00    +0.000 C 
ENDBRANCH  16  19
ENDBRANCH  15  16
ENDBRANCH  13  15
ENDBRANCH   3  13
BRANCH   2  21
ATOM     21  C   UNL     1      -6.035   2.566  -3.063  0.00  0.00    +0.000 C 
BRANCH  21  22
ATOM     22  C   UNL     1      -6.181   4.028  -3.463  0.00  0.00    +0.000 C 
BRANCH  22  25
ATOM     23  O   UNL     1      -6.272   2.870  -5.555  0.00  0.00    +0.000 OA
ATOM     24  O   UNL     1      -6.427   1.602  -7.406  0.00  0.00    +0.000 OA
ATOM     25  C   UNL     1      -6.144   4.188  -4.978  0.00  0.00    +0.000 C 
ATOM     26  C   UNL     1      -7.232   5.137  -5.456  0.00  0.00    +0.000 C 
ATOM     27  C   UNL     1      -7.256   5.148  -6.974  0.00  0.00    +0.000 C 
ATOM     28  C   UNL     1      -7.476   3.744  -7.502  0.00  0.00    +0.000 C 
ATOM     29  C   UNL     1      -6.650   2.669  -6.839  0.00  0.00    +0.000 C 
BRANCH  27  30
ATOM     30  O   UNL     1      -6.028   5.651  -7.493  0.00  0.00    +0.000 OA
ATOM     31  H   UNL     1      -5.359   4.953  -7.388  0.00  0.00    +0.000 HD
ENDBRANCH  27  30
ENDBRANCH  22  25
ENDBRANCH  21  22
ENDBRANCH   2  21
TORSDOF 8
ENDMDL
MODEL 3
REMARK VINA RESULT:     2.052      2.400      6.421
REMARK INTER + INTRA:          -5.094
REMARK INTER:                  -0.335
REMARK INTRA:                  -4.759
REMARK CONF_INDEPENDENT:        2.386
REMARK UNBOUND:                 4.759
REMARK  Name = 54454
REMARK  13 active torsions:
REMARK  status: ('A' for Active; 'I' for Inactive)
REMARK    1  A    between atoms: O_1  and  C_8
REMARK    2  A    between atoms: O_1  and  C_22
REMARK    3  A    between atoms: O_3  and  C_23
REMARK    4  A    between atoms: C_7  and  C_11
REMARK    5  A    between atoms: C_9  and  C_18
REMARK    6  A    between atoms: C_11  and  C_15
REMARK    7  A    between atoms: C_13  and  C_20
REMARK    8  A    between atoms: C_15  and  C_19
REMARK    9  A    between atoms: C_22  and  C_24
REMARK   10  A    between atoms: C_24  and  C_27
REMARK   11  A    between atoms: C_24  and  C_28
REMARK   12  A    between atoms: C_24  and  C_29
REMARK   13  A    between atoms: C_27  and  C_30
REMARK                            x       y       z     vdW  Elec       q    Type
REMARK                         _______ _______ _______ _____ _____    ______ ____
ROOT
ATOM      1  C   UNL     1      -3.963  -2.062  -3.706  0.00  0.00    +0.000 C 
ATOM      2  C   UNL     1      -3.588  -3.159  -2.666  0.00  0.00    +0.000 C 
ATOM      3  C   UNL     1      -4.179  -2.617  -5.132  0.00  0.00    +0.000 C 
ATOM      4  C   UNL     1      -3.364  -2.544  -1.253  0.00  0.00    +0.000 C 
ATOM      5  C   UNL     1      -5.164  -1.251  -3.227  0.00  0.00    +0.000 C 
ATOM      6  C   UNL     1      -4.733  -1.540  -6.070  0.00  0.00    +0.000 C 
ATOM      7  C   UNL     1      -6.045  -0.910  -5.570  0.00  0.00    +0.000 C 
ATOM      8  C   UNL     1      -6.081  -0.748  -4.073  0.00  0.00    +0.000 C 
ATOM      9  C   UNL     1      -4.473  -1.590  -0.896  0.00  0.00    +0.000 C 
ATOM     10  C   UNL     1      -5.288  -1.028  -1.798  0.00  0.00    +0.000 C 
ATOM     11  C   UNL     1      -2.018  -1.832  -1.076  0.00  0.00    +0.000 C 
ATOM     12  C   UNL     1      -7.276  -1.689  -6.040  0.00  0.00    +0.000 C 
ENDROOT
BRANCH   3  13
ATOM     13  O   UNL     1      -5.052  -3.742  -5.101  0.00  0.00    +0.000 OA
BRANCH  13  15
ATOM     14  O   UNL     1      -4.688  -4.185  -7.329  0.00  0.00    +0.000 OA
ATOM     15  C   UNL     1      -5.371  -4.289  -6.316  0.00  0.00    +0.000 C 
BRANCH  15  16
ATOM     16  C   UNL     1      -6.704  -5.044  -6.243  0.00  0.00    +0.000 C 
ATOM     17  C   UNL     1      -6.455  -6.546  -6.469  0.00  0.00    +0.000 C 
ATOM     18  C   UNL     1      -7.611  -4.533  -7.377  0.00  0.00    +0.000 C 
BRANCH  16  19
ATOM     19  C   UNL     1      -7.402  -4.801  -4.882  0.00  0.00    +0.000 C 
ATOM     20  C   UNL     1      -6.830  -5.597  -3.715  0.00  0.00    +0.000 C 
ENDBRANCH  16  19
ENDBRANCH  15  16
ENDBRANCH  13  15
ENDBRANCH   3  13
BRANCH   2  21
ATOM     21  C   UNL     1      -2.396  -4.014  -3.107  0.00  0.00    +0.000 C 
BRANCH  21  22
ATOM     22  C   UNL     1      -2.827  -5.446  -3.395  0.00  0.00    +0.000 C 
BRANCH  22  25
ATOM     23  O   UNL     1      -2.089  -4.707  -5.548  0.00  0.00    +0.000 OA
ATOM     24  O   UNL     1      -1.245  -3.885  -7.465  0.00  0.00    +0.000 OA
ATOM     25  C   UNL     1      -2.905  -5.703  -4.895  0.00  0.00    +0.000 C 
ATOM     26  C   UNL     1      -2.470  -7.121  -5.233  0.00  0.00    +0.000 C 
ATOM     27  C   UNL     1      -2.418  -7.284  -6.741  0.00  0.00    +0.000 C 
ATOM     28  C   UNL     1      -1.479  -6.258  -7.344  0.00  0.00    +0.000 C 
ATOM     29  C   UNL     1      -1.631  -4.853  -6.813  0.00  0.00    +0.000 C 
BRANCH  27  30
ATOM     30  O   UNL     1      -3.713  -7.117  -7.310  0.00  0.00    +0.000 OA
ATOM     31  H   UNL     1      -3.827  -6.171  -7.505  0.00  0.00    +0.000 HD
ENDBRANCH  27  30
ENDBRANCH  22  25
ENDBRANCH  21  22
ENDBRANCH   2  21
TORSDOF 8
ENDMDL
MODEL 4
REMARK VINA RESULT:     2.077      2.122      6.419
REMARK INTER + INTRA:          -5.152
REMARK INTER:                  -0.309
REMARK INTRA:                  -4.843
REMARK CONF_INDEPENDENT:        2.386
REMARK UNBOUND:                 4.843
REMARK  Name = 54454
REMARK  13 active torsions:
REMARK  status: ('A' for Active; 'I' for Inactive)
REMARK    1  A    between atoms: O_1  and  C_8
REMARK    2  A    between atoms: O_1  and  C_22
REMARK    3  A    between atoms: O_3  and  C_23
REMARK    4  A    between atoms: C_7  and  C_11
REMARK    5  A    between atoms: C_9  and  C_18
REMARK    6  A    between atoms: C_11  and  C_15
REMARK    7  A    between atoms: C_13  and  C_20
REMARK    8  A    between atoms: C_15  and  C_19
REMARK    9  A    between atoms: C_22  and  C_24
REMARK   10  A    between atoms: C_24  and  C_27
REMARK   11  A    between atoms: C_24  and  C_28
REMARK   12  A    between atoms: C_24  and  C_29
REMARK   13  A    between atoms: C_27  and  C_30
REMARK                            x       y       z     vdW  Elec       q    Type
REMARK                         _______ _______ _______ _____ _____    ______ ____
ROOT
ATOM      1  C   UNL     1      -3.264  -1.016  -3.224  0.00  0.00    +0.000 C 
ATOM      2  C   UNL     1      -3.454  -2.299  -2.362  0.00  0.00    +0.000 C 
ATOM      3  C   UNL     1      -3.637  -1.216  -4.711  0.00  0.00    +0.000 C 
ATOM      4  C   UNL     1      -3.046  -2.048  -0.880  0.00  0.00    +0.000 C 
ATOM      5  C   UNL     1      -4.008   0.165  -2.607  0.00  0.00    +0.000 C 
ATOM      6  C   UNL     1      -3.621   0.114  -5.471  0.00  0.00    +0.000 C 
ATOM      7  C   UNL     1      -4.545   1.181  -4.857  0.00  0.00    +0.000 C 
ATOM      8  C   UNL     1      -4.573   1.132  -3.352  0.00  0.00    +0.000 C 
ATOM      9  C   UNL     1      -3.640  -0.764  -0.365  0.00  0.00    +0.000 C 
ATOM     10  C   UNL     1      -4.086   0.219  -1.159  0.00  0.00    +0.000 C 
ATOM     11  C   UNL     1      -1.535  -2.034  -0.631  0.00  0.00    +0.000 C 
ATOM     12  C   UNL     1      -5.971   1.096  -5.408  0.00  0.00    +0.000 C 
ENDROOT
BRANCH   3  13
ATOM     13  O   UNL     1      -4.916  -1.834  -4.824  0.00  0.00    +0.000 OA
BRANCH  13  15
ATOM     14  O   UNL     1      -4.616  -2.187  -7.077  0.00  0.00    +0.000 OA
ATOM     15  C   UNL     1      -5.347  -2.092  -6.098  0.00  0.00    +0.000 C 
BRANCH  15  16
ATOM     16  C   UNL     1      -6.874  -2.240  -6.138  0.00  0.00    +0.000 C 
ATOM     17  C   UNL     1      -7.240  -3.710  -6.413  0.00  0.00    +0.000 C 
ATOM     18  C   UNL     1      -7.410  -1.388  -7.303  0.00  0.00    +0.000 C 
BRANCH  16  19
ATOM     19  C   UNL     1      -7.511  -1.752  -4.814  0.00  0.00    +0.000 C 
ATOM     20  C   UNL     1      -7.461  -2.757  -3.668  0.00  0.00    +0.000 C 
ENDBRANCH  16  19
ENDBRANCH  15  16
ENDBRANCH  13  15
ENDBRANCH   3  13
BRANCH   2  21
ATOM     21  C   UNL     1      -2.739  -3.522  -2.947  0.00  0.00    +0.000 C 
BRANCH  21  22
ATOM     22  C   UNL     1      -3.741  -4.566  -3.422  0.00  0.00    +0.000 C 
BRANCH  22  25
ATOM     23  O   UNL     1      -2.694  -3.878  -5.461  0.00  0.00    +0.000 OA
ATOM     24  O   UNL     1      -1.527  -3.188  -7.255  0.00  0.00    +0.000 OA
ATOM     25  C   UNL     1      -3.852  -4.567  -4.941  0.00  0.00    +0.000 C 
ATOM     26  C   UNL     1      -3.974  -5.983  -5.482  0.00  0.00    +0.000 C 
ATOM     27  C   UNL     1      -3.929  -5.947  -6.999  0.00  0.00    +0.000 C 
ATOM     28  C   UNL     1      -2.648  -5.285  -7.466  0.00  0.00    +0.000 C 
ATOM     29  C   UNL     1      -2.276  -4.014  -6.740  0.00  0.00    +0.000 C 
BRANCH  27  30
ATOM     30  O   UNL     1      -5.041  -5.223  -7.518  0.00  0.00    +0.000 OA
ATOM     31  H   UNL     1      -4.875  -4.278  -7.358  0.00  0.00    +0.000 HD
ENDBRANCH  27  30
ENDBRANCH  22  25
ENDBRANCH  21  22
ENDBRANCH   2  21
TORSDOF 8
ENDMDL
MODEL 5
REMARK VINA RESULT:     2.239      1.900      3.922
REMARK INTER + INTRA:          -5.098
REMARK INTER:                  -0.148
REMARK INTRA:                  -4.950
REMARK CONF_INDEPENDENT:        2.386
REMARK UNBOUND:                 4.950
REMARK  Name = 54454
REMARK  13 active torsions:
REMARK  status: ('A' for Active; 'I' for Inactive)
REMARK    1  A    between atoms: O_1  and  C_8
REMARK    2  A    between atoms: O_1  and  C_22
REMARK    3  A    between atoms: O_3  and  C_23
REMARK    4  A    between atoms: C_7  and  C_11
REMARK    5  A    between atoms: C_9  and  C_18
REMARK    6  A    between atoms: C_11  and  C_15
REMARK    7  A    between atoms: C_13  and  C_20
REMARK    8  A    between atoms: C_15  and  C_19
REMARK    9  A    between atoms: C_22  and  C_24
REMARK   10  A    between atoms: C_24  and  C_27
REMARK   11  A    between atoms: C_24  and  C_28
REMARK   12  A    between atoms: C_24  and  C_29
REMARK   13  A    between atoms: C_27  and  C_30
REMARK                            x       y       z     vdW  Elec       q    Type
REMARK                         _______ _______ _______ _____ _____    ______ ____
ROOT
ATOM      1  C   UNL     1      -5.376  -4.054  -3.959  0.00  0.00    +0.000 C 
ATOM      2  C   UNL     1      -4.944  -3.525  -5.359  0.00  0.00    +0.000 C 
ATOM      3  C   UNL     1      -4.276  -3.908  -2.882  0.00  0.00    +0.000 C 
ATOM      4  C   UNL     1      -6.080  -3.714  -6.407  0.00  0.00    +0.000 C 
ATOM      5  C   UNL     1      -6.688  -3.409  -3.519  0.00  0.00    +0.000 C 
ATOM      6  C   UNL     1      -4.811  -4.257  -1.490  0.00  0.00    +0.000 C 
ATOM      7  C   UNL     1      -6.035  -3.420  -1.078  0.00  0.00    +0.000 C 
ATOM      8  C   UNL     1      -6.961  -3.133  -2.230  0.00  0.00    +0.000 C 
ATOM      9  C   UNL     1      -7.404  -3.248  -5.861  0.00  0.00    +0.000 C 
ATOM     10  C   UNL     1      -7.657  -3.100  -4.554  0.00  0.00    +0.000 C 
ATOM     11  C   UNL     1      -6.232  -5.146  -6.929  0.00  0.00    +0.000 C 
ATOM     12  C   UNL     1      -5.635  -2.110  -0.393  0.00  0.00    +0.000 C 
ENDROOT
BRANCH   3  13
ATOM     13  O   UNL     1      -3.744  -2.586  -2.891  0.00  0.00    +0.000 OA
BRANCH  13  15
ATOM     14  O   UNL     1      -1.515  -3.121  -3.073  0.00  0.00    +0.000 OA
ATOM     15  C   UNL     1      -2.419  -2.470  -2.564  0.00  0.00    +0.000 C 
BRANCH  15  16
ATOM     16  C   UNL     1      -2.218  -1.418  -1.466  0.00  0.00    +0.000 C 
ATOM     17  C   UNL     1      -0.812  -0.805  -1.594  0.00  0.00    +0.000 C 
ATOM     18  C   UNL     1      -2.309  -2.123  -0.100  0.00  0.00    +0.000 C 
BRANCH  16  19
ATOM     19  C   UNL     1      -3.307  -0.320  -1.547  0.00  0.00    +0.000 C 
ATOM     20  C   UNL     1      -2.777   1.098  -1.734  0.00  0.00    +0.000 C 
ENDBRANCH  16  19
ENDBRANCH  15  16
ENDBRANCH  13  15
ENDBRANCH   3  13
BRANCH   2  21
ATOM     21  C   UNL     1      -3.622  -4.130  -5.842  0.00  0.00    +0.000 C 
BRANCH  21  22
ATOM     22  C   UNL     1      -2.656  -3.043  -6.293  0.00  0.00    +0.000 C 
BRANCH  22  25
ATOM     23  O   UNL     1      -1.553  -1.179  -5.275  0.00  0.00    +0.000 OA
ATOM     24  O   UNL     1      -0.333   0.513  -4.433  0.00  0.00    +0.000 OA
ATOM     25  C   UNL     1      -2.856  -1.764  -5.489  0.00  0.00    +0.000 C 
ATOM     26  C   UNL     1      -3.808  -0.814  -6.198  0.00  0.00    +0.000 C 
ATOM     27  C   UNL     1      -3.859   0.502  -5.442  0.00  0.00    +0.000 C 
ATOM     28  C   UNL     1      -2.468   1.094  -5.331  0.00  0.00    +0.000 C 
ATOM     29  C   UNL     1      -1.383   0.121  -4.938  0.00  0.00    +0.000 C 
BRANCH  27  30
ATOM     30  O   UNL     1      -4.387   0.309  -4.132  0.00  0.00    +0.000 OA
ATOM     31  H   UNL     1      -4.128  -0.582  -3.841  0.00  0.00    +0.000 HD
ENDBRANCH  27  30
ENDBRANCH  22  25
ENDBRANCH  21  22
ENDBRANCH   2  21
TORSDOF 8
ENDMDL
MODEL 6
REMARK VINA RESULT:     2.248      2.291      5.849
REMARK INTER + INTRA:          -5.006
REMARK INTER:                  -0.138
REMARK INTRA:                  -4.868
REMARK CONF_INDEPENDENT:        2.386
REMARK UNBOUND:                 4.868
REMARK  Name = 54454
REMARK  13 active torsions:
REMARK  status: ('A' for Active; 'I' for Inactive)
REMARK    1  A    between atoms: O_1  and  C_8
REMARK    2  A    between atoms: O_1  and  C_22
REMARK    3  A    between atoms: O_3  and  C_23
REMARK    4  A    between atoms: C_7  and  C_11
REMARK    5  A    between atoms: C_9  and  C_18
REMARK    6  A    between atoms: C_11  and  C_15
REMARK    7  A    between atoms: C_13  and  C_20
REMARK    8  A    between atoms: C_15  and  C_19
REMARK    9  A    between atoms: C_22  and  C_24
REMARK   10  A    between atoms: C_24  and  C_27
REMARK   11  A    between atoms: C_24  and  C_28
REMARK   12  A    between atoms: C_24  and  C_29
REMARK   13  A    between atoms: C_27  and  C_30
REMARK                            x       y       z     vdW  Elec       q    Type
REMARK                         _______ _______ _______ _____ _____    ______ ____
ROOT
ATOM      1  C   UNL     1      -2.399  -2.856  -1.926  0.00  0.00    +0.000 C 
ATOM      2  C   UNL     1      -2.988  -1.416  -1.992  0.00  0.00    +0.000 C 
ATOM      3  C   UNL     1      -2.903  -3.777  -3.060  0.00  0.00    +0.000 C 
ATOM      4  C   UNL     1      -2.463  -0.538  -0.818  0.00  0.00    +0.000 C 
ATOM      5  C   UNL     1      -0.874  -2.814  -1.867  0.00  0.00    +0.000 C 
ATOM      6  C   UNL     1      -2.152  -5.112  -3.068  0.00  0.00    +0.000 C 
ATOM      7  C   UNL     1      -0.625  -4.954  -3.187  0.00  0.00    +0.000 C 
ATOM      8  C   UNL     1      -0.102  -3.758  -2.436  0.00  0.00    +0.000 C 
ATOM      9  C   UNL     1      -0.972  -0.677  -0.661  0.00  0.00    +0.000 C 
ATOM     10  C   UNL     1      -0.266  -1.704  -1.156  0.00  0.00    +0.000 C 
ATOM     11  C   UNL     1      -3.134  -0.814   0.532  0.00  0.00    +0.000 C 
ATOM     12  C   UNL     1      -0.162  -4.897  -4.645  0.00  0.00    +0.000 C 
ENDROOT
BRANCH   3  13
ATOM     13  O   UNL     1      -2.773  -3.129  -4.322  0.00  0.00    +0.000 OA
BRANCH  13  15
ATOM     14  O   UNL     1      -4.058  -4.743  -5.340  0.00  0.00    +0.000 OA
ATOM     15  C   UNL     1      -3.257  -3.817  -5.403  0.00  0.00    +0.000 C 
BRANCH  15  16
ATOM     16  C   UNL     1      -2.655  -3.279  -6.707  0.00  0.00    +0.000 C 
ATOM     17  C   UNL     1      -3.751  -2.576  -7.527  0.00  0.00    +0.000 C 
ATOM     18  C   UNL     1      -2.137  -4.475  -7.528  0.00  0.00    +0.000 C 
BRANCH  16  19
ATOM     19  C   UNL     1      -1.480  -2.314  -6.416  0.00  0.00    +0.000 C 
ATOM     20  C   UNL     1      -1.894  -0.900  -6.020  0.00  0.00    +0.000 C 
ENDBRANCH  16  19
ENDBRANCH  15  16
ENDBRANCH  13  15
ENDBRANCH   3  13
BRANCH   2  21
ATOM     21  C   UNL     1      -4.518  -1.402  -2.069  0.00  0.00    +0.000 C 
BRANCH  21  22
ATOM     22  C   UNL     1      -4.992  -0.916  -3.433  0.00  0.00    +0.000 C 
BRANCH  22  25
ATOM     23  O   UNL     1      -5.724  -3.194  -3.378  0.00  0.00    +0.000 OA
ATOM     24  O   UNL     1      -6.412  -5.318  -3.102  0.00  0.00    +0.000 OA
ATOM     25  C   UNL     1      -5.540  -2.069  -4.265  0.00  0.00    +0.000 C 
ATOM     26  C   UNL     1      -6.827  -1.673  -4.971  0.00  0.00    +0.000 C 
ATOM     27  C   UNL     1      -7.416  -2.890  -5.661  0.00  0.00    +0.000 C 
ATOM     28  C   UNL     1      -7.657  -3.995  -4.652  0.00  0.00    +0.000 C 
ATOM     29  C   UNL     1      -6.527  -4.240  -3.681  0.00  0.00    +0.000 C 
BRANCH  27  30
ATOM     30  O   UNL     1      -6.535  -3.370  -6.673  0.00  0.00    +0.000 OA
ATOM     31  H   UNL     1      -5.748  -3.730  -6.229  0.00  0.00    +0.000 HD
ENDBRANCH  27  30
ENDBRANCH  22  25
ENDBRANCH  21  22
ENDBRANCH   2  21
TORSDOF 8
ENDMDL
MODEL 7
REMARK VINA RESULT:     2.251      2.030      5.710
REMARK INTER + INTRA:          -5.009
REMARK INTER:                  -0.135
REMARK INTRA:                  -4.874
REMARK CONF_INDEPENDENT:        2.386
REMARK UNBOUND:                 4.874
REMARK  Name = 54454
REMARK  13 active torsions:
REMARK  status: ('A' for Active; 'I' for Inactive)
REMARK    1  A    between atoms: O_1  and  C_8
REMARK    2  A    between atoms: O_1  and  C_22
REMARK    3  A    between atoms: O_3  and  C_23
REMARK    4  A    between atoms: C_7  and  C_11
REMARK    5  A    between atoms: C_9  and  C_18
REMARK    6  A    between atoms: C_11  and  C_15
REMARK    7  A    between atoms: C_13  and  C_20
REMARK    8  A    between atoms: C_15  and  C_19
REMARK    9  A    between atoms: C_22  and  C_24
REMARK   10  A    between atoms: C_24  and  C_27
REMARK   11  A    between atoms: C_24  and  C_28
REMARK   12  A    between atoms: C_24  and  C_29
REMARK   13  A    between atoms: C_27  and  C_30
REMARK                            x       y       z     vdW  Elec       q    Type
REMARK                         _______ _______ _______ _____ _____    ______ ____
ROOT
ATOM      1  C   UNL     1      -3.899  -0.931  -3.680  0.00  0.00    +0.000 C 
ATOM      2  C   UNL     1      -3.561  -1.582  -2.306  0.00  0.00    +0.000 C 
ATOM      3  C   UNL     1      -3.922  -1.943  -4.848  0.00  0.00    +0.000 C 
ATOM      4  C   UNL     1      -3.531  -0.517  -1.170  0.00  0.00    +0.000 C 
ATOM      5  C   UNL     1      -5.198  -0.134  -3.596  0.00  0.00    +0.000 C 
ATOM      6  C   UNL     1      -4.447  -1.297  -6.133  0.00  0.00    +0.000 C 
ATOM      7  C   UNL     1      -5.846  -0.673  -5.977  0.00  0.00    +0.000 C 
ATOM      8  C   UNL     1      -6.052  -0.033  -4.630  0.00  0.00    +0.000 C 
ATOM      9  C   UNL     1      -4.736   0.384  -1.241  0.00  0.00    +0.000 C 
ATOM     10  C   UNL     1      -5.488   0.533  -2.339  0.00  0.00    +0.000 C 
ATOM     11  C   UNL     1      -2.265   0.346  -1.140  0.00  0.00    +0.000 C 
ATOM     12  C   UNL     1      -6.963  -1.684  -6.250  0.00  0.00    +0.000 C 
ENDROOT
BRANCH   3  13
ATOM     13  O   UNL     1      -4.713  -3.078  -4.507  0.00  0.00    +0.000 OA
BRANCH  13  15
ATOM     14  O   UNL     1      -3.158  -4.736  -4.863  0.00  0.00    +0.000 OA
ATOM     15  C   UNL     1      -4.287  -4.280  -5.008  0.00  0.00    +0.000 C 
BRANCH  15  16
ATOM     16  C   UNL     1      -5.411  -4.978  -5.784  0.00  0.00    +0.000 C 
ATOM     17  C   UNL     1      -5.078  -6.473  -5.936  0.00  0.00    +0.000 C 
ATOM     18  C   UNL     1      -5.481  -4.359  -7.193  0.00  0.00    +0.000 C 
BRANCH  16  19
ATOM     19  C   UNL     1      -6.773  -4.786  -5.075  0.00  0.00    +0.000 C 
ATOM     20  C   UNL     1      -7.654  -6.030  -5.028  0.00  0.00    +0.000 C 
ENDBRANCH  16  19
ENDBRANCH  15  16
ENDBRANCH  13  15
ENDBRANCH   3  13
BRANCH   2  21
ATOM     21  C   UNL     1      -2.272  -2.409  -2.340  0.00  0.00    +0.000 C 
BRANCH  21  22
ATOM     22  C   UNL     1      -2.501  -3.803  -1.771  0.00  0.00    +0.000 C 
BRANCH  22  25
ATOM     23  O   UNL     1      -3.839  -5.684  -2.403  0.00  0.00    +0.000 OA
ATOM     24  O   UNL     1      -4.917  -7.579  -2.958  0.00  0.00    +0.000 OA
ATOM     25  C   UNL     1      -3.919  -4.284  -2.056  0.00  0.00    +0.000 C 
ATOM     26  C   UNL     1      -4.832  -4.034  -0.866  0.00  0.00    +0.000 C 
ATOM     27  C   UNL     1      -6.188  -4.662  -1.133  0.00  0.00    +0.000 C 
ATOM     28  C   UNL     1      -6.030  -6.145  -1.407  0.00  0.00    +0.000 C 
ATOM     29  C   UNL     1      -4.909  -6.511  -2.349  0.00  0.00    +0.000 C 
BRANCH  27  30
ATOM     30  O   UNL     1      -6.814  -4.048  -2.256  0.00  0.00    +0.000 OA
ATOM     31  H   UNL     1      -6.126  -3.888  -2.924  0.00  0.00    +0.000 HD
ENDBRANCH  27  30
ENDBRANCH  22  25
ENDBRANCH  21  22
ENDBRANCH   2  21
TORSDOF 8
ENDMDL
MODEL 8
REMARK VINA RESULT:     2.339      2.254      3.843
REMARK INTER + INTRA:          -5.006
REMARK INTER:                  -0.047
REMARK INTRA:                  -4.959
REMARK CONF_INDEPENDENT:        2.386
REMARK UNBOUND:                 4.959
REMARK  Name = 54454
REMARK  13 active torsions:
REMARK  status: ('A' for Active; 'I' for Inactive)
REMARK    1  A    between atoms: O_1  and  C_8
REMARK    2  A    between atoms: O_1  and  C_22
REMARK    3  A    between atoms: O_3  and  C_23
REMARK    4  A    between atoms: C_7  and  C_11
REMARK    5  A    between atoms: C_9  and  C_18
REMARK    6  A    between atoms: C_11  and  C_15
REMARK    7  A    between atoms: C_13  and  C_20
REMARK    8  A    between atoms: C_15  and  C_19
REMARK    9  A    between atoms: C_22  and  C_24
REMARK   10  A    between atoms: C_24  and  C_27
REMARK   11  A    between atoms: C_24  and  C_28
REMARK   12  A    between atoms: C_24  and  C_29
REMARK   13  A    between atoms: C_27  and  C_30
REMARK                            x       y       z     vdW  Elec       q    Type
REMARK                         _______ _______ _______ _____ _____    ______ ____
ROOT
ATOM      1  C   UNL     1      -3.114  -0.829  -5.550  0.00  0.00    +0.000 C 
ATOM      2  C   UNL     1      -4.549  -1.344  -5.236  0.00  0.00    +0.000 C 
ATOM      3  C   UNL     1      -2.427  -0.151  -4.343  0.00  0.00    +0.000 C 
ATOM      4  C   UNL     1      -5.201  -1.999  -6.490  0.00  0.00    +0.000 C 
ATOM      5  C   UNL     1      -2.255  -1.946  -6.136  0.00  0.00    +0.000 C 
ATOM      6  C   UNL     1      -0.958   0.161  -4.641  0.00  0.00    +0.000 C 
ATOM      7  C   UNL     1      -0.142  -1.077  -5.057  0.00  0.00    +0.000 C 
ATOM      8  C   UNL     1      -0.933  -2.040  -5.903  0.00  0.00    +0.000 C 
ATOM      9  C   UNL     1      -4.246  -2.951  -7.161  0.00  0.00    +0.000 C 
ATOM     10  C   UNL     1      -2.920  -2.925  -6.977  0.00  0.00    +0.000 C 
ATOM     11  C   UNL     1      -5.723  -1.001  -7.529  0.00  0.00    +0.000 C 
ATOM     12  C   UNL     1       0.451  -1.810  -3.850  0.00  0.00    +0.000 C 
ENDROOT
BRANCH   3  13
ATOM     13  O   UNL     1      -2.532  -0.974  -3.184  0.00  0.00    +0.000 OA
BRANCH  13  15
ATOM     14  O   UNL     1      -3.449   0.574  -1.751  0.00  0.00    +0.000 OA
ATOM     15  C   UNL     1      -2.640  -0.316  -1.988  0.00  0.00    +0.000 C 
BRANCH  15  16
ATOM     16  C   UNL     1      -1.605  -0.837  -0.983  0.00  0.00    +0.000 C 
ATOM     17  C   UNL     1      -2.131  -0.631   0.449  0.00  0.00    +0.000 C 
ATOM     18  C   UNL     1      -0.317  -0.009  -1.143  0.00  0.00    +0.000 C 
BRANCH  16  19
ATOM     19  C   UNL     1      -1.287  -2.330  -1.242  0.00  0.00    +0.000 C 
ATOM     20  C   UNL     1      -1.481  -3.247  -0.039  0.00  0.00    +0.000 C 
ENDBRANCH  16  19
ENDBRANCH  15  16
ENDBRANCH  13  15
ENDBRANCH   3  13
BRANCH   2  21
ATOM     21  C   UNL     1      -5.450  -0.263  -4.629  0.00  0.00    +0.000 C 
BRANCH  21  22
ATOM     22  C   UNL     1      -6.099  -0.752  -3.341  0.00  0.00    +0.000 C 
BRANCH  22  25
ATOM     23  O   UNL     1      -5.372  -1.542  -1.202  0.00  0.00    +0.000 OA
ATOM     24  O   UNL     1      -4.857  -2.166   0.897  0.00  0.00    +0.000 OA
ATOM     25  C   UNL     1      -5.203  -1.752  -2.621  0.00  0.00    +0.000 C 
ATOM     26  C   UNL     1      -5.526  -3.178  -3.038  0.00  0.00    +0.000 C 
ATOM     27  C   UNL     1      -4.719  -4.144  -2.188  0.00  0.00    +0.000 C 
ATOM     28  C   UNL     1      -5.013  -3.917  -0.719  0.00  0.00    +0.000 C 
ATOM     29  C   UNL     1      -5.032  -2.472  -0.280  0.00  0.00    +0.000 C 
BRANCH  27  30
ATOM     30  O   UNL     1      -3.324  -3.967  -2.415  0.00  0.00    +0.000 OA
ATOM     31  H   UNL     1      -3.180  -3.033  -2.640  0.00  0.00    +0.000 HD
ENDBRANCH  27  30
ENDBRANCH  22  25
ENDBRANCH  21  22
ENDBRANCH   2  21
TORSDOF 8
ENDMDL
MODEL 9
REMARK VINA RESULT:     2.363      8.890     11.631
REMARK INTER + INTRA:          -4.985
REMARK INTER:                  -0.023
REMARK INTRA:                  -4.962
REMARK CONF_INDEPENDENT:        2.386
REMARK UNBOUND:                 4.962
REMARK  Name = 54454
REMARK  13 active torsions:
REMARK  status: ('A' for Active; 'I' for Inactive)
REMARK    1  A    between atoms: O_1  and  C_8
REMARK    2  A    between atoms: O_1  and  C_22
REMARK    3  A    between atoms: O_3  and  C_23
REMARK    4  A    between atoms: C_7  and  C_11
REMARK    5  A    between atoms: C_9  and  C_18
REMARK    6  A    between atoms: C_11  and  C_15
REMARK    7  A    between atoms: C_13  and  C_20
REMARK    8  A    between atoms: C_15  and  C_19
REMARK    9  A    between atoms: C_22  and  C_24
REMARK   10  A    between atoms: C_24  and  C_27
REMARK   11  A    between atoms: C_24  and  C_28
REMARK   12  A    between atoms: C_24  and  C_29
REMARK   13  A    between atoms: C_27  and  C_30
REMARK                            x       y       z     vdW  Elec       q    Type
REMARK                         _______ _______ _______ _____ _____    ______ ____
ROOT
ATOM      1  C   UNL     1       0.792  -1.387   3.477  0.00  0.00    +0.000 C 
ATOM      2  C   UNL     1       0.328   0.012   3.982  0.00  0.00    +0.000 C 
ATOM      3  C   UNL     1       2.296  -1.443   3.123  0.00  0.00    +0.000 C 
ATOM      4  C   UNL     1      -1.195   0.018   4.305  0.00  0.00    +0.000 C 
ATOM      5  C   UNL     1       0.404  -2.477   4.472  0.00  0.00    +0.000 C 
ATOM      6  C   UNL     1       2.742  -2.877   2.822  0.00  0.00    +0.000 C 
ATOM      7  C   UNL     1       2.457  -3.861   3.971  0.00  0.00    +0.000 C 
ATOM      8  C   UNL     1       1.160  -3.571   4.679  0.00  0.00    +0.000 C 
ATOM      9  C   UNL     1      -1.580  -1.185   5.125  0.00  0.00    +0.000 C 
ATOM     10  C   UNL     1      -0.838  -2.298   5.204  0.00  0.00    +0.000 C 
ATOM     11  C   UNL     1      -2.105   0.094   3.075  0.00  0.00    +0.000 C 
ATOM     12  C   UNL     1       3.603  -3.914   4.984  0.00  0.00    +0.000 C 
ENDROOT
BRANCH   3  13
ATOM     13  O   UNL     1       3.076  -0.894   4.181  0.00  0.00    +0.000 OA
BRANCH  13  15
ATOM     14  O   UNL     1       4.254   0.667   2.970  0.00  0.00    +0.000 OA
ATOM     15  C   UNL     1       4.213  -0.229   3.805  0.00  0.00    +0.000 C 
BRANCH  15  16
ATOM     16  C   UNL     1       5.434  -0.760   4.566  0.00  0.00    +0.000 C 
ATOM     17  C   UNL     1       6.513   0.336   4.637  0.00  0.00    +0.000 C 
ATOM     18  C   UNL     1       6.013  -1.950   3.778  0.00  0.00    +0.000 C 
BRANCH  16  19
ATOM     19  C   UNL     1       5.037  -1.234   5.986  0.00  0.00    +0.000 C 
ATOM     20  C   UNL     1       5.803  -0.566   7.123  0.00  0.00    +0.000 C 
ENDBRANCH  16  19
ENDBRANCH  15  16
ENDBRANCH  13  15
ENDBRANCH   3  13
BRANCH   2  21
ATOM     21  C   UNL     1       0.709   1.146   3.025  0.00  0.00    +0.000 C 
BRANCH  21  22
ATOM     22  C   UNL     1       1.419   2.272   3.766  0.00  0.00    +0.000 C 
BRANCH  22  25
ATOM     23  O   UNL     1       3.434   2.521   5.032  0.00  0.00    +0.000 OA
ATOM     24  O   UNL     1       5.356   2.953   6.118  0.00  0.00    +0.000 OA
ATOM     25  C   UNL     1       2.229   1.730   4.937  0.00  0.00    +0.000 C 
ATOM     26  C   UNL     1       1.419   1.755   6.224  0.00  0.00    +0.000 C 
ATOM     27  C   UNL     1       2.309   1.353   7.385  0.00  0.00    +0.000 C 
ATOM     28  C   UNL     1       3.506   2.279   7.469  0.00  0.00    +0.000 C 
ATOM     29  C   UNL     1       4.188   2.572   6.154  0.00  0.00    +0.000 C 
BRANCH  27  30
ATOM     30  O   UNL     1       2.769   0.014   7.227  0.00  0.00    +0.000 OA
ATOM     31  H   UNL     1       2.847  -0.158   6.273  0.00  0.00    +0.000 HD
ENDBRANCH  27  30
ENDBRANCH  22  25
ENDBRANCH  21  22
ENDBRANCH   2  21
TORSDOF 8
ENDMDL
