
     RDKit          3D

 26 25  0  0  0  0  0  0  0  0999 V2000
    7.7237    1.9148   -1.4558 C   0  0  0  0  0  0  0  0  0  0  0  0
    6.6177    2.6421   -0.7383 C   0  0  0  0  0  0  0  0  0  0  0  0
    5.3991    1.7756   -0.5714 C   0  0  0  0  0  0  0  0  0  0  0  0
    4.4292    2.1713   -1.6796 C   0  0  0  0  0  0  0  0  0  0  0  0
    3.0433    2.0080   -1.0649 C   0  0  0  0  0  0  0  0  0  0  0  0
    2.9215    0.5655   -0.6559 C   0  0  0  0  0  0  0  0  0  0  0  0
    2.4086    0.3772    1.0644 S   0  0  0  0  0  0  0  0  0  0  0  0
    0.7598   -0.3030    1.0799 C   0  0  0  0  0  0  0  0  0  0  0  0
    0.5564   -1.1336   -0.3252 C   0  0  2  0  0  0  0  0  0  0  0  0
   -0.4170   -0.0821   -0.9704 N   0  0  0  0  0  0  0  0  0  0  0  0
   -1.2976    0.6108   -0.1344 C   0  0  0  0  0  0  0  0  0  0  0  0
   -0.6781    1.2160    0.7966 O   0  0  0  0  0  0  0  0  0  0  0  0
   -2.4920    1.3112   -0.6071 C   0  0  0  0  0  0  0  0  0  0  0  0
   -3.7216    0.6196   -0.1998 C   0  0  0  0  0  0  0  0  0  0  0  0
   -4.9084    0.9020   -1.2990 C   0  0  2  0  0  0  0  0  0  0  0  0
   -3.9117    1.2093   -2.4834 N   0  0  0  0  0  0  0  0  0  0  0  0
   -5.0571    2.4586   -0.9193 C   0  0  0  0  0  0  0  0  0  0  0  0
   -5.8838    3.0363   -1.6744 O   0  0  0  0  0  0  0  0  0  0  0  0
   -4.0027    3.2052   -0.5455 O   0  0  0  0  0  0  0  0  0  0  0  0
   -0.6679   -1.9956    0.2820 C   0  0  0  0  0  0  0  0  0  0  0  0
   -1.3645   -2.5706   -0.6030 O   0  0  0  0  0  0  0  0  0  0  0  0
   -0.4073   -2.6856    1.4718 N   0  0  0  0  0  0  0  0  0  0  0  0
   -0.5921   -4.1022    1.6642 C   0  0  0  0  0  0  0  0  0  0  0  0
    0.2941   -4.4716    2.8122 C   0  0  0  0  0  0  0  0  0  0  0  0
    1.5327   -4.3729    2.6814 O   0  0  0  0  0  0  0  0  0  0  0  0
   -0.2843   -4.3064    4.0748 O   0  0  0  0  0  0  0  0  0  0  0  0
  1  2  1  0
  2  3  1  0
  3  4  1  0
  4  5  1  0
  5  6  1  0
  6  7  1  0
  7  8  1  0
  9  8  1  1
  9 10  1  0
 10 11  1  0
 11 12  2  0
 11 13  1  0
 13 14  1  0
 15 14  1  1
 15 16  1  0
 15 17  1  0
 17 18  2  0
 17 19  1  0
  9 20  1  0
 20 21  2  0
 20 22  1  0
 22 23  1  0
 23 24  1  0
 24 25  2  0
 24 26  1  0
M  END
>  <zinc_id>  (1) 
ZINC000003874923

>  <smiles>  (1) 
CCCCCCSC[C@H](NC(=O)CC[C@H](N)C(=O)O)C(=O)NCC(=O)O

$$$$
