14221359
  -OEChem-02072018293D

 18 17  0     1  0  0  0  0  0999 V2000
    1.7189   -1.1450   -0.7396 O   0  0  0  0  0  0  0  0  0  0  0  0
    2.0042    0.3866    0.9070 O   0  0  0  0  0  0  0  0  0  0  0  0
   -1.1761   -1.6466    0.2379 N   0  0  0  0  0  0  0  0  0  0  0  0
   -0.0091    1.9025   -0.2800 N   0  0  0  0  0  0  0  0  0  0  0  0
   -1.2165   -0.1850    0.3574 C   0  0  1  0  0  0  0  0  0  0  0  0
   -0.0431    0.4434   -0.4260 C   0  0  2  0  0  0  0  0  0  0  0  0
   -2.6019    0.3197   -0.0565 C   0  0  0  0  0  0  0  0  0  0  0  0
    1.3235   -0.0757    0.0001 C   0  0  0  0  0  0  0  0  0  0  0  0
   -1.0821    0.0424    1.4230 H   0  0  0  0  0  0  0  0  0  0  0  0
   -0.1537    0.2358   -1.4983 H   0  0  0  0  0  0  0  0  0  0  0  0
   -2.7808    0.1565   -1.1250 H   0  0  0  0  0  0  0  0  0  0  0  0
   -2.7128    1.3891    0.1486 H   0  0  0  0  0  0  0  0  0  0  0  0
   -3.3917   -0.1962    0.5014 H   0  0  0  0  0  0  0  0  0  0  0  0
   -1.3162   -1.9141   -0.7360 H   0  0  0  0  0  0  0  0  0  0  0  0
   -1.9518   -2.0560    0.7572 H   0  0  0  0  0  0  0  0  0  0  0  0
   -0.0169    2.1490    0.7093 H   0  0  0  0  0  0  0  0  0  0  0  0
   -0.8533    2.3102   -0.6786 H   0  0  0  0  0  0  0  0  0  0  0  0
    2.5965   -1.4801   -0.4572 H   0  0  0  0  0  0  0  0  0  0  0  0
  1  8  1  0  0  0  0
  1 18  1  0  0  0  0
  2  8  2  0  0  0  0
  3  5  1  0  0  0  0
  3 14  1  0  0  0  0
  3 15  1  0  0  0  0
  4  6  1  0  0  0  0
  4 16  1  0  0  0  0
  4 17  1  0  0  0  0
  5  6  1  0  0  0  0
  5  7  1  0  0  0  0
  5  9  1  0  0  0  0
  6  8  1  0  0  0  0
  6 10  1  0  0  0  0
  7 11  1  0  0  0  0
  7 12  1  0  0  0  0
  7 13  1  0  0  0  0
M  END
> <DATABASE_ID>
DB04802

> <DATABASE_NAME>
drugbank

> <ORIGINAL_SOURCE>
PUBCHEM

> <ORIGINAL_SOURCE_URL>
https://pubchem.ncbi.nlm.nih.gov/rest/pug/compound/inchikey/SXGMVGOVILIERA-PWNYCUMCSA-N/SDF?record_type=3d

> <SMILES>
C[C@@H](N)[C@@H](N)C(O)=O

> <INCHI_IDENTIFIER>
InChI=1S/C4H10N2O2/c1-2(5)3(6)4(7)8/h2-3H,5-6H2,1H3,(H,7,8)/t2-,3-/m1/s1

> <INCHI_KEY>
SXGMVGOVILIERA-PWNYCUMCSA-N

> <FORMULA>
C4H10N2O2

> <MOLECULAR_WEIGHT>
118.1344

> <EXACT_MASS>
118.074227574

> <JCHEM_ACCEPTOR_COUNT>
4

> <JCHEM_ATOM_COUNT>
18

> <JCHEM_AVERAGE_NEUTRAL_MICROSPECIES_CHARGE>
0.3242522253713944

> <JCHEM_AVERAGE_POLARIZABILITY>
11.480659028247576

> <JCHEM_BIOAVAILABILITY>
1

> <JCHEM_DONOR_COUNT>
3

> <JCHEM_FORMAL_CHARGE>
0

> <JCHEM_GHOSE_FILTER>
0

> <JCHEM_IUPAC>
(2R,3R)-2,3-diaminobutanoic acid

> <ALOGPS_LOGP>
-3.71

> <JCHEM_LOGP>
-3.604996900594267

> <ALOGPS_LOGS>
0.39

> <JCHEM_MDDR_LIKE_RULE>
0

> <JCHEM_NEUTRAL_CHARGE>
0

> <JCHEM_NUMBER_OF_RINGS>
0

> <JCHEM_PHYSIOLOGICAL_CHARGE>
0

> <JCHEM_PKA_STRONGEST_ACIDIC>
2.2240980415006453

> <JCHEM_PKA_STRONGEST_BASIC>
9.78402521539802

> <JCHEM_POLAR_SURFACE_AREA>
89.34

> <JCHEM_REFRACTIVITY>
28.1173

> <JCHEM_ROTATABLE_BOND_COUNT>
2

> <JCHEM_RULE_OF_FIVE>
1

> <ALOGPS_SOLUBILITY>
2.89e+02 g/l

> <JCHEM_TRADITIONAL_IUPAC>
L-threoninol

> <JCHEM_VEBER_RULE>
0

$$$$
