6917715
  -OEChem-10051719113D

 52 55  0     1  0  0  0  0  0999 V2000
    4.6911   -0.5280   -0.0388 O   0  0  0  0  0  0  0  0  0  0  0  0
   -6.1973    0.2051    0.9360 O   0  0  0  0  0  0  0  0  0  0  0  0
    2.2352   -0.2636   -0.2176 C   0  0  1  0  0  0  0  0  0  0  0  0
    1.3651    1.0102   -0.0818 C   0  0  2  0  0  0  0  0  0  0  0  0
   -0.0459    0.8458   -0.6753 C   0  0  1  0  0  0  0  0  0  0  0  0
   -0.7676   -0.3278    0.0690 C   0  0  1  0  0  0  0  0  0  0  0  0
    3.5782    0.2487    0.3825 C   0  0  2  0  0  0  0  0  0  0  0  0
    2.2721    2.1174   -0.6110 C   0  0  0  0  0  0  0  0  0  0  0  0
    1.5226   -1.4151    0.5244 C   0  0  0  0  0  0  0  0  0  0  0  0
    3.6957    1.6815   -0.2023 C   0  0  0  0  0  0  0  0  0  0  0  0
   -2.2716   -0.4772   -0.3446 C   0  0  2  0  0  0  0  0  0  0  0  0
    0.1132   -1.5872   -0.0325 C   0  0  0  0  0  0  0  0  0  0  0  0
   -0.8469    2.1465   -0.5577 C   0  0  0  0  0  0  0  0  0  0  0  0
    2.4649   -0.7007   -1.6977 C   0  0  0  0  0  0  0  0  0  0  0  0
   -2.2375    1.9722   -1.1468 C   0  0  0  0  0  0  0  0  0  0  0  0
   -2.9893    0.8637   -0.4607 C   0  0  0  0  0  0  0  0  0  0  0  0
   -3.0041   -1.3871    0.6723 C   0  0  0  0  0  0  0  0  0  0  0  0
    3.2902   -1.9579   -1.7462 C   0  0  0  0  0  0  0  0  0  0  0  0
    3.5858    0.3060    1.8574 C   0  0  0  0  0  0  0  0  0  0  0  0
   -0.2323   -2.7500   -0.6092 C   0  0  0  0  0  0  0  0  0  0  0  0
   -4.5052   -1.4169    0.4410 C   0  0  0  0  0  0  0  0  0  0  0  0
   -4.2427    1.0835   -0.0301 C   0  0  0  0  0  0  0  0  0  0  0  0
   -5.0659   -0.0214    0.5127 C   0  0  0  0  0  0  0  0  0  0  0  0
    3.5923    0.3522    3.0569 C   0  0  0  0  0  0  0  0  0  0  0  0
    1.2189    1.2258    0.9890 H   0  0  0  0  0  0  0  0  0  0  0  0
    0.0266    0.6035   -1.7431 H   0  0  0  0  0  0  0  0  0  0  0  0
   -0.7791   -0.0607    1.1381 H   0  0  0  0  0  0  0  0  0  0  0  0
    2.0194    3.0909   -0.1783 H   0  0  0  0  0  0  0  0  0  0  0  0
    2.1995    2.2118   -1.7001 H   0  0  0  0  0  0  0  0  0  0  0  0
    1.3993   -1.1609    1.5859 H   0  0  0  0  0  0  0  0  0  0  0  0
    2.0741   -2.3565    0.5451 H   0  0  0  0  0  0  0  0  0  0  0  0
    4.3532    1.7035   -1.0800 H   0  0  0  0  0  0  0  0  0  0  0  0
    4.1186    2.3911    0.5192 H   0  0  0  0  0  0  0  0  0  0  0  0
   -2.3233   -0.9373   -1.3408 H   0  0  0  0  0  0  0  0  0  0  0  0
   -0.3375    2.9541   -1.0960 H   0  0  0  0  0  0  0  0  0  0  0  0
   -0.9190    2.4571    0.4926 H   0  0  0  0  0  0  0  0  0  0  0  0
    2.9582    0.0787   -2.2886 H   0  0  0  0  0  0  0  0  0  0  0  0
    1.5149   -0.8908   -2.2072 H   0  0  0  0  0  0  0  0  0  0  0  0
   -2.1603    1.7369   -2.2158 H   0  0  0  0  0  0  0  0  0  0  0  0
   -2.7746    2.9258   -1.0745 H   0  0  0  0  0  0  0  0  0  0  0  0
   -2.8122   -1.0259    1.6923 H   0  0  0  0  0  0  0  0  0  0  0  0
   -2.6280   -2.4131    0.6330 H   0  0  0  0  0  0  0  0  0  0  0  0
    4.3035   -1.7352   -2.1016 H   0  0  0  0  0  0  0  0  0  0  0  0
    3.3870   -2.5565   -0.8431 H   0  0  0  0  0  0  0  0  0  0  0  0
    2.8714   -2.6269   -2.5090 H   0  0  0  0  0  0  0  0  0  0  0  0
    4.6839   -1.3649    0.4569 H   0  0  0  0  0  0  0  0  0  0  0  0
   -1.1990   -2.9124   -1.0685 H   0  0  0  0  0  0  0  0  0  0  0  0
    0.4673   -3.5787   -0.6576 H   0  0  0  0  0  0  0  0  0  0  0  0
   -4.9807   -2.0256    1.2177 H   0  0  0  0  0  0  0  0  0  0  0  0
   -4.7506   -1.8457   -0.5363 H   0  0  0  0  0  0  0  0  0  0  0  0
   -4.7223    2.0521   -0.1224 H   0  0  0  0  0  0  0  0  0  0  0  0
    3.5971    0.3931    4.1210 H   0  0  0  0  0  0  0  0  0  0  0  0
  1  7  1  0  0  0  0
  1 46  1  0  0  0  0
  2 23  2  0  0  0  0
  3  4  1  0  0  0  0
  3  7  1  0  0  0  0
  3  9  1  0  0  0  0
  3 14  1  0  0  0  0
  4  5  1  0  0  0  0
  4  8  1  0  0  0  0
  4 25  1  0  0  0  0
  5  6  1  0  0  0  0
  5 13  1  0  0  0  0
  5 26  1  0  0  0  0
  6 11  1  0  0  0  0
  6 12  1  0  0  0  0
  6 27  1  0  0  0  0
  7 10  1  0  0  0  0
  7 19  1  0  0  0  0
  8 10  1  0  0  0  0
  8 28  1  0  0  0  0
  8 29  1  0  0  0  0
  9 12  1  0  0  0  0
  9 30  1  0  0  0  0
  9 31  1  0  0  0  0
 10 32  1  0  0  0  0
 10 33  1  0  0  0  0
 11 16  1  0  0  0  0
 11 17  1  0  0  0  0
 11 34  1  0  0  0  0
 12 20  2  0  0  0  0
 13 15  1  0  0  0  0
 13 35  1  0  0  0  0
 13 36  1  0  0  0  0
 14 18  1  0  0  0  0
 14 37  1  0  0  0  0
 14 38  1  0  0  0  0
 15 16  1  0  0  0  0
 15 39  1  0  0  0  0
 15 40  1  0  0  0  0
 16 22  2  0  0  0  0
 17 21  1  0  0  0  0
 17 41  1  0  0  0  0
 17 42  1  0  0  0  0
 18 43  1  0  0  0  0
 18 44  1  0  0  0  0
 18 45  1  0  0  0  0
 19 24  3  0  0  0  0
 20 47  1  0  0  0  0
 20 48  1  0  0  0  0
 21 23  1  0  0  0  0
 21 49  1  0  0  0  0
 21 50  1  0  0  0  0
 22 23  1  0  0  0  0
 22 51  1  0  0  0  0
 24 52  1  0  0  0  0
M  END
> <DATABASE_ID>
DB00294

> <DATABASE_NAME>
drugbank

> <ORIGINAL_SOURCE>
PUBCHEM

> <ORIGINAL_SOURCE_URL>
https://pubchem.ncbi.nlm.nih.gov/rest/pug/compound/inchikey/GCKFUYQCUCGESZ-BPIQYHPVSA-N/SDF?record_type=3d

> <SMILES>
[H][C@@]12CC[C@@](O)(C#C)[C@@]1(CC)CC(=C)[C@]1([H])[C@@]3([H])CCC(=O)C=C3CC[C@@]21[H]

> <INCHI_IDENTIFIER>
InChI=1S/C22H28O2/c1-4-21-13-14(3)20-17-9-7-16(23)12-15(17)6-8-18(20)19(21)10-11-22(21,24)5-2/h2,12,17-20,24H,3-4,6-11,13H2,1H3/t17-,18-,19-,20+,21-,22-/m0/s1

> <INCHI_KEY>
GCKFUYQCUCGESZ-BPIQYHPVSA-N

> <FORMULA>
C22H28O2

> <MOLECULAR_WEIGHT>
324.4565

> <EXACT_MASS>
324.20893014

> <JCHEM_ACCEPTOR_COUNT>
2

> <JCHEM_ATOM_COUNT>
52

> <JCHEM_AVERAGE_NEUTRAL_MICROSPECIES_CHARGE>
3.221911274388983e-09

> <JCHEM_AVERAGE_POLARIZABILITY>
37.83461917875536

> <JCHEM_BIOAVAILABILITY>
1

> <JCHEM_DONOR_COUNT>
1

> <JCHEM_FORMAL_CHARGE>
0

> <JCHEM_GHOSE_FILTER>
1

> <JCHEM_IUPAC>
(1R,3aS,3bS,9aR,9bS,11aS)-11a-ethyl-1-ethynyl-1-hydroxy-10-methylidene-1H,2H,3H,3aH,3bH,4H,5H,7H,8H,9H,9aH,9bH,10H,11H,11aH-cyclopenta[a]phenanthren-7-one

> <ALOGPS_LOGP>
3.19

> <JCHEM_LOGP>
3.6011698876666673

> <ALOGPS_LOGS>
-4.64

> <JCHEM_MDDR_LIKE_RULE>
0

> <JCHEM_NEUTRAL_CHARGE>
0

> <JCHEM_NUMBER_OF_RINGS>
4

> <JCHEM_PHYSIOLOGICAL_CHARGE>
0

> <JCHEM_PKA>
18.220871851446592

> <JCHEM_PKA_STRONGEST_ACIDIC>
17.993504322233708

> <JCHEM_PKA_STRONGEST_BASIC>
-1.4892071320038958

> <JCHEM_POLAR_SURFACE_AREA>
37.3

> <JCHEM_REFRACTIVITY>
96.35159999999998

> <JCHEM_ROTATABLE_BOND_COUNT>
1

> <JCHEM_RULE_OF_FIVE>
1

> <ALOGPS_SOLUBILITY>
7.37e-03 g/l

> <JCHEM_TRADITIONAL_IUPAC>
biotin

> <JCHEM_VEBER_RULE>
1

$$$$
