6918462
  -OEChem-06112217113D

 83 87  0     1  0  0  0  0  0999 V2000
    3.5922    0.7728   -1.2724 S   0  0  0  0  0  0  0  0  0  0  0  0
    0.0301   -0.8244   -0.6695 O   0  0  0  0  0  0  0  0  0  0  0  0
   -3.7741    3.4361    0.7621 O   0  0  0  0  0  0  0  0  0  0  0  0
   -4.1404   -3.0301    1.9661 O   0  0  0  0  0  0  0  0  0  0  0  0
    0.6686    1.1543   -1.6625 O   0  0  0  0  0  0  0  0  0  0  0  0
    7.4227    0.1766    1.1004 N   0  0  0  0  0  0  0  0  0  0  0  0
   -4.4778   -0.1459   -0.0862 C   0  0  1  0  0  0  0  0  0  0  0  0
   -3.4943   -0.9501    0.8196 C   0  0  2  0  0  0  0  0  0  0  0  0
   -2.2102   -1.4945    0.1155 C   0  0  1  0  0  0  0  0  0  0  0  0
   -4.0130    1.3203   -0.4598 C   0  0  2  0  0  0  0  0  0  0  0  0
   -2.6511   -2.3306   -1.1420 C   0  0  1  0  0  0  0  0  0  0  0  0
   -4.7891   -0.9737   -1.3746 C   0  0  0  0  0  0  0  0  0  0  0  0
   -5.7562   -0.1039    0.7965 C   0  0  0  0  0  0  0  0  0  0  0  0
   -1.2564   -0.3028   -0.2952 C   0  0  1  0  0  0  0  0  0  0  0  0
   -3.5567   -1.5194   -2.0860 C   0  0  0  0  0  0  0  0  0  0  0  0
   -4.4562   -1.9650    1.4525 C   0  0  0  0  0  0  0  0  0  0  0  0
   -3.2782    2.0865    0.7006 C   0  0  1  0  0  0  0  0  0  0  0  0
   -5.8816   -1.4800    1.4383 C   0  0  0  0  0  0  0  0  0  0  0  0
   -1.7083    2.1435    0.6174 C   0  0  2  0  0  0  0  0  0  0  0  0
   -1.0058    0.7616    0.7966 C   0  0  0  0  0  0  0  0  0  0  0  0
   -1.4346   -2.4193    1.0978 C   0  0  0  0  0  0  0  0  0  0  0  0
   -5.1812    2.1591   -1.0346 C   0  0  0  0  0  0  0  0  0  0  0  0
   -1.5134   -2.9532   -1.9606 C   0  0  0  0  0  0  0  0  0  0  0  0
   -1.1696    3.0532    1.7537 C   0  0  0  0  0  0  0  0  0  0  0  0
   -1.2549    2.7827   -0.6781 C   0  0  0  0  0  0  0  0  0  0  0  0
    0.9365    0.1047   -1.0946 C   0  0  0  0  0  0  0  0  0  0  0  0
   -0.1959    3.5926   -0.7826 C   0  0  0  0  0  0  0  0  0  0  0  0
    6.3590   -0.7827    1.4166 C   0  0  1  0  0  0  0  0  0  0  0  0
    7.5862    0.0510   -0.3519 C   0  0  2  0  0  0  0  0  0  0  0  0
    5.0570   -0.1461   -0.6932 C   0  0  0  0  0  0  0  0  0  0  0  0
    4.9940   -0.3641    0.8279 C   0  0  0  0  0  0  0  0  0  0  0  0
    6.3526    0.5589   -1.1297 C   0  0  0  0  0  0  0  0  0  0  0  0
    2.3155   -0.3934   -0.7425 C   0  0  0  0  0  0  0  0  0  0  0  0
    6.9179   -2.0269    0.7133 C   0  0  0  0  0  0  0  0  0  0  0  0
    7.7342   -1.4723   -0.4629 C   0  0  0  0  0  0  0  0  0  0  0  0
    7.2326    1.5242    1.6039 C   0  0  0  0  0  0  0  0  0  0  0  0
   -3.2064   -0.3596    1.6932 H   0  0  0  0  0  0  0  0  0  0  0  0
   -3.3344    1.2225   -1.3057 H   0  0  0  0  0  0  0  0  0  0  0  0
   -3.2500   -3.1774   -0.7764 H   0  0  0  0  0  0  0  0  0  0  0  0
   -5.4236   -1.8357   -1.1348 H   0  0  0  0  0  0  0  0  0  0  0  0
   -5.3796   -0.3922   -2.0886 H   0  0  0  0  0  0  0  0  0  0  0  0
   -6.6591    0.1373    0.2252 H   0  0  0  0  0  0  0  0  0  0  0  0
   -5.6589    0.6502    1.5872 H   0  0  0  0  0  0  0  0  0  0  0  0
   -1.6412    0.1652   -1.1984 H   0  0  0  0  0  0  0  0  0  0  0  0
   -3.0049   -0.7060   -2.5675 H   0  0  0  0  0  0  0  0  0  0  0  0
   -3.8958   -2.1678   -2.9048 H   0  0  0  0  0  0  0  0  0  0  0  0
   -3.5655    1.6530    1.6630 H   0  0  0  0  0  0  0  0  0  0  0  0
   -6.2789   -1.4121    2.4538 H   0  0  0  0  0  0  0  0  0  0  0  0
   -6.4927   -2.1583    0.8372 H   0  0  0  0  0  0  0  0  0  0  0  0
    0.0683    0.9418    0.9336 H   0  0  0  0  0  0  0  0  0  0  0  0
   -1.2894    0.3634    1.7779 H   0  0  0  0  0  0  0  0  0  0  0  0
   -1.3392   -1.9586    2.0868 H   0  0  0  0  0  0  0  0  0  0  0  0
   -0.4220   -2.6505    0.7533 H   0  0  0  0  0  0  0  0  0  0  0  0
   -1.9276   -3.3875    1.2235 H   0  0  0  0  0  0  0  0  0  0  0  0
   -5.9174    2.4135   -0.2652 H   0  0  0  0  0  0  0  0  0  0  0  0
   -5.7064    1.6442   -1.8422 H   0  0  0  0  0  0  0  0  0  0  0  0
   -4.8050    3.0947   -1.4646 H   0  0  0  0  0  0  0  0  0  0  0  0
   -1.9228   -3.6446   -2.7063 H   0  0  0  0  0  0  0  0  0  0  0  0
   -0.9419   -2.1986   -2.5088 H   0  0  0  0  0  0  0  0  0  0  0  0
   -0.8270   -3.5298   -1.3349 H   0  0  0  0  0  0  0  0  0  0  0  0
   -1.4234    4.1117    1.6185 H   0  0  0  0  0  0  0  0  0  0  0  0
   -0.0846    2.9762    1.8939 H   0  0  0  0  0  0  0  0  0  0  0  0
   -1.6092    2.7455    2.7116 H   0  0  0  0  0  0  0  0  0  0  0  0
   -1.8003    2.5805   -1.5944 H   0  0  0  0  0  0  0  0  0  0  0  0
   -3.6393    3.7625    1.6676 H   0  0  0  0  0  0  0  0  0  0  0  0
    0.4631    3.8662    0.0299 H   0  0  0  0  0  0  0  0  0  0  0  0
    0.0561    4.0081   -1.7545 H   0  0  0  0  0  0  0  0  0  0  0  0
    6.2696   -0.9550    2.4948 H   0  0  0  0  0  0  0  0  0  0  0  0
    8.4915    0.5549   -0.7076 H   0  0  0  0  0  0  0  0  0  0  0  0
    5.0241   -1.1228   -1.1911 H   0  0  0  0  0  0  0  0  0  0  0  0
    4.6412    0.5373    1.3442 H   0  0  0  0  0  0  0  0  0  0  0  0
    4.2778   -1.1609    1.0620 H   0  0  0  0  0  0  0  0  0  0  0  0
    6.5109    0.3927   -2.2034 H   0  0  0  0  0  0  0  0  0  0  0  0
    6.2710    1.6452   -0.9985 H   0  0  0  0  0  0  0  0  0  0  0  0
    7.5840   -2.5818    1.3856 H   0  0  0  0  0  0  0  0  0  0  0  0
    6.1358   -2.7167    0.3797 H   0  0  0  0  0  0  0  0  0  0  0  0
    7.3875   -1.8663   -1.4238 H   0  0  0  0  0  0  0  0  0  0  0  0
    8.7845   -1.7663   -0.3442 H   0  0  0  0  0  0  0  0  0  0  0  0
    2.3401   -0.5054    0.3441 H   0  0  0  0  0  0  0  0  0  0  0  0
    2.4773   -1.3564   -1.2351 H   0  0  0  0  0  0  0  0  0  0  0  0
    7.1672    1.5099    2.6974 H   0  0  0  0  0  0  0  0  0  0  0  0
    6.3387    2.0265    1.2235 H   0  0  0  0  0  0  0  0  0  0  0  0
    8.0984    2.1452    1.3494 H   0  0  0  0  0  0  0  0  0  0  0  0
  1 30  1  0  0  0  0
  1 33  1  0  0  0  0
  2 14  1  0  0  0  0
  2 26  1  0  0  0  0
  3 17  1  0  0  0  0
  3 65  1  0  0  0  0
  4 16  2  0  0  0  0
  5 26  2  0  0  0  0
  6 28  1  0  0  0  0
  6 29  1  0  0  0  0
  6 36  1  0  0  0  0
  7  8  1  0  0  0  0
  7 10  1  0  0  0  0
  7 12  1  0  0  0  0
  7 13  1  0  0  0  0
  8  9  1  0  0  0  0
  8 16  1  0  0  0  0
  8 37  1  0  0  0  0
  9 11  1  0  0  0  0
  9 14  1  0  0  0  0
  9 21  1  0  0  0  0
 10 17  1  0  0  0  0
 10 22  1  0  0  0  0
 10 38  1  0  0  0  0
 11 15  1  0  0  0  0
 11 23  1  0  0  0  0
 11 39  1  0  0  0  0
 12 15  1  0  0  0  0
 12 40  1  0  0  0  0
 12 41  1  0  0  0  0
 13 18  1  0  0  0  0
 13 42  1  0  0  0  0
 13 43  1  0  0  0  0
 14 20  1  0  0  0  0
 14 44  1  0  0  0  0
 15 45  1  0  0  0  0
 15 46  1  0  0  0  0
 16 18  1  0  0  0  0
 17 19  1  0  0  0  0
 17 47  1  0  0  0  0
 18 48  1  0  0  0  0
 18 49  1  0  0  0  0
 19 20  1  0  0  0  0
 19 24  1  0  0  0  0
 19 25  1  0  0  0  0
 20 50  1  0  0  0  0
 20 51  1  0  0  0  0
 21 52  1  0  0  0  0
 21 53  1  0  0  0  0
 21 54  1  0  0  0  0
 22 55  1  0  0  0  0
 22 56  1  0  0  0  0
 22 57  1  0  0  0  0
 23 58  1  0  0  0  0
 23 59  1  0  0  0  0
 23 60  1  0  0  0  0
 24 61  1  0  0  0  0
 24 62  1  0  0  0  0
 24 63  1  0  0  0  0
 25 27  2  0  0  0  0
 25 64  1  0  0  0  0
 26 33  1  0  0  0  0
 27 66  1  0  0  0  0
 27 67  1  0  0  0  0
 28 31  1  0  0  0  0
 28 34  1  0  0  0  0
 28 68  1  0  0  0  0
 29 32  1  0  0  0  0
 29 35  1  0  0  0  0
 29 69  1  0  0  0  0
 30 31  1  0  0  0  0
 30 32  1  0  0  0  0
 30 70  1  0  0  0  0
 31 71  1  0  0  0  0
 31 72  1  0  0  0  0
 32 73  1  0  0  0  0
 32 74  1  0  0  0  0
 33 79  1  0  0  0  0
 33 80  1  0  0  0  0
 34 35  1  0  0  0  0
 34 75  1  0  0  0  0
 34 76  1  0  0  0  0
 35 77  1  0  0  0  0
 35 78  1  0  0  0  0
 36 81  1  0  0  0  0
 36 82  1  0  0  0  0
 36 83  1  0  0  0  0
M  END
> <PUBCHEM_COMPOUND_CID>
6918462

> <PUBCHEM_CONFORMER_RMSD>
1

> <PUBCHEM_CONFORMER_DIVERSEORDER>
1
4
19
15
5
12
9
16
14
10
7
3
2
11
18
17
13
8
6

> <PUBCHEM_MMFF94_PARTIAL_CHARGES>
24
1 -0.46
14 0.28
16 0.45
17 0.28
18 0.06
19 0.14
2 -0.43
25 -0.29
26 0.66
27 -0.3
28 0.27
29 0.27
3 -0.68
30 0.23
33 0.29
36 0.27
4 -0.57
5 -0.57
6 -0.81
64 0.15
65 0.4
66 0.15
67 0.15
8 0.06

> <PUBCHEM_EFFECTIVE_ROTOR_COUNT>
9.2

> <PUBCHEM_PHARMACOPHORE_FEATURES>
9
1 27 hydrophobe
1 3 acceptor
1 3 donor
1 4 acceptor
1 5 acceptor
1 6 cation
5 7 8 13 16 18 rings
6 7 8 9 11 12 15 rings
8 6 28 29 30 31 32 34 35 rings

> <PUBCHEM_HEAVY_ATOM_COUNT>
36

> <PUBCHEM_ATOM_DEF_STEREO_COUNT>
10

> <PUBCHEM_ATOM_UDEF_STEREO_COUNT>
0

> <PUBCHEM_BOND_DEF_STEREO_COUNT>
0

> <PUBCHEM_BOND_UDEF_STEREO_COUNT>
0

> <PUBCHEM_ISOTOPIC_ATOM_COUNT>
0

> <PUBCHEM_COMPONENT_COUNT>
1

> <PUBCHEM_CACTVS_TAUTO_COUNT>
2

> <PUBCHEM_CONFORMER_ID>
0069913E00000001

> <PUBCHEM_MMFF94_ENERGY>
154.087

> <PUBCHEM_FEATURE_SELFOVERLAP>
45.853

> <PUBCHEM_SHAPE_FINGERPRINT>
10 15 18201441398245894790
10675989 125 17037252901790550029
10930396 42 18128797772725725208
10939801 23 18265059201380486132
11456790 92 18264226823986178649
11578080 2 16987448486599908083
12166972 35 17386013917889875972
12596602 18 18187085057773946144
13782708 43 17918000447590157334
14068700 675 18272365425269948813
14856354 85 17968101953630350299
15021287 119 15936416645110318494
15183329 4 17385438826438545510
15439362 3 17684645429665458733
15799311 1 16081379544383725778
16114785 44 16485866701115267025
17913733 40 16558752278790119382
20511986 3 18260818268513849864
21033648 29 17703243831661738603
23198884 109 11891327639073181078
23522609 53 17096676243835964460
23559900 14 18263080075374910392
3383291 50 18334017228320135427
3504750 166 18411691076777546910
392239 28 17561082535646277216
504579 68 18041293119113913348
5080951 261 18338779140344541044
7226269 152 18412823573278609521
9896288 288 18270127786126949137
9981440 41 18271531875423850115

> <PUBCHEM_SHAPE_MULTIPOLES>
716.25
19.82
3.64
1.84
44.73
1.72
0
-4.95
4.94
-4.39
0.32
-0.65
-0.52
0.35

> <PUBCHEM_SHAPE_SELFOVERLAP>
1497.309

> <PUBCHEM_SHAPE_VOLUME>
409.6

> <PUBCHEM_COORDINATE_TYPE>
2
5
10

$$$$
