101819
  -OEChem-10061700023D

 56 59  0     1  0  0  0  0  0999 V2000
   -5.0410   -0.9612    0.3565 O   0  0  0  0  0  0  0  0  0  0  0  0
    6.1045   -0.0616   -0.2631 O   0  0  0  0  0  0  0  0  0  0  0  0
   -0.4311    0.8289    0.2796 C   0  0  1  0  0  0  0  0  0  0  0  0
   -1.8718    0.7555   -0.2451 C   0  0  1  0  0  0  0  0  0  0  0  0
    0.3512   -0.4292   -0.2199 C   0  0  1  0  0  0  0  0  0  0  0  0
   -2.6234   -0.5094    0.2240 C   0  0  1  0  0  0  0  0  0  0  0  0
    1.8582   -0.4032    0.2345 C   0  0  2  0  0  0  0  0  0  0  0  0
    2.4793    0.9334   -0.2857 C   0  0  1  0  0  0  0  0  0  0  0  0
   -4.0448   -0.2309   -0.3563 C   0  0  2  0  0  0  0  0  0  0  0  0
   -0.3961   -1.7475    0.1115 C   0  0  0  0  0  0  0  0  0  0  0  0
   -1.8725   -1.7335   -0.3269 C   0  0  0  0  0  0  0  0  0  0  0  0
    0.2613    2.1267   -0.1626 C   0  0  0  0  0  0  0  0  0  0  0  0
   -2.8312    1.8893    0.1016 C   0  0  0  0  0  0  0  0  0  0  0  0
    1.7347    2.1670    0.2357 C   0  0  0  0  0  0  0  0  0  0  0  0
   -4.2335    1.2915   -0.1159 C   0  0  0  0  0  0  0  0  0  0  0  0
    2.6477   -1.5750   -0.4162 C   0  0  0  0  0  0  0  0  0  0  0  0
    3.9862    1.0344   -0.0186 C   0  0  0  0  0  0  0  0  0  0  0  0
   -2.7146   -0.6372    1.7733 C   0  0  0  0  0  0  0  0  0  0  0  0
    1.9708   -0.5355    1.7752 C   0  0  0  0  0  0  0  0  0  0  0  0
    4.1602   -1.4873   -0.2010 C   0  0  0  0  0  0  0  0  0  0  0  0
    4.7339   -0.1433   -0.6401 C   0  0  2  0  0  0  0  0  0  0  0  0
   -4.2276   -0.5720   -1.8406 C   0  0  0  0  0  0  0  0  0  0  0  0
   -0.4553    0.8374    1.3739 H   0  0  0  0  0  0  0  0  0  0  0  0
    0.3597   -0.3704   -1.3202 H   0  0  0  0  0  0  0  0  0  0  0  0
   -1.7974    0.7390   -1.3432 H   0  0  0  0  0  0  0  0  0  0  0  0
    2.3642    0.9427   -1.3811 H   0  0  0  0  0  0  0  0  0  0  0  0
   -0.3394   -1.9646    1.1821 H   0  0  0  0  0  0  0  0  0  0  0  0
    0.0899   -2.5877   -0.3970 H   0  0  0  0  0  0  0  0  0  0  0  0
   -1.8886   -1.7361   -1.4232 H   0  0  0  0  0  0  0  0  0  0  0  0
   -2.3615   -2.6610   -0.0063 H   0  0  0  0  0  0  0  0  0  0  0  0
   -0.2462    2.9933    0.2769 H   0  0  0  0  0  0  0  0  0  0  0  0
    0.1826    2.2357   -1.2520 H   0  0  0  0  0  0  0  0  0  0  0  0
   -2.6727    2.7668   -0.5338 H   0  0  0  0  0  0  0  0  0  0  0  0
   -2.7125    2.2109    1.1424 H   0  0  0  0  0  0  0  0  0  0  0  0
    2.1853    3.0766   -0.1802 H   0  0  0  0  0  0  0  0  0  0  0  0
    1.8267    2.2471    1.3248 H   0  0  0  0  0  0  0  0  0  0  0  0
   -4.8643    1.4888    0.7590 H   0  0  0  0  0  0  0  0  0  0  0  0
   -4.7224    1.7755   -0.9692 H   0  0  0  0  0  0  0  0  0  0  0  0
    2.4514   -1.5914   -1.4965 H   0  0  0  0  0  0  0  0  0  0  0  0
    2.3035   -2.5384   -0.0225 H   0  0  0  0  0  0  0  0  0  0  0  0
    4.3824    1.9664   -0.4428 H   0  0  0  0  0  0  0  0  0  0  0  0
    4.1992    1.0996    1.0552 H   0  0  0  0  0  0  0  0  0  0  0  0
   -1.7370   -0.6505    2.2612 H   0  0  0  0  0  0  0  0  0  0  0  0
   -3.2813    0.1818    2.2276 H   0  0  0  0  0  0  0  0  0  0  0  0
   -3.2168   -1.5709    2.0529 H   0  0  0  0  0  0  0  0  0  0  0  0
    1.6245   -1.5171    2.1151 H   0  0  0  0  0  0  0  0  0  0  0  0
    3.0008   -0.4339    2.1281 H   0  0  0  0  0  0  0  0  0  0  0  0
    1.3855    0.2177    2.3080 H   0  0  0  0  0  0  0  0  0  0  0  0
    4.4102   -1.6749    0.8503 H   0  0  0  0  0  0  0  0  0  0  0  0
    4.6557   -2.2929   -0.7573 H   0  0  0  0  0  0  0  0  0  0  0  0
    4.6860   -0.0633   -1.7328 H   0  0  0  0  0  0  0  0  0  0  0  0
   -3.5055   -0.0658   -2.4867 H   0  0  0  0  0  0  0  0  0  0  0  0
   -4.1520   -1.6525   -2.0057 H   0  0  0  0  0  0  0  0  0  0  0  0
   -5.2325   -0.2897   -2.1775 H   0  0  0  0  0  0  0  0  0  0  0  0
   -5.9123   -0.6519    0.0550 H   0  0  0  0  0  0  0  0  0  0  0  0
    6.5667   -0.8117   -0.6744 H   0  0  0  0  0  0  0  0  0  0  0  0
  1  9  1  0  0  0  0
  1 55  1  0  0  0  0
  2 21  1  0  0  0  0
  2 56  1  0  0  0  0
  3  4  1  0  0  0  0
  3  5  1  0  0  0  0
  3 12  1  0  0  0  0
  3 23  1  0  0  0  0
  4  6  1  0  0  0  0
  4 13  1  0  0  0  0
  4 25  1  0  0  0  0
  5  7  1  0  0  0  0
  5 10  1  0  0  0  0
  5 24  1  0  0  0  0
  6  9  1  0  0  0  0
  6 11  1  0  0  0  0
  6 18  1  0  0  0  0
  7  8  1  0  0  0  0
  7 16  1  0  0  0  0
  7 19  1  0  0  0  0
  8 14  1  0  0  0  0
  8 17  1  0  0  0  0
  8 26  1  0  0  0  0
  9 15  1  0  0  0  0
  9 22  1  0  0  0  0
 10 11  1  0  0  0  0
 10 27  1  0  0  0  0
 10 28  1  0  0  0  0
 11 29  1  0  0  0  0
 11 30  1  0  0  0  0
 12 14  1  0  0  0  0
 12 31  1  0  0  0  0
 12 32  1  0  0  0  0
 13 15  1  0  0  0  0
 13 33  1  0  0  0  0
 13 34  1  0  0  0  0
 14 35  1  0  0  0  0
 14 36  1  0  0  0  0
 15 37  1  0  0  0  0
 15 38  1  0  0  0  0
 16 20  1  0  0  0  0
 16 39  1  0  0  0  0
 16 40  1  0  0  0  0
 17 21  1  0  0  0  0
 17 41  1  0  0  0  0
 17 42  1  0  0  0  0
 18 43  1  0  0  0  0
 18 44  1  0  0  0  0
 18 45  1  0  0  0  0
 19 46  1  0  0  0  0
 19 47  1  0  0  0  0
 19 48  1  0  0  0  0
 20 21  1  0  0  0  0
 20 49  1  0  0  0  0
 20 50  1  0  0  0  0
 21 51  1  0  0  0  0
 22 52  1  0  0  0  0
 22 53  1  0  0  0  0
 22 54  1  0  0  0  0
M  END
> <DATABASE_ID>
DB01513

> <DATABASE_NAME>
drugbank

> <ORIGINAL_SOURCE>
PUBCHEM

> <ORIGINAL_SOURCE_URL>
https://pubchem.ncbi.nlm.nih.gov/rest/pug/compound/inchikey/QGKQXZFZOIQFBI-UYEYMFBJSA-N/SDF?record_type=3d

> <SMILES>
C[C@]1(O)CC[C@H]2[C@@H]3CC[C@H]4C[C@@H](O)CC[C@]4(C)[C@H]3CC[C@]12C

> <INCHI_IDENTIFIER>
InChI=1S/C20H34O2/c1-18-9-6-14(21)12-13(18)4-5-15-16(18)7-10-19(2)17(15)8-11-20(19,3)22/h13-17,21-22H,4-12H2,1-3H3/t13-,14-,15+,16-,17-,18-,19-,20-/m0/s1

> <INCHI_KEY>
QGKQXZFZOIQFBI-UYEYMFBJSA-N

> <FORMULA>
C20H34O2

> <MOLECULAR_WEIGHT>
306.49

> <EXACT_MASS>
306.255880335

> <JCHEM_ACCEPTOR_COUNT>
2

> <JCHEM_ATOM_COUNT>
56

> <JCHEM_AVERAGE_POLARIZABILITY>
37.21316411024725

> <JCHEM_BIOAVAILABILITY>
1

> <JCHEM_DONOR_COUNT>
2

> <JCHEM_FORMAL_CHARGE>
0

> <JCHEM_GHOSE_FILTER>
1

> <JCHEM_IUPAC>
(1S,2S,5S,7S,10R,11S,14S,15S)-2,14,15-trimethyltetracyclo[8.7.0.0^{2,7}.0^{11,15}]heptadecane-5,14-diol

> <ALOGPS_LOGP>
4.28

> <JCHEM_LOGP>
3.484333499333334

> <ALOGPS_LOGS>
-4.82

> <JCHEM_MDDR_LIKE_RULE>
0

> <JCHEM_NUMBER_OF_RINGS>
4

> <JCHEM_PHYSIOLOGICAL_CHARGE>
0

> <JCHEM_PKA_STRONGEST_ACIDIC>
18.2963963211217

> <JCHEM_PKA_STRONGEST_BASIC>
-0.46803704333201435

> <JCHEM_POLAR_SURFACE_AREA>
40.46

> <JCHEM_REFRACTIVITY>
89.2694

> <JCHEM_ROTATABLE_BOND_COUNT>
0

> <JCHEM_RULE_OF_FIVE>
1

> <ALOGPS_SOLUBILITY>
4.69e-03 g/l

> <JCHEM_TRADITIONAL_IUPAC>
(1S,2S,5S,7S,10R,11S,14S,15S)-2,14,15-trimethyltetracyclo[8.7.0.0^{2,7}.0^{11,15}]heptadecane-5,14-diol

> <JCHEM_VEBER_RULE>
0

$$$$
