136297
  -OEChem-10051719373D

 51 54  0     1  0  0  0  0  0999 V2000
    5.0656   -1.1066    0.4196 O   0  0  0  0  0  0  0  0  0  0  0  0
   -5.3675   -0.2941    0.4413 O   0  0  0  0  0  0  0  0  0  0  0  0
    1.8935    0.6983    0.3856 C   0  0  1  0  0  0  0  0  0  0  0  0
    0.5570    0.8081   -0.3543 C   0  0  1  0  0  0  0  0  0  0  0  0
    2.6866   -0.5627   -0.0095 C   0  0  2  0  0  0  0  0  0  0  0  0
   -0.3180   -0.4482    0.0032 C   0  0  1  0  0  0  0  0  0  0  0  0
   -1.7370   -0.3837   -0.6771 C   0  0  2  0  0  0  0  0  0  0  0  0
    1.8602   -1.7899    0.3935 C   0  0  0  0  0  0  0  0  0  0  0  0
    0.4585   -1.7694   -0.2451 C   0  0  0  0  0  0  0  0  0  0  0  0
    3.9561   -0.3335    0.8344 C   0  0  2  0  0  0  0  0  0  0  0  0
    2.9175    1.8215    0.2446 C   0  0  0  0  0  0  0  0  0  0  0  0
   -0.1718    2.1204   -0.0145 C   0  0  0  0  0  0  0  0  0  0  0  0
    4.2448    1.1714    0.6752 C   0  0  0  0  0  0  0  0  0  0  0  0
   -2.3455    0.9612   -0.2544 C   0  0  0  0  0  0  0  0  0  0  0  0
   -1.5636    2.1897   -0.6423 C   0  0  0  0  0  0  0  0  0  0  0  0
   -2.6686   -1.5625   -0.2552 C   0  0  0  0  0  0  0  0  0  0  0  0
    3.0500   -0.6565   -1.5132 C   0  0  0  0  0  0  0  0  0  0  0  0
   -1.6357   -0.4659   -2.2206 C   0  0  0  0  0  0  0  0  0  0  0  0
   -3.2992   -1.3698    1.1207 C   0  0  0  0  0  0  0  0  0  0  0  0
   -3.4382    1.0685    0.5240 C   0  0  0  0  0  0  0  0  0  0  0  0
   -4.1447   -0.0962    1.1441 C   0  0  1  0  0  0  0  0  0  0  0  0
    1.6558    0.6383    1.4611 H   0  0  0  0  0  0  0  0  0  0  0  0
    0.7528    0.8220   -1.4316 H   0  0  0  0  0  0  0  0  0  0  0  0
   -0.4843   -0.4067    1.0913 H   0  0  0  0  0  0  0  0  0  0  0  0
    1.7436   -1.8217    1.4847 H   0  0  0  0  0  0  0  0  0  0  0  0
    2.3782   -2.7148    0.1130 H   0  0  0  0  0  0  0  0  0  0  0  0
    0.5483   -1.9605   -1.3191 H   0  0  0  0  0  0  0  0  0  0  0  0
   -0.0958   -2.6153    0.1739 H   0  0  0  0  0  0  0  0  0  0  0  0
    3.7688   -0.5526    1.8933 H   0  0  0  0  0  0  0  0  0  0  0  0
    2.6726    2.6818    0.8758 H   0  0  0  0  0  0  0  0  0  0  0  0
    2.9842    2.1770   -0.7896 H   0  0  0  0  0  0  0  0  0  0  0  0
    0.4156    2.9777   -0.3638 H   0  0  0  0  0  0  0  0  0  0  0  0
   -0.2597    2.2220    1.0754 H   0  0  0  0  0  0  0  0  0  0  0  0
    5.0308    1.3659   -0.0631 H   0  0  0  0  0  0  0  0  0  0  0  0
    4.5922    1.5896    1.6267 H   0  0  0  0  0  0  0  0  0  0  0  0
   -1.4920    2.2684   -1.7324 H   0  0  0  0  0  0  0  0  0  0  0  0
   -2.0601    3.1069   -0.3029 H   0  0  0  0  0  0  0  0  0  0  0  0
   -2.1427   -2.5210   -0.2873 H   0  0  0  0  0  0  0  0  0  0  0  0
   -3.4860   -1.6636   -0.9839 H   0  0  0  0  0  0  0  0  0  0  0  0
    3.6770    0.1772   -1.8447 H   0  0  0  0  0  0  0  0  0  0  0  0
    3.6069   -1.5783   -1.7183 H   0  0  0  0  0  0  0  0  0  0  0  0
    2.1700   -0.6690   -2.1616 H   0  0  0  0  0  0  0  0  0  0  0  0
   -0.9314    0.2521   -2.6482 H   0  0  0  0  0  0  0  0  0  0  0  0
   -1.3185   -1.4630   -2.5451 H   0  0  0  0  0  0  0  0  0  0  0  0
   -2.6093   -0.2695   -2.6867 H   0  0  0  0  0  0  0  0  0  0  0  0
   -3.9283   -2.2382    1.3490 H   0  0  0  0  0  0  0  0  0  0  0  0
   -2.5156   -1.3199    1.8856 H   0  0  0  0  0  0  0  0  0  0  0  0
   -3.8092    2.0535    0.7970 H   0  0  0  0  0  0  0  0  0  0  0  0
   -4.3957    0.1352    2.1854 H   0  0  0  0  0  0  0  0  0  0  0  0
    4.8128   -2.0425    0.4942 H   0  0  0  0  0  0  0  0  0  0  0  0
   -5.8973    0.5167    0.5305 H   0  0  0  0  0  0  0  0  0  0  0  0
  1 10  1  0  0  0  0
  1 50  1  0  0  0  0
  2 21  1  0  0  0  0
  2 51  1  0  0  0  0
  3  4  1  0  0  0  0
  3  5  1  0  0  0  0
  3 11  1  0  0  0  0
  3 22  1  0  0  0  0
  4  6  1  0  0  0  0
  4 12  1  0  0  0  0
  4 23  1  0  0  0  0
  5  8  1  0  0  0  0
  5 10  1  0  0  0  0
  5 17  1  0  0  0  0
  6  7  1  0  0  0  0
  6  9  1  0  0  0  0
  6 24  1  0  0  0  0
  7 14  1  0  0  0  0
  7 16  1  0  0  0  0
  7 18  1  0  0  0  0
  8  9  1  0  0  0  0
  8 25  1  0  0  0  0
  8 26  1  0  0  0  0
  9 27  1  0  0  0  0
  9 28  1  0  0  0  0
 10 13  1  0  0  0  0
 10 29  1  0  0  0  0
 11 13  1  0  0  0  0
 11 30  1  0  0  0  0
 11 31  1  0  0  0  0
 12 15  1  0  0  0  0
 12 32  1  0  0  0  0
 12 33  1  0  0  0  0
 13 34  1  0  0  0  0
 13 35  1  0  0  0  0
 14 15  1  0  0  0  0
 14 20  2  0  0  0  0
 15 36  1  0  0  0  0
 15 37  1  0  0  0  0
 16 19  1  0  0  0  0
 16 38  1  0  0  0  0
 16 39  1  0  0  0  0
 17 40  1  0  0  0  0
 17 41  1  0  0  0  0
 17 42  1  0  0  0  0
 18 43  1  0  0  0  0
 18 44  1  0  0  0  0
 18 45  1  0  0  0  0
 19 21  1  0  0  0  0
 19 46  1  0  0  0  0
 19 47  1  0  0  0  0
 20 21  1  0  0  0  0
 20 48  1  0  0  0  0
 21 49  1  0  0  0  0
M  END
> <DATABASE_ID>
DB01526

> <DATABASE_NAME>
drugbank

> <ORIGINAL_SOURCE>
PUBCHEM

> <ORIGINAL_SOURCE_URL>
https://pubchem.ncbi.nlm.nih.gov/rest/pug/compound/inchikey/BTTWKVFKBPAFDK-LOVVWNRFSA-N/SDF?record_type=3d

> <SMILES>
[H][C@@]12CC[C@H](O)[C@@]1(C)CC[C@@]1([H])[C@@]2([H])CCC2=C[C@@H](O)CC[C@]12C

> <INCHI_IDENTIFIER>
InChI=1S/C19H30O2/c1-18-9-7-13(20)11-12(18)3-4-14-15-5-6-17(21)19(15,2)10-8-16(14)18/h11,13-17,20-21H,3-10H2,1-2H3/t13-,14-,15-,16-,17-,18-,19-/m0/s1

> <INCHI_KEY>
BTTWKVFKBPAFDK-LOVVWNRFSA-N

> <FORMULA>
C19H30O2

> <MOLECULAR_WEIGHT>
290.4403

> <EXACT_MASS>
290.224580204

> <JCHEM_ACCEPTOR_COUNT>
2

> <JCHEM_ATOM_COUNT>
51

> <JCHEM_AVERAGE_NEUTRAL_MICROSPECIES_CHARGE>
1.4749074887623187e-08

> <JCHEM_AVERAGE_POLARIZABILITY>
34.37828684998394

> <JCHEM_BIOAVAILABILITY>
1

> <JCHEM_DONOR_COUNT>
2

> <JCHEM_FORMAL_CHARGE>
0

> <JCHEM_GHOSE_FILTER>
1

> <JCHEM_IUPAC>
(1S,3aS,3bR,7S,9aR,9bS,11aS)-9a,11a-dimethyl-1H,2H,3H,3aH,3bH,4H,5H,7H,8H,9H,9aH,9bH,10H,11H,11aH-cyclopenta[a]phenanthrene-1,7-diol

> <ALOGPS_LOGP>
3.10

> <JCHEM_LOGP>
2.954084809666667

> <ALOGPS_LOGS>
-3.78

> <JCHEM_MDDR_LIKE_RULE>
0

> <JCHEM_NEUTRAL_CHARGE>
0

> <JCHEM_NUMBER_OF_RINGS>
4

> <JCHEM_PHYSIOLOGICAL_CHARGE>
0

> <JCHEM_PKA>
19.37770520810813

> <JCHEM_PKA_STRONGEST_ACIDIC>
17.504415926529536

> <JCHEM_PKA_STRONGEST_BASIC>
-0.8227000810590905

> <JCHEM_POLAR_SURFACE_AREA>
40.46

> <JCHEM_REFRACTIVITY>
85.3272

> <JCHEM_ROTATABLE_BOND_COUNT>
0

> <JCHEM_RULE_OF_FIVE>
1

> <ALOGPS_SOLUBILITY>
4.81e-02 g/l

> <JCHEM_TRADITIONAL_IUPAC>
biotin

> <JCHEM_VEBER_RULE>
0

$$$$
