476861
  -OEChem-10051722423D

 56 57  0     1  0  0  0  0  0999 V2000
   -6.1346   -0.2880   -0.4940 O   0  0  0  0  0  0  0  0  0  0  0  0
    5.8374   -0.5771   -0.6164 O   0  0  0  0  0  0  0  0  0  0  0  0
   -5.2963    2.3376   -0.1325 O   0  0  0  0  0  0  0  0  0  0  0  0
    5.6012    2.1498   -0.1312 O   0  0  0  0  0  0  0  0  0  0  0  0
   -0.9249   -2.3957   -0.1482 C   0  0  2  0  0  0  0  0  0  0  0  0
    0.2974   -1.4621   -0.4229 C   0  0  1  0  0  0  0  0  0  0  0  0
   -1.8048   -1.9378    1.0413 C   0  0  0  0  0  0  0  0  0  0  0  0
    1.2212   -1.2836    0.8042 C   0  0  0  0  0  0  0  0  0  0  0  0
   -0.5251   -3.8618    0.0711 C   0  0  0  0  0  0  0  0  0  0  0  0
    1.0958   -1.9604   -1.6396 C   0  0  0  0  0  0  0  0  0  0  0  0
   -2.7410   -0.7968    0.7261 C   0  0  0  0  0  0  0  0  0  0  0  0
    2.3965   -0.3669    0.5529 C   0  0  0  0  0  0  0  0  0  0  0  0
   -4.0158   -1.0732    0.2574 C   0  0  0  0  0  0  0  0  0  0  0  0
    3.5836   -0.9014    0.0806 C   0  0  0  0  0  0  0  0  0  0  0  0
   -2.3093    0.5072    0.9112 C   0  0  0  0  0  0  0  0  0  0  0  0
    2.2624    0.9892    0.7997 C   0  0  0  0  0  0  0  0  0  0  0  0
   -4.8812   -0.0186   -0.0334 C   0  0  0  0  0  0  0  0  0  0  0  0
    4.6680   -0.0553   -0.1517 C   0  0  0  0  0  0  0  0  0  0  0  0
   -3.1747    1.5618    0.6200 C   0  0  0  0  0  0  0  0  0  0  0  0
    3.3468    1.8352    0.5677 C   0  0  0  0  0  0  0  0  0  0  0  0
   -4.4606    1.2990    0.1478 C   0  0  0  0  0  0  0  0  0  0  0  0
    4.5496    1.3131    0.0918 C   0  0  0  0  0  0  0  0  0  0  0  0
   -6.2978   -0.3902   -1.9072 C   0  0  0  0  0  0  0  0  0  0  0  0
    6.7887   -1.0038    0.3568 C   0  0  0  0  0  0  0  0  0  0  0  0
   -4.7889    3.6534    0.0801 C   0  0  0  0  0  0  0  0  0  0  0  0
    5.7064    2.7262   -1.4316 C   0  0  0  0  0  0  0  0  0  0  0  0
   -1.5493   -2.3827   -1.0532 H   0  0  0  0  0  0  0  0  0  0  0  0
   -0.0990   -0.4757   -0.6971 H   0  0  0  0  0  0  0  0  0  0  0  0
   -2.4320   -2.7810    1.3656 H   0  0  0  0  0  0  0  0  0  0  0  0
   -1.2130   -1.7033    1.9317 H   0  0  0  0  0  0  0  0  0  0  0  0
    0.6663   -0.8787    1.6567 H   0  0  0  0  0  0  0  0  0  0  0  0
    1.6013   -2.2564    1.1406 H   0  0  0  0  0  0  0  0  0  0  0  0
    0.0281   -4.2651   -0.7818 H   0  0  0  0  0  0  0  0  0  0  0  0
   -1.4154   -4.4894    0.1917 H   0  0  0  0  0  0  0  0  0  0  0  0
    0.0882   -3.9835    0.9691 H   0  0  0  0  0  0  0  0  0  0  0  0
    1.7524   -1.1772   -2.0321 H   0  0  0  0  0  0  0  0  0  0  0  0
    1.7091   -2.8350   -1.4012 H   0  0  0  0  0  0  0  0  0  0  0  0
    0.4206   -2.2339   -2.4581 H   0  0  0  0  0  0  0  0  0  0  0  0
   -4.3460   -2.0985    0.1128 H   0  0  0  0  0  0  0  0  0  0  0  0
    3.6840   -1.9675   -0.1037 H   0  0  0  0  0  0  0  0  0  0  0  0
   -1.3123    0.7230    1.2832 H   0  0  0  0  0  0  0  0  0  0  0  0
    1.3293    1.4055    1.1678 H   0  0  0  0  0  0  0  0  0  0  0  0
   -2.7804    2.5584    0.7858 H   0  0  0  0  0  0  0  0  0  0  0  0
    3.2475    2.9002    0.7596 H   0  0  0  0  0  0  0  0  0  0  0  0
   -7.3503   -0.6003   -2.1164 H   0  0  0  0  0  0  0  0  0  0  0  0
   -6.0248    0.5504   -2.3959 H   0  0  0  0  0  0  0  0  0  0  0  0
   -5.6913   -1.2103   -2.3047 H   0  0  0  0  0  0  0  0  0  0  0  0
    6.3718   -1.8057    0.9744 H   0  0  0  0  0  0  0  0  0  0  0  0
    7.6674   -1.3878   -0.1686 H   0  0  0  0  0  0  0  0  0  0  0  0
    7.0974   -0.1647    0.9881 H   0  0  0  0  0  0  0  0  0  0  0  0
   -4.5584    3.8314    1.1360 H   0  0  0  0  0  0  0  0  0  0  0  0
   -5.5849    4.3538   -0.1937 H   0  0  0  0  0  0  0  0  0  0  0  0
   -3.9376    3.8684   -0.5747 H   0  0  0  0  0  0  0  0  0  0  0  0
    6.5967    3.3606   -1.4540 H   0  0  0  0  0  0  0  0  0  0  0  0
    4.8299    3.3449   -1.6487 H   0  0  0  0  0  0  0  0  0  0  0  0
    5.8134    1.9458   -2.1916 H   0  0  0  0  0  0  0  0  0  0  0  0
  1 17  1  0  0  0  0
  1 23  1  0  0  0  0
  2 18  1  0  0  0  0
  2 24  1  0  0  0  0
  3 21  1  0  0  0  0
  3 25  1  0  0  0  0
  4 22  1  0  0  0  0
  4 26  1  0  0  0  0
  5  6  1  0  0  0  0
  5  7  1  0  0  0  0
  5  9  1  0  0  0  0
  5 27  1  0  0  0  0
  6  8  1  0  0  0  0
  6 10  1  0  0  0  0
  6 28  1  0  0  0  0
  7 11  1  0  0  0  0
  7 29  1  0  0  0  0
  7 30  1  0  0  0  0
  8 12  1  0  0  0  0
  8 31  1  0  0  0  0
  8 32  1  0  0  0  0
  9 33  1  0  0  0  0
  9 34  1  0  0  0  0
  9 35  1  0  0  0  0
 10 36  1  0  0  0  0
 10 37  1  0  0  0  0
 10 38  1  0  0  0  0
 11 13  2  0  0  0  0
 11 15  1  0  0  0  0
 12 14  2  0  0  0  0
 12 16  1  0  0  0  0
 13 17  1  0  0  0  0
 13 39  1  0  0  0  0
 14 18  1  0  0  0  0
 14 40  1  0  0  0  0
 15 19  2  0  0  0  0
 15 41  1  0  0  0  0
 16 20  2  0  0  0  0
 16 42  1  0  0  0  0
 17 21  2  0  0  0  0
 18 22  2  0  0  0  0
 19 21  1  0  0  0  0
 19 43  1  0  0  0  0
 20 22  1  0  0  0  0
 20 44  1  0  0  0  0
 23 45  1  0  0  0  0
 23 46  1  0  0  0  0
 23 47  1  0  0  0  0
 24 48  1  0  0  0  0
 24 49  1  0  0  0  0
 24 50  1  0  0  0  0
 25 51  1  0  0  0  0
 25 52  1  0  0  0  0
 25 53  1  0  0  0  0
 26 54  1  0  0  0  0
 26 55  1  0  0  0  0
 26 56  1  0  0  0  0
M  END
> <DATABASE_ID>
DB12226

> <DATABASE_NAME>
drugbank

> <ORIGINAL_SOURCE>
PUBCHEM

> <ORIGINAL_SOURCE_URL>
https://pubchem.ncbi.nlm.nih.gov/rest/pug/compound/inchikey/ORQFDHFZSMXRLM-IYBDPMFKSA-N/SDF?record_type=3d

> <SMILES>
COC1=CC=C(C[C@H](C)[C@H](C)CC2=CC=C(OC)C(OC)=C2)C=C1OC

> <INCHI_IDENTIFIER>
InChI=1S/C22H30O4/c1-15(11-17-7-9-19(23-3)21(13-17)25-5)16(2)12-18-8-10-20(24-4)22(14-18)26-6/h7-10,13-16H,11-12H2,1-6H3/t15-,16+

> <INCHI_KEY>
ORQFDHFZSMXRLM-IYBDPMFKSA-N

> <FORMULA>
C22H30O4

> <MOLECULAR_WEIGHT>
358.478

> <EXACT_MASS>
358.214409446

> <JCHEM_ACCEPTOR_COUNT>
4

> <JCHEM_ATOM_COUNT>
56

> <JCHEM_AVERAGE_POLARIZABILITY>
41.90358557949082

> <JCHEM_BIOAVAILABILITY>
1

> <JCHEM_DONOR_COUNT>
0

> <JCHEM_FORMAL_CHARGE>
0

> <JCHEM_GHOSE_FILTER>
1

> <JCHEM_IUPAC>
4-[(2R,3S)-3-[(3,4-dimethoxyphenyl)methyl]-2-methylbutyl]-1,2-dimethoxybenzene

> <ALOGPS_LOGP>
5.77

> <JCHEM_LOGP>
5.342098968

> <ALOGPS_LOGS>
-6.27

> <JCHEM_MDDR_LIKE_RULE>
0

> <JCHEM_NUMBER_OF_RINGS>
2

> <JCHEM_PHYSIOLOGICAL_CHARGE>
0

> <JCHEM_PKA_STRONGEST_BASIC>
-4.286878836405053

> <JCHEM_POLAR_SURFACE_AREA>
36.92

> <JCHEM_REFRACTIVITY>
104.54820000000001

> <JCHEM_ROTATABLE_BOND_COUNT>
9

> <JCHEM_RULE_OF_FIVE>
0

> <ALOGPS_SOLUBILITY>
1.92e-04 g/l

> <JCHEM_TRADITIONAL_IUPAC>
4-[(2R,3S)-3-[(3,4-dimethoxyphenyl)methyl]-2-methylbutyl]-1,2-dimethoxybenzene

> <JCHEM_VEBER_RULE>
1

$$$$
