9909368
  -OEChem-10051720513D

 53 58  0     1  0  0  0  0  0999 V2000
   -0.3619    0.4613   -1.6623 O   0  0  0  0  0  0  0  0  0  0  0  0
    0.4054    2.7188    0.7463 O   0  0  0  0  0  0  0  0  0  0  0  0
    0.1245   -1.8592   -1.5317 O   0  0  0  0  0  0  0  0  0  0  0  0
   -3.3112   -0.4818    1.6272 O   0  0  0  0  0  0  0  0  0  0  0  0
   -2.9815    1.9732   -0.1174 O   0  0  0  0  0  0  0  0  0  0  0  0
    1.6140   -2.0382    1.6574 O   0  0  0  0  0  0  0  0  0  0  0  0
   -0.5897    3.2864   -1.2294 O   0  0  0  0  0  0  0  0  0  0  0  0
    0.2320   -3.7387   -0.2222 O   0  0  0  0  0  0  0  0  0  0  0  0
   -4.8075   -1.5935    0.2970 O   0  0  0  0  0  0  0  0  0  0  0  0
    0.1216    0.3448    0.6837 C   0  0  2  0  0  0  0  0  0  0  0  0
    1.2534   -0.3649   -0.0902 C   0  0  2  0  0  0  0  0  0  0  0  0
   -0.7280    1.0040   -0.4018 C   0  0  2  0  0  0  0  0  0  0  0  0
    0.7521    1.5143    1.4434 C   0  0  1  0  0  0  0  0  0  0  0  0
    2.4246    0.6529   -0.0349 C   0  0  1  0  0  0  0  0  0  0  0  0
   -2.2079    0.7820   -0.0286 C   0  0  1  0  0  0  0  0  0  0  0  0
   -0.8654   -0.4505    1.5422 C   0  0  0  0  0  0  0  0  0  0  0  0
    0.6635   -0.5273   -1.4831 C   0  0  2  0  0  0  0  0  0  0  0  0
    2.2564    1.2989    1.3416 C   0  0  0  0  0  0  0  0  0  0  0  0
   -2.1640    0.3433    1.4258 C   0  0  2  0  0  0  0  0  0  0  0  0
    1.6108   -1.7981    0.2766 C   0  0  2  0  0  0  0  0  0  0  0  0
   -0.3154    2.4544   -0.3774 C   0  0  0  0  0  0  0  0  0  0  0  0
    3.8344    0.1152   -0.2390 C   0  0  0  0  0  0  0  0  0  0  0  0
   -2.9412   -0.3818   -0.7008 C   0  0  1  0  0  0  0  0  0  0  0  0
    0.5878   -2.6001   -0.4811 C   0  0  0  0  0  0  0  0  0  0  0  0
   -3.8177   -0.8884    0.4218 C   0  0  0  0  0  0  0  0  0  0  0  0
    4.8584    1.2536   -0.0777 C   0  0  0  0  0  0  0  0  0  0  0  0
    4.1338   -0.9801    0.8009 C   0  0  0  0  0  0  0  0  0  0  0  0
    3.9682   -0.4835   -1.6511 C   0  0  0  0  0  0  0  0  0  0  0  0
   -3.7494   -0.0169   -1.9353 C   0  0  0  0  0  0  0  0  0  0  0  0
    0.4284    1.6159    2.4838 H   0  0  0  0  0  0  0  0  0  0  0  0
    2.2511    1.4298   -0.7947 H   0  0  0  0  0  0  0  0  0  0  0  0
   -0.5489   -0.5399    2.5869 H   0  0  0  0  0  0  0  0  0  0  0  0
   -1.0232   -1.4703    1.1814 H   0  0  0  0  0  0  0  0  0  0  0  0
    1.3710   -0.4261   -2.3081 H   0  0  0  0  0  0  0  0  0  0  0  0
    2.5710    0.6709    2.1764 H   0  0  0  0  0  0  0  0  0  0  0  0
    2.7874    2.2541    1.4088 H   0  0  0  0  0  0  0  0  0  0  0  0
   -2.2002    1.1845    2.1271 H   0  0  0  0  0  0  0  0  0  0  0  0
    2.4968   -2.2058   -0.1907 H   0  0  0  0  0  0  0  0  0  0  0  0
   -2.2598   -1.2034   -0.9399 H   0  0  0  0  0  0  0  0  0  0  0  0
   -3.8445    1.8129    0.3009 H   0  0  0  0  0  0  0  0  0  0  0  0
    4.6142    2.1009   -0.7285 H   0  0  0  0  0  0  0  0  0  0  0  0
    5.8662    0.9165   -0.3484 H   0  0  0  0  0  0  0  0  0  0  0  0
    4.9141    1.6209    0.9525 H   0  0  0  0  0  0  0  0  0  0  0  0
    4.2131   -1.9966    0.4051 H   0  0  0  0  0  0  0  0  0  0  0  0
    3.5880   -0.9488    1.7390 H   0  0  0  0  0  0  0  0  0  0  0  0
    5.1702   -0.8299    1.1451 H   0  0  0  0  0  0  0  0  0  0  0  0
    3.3483   -1.3606   -1.8392 H   0  0  0  0  0  0  0  0  0  0  0  0
    5.0033   -0.7993   -1.8318 H   0  0  0  0  0  0  0  0  0  0  0  0
    3.7278    0.2653   -2.4149 H   0  0  0  0  0  0  0  0  0  0  0  0
   -3.1170    0.4621   -2.6891 H   0  0  0  0  0  0  0  0  0  0  0  0
   -4.1866   -0.9159   -2.3839 H   0  0  0  0  0  0  0  0  0  0  0  0
   -4.5806    0.6560   -1.6988 H   0  0  0  0  0  0  0  0  0  0  0  0
    1.8430   -2.9730    1.7953 H   0  0  0  0  0  0  0  0  0  0  0  0
  1 12  1  0  0  0  0
  1 17  1  0  0  0  0
  2 13  1  0  0  0  0
  2 21  1  0  0  0  0
  3 17  1  0  0  0  0
  3 24  1  0  0  0  0
  4 19  1  0  0  0  0
  4 25  1  0  0  0  0
  5 15  1  0  0  0  0
  5 40  1  0  0  0  0
  6 20  1  0  0  0  0
  6 53  1  0  0  0  0
  7 21  2  0  0  0  0
  8 24  2  0  0  0  0
  9 25  2  0  0  0  0
 10 11  1  0  0  0  0
 10 12  1  0  0  0  0
 10 13  1  0  0  0  0
 10 16  1  0  0  0  0
 11 14  1  0  0  0  0
 11 17  1  0  0  0  0
 11 20  1  0  0  0  0
 12 15  1  0  0  0  0
 12 21  1  0  0  0  0
 13 18  1  0  0  0  0
 13 30  1  0  0  0  0
 14 18  1  0  0  0  0
 14 22  1  0  0  0  0
 14 31  1  0  0  0  0
 15 19  1  0  0  0  0
 15 23  1  0  0  0  0
 16 19  1  0  0  0  0
 16 32  1  0  0  0  0
 16 33  1  0  0  0  0
 17 34  1  0  0  0  0
 18 35  1  0  0  0  0
 18 36  1  0  0  0  0
 19 37  1  0  0  0  0
 20 24  1  0  0  0  0
 20 38  1  0  0  0  0
 22 26  1  0  0  0  0
 22 27  1  0  0  0  0
 22 28  1  0  0  0  0
 23 25  1  0  0  0  0
 23 29  1  0  0  0  0
 23 39  1  0  0  0  0
 26 41  1  0  0  0  0
 26 42  1  0  0  0  0
 26 43  1  0  0  0  0
 27 44  1  0  0  0  0
 27 45  1  0  0  0  0
 27 46  1  0  0  0  0
 28 47  1  0  0  0  0
 28 48  1  0  0  0  0
 28 49  1  0  0  0  0
 29 50  1  0  0  0  0
 29 51  1  0  0  0  0
 29 52  1  0  0  0  0
M  END
> <DATABASE_ID>
DB06743

> <DATABASE_NAME>
drugbank

> <ORIGINAL_SOURCE>
PUBCHEM

> <ORIGINAL_SOURCE_URL>
https://pubchem.ncbi.nlm.nih.gov/rest/pug/compound/inchikey/FPUXKXIZEIDQKW-VKMVSBOZSA-N/SDF?record_type=3d

> <SMILES>
C[C@@H]1C(=O)O[C@H]2C[C@@]34[C@H]5C[C@@H](C(C)(C)C)[C@@]33[C@@H](O)C(=O)O[C@H]3O[C@@]4(C(=O)O5)[C@@]12O

> <INCHI_IDENTIFIER>
InChI=1S/C20H24O9/c1-7-12(22)26-10-6-17-9-5-8(16(2,3)4)18(17)11(21)13(23)28-15(18)29-20(17,14(24)27-9)19(7,10)25/h7-11,15,21,25H,5-6H2,1-4H3/t7-,8+,9-,10+,11+,15+,17-,18+,19-,20-/m1/s1

> <INCHI_KEY>
FPUXKXIZEIDQKW-VKMVSBOZSA-N

> <FORMULA>
C20H24O9

> <MOLECULAR_WEIGHT>
408.3992

> <EXACT_MASS>
408.142032366

> <JCHEM_ACCEPTOR_COUNT>
6

> <JCHEM_ATOM_COUNT>
53

> <JCHEM_AVERAGE_NEUTRAL_MICROSPECIES_CHARGE>
-2.53960022182629e-05

> <JCHEM_AVERAGE_POLARIZABILITY>
38.24165805614049

> <JCHEM_BIOAVAILABILITY>
1

> <JCHEM_DONOR_COUNT>
2

> <JCHEM_FORMAL_CHARGE>
0

> <JCHEM_GHOSE_FILTER>
1

> <JCHEM_IUPAC>
(1R,3R,6R,7S,8S,10R,11S,13S,16S,17R)-8-tert-butyl-6,17-dihydroxy-16-methyl-2,4,14,19-tetraoxahexacyclo[8.7.2.0^{1,11}.0^{3,7}.0^{7,11}.0^{13,17}]nonadecane-5,15,18-trione

> <ALOGPS_LOGP>
1.21

> <JCHEM_LOGP>
0.3367835960000002

> <ALOGPS_LOGS>
-2.13

> <JCHEM_MDDR_LIKE_RULE>
0

> <JCHEM_NEUTRAL_CHARGE>
0

> <JCHEM_NUMBER_OF_RINGS>
6

> <JCHEM_PHYSIOLOGICAL_CHARGE>
0

> <JCHEM_PKA>
12.370443487369121

> <JCHEM_PKA_STRONGEST_ACIDIC>
11.767948943523999

> <JCHEM_PKA_STRONGEST_BASIC>
-4.076463268690968

> <JCHEM_POLAR_SURFACE_AREA>
128.59

> <JCHEM_REFRACTIVITY>
90.17450000000001

> <JCHEM_ROTATABLE_BOND_COUNT>
1

> <JCHEM_RULE_OF_FIVE>
1

> <ALOGPS_SOLUBILITY>
3.05e+00 g/l

> <JCHEM_TRADITIONAL_IUPAC>
tetrahydrofolic acid

> <JCHEM_VEBER_RULE>
0

$$$$
