92109
  -OEChem-02092011533D

 48 52  0     1  0  0  0  0  0999 V2000
   -0.8079   -1.5765    0.6476 O   0  0  0  0  0  0  0  0  0  0  0  0
   -3.9434    0.5837   -1.3170 O   0  0  0  0  0  0  0  0  0  0  0  0
   -2.2097   -1.2863    2.4517 O   0  0  0  0  0  0  0  0  0  0  0  0
    0.0877    3.5681    0.7496 O   0  0  0  0  0  0  0  0  0  0  0  0
    0.4278    2.8759   -1.3955 O   0  0  0  0  0  0  0  0  0  0  0  0
    1.3366    0.3696    0.1016 C   0  0  1  0  0  0  0  0  0  0  0  0
   -0.6136   -0.8903   -0.6011 C   0  0  2  0  0  0  0  0  0  0  0  0
    0.8621   -0.6879   -0.9438 C   0  0  2  0  0  0  0  0  0  0  0  0
   -1.0985    0.5274   -0.3251 C   0  0  2  0  0  0  0  0  0  0  0  0
    0.0902    1.2499    0.3627 C   0  0  2  0  0  0  0  0  0  0  0  0
   -2.3423    0.1929    0.4979 C   0  0  1  0  0  0  0  0  0  0  0  0
    1.8424   -0.2776    1.4061 C   0  0  0  0  0  0  0  0  0  0  0  0
    2.6393    1.0498   -0.3735 C   0  0  0  0  0  0  0  0  0  0  0  0
    1.7228   -1.9578   -1.0433 C   0  0  0  0  0  0  0  0  0  0  0  0
    3.0822   -1.0127    0.9153 C   0  0  1  0  0  0  0  0  0  0  0  0
   -1.4864   -1.5432   -1.6802 C   0  0  0  0  0  0  0  0  0  0  0  0
   -3.4415   -0.4111   -0.4239 C   0  0  2  0  0  0  0  0  0  0  0  0
    2.6146   -2.2649    0.1655 C   0  0  0  0  0  0  0  0  0  0  0  0
    3.6884    0.0271   -0.0010 C   0  0  0  0  0  0  0  0  0  0  0  0
   -2.9593   -1.6319   -1.2387 C   0  0  0  0  0  0  0  0  0  0  0  0
   -1.8092   -0.9440    1.3514 C   0  0  0  0  0  0  0  0  0  0  0  0
    0.2231    2.6271   -0.2166 C   0  0  0  0  0  0  0  0  0  0  0  0
   -2.8664    1.3631    1.3207 C   0  0  0  0  0  0  0  0  0  0  0  0
    4.9609    0.0496   -0.4106 C   0  0  0  0  0  0  0  0  0  0  0  0
    0.8849   -0.2160   -1.9386 H   0  0  0  0  0  0  0  0  0  0  0  0
   -1.3595    1.0528   -1.2516 H   0  0  0  0  0  0  0  0  0  0  0  0
   -0.0777    1.3404    1.4417 H   0  0  0  0  0  0  0  0  0  0  0  0
    1.1293   -0.9460    1.8937 H   0  0  0  0  0  0  0  0  0  0  0  0
    2.1116    0.4911    2.1443 H   0  0  0  0  0  0  0  0  0  0  0  0
    2.8291    1.9763    0.1813 H   0  0  0  0  0  0  0  0  0  0  0  0
    2.6395    1.2623   -1.4471 H   0  0  0  0  0  0  0  0  0  0  0  0
    2.3907   -1.8274   -1.9066 H   0  0  0  0  0  0  0  0  0  0  0  0
    1.1146   -2.8361   -1.2857 H   0  0  0  0  0  0  0  0  0  0  0  0
    3.7427   -1.2752    1.7478 H   0  0  0  0  0  0  0  0  0  0  0  0
   -1.1349   -2.5575   -1.9002 H   0  0  0  0  0  0  0  0  0  0  0  0
   -1.4205   -0.9700   -2.6132 H   0  0  0  0  0  0  0  0  0  0  0  0
   -4.2965   -0.7296    0.1852 H   0  0  0  0  0  0  0  0  0  0  0  0
    2.0575   -2.9076    0.8594 H   0  0  0  0  0  0  0  0  0  0  0  0
    3.4801   -2.8513   -0.1667 H   0  0  0  0  0  0  0  0  0  0  0  0
   -3.5932   -1.7875   -2.1194 H   0  0  0  0  0  0  0  0  0  0  0  0
   -3.0668   -2.5271   -0.6122 H   0  0  0  0  0  0  0  0  0  0  0  0
   -2.1736    1.6506    2.1179 H   0  0  0  0  0  0  0  0  0  0  0  0
   -3.0467    2.2418    0.6927 H   0  0  0  0  0  0  0  0  0  0  0  0
   -3.8106    1.1010    1.8119 H   0  0  0  0  0  0  0  0  0  0  0  0
    5.6618   -0.7168   -0.0987 H   0  0  0  0  0  0  0  0  0  0  0  0
    5.3231    0.8346   -1.0654 H   0  0  0  0  0  0  0  0  0  0  0  0
   -3.2987    0.7074   -2.0331 H   0  0  0  0  0  0  0  0  0  0  0  0
    0.1729    4.4768    0.3902 H   0  0  0  0  0  0  0  0  0  0  0  0
  1  7  1  0  0  0  0
  1 21  1  0  0  0  0
  2 17  1  0  0  0  0
  2 47  1  0  0  0  0
  3 21  2  0  0  0  0
  4 22  1  0  0  0  0
  4 48  1  0  0  0  0
  5 22  2  0  0  0  0
  6  8  1  0  0  0  0
  6 10  1  0  0  0  0
  6 12  1  0  0  0  0
  6 13  1  0  0  0  0
  7  8  1  0  0  0  0
  7  9  1  0  0  0  0
  7 16  1  0  0  0  0
  8 14  1  0  0  0  0
  8 25  1  0  0  0  0
  9 10  1  0  0  0  0
  9 11  1  0  0  0  0
  9 26  1  0  0  0  0
 10 22  1  0  0  0  0
 10 27  1  0  0  0  0
 11 17  1  0  0  0  0
 11 21  1  0  0  0  0
 11 23  1  0  0  0  0
 12 15  1  0  0  0  0
 12 28  1  0  0  0  0
 12 29  1  0  0  0  0
 13 19  1  0  0  0  0
 13 30  1  0  0  0  0
 13 31  1  0  0  0  0
 14 18  1  0  0  0  0
 14 32  1  0  0  0  0
 14 33  1  0  0  0  0
 15 18  1  0  0  0  0
 15 19  1  0  0  0  0
 15 34  1  0  0  0  0
 16 20  1  0  0  0  0
 16 35  1  0  0  0  0
 16 36  1  0  0  0  0
 17 20  1  0  0  0  0
 17 37  1  0  0  0  0
 18 38  1  0  0  0  0
 18 39  1  0  0  0  0
 19 24  2  0  0  0  0
 20 40  1  0  0  0  0
 20 41  1  0  0  0  0
 23 42  1  0  0  0  0
 23 43  1  0  0  0  0
 23 44  1  0  0  0  0
 24 45  1  0  0  0  0
 24 46  1  0  0  0  0
M  END
> <DATABASE_ID>
DB07815

> <DATABASE_NAME>
drugbank

> <ORIGINAL_SOURCE>
PUBCHEM

> <ORIGINAL_SOURCE_URL>
https://pubchem.ncbi.nlm.nih.gov/rest/pug/compound/inchikey/RSQSQJNRHICNNH-NFMPGMCNSA-N/SDF?record_type=3d

> <SMILES>
[H][C@@]12C[C@]3(CC1=C)[C@@H](C(O)=O)[C@]1([H])[C@@]4(C)[C@@H](O)CC[C@@]1(OC4=O)[C@]3([H])CC2

> <INCHI_IDENTIFIER>
InChI=1S/C19H24O5/c1-9-7-18-8-10(9)3-4-11(18)19-6-5-12(20)17(2,16(23)24-19)14(19)13(18)15(21)22/h10-14,20H,1,3-8H2,2H3,(H,21,22)/t10-,11-,12+,13-,14-,17-,18+,19-/m1/s1

> <INCHI_KEY>
RSQSQJNRHICNNH-NFMPGMCNSA-N

> <FORMULA>
C19H24O5

> <MOLECULAR_WEIGHT>
332.3909

> <EXACT_MASS>
332.162373878

> <JCHEM_ACCEPTOR_COUNT>
4

> <JCHEM_ATOM_COUNT>
48

> <JCHEM_AVERAGE_NEUTRAL_MICROSPECIES_CHARGE>
-0.9980614216667513

> <JCHEM_AVERAGE_POLARIZABILITY>
34.583291698495586

> <JCHEM_BIOAVAILABILITY>
1

> <JCHEM_DONOR_COUNT>
2

> <JCHEM_FORMAL_CHARGE>
0

> <JCHEM_GHOSE_FILTER>
1

> <JCHEM_IUPAC>
(1R,2R,5R,8R,9S,10R,11S,12S)-12-hydroxy-11-methyl-6-methylidene-16-oxo-15-oxapentacyclo[9.3.2.1^{5,8}.0^{1,10}.0^{2,8}]heptadecane-9-carboxylic acid

> <ALOGPS_LOGP>
1.38

> <JCHEM_LOGP>
1.5603197853333337

> <ALOGPS_LOGS>
-2.44

> <JCHEM_MDDR_LIKE_RULE>
0

> <JCHEM_NEUTRAL_CHARGE>
-1

> <JCHEM_NUMBER_OF_RINGS>
5

> <JCHEM_PHYSIOLOGICAL_CHARGE>
-1

> <JCHEM_PKA>
14.445587590324653

> <JCHEM_PKA_STRONGEST_ACIDIC>
4.288334110545963

> <JCHEM_PKA_STRONGEST_BASIC>
-3.0419589762960797

> <JCHEM_POLAR_SURFACE_AREA>
83.83

> <JCHEM_REFRACTIVITY>
84.07879999999999

> <JCHEM_ROTATABLE_BOND_COUNT>
1

> <JCHEM_RULE_OF_FIVE>
1

> <ALOGPS_SOLUBILITY>
1.19e+00 g/l

> <JCHEM_TRADITIONAL_IUPAC>
6-(2,6-dichlorophenyl)-2-{[3-(hydroxymethyl)phenyl]amino}-8-methylpyrido[2,3-d]pyrimidin-7-one

> <JCHEM_VEBER_RULE>
0

$$$$
