2898
  -OEChem-10061700233D

 51 53  0     0  0  0  0  0  0999 V2000
    4.9348    2.0741   -0.2137 O   0  0  0  0  0  0  0  0  0  0  0  0
   -4.9295    2.0794   -0.2147 O   0  0  0  0  0  0  0  0  0  0  0  0
    6.0109    0.0238    0.1301 O   0  0  0  0  0  0  0  0  0  0  0  0
   -6.0078    0.0297    0.1260 O   0  0  0  0  0  0  0  0  0  0  0  0
   -0.0144   -4.7002   -0.2660 C   0  0  0  0  0  0  0  0  0  0  0  0
   -1.2780   -3.8483   -0.3963 C   0  0  0  0  0  0  0  0  0  0  0  0
    1.2514   -3.8554   -0.4200 C   0  0  0  0  0  0  0  0  0  0  0  0
   -1.2721   -2.6693    0.5778 C   0  0  0  0  0  0  0  0  0  0  0  0
    1.2701   -2.6760    0.5535 C   0  0  0  0  0  0  0  0  0  0  0  0
   -0.0002   -1.8734    0.4446 C   0  0  0  0  0  0  0  0  0  0  0  0
    0.0012   -0.5508    0.2245 C   0  0  0  0  0  0  0  0  0  0  0  0
    1.3109    0.1455    0.1079 C   0  0  0  0  0  0  0  0  0  0  0  0
   -1.3075    0.1470    0.1083 C   0  0  0  0  0  0  0  0  0  0  0  0
    1.8955    0.6551    1.2475 C   0  0  0  0  0  0  0  0  0  0  0  0
   -1.8919    0.2594   -1.1353 C   0  0  0  0  0  0  0  0  0  0  0  0
    1.8957    0.2576   -1.1354 C   0  0  0  0  0  0  0  0  0  0  0  0
   -1.8921    0.6575    1.2477 C   0  0  0  0  0  0  0  0  0  0  0  0
    3.1233    1.3083    1.1387 C   0  0  0  0  0  0  0  0  0  0  0  0
   -3.1190    0.9139   -1.2446 C   0  0  0  0  0  0  0  0  0  0  0  0
    3.1233    0.9109   -1.2446 C   0  0  0  0  0  0  0  0  0  0  0  0
   -3.1190    1.3122    1.1383 C   0  0  0  0  0  0  0  0  0  0  0  0
    3.7370    1.4364   -0.1074 C   0  0  0  0  0  0  0  0  0  0  0  0
   -3.7323    1.4405   -0.1078 C   0  0  0  0  0  0  0  0  0  0  0  0
    6.0488    1.2301   -0.0730 C   0  0  0  0  0  0  0  0  0  0  0  0
   -6.0443    1.2366   -0.0739 C   0  0  0  0  0  0  0  0  0  0  0  0
    7.3145    2.0238   -0.2052 C   0  0  0  0  0  0  0  0  0  0  0  0
   -7.3092    2.0316   -0.2069 C   0  0  0  0  0  0  0  0  0  0  0  0
   -0.0065   -5.1940    0.7135 H   0  0  0  0  0  0  0  0  0  0  0  0
   -0.0237   -5.4917   -1.0238 H   0  0  0  0  0  0  0  0  0  0  0  0
   -2.1593   -4.4732   -0.2117 H   0  0  0  0  0  0  0  0  0  0  0  0
   -1.3607   -3.4748   -1.4249 H   0  0  0  0  0  0  0  0  0  0  0  0
    1.3170   -3.4825   -1.4501 H   0  0  0  0  0  0  0  0  0  0  0  0
    2.1326   -4.4851   -0.2517 H   0  0  0  0  0  0  0  0  0  0  0  0
   -1.3246   -3.0551    1.6046 H   0  0  0  0  0  0  0  0  0  0  0  0
   -2.1969   -2.1083    0.4268 H   0  0  0  0  0  0  0  0  0  0  0  0
    2.1944   -2.1195    0.3843 H   0  0  0  0  0  0  0  0  0  0  0  0
    1.3404   -3.0617    1.5793 H   0  0  0  0  0  0  0  0  0  0  0  0
    1.4268    0.5605    2.2230 H   0  0  0  0  0  0  0  0  0  0  0  0
   -1.4237   -0.1479   -2.0269 H   0  0  0  0  0  0  0  0  0  0  0  0
    1.4271   -0.1489   -2.0273 H   0  0  0  0  0  0  0  0  0  0  0  0
   -1.4238    0.5626    2.2233 H   0  0  0  0  0  0  0  0  0  0  0  0
    3.5958    1.7155    2.0284 H   0  0  0  0  0  0  0  0  0  0  0  0
   -3.5914    1.0104   -2.2185 H   0  0  0  0  0  0  0  0  0  0  0  0
    3.5960    1.0072   -2.2183 H   0  0  0  0  0  0  0  0  0  0  0  0
   -3.5912    1.7202    2.0279 H   0  0  0  0  0  0  0  0  0  0  0  0
    7.3550    2.4921   -1.1917 H   0  0  0  0  0  0  0  0  0  0  0  0
    8.1743    1.3560   -0.0998 H   0  0  0  0  0  0  0  0  0  0  0  0
    7.3599    2.7796    0.5826 H   0  0  0  0  0  0  0  0  0  0  0  0
   -7.3493    2.7947    0.5743 H   0  0  0  0  0  0  0  0  0  0  0  0
   -8.1697    1.3667   -0.0903 H   0  0  0  0  0  0  0  0  0  0  0  0
   -7.3538    2.4909   -1.1973 H   0  0  0  0  0  0  0  0  0  0  0  0
  1 22  1  0  0  0  0
  1 24  1  0  0  0  0
  2 23  1  0  0  0  0
  2 25  1  0  0  0  0
  3 24  2  0  0  0  0
  4 25  2  0  0  0  0
  5  6  1  0  0  0  0
  5  7  1  0  0  0  0
  5 28  1  0  0  0  0
  5 29  1  0  0  0  0
  6  8  1  0  0  0  0
  6 30  1  0  0  0  0
  6 31  1  0  0  0  0
  7  9  1  0  0  0  0
  7 32  1  0  0  0  0
  7 33  1  0  0  0  0
  8 10  1  0  0  0  0
  8 34  1  0  0  0  0
  8 35  1  0  0  0  0
  9 10  1  0  0  0  0
  9 36  1  0  0  0  0
  9 37  1  0  0  0  0
 10 11  2  0  0  0  0
 11 12  1  0  0  0  0
 11 13  1  0  0  0  0
 12 14  2  0  0  0  0
 12 16  1  0  0  0  0
 13 15  2  0  0  0  0
 13 17  1  0  0  0  0
 14 18  1  0  0  0  0
 14 38  1  0  0  0  0
 15 19  1  0  0  0  0
 15 39  1  0  0  0  0
 16 20  2  0  0  0  0
 16 40  1  0  0  0  0
 17 21  2  0  0  0  0
 17 41  1  0  0  0  0
 18 22  2  0  0  0  0
 18 42  1  0  0  0  0
 19 23  2  0  0  0  0
 19 43  1  0  0  0  0
 20 22  1  0  0  0  0
 20 44  1  0  0  0  0
 21 23  1  0  0  0  0
 21 45  1  0  0  0  0
 24 26  1  0  0  0  0
 25 27  1  0  0  0  0
 26 46  1  0  0  0  0
 26 47  1  0  0  0  0
 26 48  1  0  0  0  0
 27 49  1  0  0  0  0
 27 50  1  0  0  0  0
 27 51  1  0  0  0  0
M  END
> <DATABASE_ID>
DB13472

> <DATABASE_NAME>
drugbank

> <ORIGINAL_SOURCE>
PUBCHEM

> <ORIGINAL_SOURCE_URL>
https://pubchem.ncbi.nlm.nih.gov/rest/pug/compound/inchikey/GVOUFPWUYJWQSK-UHFFFAOYSA-N/SDF?record_type=3d

> <SMILES>
CC(=O)OC1=CC=C(C=C1)C(=C1CCCCC1)C1=CC=C(OC(C)=O)C=C1

> <INCHI_IDENTIFIER>
InChI=1S/C23H24O4/c1-16(24)26-21-12-8-19(9-13-21)23(18-6-4-3-5-7-18)20-10-14-22(15-11-20)27-17(2)25/h8-15H,3-7H2,1-2H3

> <INCHI_KEY>
GVOUFPWUYJWQSK-UHFFFAOYSA-N

> <FORMULA>
C23H24O4

> <MOLECULAR_WEIGHT>
364.441

> <EXACT_MASS>
364.167459253

> <JCHEM_ACCEPTOR_COUNT>
2

> <JCHEM_ATOM_COUNT>
51

> <JCHEM_AVERAGE_POLARIZABILITY>
41.0751905859787

> <JCHEM_BIOAVAILABILITY>
1

> <JCHEM_DONOR_COUNT>
0

> <JCHEM_FORMAL_CHARGE>
0

> <JCHEM_GHOSE_FILTER>
1

> <JCHEM_IUPAC>
4-{[4-(acetyloxy)phenyl](cyclohexylidene)methyl}phenyl acetate

> <ALOGPS_LOGP>
5.76

> <JCHEM_LOGP>
4.857644769

> <ALOGPS_LOGS>
-5.66

> <JCHEM_MDDR_LIKE_RULE>
1

> <JCHEM_NUMBER_OF_RINGS>
3

> <JCHEM_PHYSIOLOGICAL_CHARGE>
0

> <JCHEM_PKA_STRONGEST_BASIC>
-6.840155948109756

> <JCHEM_POLAR_SURFACE_AREA>
52.60000000000001

> <JCHEM_REFRACTIVITY>
113.51809999999999

> <JCHEM_ROTATABLE_BOND_COUNT>
6

> <JCHEM_RULE_OF_FIVE>
1

> <ALOGPS_SOLUBILITY>
7.92e-04 g/l

> <JCHEM_TRADITIONAL_IUPAC>
cyclofenil

> <JCHEM_VEBER_RULE>
0

$$$$
