244809
  -OEChem-10061700213D

 48 51  0     1  0  0  0  0  0999 V2000
   -4.3899    1.0394    1.3046 O   0  0  0  0  0  0  0  0  0  0  0  0
   -5.4860   -1.2218    0.4798 O   0  0  0  0  0  0  0  0  0  0  0  0
    5.7722   -0.3741   -0.1944 O   0  0  0  0  0  0  0  0  0  0  0  0
   -2.6719    0.8916   -0.4459 C   0  0  1  0  0  0  0  0  0  0  0  0
   -2.1517   -0.4305    0.1628 C   0  0  2  0  0  0  0  0  0  0  0  0
   -0.6736   -0.6690   -0.1542 C   0  0  1  0  0  0  0  0  0  0  0  0
    0.1671    0.4864    0.4680 C   0  0  2  0  0  0  0  0  0  0  0  0
   -4.1697    0.7845   -0.0794 C   0  0  1  0  0  0  0  0  0  0  0  0
   -1.8813    2.0409    0.1974 C   0  0  0  0  0  0  0  0  0  0  0  0
   -3.1789   -1.4764   -0.2734 C   0  0  0  0  0  0  0  0  0  0  0  0
   -4.5014   -0.6929   -0.3908 C   0  0  1  0  0  0  0  0  0  0  0  0
   -0.3605    1.8727    0.0127 C   0  0  0  0  0  0  0  0  0  0  0  0
   -0.1629   -2.0039    0.3923 C   0  0  0  0  0  0  0  0  0  0  0  0
   -2.5462    0.9806   -1.9884 C   0  0  0  0  0  0  0  0  0  0  0  0
    1.6615    0.2612    0.2543 C   0  0  0  0  0  0  0  0  0  0  0  0
    1.2668   -2.2453   -0.0827 C   0  0  0  0  0  0  0  0  0  0  0  0
    2.1666   -1.0399    0.0385 C   0  0  0  0  0  0  0  0  0  0  0  0
    2.5792    1.3219    0.3544 C   0  0  0  0  0  0  0  0  0  0  0  0
    3.5496   -1.2367   -0.1223 C   0  0  0  0  0  0  0  0  0  0  0  0
    3.9513    1.1111    0.2016 C   0  0  0  0  0  0  0  0  0  0  0  0
    4.4366   -0.1673   -0.0414 C   0  0  0  0  0  0  0  0  0  0  0  0
    6.6228    0.7674   -0.0934 C   0  0  0  0  0  0  0  0  0  0  0  0
   -2.2155   -0.3785    1.2601 H   0  0  0  0  0  0  0  0  0  0  0  0
   -0.5318   -0.6820   -1.2428 H   0  0  0  0  0  0  0  0  0  0  0  0
    0.0281    0.4474    1.5597 H   0  0  0  0  0  0  0  0  0  0  0  0
   -4.8029    1.4732   -0.6470 H   0  0  0  0  0  0  0  0  0  0  0  0
   -2.0870    2.0909    1.2739 H   0  0  0  0  0  0  0  0  0  0  0  0
   -2.1977    3.0039   -0.2209 H   0  0  0  0  0  0  0  0  0  0  0  0
   -2.9074   -1.8972   -1.2486 H   0  0  0  0  0  0  0  0  0  0  0  0
   -3.2404   -2.3044    0.4405 H   0  0  0  0  0  0  0  0  0  0  0  0
   -4.8822   -0.7878   -1.4137 H   0  0  0  0  0  0  0  0  0  0  0  0
   -0.0847    2.0518   -1.0332 H   0  0  0  0  0  0  0  0  0  0  0  0
    0.1209    2.6689    0.5927 H   0  0  0  0  0  0  0  0  0  0  0  0
   -0.7908   -2.8374    0.0587 H   0  0  0  0  0  0  0  0  0  0  0  0
   -0.1962   -1.9987    1.4895 H   0  0  0  0  0  0  0  0  0  0  0  0
   -1.5083    0.9866   -2.3313 H   0  0  0  0  0  0  0  0  0  0  0  0
   -3.0398    0.1516   -2.5040 H   0  0  0  0  0  0  0  0  0  0  0  0
   -3.0090    1.9062   -2.3506 H   0  0  0  0  0  0  0  0  0  0  0  0
    1.2463   -2.5441   -1.1387 H   0  0  0  0  0  0  0  0  0  0  0  0
    1.6882   -3.0822    0.4873 H   0  0  0  0  0  0  0  0  0  0  0  0
   -3.9738    0.3458    1.8396 H   0  0  0  0  0  0  0  0  0  0  0  0
   -5.1203   -1.2402    1.3797 H   0  0  0  0  0  0  0  0  0  0  0  0
    2.2460    2.3345    0.5613 H   0  0  0  0  0  0  0  0  0  0  0  0
    3.9351   -2.2367   -0.3107 H   0  0  0  0  0  0  0  0  0  0  0  0
    4.5814    1.9897    0.2890 H   0  0  0  0  0  0  0  0  0  0  0  0
    7.6501    0.4194   -0.2423 H   0  0  0  0  0  0  0  0  0  0  0  0
    6.5780    1.2150    0.9053 H   0  0  0  0  0  0  0  0  0  0  0  0
    6.4139    1.4959   -0.8842 H   0  0  0  0  0  0  0  0  0  0  0  0
  1  8  1  0  0  0  0
  1 41  1  0  0  0  0
  2 11  1  0  0  0  0
  2 42  1  0  0  0  0
  3 21  1  0  0  0  0
  3 22  1  0  0  0  0
  4  5  1  0  0  0  0
  4  8  1  0  0  0  0
  4  9  1  0  0  0  0
  4 14  1  0  0  0  0
  5  6  1  0  0  0  0
  5 10  1  0  0  0  0
  5 23  1  0  0  0  0
  6  7  1  0  0  0  0
  6 13  1  0  0  0  0
  6 24  1  0  0  0  0
  7 12  1  0  0  0  0
  7 15  1  0  0  0  0
  7 25  1  0  0  0  0
  8 11  1  0  0  0  0
  8 26  1  0  0  0  0
  9 12  1  0  0  0  0
  9 27  1  0  0  0  0
  9 28  1  0  0  0  0
 10 11  1  0  0  0  0
 10 29  1  0  0  0  0
 10 30  1  0  0  0  0
 11 31  1  0  0  0  0
 12 32  1  0  0  0  0
 12 33  1  0  0  0  0
 13 16  1  0  0  0  0
 13 34  1  0  0  0  0
 13 35  1  0  0  0  0
 14 36  1  0  0  0  0
 14 37  1  0  0  0  0
 14 38  1  0  0  0  0
 15 17  2  0  0  0  0
 15 18  1  0  0  0  0
 16 17  1  0  0  0  0
 16 39  1  0  0  0  0
 16 40  1  0  0  0  0
 17 19  1  0  0  0  0
 18 20  2  0  0  0  0
 18 43  1  0  0  0  0
 19 21  2  0  0  0  0
 19 44  1  0  0  0  0
 20 21  1  0  0  0  0
 20 45  1  0  0  0  0
 22 46  1  0  0  0  0
 22 47  1  0  0  0  0
 22 48  1  0  0  0  0
M  END
> <DATABASE_ID>
DB13386

> <DATABASE_NAME>
drugbank

> <ORIGINAL_SOURCE>
PUBCHEM

> <ORIGINAL_SOURCE_URL>
https://pubchem.ncbi.nlm.nih.gov/rest/pug/compound/inchikey/UHQGCIIQUZBJAE-RRQVMCLOSA-N/SDF?record_type=3d

> <SMILES>
COC1=CC=C2[C@H]3CC[C@]4(C)[C@H](O)[C@H](O)C[C@H]4[C@@H]3CCC2=C1

> <INCHI_IDENTIFIER>
InChI=1S/C19H26O3/c1-19-8-7-14-13-6-4-12(22-2)9-11(13)3-5-15(14)16(19)10-17(20)18(19)21/h4,6,9,14-18,20-21H,3,5,7-8,10H2,1-2H3/t14-,15-,16+,17-,18-,19+/m1/s1

> <INCHI_KEY>
UHQGCIIQUZBJAE-RRQVMCLOSA-N

> <FORMULA>
C19H26O3

> <MOLECULAR_WEIGHT>
302.414

> <EXACT_MASS>
302.188194697

> <JCHEM_ACCEPTOR_COUNT>
3

> <JCHEM_ATOM_COUNT>
48

> <JCHEM_AVERAGE_POLARIZABILITY>
35.01761589734162

> <JCHEM_BIOAVAILABILITY>
1

> <JCHEM_DONOR_COUNT>
2

> <JCHEM_FORMAL_CHARGE>
0

> <JCHEM_GHOSE_FILTER>
1

> <JCHEM_IUPAC>
(1S,10R,11S,13R,14S,15S)-5-methoxy-15-methyltetracyclo[8.7.0.0^{2,7}.0^{11,15}]heptadeca-2,4,6-triene-13,14-diol

> <ALOGPS_LOGP>
2.85

> <JCHEM_LOGP>
2.816491777333334

> <ALOGPS_LOGS>
-4.32

> <JCHEM_MDDR_LIKE_RULE>
0

> <JCHEM_NUMBER_OF_RINGS>
4

> <JCHEM_PHYSIOLOGICAL_CHARGE>
0

> <JCHEM_PKA>
15.159245141399648

> <JCHEM_PKA_STRONGEST_ACIDIC>
13.623882653380488

> <JCHEM_PKA_STRONGEST_BASIC>
-3.15653538815926

> <JCHEM_POLAR_SURFACE_AREA>
49.69

> <JCHEM_REFRACTIVITY>
85.74849999999998

> <JCHEM_ROTATABLE_BOND_COUNT>
1

> <JCHEM_RULE_OF_FIVE>
1

> <ALOGPS_SOLUBILITY>
1.43e-02 g/l

> <JCHEM_TRADITIONAL_IUPAC>
(1S,10R,11S,13R,14S,15S)-5-methoxy-15-methyltetracyclo[8.7.0.0^{2,7}.0^{11,15}]heptadeca-2,4,6-triene-13,14-diol

> <JCHEM_VEBER_RULE>
0

$$$$
