
     RDKit          3D

 58 64  0  0  0  0  0  0  0  0999 V2000
   -0.2897   -0.9219    1.0695 C   0  0  0  0  0  0  0  0  0  0  0  0
   -0.1918   -1.4443    1.2299 C   0  0  0  0  0  0  0  0  0  0  0  0
   -0.1050   -2.1087    2.6032 C   0  0  0  0  0  0  0  0  0  0  0  0
    1.1466   -2.1425    0.6123 C   0  0  2  0  0  0  0  0  0  0  0  0
    2.1388   -1.3982    1.6724 C   0  0  0  0  0  0  0  0  0  0  0  0
    3.3856   -2.0832    1.0986 C   0  0  0  0  0  0  0  0  0  0  0  0
    3.7360   -1.2069   -0.0048 C   0  0  2  0  0  0  0  0  0  0  0  0
    3.6932    0.1918    0.5196 C   0  0  0  0  0  0  0  0  0  0  0  0
    2.7105   -1.4115   -1.2592 C   0  0  2  0  0  0  0  0  0  0  0  0
    3.0518    0.0449   -1.8612 C   0  0  0  0  0  0  0  0  0  0  0  0
    2.4369    0.1499   -2.9617 O   0  0  0  0  0  0  0  0  0  0  0  0
    4.4983    0.3469   -1.9890 C   0  0  0  0  0  0  0  0  0  0  0  0
    5.4512   -0.3348   -1.3796 C   0  0  0  0  0  0  0  0  0  0  0  0
    6.2497    0.3859   -0.1798 C   0  0  2  0  0  0  0  0  0  0  0  0
    6.6114    1.6942   -1.0924 C   0  0  0  0  0  0  0  0  0  0  0  0
    7.7366    2.3921   -0.3877 C   0  0  1  0  0  0  0  0  0  0  0  0
    7.8146    3.7822   -0.9836 C   0  0  0  0  0  0  0  0  0  0  0  0
    7.5590    2.5532    1.0610 C   0  0  0  0  0  0  0  0  0  0  0  0
    8.5977    2.8874    1.7101 O   0  0  0  0  0  0  0  0  0  0  0  0
    6.3701    2.5965    1.7379 O   0  0  0  0  0  0  0  0  0  0  0  0
    8.9743    1.5606   -0.6905 C   0  0  0  0  0  0  0  0  0  0  0  0
    8.5364    0.2572   -1.3349 C   0  0  0  0  0  0  0  0  0  0  0  0
    7.6424   -0.4306   -0.4226 C   0  0  1  0  0  0  0  0  0  0  0  0
    8.2476   -0.6216    0.9737 C   0  0  0  0  0  0  0  0  0  0  0  0
    7.2883   -1.8565   -0.7543 C   0  0  0  0  0  0  0  0  0  0  0  0
    6.0810   -2.1386    0.1458 C   0  0  0  0  0  0  0  0  0  0  0  0
    4.9644   -1.6091   -0.7524 C   0  0  1  0  0  0  0  0  0  0  0  0
    4.7713   -2.6469   -1.7861 C   0  0  0  0  0  0  0  0  0  0  0  0
    1.3115   -1.0098   -0.5361 C   0  0  2  0  0  0  0  0  0  0  0  0
    1.2007    0.3213   -0.0955 C   0  0  0  0  0  0  0  0  0  0  0  0
    0.2216   -1.5930   -1.4044 C   0  0  0  0  0  0  0  0  0  0  0  0
   -1.1090   -1.5969   -0.9756 C   0  0  0  0  0  0  0  0  0  0  0  0
   -1.3242   -2.3802    0.4525 C   0  0  2  0  0  0  0  0  0  0  0  0
   -2.4257   -1.5255    0.9968 O   0  0  0  0  0  0  0  0  0  0  0  0
   -2.8883   -0.6582   -0.1518 C   0  0  1  0  0  0  0  0  0  0  0  0
   -3.8113   -1.6367   -0.8289 O   0  0  0  0  0  0  0  0  0  0  0  0
   -4.2299   -2.7526    0.0614 C   0  0  2  0  0  0  0  0  0  0  0  0
   -5.4731   -3.0671   -0.9474 C   0  0  0  0  0  0  0  0  0  0  0  0
   -5.3234   -2.8895   -2.1819 O   0  0  0  0  0  0  0  0  0  0  0  0
   -6.7503   -3.1329   -0.4107 O   0  0  0  0  0  0  0  0  0  0  0  0
   -5.3008   -1.9879    1.1641 C   0  0  1  0  0  0  0  0  0  0  0  0
   -5.0995   -3.0505    2.2101 O   0  0  0  0  0  0  0  0  0  0  0  0
   -4.1567   -0.9999    1.9417 C   0  0  2  0  0  0  0  0  0  0  0  0
   -5.2373   -0.3004    2.7031 O   0  0  0  0  0  0  0  0  0  0  0  0
   -4.3668   -0.0873    0.5323 C   0  0  1  0  0  0  0  0  0  0  0  0
   -3.8717    1.2270    1.0442 O   0  0  0  0  0  0  0  0  0  0  0  0
   -5.3488    1.6408    1.1425 C   0  0  2  0  0  0  0  0  0  0  0  0
   -5.6082    1.5284   -0.3619 O   0  0  0  0  0  0  0  0  0  0  0  0
   -7.1109    1.6487   -0.2032 C   0  0  2  0  0  0  0  0  0  0  0  0
   -7.4444    1.4058   -1.7646 C   0  0  0  0  0  0  0  0  0  0  0  0
   -8.5255    2.0359   -2.0435 O   0  0  0  0  0  0  0  0  0  0  0  0
   -7.8721    0.0593   -1.9182 O   0  0  0  0  0  0  0  0  0  0  0  0
   -6.9674    3.3374   -0.4470 C   0  0  1  0  0  0  0  0  0  0  0  0
   -8.4442    3.5394   -0.3019 O   0  0  0  0  0  0  0  0  0  0  0  0
   -6.7152    3.6152    1.2152 C   0  0  2  0  0  0  0  0  0  0  0  0
   -6.5861    5.0922    0.9807 O   0  0  0  0  0  0  0  0  0  0  0  0
   -5.0426    3.3267    1.0293 C   0  0  1  0  0  0  0  0  0  0  0  0
   -4.8072    3.4026    2.5041 O   0  0  0  0  0  0  0  0  0  0  0  0
  1  2  1  0
  2  3  1  0
  4  2  1  1
  4  5  1  0
  5  6  1  0
  6  7  1  0
  7  8  1  1
  7  9  1  0
  9 10  1  6
 10 11  2  0
 10 12  1  0
 12 13  2  0
 14 13  1  6
 14 15  1  0
 15 16  1  0
 16 17  1  6
 16 18  1  0
 18 19  2  0
 18 20  1  0
 16 21  1  0
 21 22  1  0
 22 23  1  0
 23 24  1  1
 23 25  1  0
 25 26  1  0
 26 27  1  0
 27 28  1  6
  9 29  1  0
 29 30  1  1
 29 31  1  0
 31 32  1  0
 32 33  1  0
 33 34  1  1
 35 34  1  1
 35 36  1  0
 36 37  1  0
 37 38  1  6
 38 39  2  0
 38 40  1  0
 37 41  1  0
 41 42  1  1
 41 43  1  0
 43 44  1  1
 43 45  1  0
 45 46  1  1
 47 46  1  6
 47 48  1  0
 48 49  1  0
 49 50  1  6
 50 51  2  0
 50 52  1  0
 49 53  1  0
 53 54  1  1
 53 55  1  0
 55 56  1  6
 55 57  1  0
 57 58  1  1
 33  2  1  0
 45 35  1  0
 57 47  1  0
 29  4  1  0
 27  7  1  0
 27 13  1  0
 23 14  1  0
M  END
>  <zinc_id>  (1) 
ZINC000096015174

>  <smiles>  (1) 
CC1(C)[C@@H](O[C@H]2O[C@H](C(=O)O)[C@@H](O)[C@H](O)[C@H]2O[C@@H]2O[C@H](C(=O)O)[C@@H](O)[C@H](O)[C@H]2O)CC[C@@]2(C)[C@H]1CC[C@]1(C)[C@@H]2C(=O)C=C2[C@@H]3C[C@@](C)(C(=O)O)CC[C@]3(C)CC[C@]21C

$$$$
