
     RDKit          3D

 49 51  0  0  0  0  0  0  0  0999 V2000
   -3.3216   -2.2744    2.3420 C   0  0  0  0  0  0  0  0  0  0  0  0
   -3.1925   -1.1006    2.6380 C   0  0  0  0  0  0  0  0  0  0  0  0
   -3.4201   -0.4821    3.7030 O   0  0  0  0  0  0  0  0  0  0  0  0
   -2.8401   -0.3141    1.4808 N   0  0  0  0  0  0  0  0  0  0  0  0
   -3.3613    1.1335    1.3984 C   0  0  1  0  0  0  0  0  0  0  0  0
   -2.0051    1.8485    0.5688 C   0  0  1  0  0  0  0  0  0  0  0  0
   -1.0605    0.7093    0.9014 O   0  0  0  0  0  0  0  0  0  0  0  0
   -0.1836    0.2968   -0.4459 P   0  0  1  0  0  0  0  0  0  0  0  0
   -0.8397   -0.3534   -1.5669 O   0  0  0  0  0  0  0  0  0  0  0  0
    0.7381    1.6764   -0.7580 O   0  0  0  0  0  0  0  0  0  0  0  0
    0.9735   -0.8475    0.0541 O   0  0  0  0  0  0  0  0  0  0  0  0
    1.8367   -1.0898   -1.3872 P   0  0  1  0  0  0  0  0  0  0  0  0
    0.9312   -1.6902   -2.4181 O   0  0  0  0  0  0  0  0  0  0  0  0
    2.3445    0.4288   -1.9727 O   0  0  0  0  0  0  0  0  0  0  0  0
    3.2016   -2.0417   -1.1366 O   0  0  0  0  0  0  0  0  0  0  0  0
    4.1169   -1.1480   -0.7342 C   0  0  0  0  0  0  0  0  0  0  0  0
    4.3893   -1.4467    0.8676 C   0  0  1  0  0  0  0  0  0  0  0  0
    5.8363   -1.4615    0.5934 O   0  0  0  0  0  0  0  0  0  0  0  0
    6.4539   -0.3280    1.3127 C   0  0  1  0  0  0  0  0  0  0  0  0
    7.6211   -0.2252    0.2452 N   0  0  0  0  0  0  0  0  0  0  0  0
    8.1718    0.9756    0.1064 C   0  0  0  0  0  0  0  0  0  0  0  0
    9.5586    0.9577   -0.0171 C   0  0  0  0  0  0  0  0  0  0  0  0
   10.2691   -0.2313   -0.0625 C   0  0  0  0  0  0  0  0  0  0  0  0
   11.4174   -0.3212    0.3856 O   0  0  0  0  0  0  0  0  0  0  0  0
    9.5519   -1.3531   -0.3101 N   0  0  0  0  0  0  0  0  0  0  0  0
    8.2246   -1.3410   -0.0853 C   0  0  0  0  0  0  0  0  0  0  0  0
    7.5067   -2.3762   -0.2302 O   0  0  0  0  0  0  0  0  0  0  0  0
    5.5023    0.7210    0.3613 C   0  0  2  0  0  0  0  0  0  0  0  0
    5.7428    1.8751    1.2863 O   0  0  0  0  0  0  0  0  0  0  0  0
    4.1422    0.2048    1.2220 C   0  0  2  0  0  0  0  0  0  0  0  0
    4.7734    0.0908    2.5821 O   0  0  0  0  0  0  0  0  0  0  0  0
   -2.2326    1.3633   -0.8469 O   0  0  0  0  0  0  0  0  0  0  0  0
   -3.2595    2.2477   -1.4962 C   0  0  2  0  0  0  0  0  0  0  0  0
   -2.2496    3.5151   -1.6945 C   0  0  0  0  0  0  0  0  0  0  0  0
   -1.7480    2.8593   -2.8584 O   0  0  0  0  0  0  0  0  0  0  0  0
   -3.8390    2.7416    0.0453 C   0  0  1  0  0  0  0  0  0  0  0  0
   -5.1388    3.3010   -0.4146 O   0  0  0  0  0  0  0  0  0  0  0  0
   -4.1742    1.0344   -0.0623 C   0  0  2  0  0  0  0  0  0  0  0  0
   -5.6295    1.0606    0.3199 O   0  0  0  0  0  0  0  0  0  0  0  0
   -5.5874    0.5563   -1.1615 C   0  0  2  0  0  0  0  0  0  0  0  0
   -6.7513    1.6065   -1.7163 C   0  0  0  0  0  0  0  0  0  0  0  0
   -6.5341   -0.7426   -0.9975 C   0  0  0  0  0  0  0  0  0  0  0  0
   -6.1464   -1.8611   -1.1303 O   0  0  0  0  0  0  0  0  0  0  0  0
   -7.8377   -0.6345   -1.4505 N   0  0  0  0  0  0  0  0  0  0  0  0
   -8.9526   -1.3439   -0.5839 C   0  0  1  0  0  0  0  0  0  0  0  0
   -8.3388   -2.8463   -0.8937 C   0  0  0  0  0  0  0  0  0  0  0  0
   -8.2253   -1.1028    0.8363 C   0  0  0  0  0  0  0  0  0  0  0  0
   -7.5153   -1.9426    1.3502 O   0  0  0  0  0  0  0  0  0  0  0  0
   -8.9196   -0.3044    1.7521 O   0  0  0  0  0  0  0  0  0  0  0  0
  1  2  1  0
  2  3  2  0
  2  4  1  0
  5  4  1  6
  5  6  1  0
  6  7  1  1
  8  7  1  1
  8  9  2  0
  8 10  1  0
  8 11  1  0
 12 11  1  1
 12 13  2  0
 12 14  1  0
 12 15  1  0
 15 16  1  0
 17 16  1  6
 17 18  1  0
 18 19  1  0
 19 20  1  6
 20 21  1  0
 21 22  2  0
 22 23  1  0
 23 24  2  0
 23 25  1  0
 25 26  1  0
 26 27  2  0
 19 28  1  0
 28 29  1  1
 28 30  1  0
 30 31  1  1
  6 32  1  0
 32 33  1  0
 33 34  1  1
 34 35  1  0
 33 36  1  0
 36 37  1  6
 36 38  1  0
 38 39  1  1
 40 39  1  1
 40 41  1  0
 40 42  1  0
 42 43  2  0
 42 44  1  0
 45 44  1  6
 45 46  1  0
 45 47  1  0
 47 48  2  0
 47 49  1  0
 38  5  1  0
 30 17  1  0
 26 20  1  0
M  END
>  <zinc_id>  (1) 
ZINC000085545647

>  <smiles>  (1) 
CC(=O)N[C@H]1[C@@H](O[P@@](=O)(O)O[P@@](=O)(O)OC[C@H]2O[C@@H](n3ccc(=O)[nH]c3=O)[C@H](O)[C@@H]2O)O[C@H](CO)[C@@H](O)[C@@H]1O[C@H](C)C(=O)N[C@@H](C)C(=O)O

$$$$
