
     RDKit          3D

 57 62  0  0  0  0  0  0  0  0999 V2000
  -12.6591   -0.9225   -0.1154 N   0  0  0  0  0  0  0  0  0  0  0  0
  -11.2925   -1.1047   -0.0038 C   0  0  0  0  0  0  0  0  0  0  0  0
  -10.8137   -2.0692    0.7992 N   0  0  0  0  0  0  0  0  0  0  0  0
   -9.4901   -2.2554    0.9661 C   0  0  0  0  0  0  0  0  0  0  0  0
   -8.6141   -1.3434    0.4927 N   0  0  0  0  0  0  0  0  0  0  0  0
   -9.0962   -0.3164   -0.2491 C   0  0  0  0  0  0  0  0  0  0  0  0
  -10.4018   -0.3161   -0.7332 C   0  0  0  0  0  0  0  0  0  0  0  0
  -10.5344    0.9160   -1.2913 N   0  0  0  0  0  0  0  0  0  0  0  0
   -9.3161    1.5123   -1.3400 C   0  0  0  0  0  0  0  0  0  0  0  0
   -8.4837    0.7824   -0.5603 N   0  0  0  0  0  0  0  0  0  0  0  0
   -7.3988    1.5763    0.2555 C   0  0  2  0  0  0  0  0  0  0  0  0
   -6.3375    0.5089    0.0416 O   0  0  0  0  0  0  0  0  0  0  0  0
   -5.4025    1.4418    0.7548 C   0  0  2  0  0  0  0  0  0  0  0  0
   -4.3022    0.2932    1.1490 C   0  0  0  0  0  0  0  0  0  0  0  0
   -4.4329   -0.7996    0.4193 O   0  0  0  0  0  0  0  0  0  0  0  0
   -3.8440   -1.0119   -1.0709 P   0  0  1  0  0  0  0  0  0  0  0  0
   -4.9324   -0.8123   -2.1154 O   0  0  0  0  0  0  0  0  0  0  0  0
   -2.5317   -0.1148   -1.5632 O   0  0  0  0  0  0  0  0  0  0  0  0
   -3.3715   -2.6504   -1.0987 O   0  0  0  0  0  0  0  0  0  0  0  0
   -1.9421   -2.8388   -0.2499 P   0  0  1  0  0  0  0  0  0  0  0  0
   -1.6878   -4.2738    0.1422 O   0  0  0  0  0  0  0  0  0  0  0  0
   -0.7521   -2.4903   -1.4232 O   0  0  0  0  0  0  0  0  0  0  0  0
   -1.8165   -1.7949    1.1011 O   0  0  0  0  0  0  0  0  0  0  0  0
   -0.5038   -0.8733    0.7825 P   0  0  0  0  0  0  0  0  0  0  0  0
    0.5447   -1.9330    0.4460 O   0  0  0  0  0  0  0  0  0  0  0  0
   -0.9262    0.1044   -0.5109 O   0  0  0  0  0  0  0  0  0  0  0  0
    0.3093    0.0331    1.8652 O   0  0  0  0  0  0  0  0  0  0  0  0
    1.6735    0.5524    0.9589 P   0  0  1  0  0  0  0  0  0  0  0  0
    1.2988    0.7591   -0.5045 O   0  0  0  0  0  0  0  0  0  0  0  0
    2.0676    2.0888    1.5250 O   0  0  0  0  0  0  0  0  0  0  0  0
    2.9094   -0.5309    0.9277 O   0  0  0  0  0  0  0  0  0  0  0  0
    3.7194   -0.8158   -0.4651 P   0  0  1  0  0  0  0  0  0  0  0  0
    4.9433   -1.6414   -0.0622 O   0  0  0  0  0  0  0  0  0  0  0  0
    2.9702   -1.8976   -1.5556 O   0  0  0  0  0  0  0  0  0  0  0  0
    4.1380    0.4270   -1.4436 O   0  0  0  0  0  0  0  0  0  0  0  0
    4.2590    1.6772   -0.9650 C   0  0  0  0  0  0  0  0  0  0  0  0
    5.4356    1.6853    0.1759 C   0  0  1  0  0  0  0  0  0  0  0  0
    6.3609    0.8168   -0.6463 O   0  0  0  0  0  0  0  0  0  0  0  0
    7.2260    1.0352    0.5829 C   0  0  1  0  0  0  0  0  0  0  0  0
    8.4691    0.3196   -0.0772 N   0  0  0  0  0  0  0  0  0  0  0  0
    8.3074   -0.9772   -0.4645 C   0  0  0  0  0  0  0  0  0  0  0  0
    9.5518   -1.4670   -0.6891 N   0  0  0  0  0  0  0  0  0  0  0  0
   10.3754   -0.7274    0.0768 C   0  0  0  0  0  0  0  0  0  0  0  0
    9.5848    0.2359    0.6927 C   0  0  0  0  0  0  0  0  0  0  0  0
   10.1295    0.8848    1.7184 N   0  0  0  0  0  0  0  0  0  0  0  0
   11.4437    0.7173    2.0072 C   0  0  0  0  0  0  0  0  0  0  0  0
   12.2655    0.0791    1.1389 N   0  0  0  0  0  0  0  0  0  0  0  0
   11.7610   -0.6266    0.0984 C   0  0  0  0  0  0  0  0  0  0  0  0
   12.5782   -1.0648   -0.9955 N   0  0  0  0  0  0  0  0  0  0  0  0
    7.7449    2.5794    0.0462 C   0  0  2  0  0  0  0  0  0  0  0  0
    7.6069    3.1110    1.4417 O   0  0  0  0  0  0  0  0  0  0  0  0
    6.2069    3.0229   -0.5537 C   0  0  2  0  0  0  0  0  0  0  0  0
    5.7849    3.9372    0.5604 O   0  0  0  0  0  0  0  0  0  0  0  0
   -6.1457    1.3126    2.2899 C   0  0  1  0  0  0  0  0  0  0  0  0
   -6.4898    2.7751    2.2231 O   0  0  0  0  0  0  0  0  0  0  0  0
   -7.6265    0.7149    1.7168 C   0  0  1  0  0  0  0  0  0  0  0  0
   -8.5200    1.7697    2.2957 O   0  0  0  0  0  0  0  0  0  0  0  0
  1  2  1  0
  2  3  2  0
  3  4  1  0
  4  5  2  0
  5  6  1  0
  6  7  2  0
  7  8  1  0
  8  9  2  0
  9 10  1  0
 11 10  1  6
 11 12  1  0
 12 13  1  0
 13 14  1  1
 14 15  1  0
 16 15  1  1
 16 17  2  0
 16 18  1  0
 16 19  1  0
 20 19  1  6
 20 21  2  0
 20 22  1  0
 20 23  1  0
 23 24  1  0
 24 25  2  0
 24 26  1  0
 24 27  1  0
 28 27  1  1
 28 29  2  0
 28 30  1  0
 28 31  1  0
 32 31  1  1
 32 33  2  0
 32 34  1  0
 32 35  1  0
 35 36  1  0
 37 36  1  6
 37 38  1  0
 38 39  1  0
 39 40  1  6
 40 41  1  0
 41 42  2  0
 42 43  1  0
 43 44  2  0
 44 45  1  0
 45 46  2  0
 46 47  1  0
 47 48  2  0
 48 49  1  0
 39 50  1  0
 50 51  1  1
 50 52  1  0
 52 53  1  1
 13 54  1  0
 54 55  1  6
 54 56  1  0
 56 57  1  1
  7  2  1  0
 56 11  1  0
 10  6  1  0
 52 37  1  0
 44 40  1  0
 48 43  1  0
M  END
>  <zinc_id>  (1) 
ZINC000096085195

>  <smiles>  (1) 
Nc1ncnc2c1ncn2[C@@H]1O[C@H](CO[P@](=O)(O)O[P@](=O)(O)OP(=O)(O)O[P@](=O)(O)O[P@](=O)(O)OC[C@H]2O[C@@H](n3cnc4c(N)ncnc43)[C@H](O)[C@@H]2O)[C@@H](O)[C@H]1O

$$$$
