193491
  -OEChem-10051720013D

 57 59  0     1  0  0  0  0  0999 V2000
   -1.7636    1.7750   -2.3937 P   0  0  1  0  0  0  0  0  0  0  0  0
   -0.7279   -0.9730   -2.5357 P   0  0  2  0  0  0  0  0  0  0  0  0
   -0.2824   -2.3682    0.0298 P   0  0  1  0  0  0  0  0  0  0  0  0
   -1.6317   -0.9719    2.2273 P   0  0  1  0  0  0  0  0  0  0  0  0
   -4.3187   -1.1948    1.0459 P   0  0  0  0  0  0  0  0  0  0  0  0
    0.0434    1.7925    0.6816 O   0  0  0  0  0  0  0  0  0  0  0  0
    3.1157    3.4716    1.4952 O   0  0  0  0  0  0  0  0  0  0  0  0
    0.7140    4.0360    2.6346 O   0  0  0  0  0  0  0  0  0  0  0  0
   -1.9437    2.7061   -1.0832 O   0  0  0  0  0  0  0  0  0  0  0  0
   -1.0605    0.4364   -1.8209 O   0  0  0  0  0  0  0  0  0  0  0  0
   -3.2740    1.2946   -2.7118 O   0  0  0  0  0  0  0  0  0  0  0  0
   -1.0525    2.4120   -3.5517 O   0  0  0  0  0  0  0  0  0  0  0  0
    0.1140   -1.7778   -1.4195 O   0  0  0  0  0  0  0  0  0  0  0  0
    0.3846   -0.5827   -3.6417 O   0  0  0  0  0  0  0  0  0  0  0  0
   -1.9189   -1.7117   -3.0712 O   0  0  0  0  0  0  0  0  0  0  0  0
   -0.9062   -1.0838    0.7866 O   0  0  0  0  0  0  0  0  0  0  0  0
   -1.5768   -3.2840   -0.2840 O   0  0  0  0  0  0  0  0  0  0  0  0
    0.8269   -3.0654    0.7603 O   0  0  0  0  0  0  0  0  0  0  0  0
   -3.0750   -1.6456    1.9676 O   0  0  0  0  0  0  0  0  0  0  0  0
   -0.8525   -2.0728    3.1180 O   0  0  0  0  0  0  0  0  0  0  0  0
   -1.6623    0.4107    2.8085 O   0  0  0  0  0  0  0  0  0  0  0  0
   -5.4796   -2.2555    1.4227 O   0  0  0  0  0  0  0  0  0  0  0  0
   -4.8303    0.1678    1.7506 O   0  0  0  0  0  0  0  0  0  0  0  0
   -4.0308   -1.0735   -0.4212 O   0  0  0  0  0  0  0  0  0  0  0  0
    2.1157    0.7841    0.1163 N   0  0  0  0  0  0  0  0  0  0  0  0
    2.8434   -0.2221   -1.7350 N   0  0  0  0  0  0  0  0  0  0  0  0
    2.9653   -0.7575    1.7902 N   0  0  0  0  0  0  0  0  0  0  0  0
    4.1681   -2.6128    0.7571 N   0  0  0  0  0  0  0  0  0  0  0  0
    4.4326   -2.8115   -1.6131 N   0  0  0  0  0  0  0  0  0  0  0  0
    1.9475    3.1992    0.7486 C   0  0  2  0  0  0  0  0  0  0  0  0
    0.7481    4.0046    1.2078 C   0  0  1  0  0  0  0  0  0  0  0  0
    1.4561    1.7756    0.9630 C   0  0  1  0  0  0  0  0  0  0  0  0
   -0.4206    3.1622    0.7063 C   0  0  1  0  0  0  0  0  0  0  0  0
   -0.8673    3.5432   -0.6982 C   0  0  0  0  0  0  0  0  0  0  0  0
    2.7799   -0.3351    0.5306 C   0  0  0  0  0  0  0  0  0  0  0  0
    2.1807    0.8079   -1.2516 C   0  0  0  0  0  0  0  0  0  0  0  0
    3.2238   -0.9447   -0.6321 C   0  0  0  0  0  0  0  0  0  0  0  0
    3.9429   -2.1268   -0.4874 C   0  0  0  0  0  0  0  0  0  0  0  0
    3.6726   -1.9084    1.8031 C   0  0  0  0  0  0  0  0  0  0  0  0
    2.1528    3.4072   -0.3073 H   0  0  0  0  0  0  0  0  0  0  0  0
    0.7551    5.0382    0.8500 H   0  0  0  0  0  0  0  0  0  0  0  0
    1.5886    1.4592    2.0045 H   0  0  0  0  0  0  0  0  0  0  0  0
   -1.2775    3.1897    1.3888 H   0  0  0  0  0  0  0  0  0  0  0  0
   -1.2186    4.5793   -0.7234 H   0  0  0  0  0  0  0  0  0  0  0  0
   -0.0411    3.4459   -1.4096 H   0  0  0  0  0  0  0  0  0  0  0  0
    3.2995    4.4227    1.4118 H   0  0  0  0  0  0  0  0  0  0  0  0
   -0.0900    4.5173    2.8947 H   0  0  0  0  0  0  0  0  0  0  0  0
    1.7270    1.5904   -1.8441 H   0  0  0  0  0  0  0  0  0  0  0  0
    3.8702   -2.3271    2.7841 H   0  0  0  0  0  0  0  0  0  0  0  0
    4.2654   -2.4512   -2.5428 H   0  0  0  0  0  0  0  0  0  0  0  0
    4.9524   -3.6687   -1.4820 H   0  0  0  0  0  0  0  0  0  0  0  0
   -3.8835    1.9143   -3.1665 H   0  0  0  0  0  0  0  0  0  0  0  0
    0.0945   -0.1599   -4.4778 H   0  0  0  0  0  0  0  0  0  0  0  0
   -1.9751   -3.8078    0.4435 H   0  0  0  0  0  0  0  0  0  0  0  0
    0.0406   -1.8585    3.4625 H   0  0  0  0  0  0  0  0  0  0  0  0
   -6.3251   -2.2300    0.9261 H   0  0  0  0  0  0  0  0  0  0  0  0
   -5.5385    0.6895    1.3166 H   0  0  0  0  0  0  0  0  0  0  0  0
  1  9  1  0  0  0  0
  1 10  1  0  0  0  0
  1 11  1  0  0  0  0
  1 12  2  0  0  0  0
  2 10  1  0  0  0  0
  2 13  1  0  0  0  0
  2 14  1  0  0  0  0
  2 15  2  0  0  0  0
  3 13  1  0  0  0  0
  3 16  1  0  0  0  0
  3 17  1  0  0  0  0
  3 18  2  0  0  0  0
  4 16  1  0  0  0  0
  4 19  1  0  0  0  0
  4 20  1  0  0  0  0
  4 21  2  0  0  0  0
  5 19  1  0  0  0  0
  5 22  1  0  0  0  0
  5 23  1  0  0  0  0
  5 24  2  0  0  0  0
  6 32  1  0  0  0  0
  6 33  1  0  0  0  0
  7 30  1  0  0  0  0
  7 46  1  0  0  0  0
  8 31  1  0  0  0  0
  8 47  1  0  0  0  0
  9 34  1  0  0  0  0
 11 52  1  0  0  0  0
 14 53  1  0  0  0  0
 17 54  1  0  0  0  0
 20 55  1  0  0  0  0
 22 56  1  0  0  0  0
 23 57  1  0  0  0  0
 25 32  1  0  0  0  0
 25 35  1  0  0  0  0
 25 36  1  0  0  0  0
 26 36  2  0  0  0  0
 26 37  1  0  0  0  0
 27 35  2  0  0  0  0
 27 39  1  0  0  0  0
 28 38  1  0  0  0  0
 28 39  2  0  0  0  0
 29 38  1  0  0  0  0
 29 50  1  0  0  0  0
 29 51  1  0  0  0  0
 30 31  1  0  0  0  0
 30 32  1  0  0  0  0
 30 40  1  0  0  0  0
 31 33  1  0  0  0  0
 31 41  1  0  0  0  0
 32 42  1  0  0  0  0
 33 34  1  0  0  0  0
 33 43  1  0  0  0  0
 34 44  1  0  0  0  0
 34 45  1  0  0  0  0
 35 37  1  0  0  0  0
 36 48  1  0  0  0  0
 37 38  2  0  0  0  0
 39 49  1  0  0  0  0
M  END
> <DATABASE_ID>
DB02738

> <DATABASE_NAME>
drugbank

> <ORIGINAL_SOURCE>
PUBCHEM

> <ORIGINAL_SOURCE_URL>
https://pubchem.ncbi.nlm.nih.gov/rest/pug/compound/inchikey/WYJWVZZCMBUPSP-KQYNXXCUSA-N/SDF?record_type=3d

> <SMILES>
NC1=C2N=CN([C@@H]3O[C@H](CO[P@@](O)(=O)O[P@](O)(=O)O[P@@](O)(=O)O[P@@](O)(=O)OP(O)(O)=O)[C@@H](O)[C@H]3O)C2=NC=N1

> <INCHI_IDENTIFIER>
InChI=1S/C10H18N5O19P5/c11-8-5-9(13-2-12-8)15(3-14-5)10-7(17)6(16)4(30-10)1-29-36(21,22)32-38(25,26)34-39(27,28)33-37(23,24)31-35(18,19)20/h2-4,6-7,10,16-17H,1H2,(H,21,22)(H,23,24)(H,25,26)(H,27,28)(H2,11,12,13)(H2,18,19,20)/t4-,6-,7-,10-/m1/s1

> <INCHI_KEY>
WYJWVZZCMBUPSP-KQYNXXCUSA-N

> <FORMULA>
C10H18N5O19P5

> <MOLECULAR_WEIGHT>
667.1408

> <EXACT_MASS>
666.928405979

> <JCHEM_ACCEPTOR_COUNT>
18

> <JCHEM_ATOM_COUNT>
57

> <JCHEM_AVERAGE_NEUTRAL_MICROSPECIES_CHARGE>
-5.423275712400678

> <JCHEM_AVERAGE_POLARIZABILITY>
47.668165225624705

> <JCHEM_BIOAVAILABILITY>
0

> <JCHEM_DONOR_COUNT>
9

> <JCHEM_FORMAL_CHARGE>
0

> <JCHEM_GHOSE_FILTER>
0

> <JCHEM_IUPAC>
[({[({[({[(2R,3S,4R,5R)-5-(6-amino-9H-purin-9-yl)-3,4-dihydroxyoxolan-2-yl]methoxy}(hydroxy)phosphoryl)oxy](hydroxy)phosphoryl}oxy)(hydroxy)phosphoryl]oxy}(hydroxy)phosphoryl)oxy]phosphonic acid

> <ALOGPS_LOGP>
0.44

> <JCHEM_LOGP>
-6.051884258869479

> <ALOGPS_LOGS>
-2.08

> <JCHEM_MDDR_LIKE_RULE>
1

> <JCHEM_NEUTRAL_CHARGE>
-5

> <JCHEM_NUMBER_OF_RINGS>
3

> <JCHEM_PHYSIOLOGICAL_CHARGE>
-6

> <JCHEM_PKA>
0.40599295708872307

> <JCHEM_PKA_STRONGEST_ACIDIC>
0.2213967411170631

> <JCHEM_PKA_STRONGEST_BASIC>
4.932081463069185

> <JCHEM_POLAR_SURFACE_AREA>
372.18999999999994

> <JCHEM_REFRACTIVITY>
117.56009999999998

> <JCHEM_ROTATABLE_BOND_COUNT>
12

> <JCHEM_RULE_OF_FIVE>
0

> <ALOGPS_SOLUBILITY>
5.58e+00 g/l

> <JCHEM_TRADITIONAL_IUPAC>
tetrahydrofolic acid

> <JCHEM_VEBER_RULE>
0

$$$$
