
     RDKit          3D

 52 57  0  0  0  0  0  0  0  0999 V2000
   -8.1711    2.1318   -2.3792 C   0  0  0  0  0  0  0  0  0  0  0  0
   -7.9943    1.5310   -1.0837 N   0  0  0  0  0  0  0  0  0  0  0  0
   -6.8351    0.8729   -0.8299 C   0  0  0  0  0  0  0  0  0  0  0  0
   -6.9872    0.2600    0.3089 N   0  0  0  0  0  0  0  0  0  0  0  0
   -6.0056   -0.9073    0.8330 C   0  0  2  0  0  0  0  0  0  0  0  0
   -4.7481   -0.2072    0.2542 O   0  0  0  0  0  0  0  0  0  0  0  0
   -3.9317   -1.3601    0.8209 C   0  0  2  0  0  0  0  0  0  0  0  0
   -2.6448   -1.1480   -0.2331 C   0  0  0  0  0  0  0  0  0  0  0  0
   -3.0276   -0.3384   -1.2326 O   0  0  0  0  0  0  0  0  0  0  0  0
   -2.1652    1.1248   -1.0952 P   0  0  1  0  0  0  0  0  0  0  0  0
   -2.7035    2.1636   -2.0697 O   0  0  0  0  0  0  0  0  0  0  0  0
   -2.3802    1.7681    0.4455 O   0  0  0  0  0  0  0  0  0  0  0  0
   -0.5303    0.7652   -1.4093 O   0  0  0  0  0  0  0  0  0  0  0  0
    0.2813    0.9302    0.0322 P   0  0  1  0  0  0  0  0  0  0  0  0
    0.8131    2.3442    0.0851 O   0  0  0  0  0  0  0  0  0  0  0  0
   -0.6297    0.5424    1.4055 O   0  0  0  0  0  0  0  0  0  0  0  0
    1.6586   -0.0645    0.1407 O   0  0  0  0  0  0  0  0  0  0  0  0
    2.2306    0.2366    1.7147 P   0  0  1  0  0  0  0  0  0  0  0  0
    1.8076    1.6009    2.2160 O   0  0  0  0  0  0  0  0  0  0  0  0
    1.6285   -0.9211    2.8082 O   0  0  0  0  0  0  0  0  0  0  0  0
    3.8876    0.2030    1.6405 O   0  0  0  0  0  0  0  0  0  0  0  0
    4.5562    1.1759    2.3106 C   0  0  0  0  0  0  0  0  0  0  0  0
    5.8464    1.6290    1.3539 C   0  0  1  0  0  0  0  0  0  0  0  0
    6.0271    0.2243    0.7631 O   0  0  0  0  0  0  0  0  0  0  0  0
    7.1127    1.0795    0.0526 C   0  0  1  0  0  0  0  0  0  0  0  0
    7.6410   -0.1327   -0.8629 N   0  0  0  0  0  0  0  0  0  0  0  0
    6.8936   -1.0736   -1.3499 C   0  0  0  0  0  0  0  0  0  0  0  0
    7.6935   -2.1580   -1.5452 N   0  0  0  0  0  0  0  0  0  0  0  0
    8.8375   -2.0088   -0.8659 C   0  0  0  0  0  0  0  0  0  0  0  0
    8.8562   -0.6501   -0.5670 C   0  0  0  0  0  0  0  0  0  0  0  0
    9.9847   -0.0613   -0.1025 N   0  0  0  0  0  0  0  0  0  0  0  0
   11.0064   -0.8936    0.2159 C   0  0  0  0  0  0  0  0  0  0  0  0
   12.3301   -0.3456    0.1981 N   0  0  0  0  0  0  0  0  0  0  0  0
   10.7390   -2.1838    0.4268 N   0  0  0  0  0  0  0  0  0  0  0  0
    9.7164   -2.8325   -0.1724 C   0  0  0  0  0  0  0  0  0  0  0  0
    9.3254   -3.9804    0.1616 O   0  0  0  0  0  0  0  0  0  0  0  0
    5.9407    1.5467   -1.1579 C   0  0  2  0  0  0  0  0  0  0  0  0
    6.6484    2.8674   -1.3693 O   0  0  0  0  0  0  0  0  0  0  0  0
    4.8043    2.0706    0.0341 C   0  0  2  0  0  0  0  0  0  0  0  0
    5.2709    3.5105    0.1291 O   0  0  0  0  0  0  0  0  0  0  0  0
   -4.6159   -2.5988   -0.1973 C   0  0  1  0  0  0  0  0  0  0  0  0
   -5.3291   -3.1665    1.0254 O   0  0  0  0  0  0  0  0  0  0  0  0
   -5.9620   -1.6814   -0.7380 C   0  0  1  0  0  0  0  0  0  0  0  0
   -7.0132   -2.7172   -0.3831 O   0  0  0  0  0  0  0  0  0  0  0  0
   -8.2959    0.1396    0.5709 C   0  0  0  0  0  0  0  0  0  0  0  0
   -9.0333   -0.3556    1.5699 N   0  0  0  0  0  0  0  0  0  0  0  0
  -10.3836   -0.3673    1.4777 C   0  0  0  0  0  0  0  0  0  0  0  0
  -11.2089   -0.6148    2.6209 N   0  0  0  0  0  0  0  0  0  0  0  0
  -10.9447   -0.1204    0.2682 N   0  0  0  0  0  0  0  0  0  0  0  0
  -10.2797    0.5663   -0.6934 C   0  0  0  0  0  0  0  0  0  0  0  0
  -10.7487    0.7005   -1.8658 O   0  0  0  0  0  0  0  0  0  0  0  0
   -8.9678    0.9041   -0.3779 C   0  0  0  0  0  0  0  0  0  0  0  0
  1  2  1  0
  2  3  2  0
  3  4  1  0
  5  4  1  6
  5  6  1  0
  6  7  1  0
  7  8  1  6
  8  9  1  0
 10  9  1  1
 10 11  2  0
 10 12  1  0
 10 13  1  0
 14 13  1  6
 14 15  2  0
 14 16  1  0
 14 17  1  0
 18 17  1  6
 18 19  2  0
 18 20  1  0
 18 21  1  0
 21 22  1  0
 23 22  1  1
 23 24  1  0
 24 25  1  0
 25 26  1  6
 26 27  1  0
 27 28  2  0
 28 29  1  0
 29 30  2  0
 30 31  1  0
 31 32  2  0
 32 33  1  0
 32 34  1  0
 34 35  1  0
 35 36  2  0
 25 37  1  0
 37 38  1  6
 37 39  1  0
 39 40  1  6
  7 41  1  0
 41 42  1  1
 41 43  1  0
 43 44  1  1
  4 45  1  0
 45 46  1  0
 46 47  2  0
 47 48  1  0
 47 49  1  0
 49 50  1  0
 50 51  2  0
 50 52  1  0
 52  2  1  0
 43  5  1  0
 52 45  2  0
 39 23  1  0
 30 26  1  0
 35 29  1  0
M  CHG  1   2   1
M  END
>  <zinc_id>  (1) 
ZINC000085547903

>  <smiles>  (1) 
C[n+]1cn([C@@H]2O[C@H](CO[P@@](=O)(O)O[P@@](=O)(O)O[P@@](=O)(O)OC[C@H]3O[C@@H](n4cnc5c(=O)[nH]c(N)nc54)[C@H](O)[C@@H]3O)[C@@H](O)[C@H]2O)c2nc(N)[nH]c(=O)c21

$$$$
