
     RDKit          3D

 49 51  0  0  0  0  0  0  0  0999 V2000
   -3.8728    4.1679    1.2363 C   0  0  0  0  0  0  0  0  0  0  0  0
   -4.3124    3.1159    0.4960 C   0  0  0  0  0  0  0  0  0  0  0  0
   -5.5053    3.1305    0.0854 O   0  0  0  0  0  0  0  0  0  0  0  0
   -3.6032    1.9001    0.5282 N   0  0  0  0  0  0  0  0  0  0  0  0
   -4.0567    0.7794   -0.4341 C   0  0  1  0  0  0  0  0  0  0  0  0
   -2.4566    0.6269   -1.0416 C   0  0  1  0  0  0  0  0  0  0  0  0
   -1.8341    0.1519    0.2688 O   0  0  0  0  0  0  0  0  0  0  0  0
   -0.1910    0.2625    0.0833 P   0  0  1  0  0  0  0  0  0  0  0  0
    0.2753   -0.5930   -1.0725 O   0  0  0  0  0  0  0  0  0  0  0  0
    0.2317    1.8539   -0.2329 O   0  0  0  0  0  0  0  0  0  0  0  0
    0.4391   -0.2857    1.5679 O   0  0  0  0  0  0  0  0  0  0  0  0
    1.6642   -1.3845    1.1350 P   0  0  1  0  0  0  0  0  0  0  0  0
    2.5285   -1.7688    2.2913 O   0  0  0  0  0  0  0  0  0  0  0  0
    0.9228   -2.6909    0.3829 O   0  0  0  0  0  0  0  0  0  0  0  0
    2.5214   -0.5109   -0.0546 O   0  0  0  0  0  0  0  0  0  0  0  0
    3.8332   -0.6664    0.2973 C   0  0  0  0  0  0  0  0  0  0  0  0
    4.4037    0.8323    0.6754 C   0  0  1  0  0  0  0  0  0  0  0  0
    5.7668    0.2651    0.8468 O   0  0  0  0  0  0  0  0  0  0  0  0
    6.5888    1.3050    0.1436 C   0  0  1  0  0  0  0  0  0  0  0  0
    7.8718    0.3963    0.2774 N   0  0  0  0  0  0  0  0  0  0  0  0
    8.4568    0.4524    1.4996 C   0  0  0  0  0  0  0  0  0  0  0  0
    9.7539   -0.0453    1.5611 C   0  0  0  0  0  0  0  0  0  0  0  0
   10.4139   -0.2634    0.3559 C   0  0  0  0  0  0  0  0  0  0  0  0
   11.6488   -0.0025    0.2179 O   0  0  0  0  0  0  0  0  0  0  0  0
    9.6550   -0.5977   -0.7184 N   0  0  0  0  0  0  0  0  0  0  0  0
    8.3552   -0.2146   -0.7729 C   0  0  0  0  0  0  0  0  0  0  0  0
    7.4742   -0.8768   -1.4030 O   0  0  0  0  0  0  0  0  0  0  0  0
    5.9925    0.5367   -1.2620 C   0  0  2  0  0  0  0  0  0  0  0  0
    6.4553    1.6564   -2.1449 O   0  0  0  0  0  0  0  0  0  0  0  0
    4.4793    1.2357   -0.9804 C   0  0  2  0  0  0  0  0  0  0  0  0
    4.9471    2.6270   -0.6496 O   0  0  0  0  0  0  0  0  0  0  0  0
   -2.7669   -0.7237   -1.6680 O   0  0  0  0  0  0  0  0  0  0  0  0
   -2.5503   -1.7134   -0.5717 C   0  0  2  0  0  0  0  0  0  0  0  0
   -2.7358   -2.9708   -1.6064 C   0  0  0  0  0  0  0  0  0  0  0  0
   -1.6284   -3.7430   -1.2220 O   0  0  0  0  0  0  0  0  0  0  0  0
   -4.2247   -1.7138   -0.2132 C   0  0  1  0  0  0  0  0  0  0  0  0
   -3.9821   -2.6711    0.9118 O   0  0  0  0  0  0  0  0  0  0  0  0
   -3.9581   -0.3732    0.8021 C   0  0  2  0  0  0  0  0  0  0  0  0
   -5.3851   -0.1882    1.1641 O   0  0  0  0  0  0  0  0  0  0  0  0
   -6.3099   -0.5033    0.3033 C   0  0  1  0  0  0  0  0  0  0  0  0
   -7.5469    0.2222    0.8771 C   0  0  0  0  0  0  0  0  0  0  0  0
   -6.2898   -0.0988   -0.9953 O   0  0  0  0  0  0  0  0  0  0  0  0
   -7.2847    1.1751   -1.4025 P   0  0  0  0  0  0  0  0  0  0  0  0
   -6.7537    1.7695   -2.7019 O   0  0  0  0  0  0  0  0  0  0  0  0
   -8.8214    0.5692   -1.7251 O   0  0  0  0  0  0  0  0  0  0  0  0
   -7.2917    2.4414   -0.3049 O   0  0  0  0  0  0  0  0  0  0  0  0
   -6.8467   -1.9067    0.3347 C   0  0  0  0  0  0  0  0  0  0  0  0
   -7.3181   -2.3497    1.4261 O   0  0  0  0  0  0  0  0  0  0  0  0
   -7.1529   -2.6172   -0.8050 O   0  0  0  0  0  0  0  0  0  0  0  0
  1  2  1  0
  2  3  2  0
  2  4  1  0
  5  4  1  1
  5  6  1  0
  6  7  1  1
  8  7  1  1
  8  9  2  0
  8 10  1  0
  8 11  1  0
 12 11  1  1
 12 13  2  0
 12 14  1  0
 12 15  1  0
 15 16  1  0
 17 16  1  6
 17 18  1  0
 18 19  1  0
 19 20  1  1
 20 21  1  0
 21 22  2  0
 22 23  1  0
 23 24  2  0
 23 25  1  0
 25 26  1  0
 26 27  2  0
 19 28  1  0
 28 29  1  6
 28 30  1  0
 30 31  1  1
  6 32  1  0
 32 33  1  0
 33 34  1  6
 34 35  1  0
 33 36  1  0
 36 37  1  1
 36 38  1  0
 38 39  1  1
 40 39  1  1
 40 41  1  0
 40 42  1  0
 42 43  1  0
 43 44  2  0
 43 45  1  0
 43 46  1  0
 40 47  1  0
 47 48  2  0
 47 49  1  0
 38  5  1  0
 30 17  1  0
 26 20  1  0
M  END
>  <zinc_id>  (1) 
ZINC000095543621

>  <smiles>  (1) 
CC(=O)N[C@H]1[C@@H](O[P@@](=O)(O)O[P@@](=O)(O)OC[C@H]2O[C@@H](n3ccc(=O)[nH]c3=O)[C@H](O)[C@@H]2O)O[C@H](CO)[C@@H](O)[C@@H]1O[C@@](C)(OP(=O)(O)O)C(=O)O

$$$$
