
     RDKit          3D

 51 55  0  0  0  0  0  0  0  0999 V2000
   -7.7282    3.0826    0.6708 C   0  0  0  0  0  0  0  0  0  0  0  0
   -8.9357    2.3028   -0.1235 C   0  0  1  0  0  0  0  0  0  0  0  0
   -8.1586    2.3947   -1.5499 C   0  0  0  0  0  0  0  0  0  0  0  0
   -8.1786    1.1204   -2.1593 C   0  0  0  0  0  0  0  0  0  0  0  0
   -9.0273    0.1138   -1.1544 C   0  0  1  0  0  0  0  0  0  0  0  0
   -7.9584   -0.9875   -1.2637 O   0  0  0  0  0  0  0  0  0  0  0  0
   -8.2660    0.7701    0.2660 C   0  0  1  0  0  0  0  0  0  0  0  0
   -6.8689    1.0010   -0.3829 N   0  0  0  0  0  0  0  0  0  0  0  0
   -5.7346    0.4235    0.2797 C   0  0  0  0  0  0  0  0  0  0  0  0
   -5.6833    0.7948    1.4908 O   0  0  0  0  0  0  0  0  0  0  0  0
   -4.4843    0.9811   -0.6155 C   0  0  2  0  0  0  0  0  0  0  0  0
   -4.2360   -0.4471   -1.4167 C   0  0  0  0  0  0  0  0  0  0  0  0
   -4.6881   -1.5462   -0.6026 C   0  0  0  0  0  0  0  0  0  0  0  0
   -4.2930   -1.8755    0.6775 C   0  0  0  0  0  0  0  0  0  0  0  0
   -4.5510   -3.0748    1.2831 C   0  0  0  0  0  0  0  0  0  0  0  0
   -4.8892   -4.1441    0.4807 C   0  0  0  0  0  0  0  0  0  0  0  0
   -5.2150   -3.8901   -0.8433 C   0  0  0  0  0  0  0  0  0  0  0  0
   -5.2774   -2.6008   -1.2953 C   0  0  0  0  0  0  0  0  0  0  0  0
   -3.3080    0.6105    0.5038 C   0  0  0  0  0  0  0  0  0  0  0  0
   -2.1281    1.2237   -0.5299 C   0  0  2  0  0  0  0  0  0  0  0  0
   -1.4151   -0.1466   -0.6010 O   0  0  0  0  0  0  0  0  0  0  0  0
   -1.1677    1.6961    0.7644 C   0  0  0  0  0  0  0  0  0  0  0  0
    0.0216    2.1680    0.1142 N   0  0  0  0  0  0  0  0  0  0  0  0
   -0.1128    2.4547   -1.2709 C   0  0  0  0  0  0  0  0  0  0  0  0
    0.6474    1.6232   -2.2287 C   0  0  0  0  0  0  0  0  0  0  0  0
    2.0432    1.3868   -1.8582 N   0  0  0  0  0  0  0  0  0  0  0  0
    2.5584    0.0825   -2.1782 C   0  0  0  0  0  0  0  0  0  0  0  0
    1.8785   -0.7802   -2.7997 O   0  0  0  0  0  0  0  0  0  0  0  0
    3.8877   -0.2858   -1.6585 C   0  0  0  0  0  0  0  0  0  0  0  0
    4.0303   -0.8507   -0.3957 C   0  0  0  0  0  0  0  0  0  0  0  0
    5.0620   -0.5439    0.4283 N   0  0  0  0  0  0  0  0  0  0  0  0
    6.1571    0.0465   -0.1098 C   0  0  0  0  0  0  0  0  0  0  0  0
    7.4876   -0.3069    0.2827 N   0  0  0  0  0  0  0  0  0  0  0  0
    8.4120   -0.9719   -0.6312 C   0  0  0  0  0  0  0  0  0  0  0  0
    9.7617   -0.2948   -0.4104 C   0  0  0  0  0  0  0  0  0  0  0  0
   10.2534   -0.6939    0.8998 N   0  0  0  0  0  0  0  0  0  0  0  0
   10.2141   -2.1520    0.9846 C   0  0  0  0  0  0  0  0  0  0  0  0
    9.3300   -0.2072    1.9165 C   0  0  0  0  0  0  0  0  0  0  0  0
    8.1211    0.4629    1.3460 C   0  0  0  0  0  0  0  0  0  0  0  0
    6.0573    0.6149   -1.3749 C   0  0  0  0  0  0  0  0  0  0  0  0
    7.2281    1.8848   -1.7262 Cl  0  0  0  0  0  0  0  0  0  0  0  0
    4.8390    0.6379   -1.9524 N   0  0  0  0  0  0  0  0  0  0  0  0
    2.2355    1.6778   -0.4299 C   0  0  0  0  0  0  0  0  0  0  0  0
    0.8764    0.8144    0.0513 C   0  0  1  0  0  0  0  0  0  0  0  0
    1.2092    0.8786    1.6592 C   0  0  0  0  0  0  0  0  0  0  0  0
    2.3263    1.2273    1.9965 O   0  0  0  0  0  0  0  0  0  0  0  0
    0.7355   -0.3453    2.2426 N   0  0  0  0  0  0  0  0  0  0  0  0
    1.5176   -1.2728    2.9996 C   0  0  0  0  0  0  0  0  0  0  0  0
    1.0193   -2.6715    2.6458 C   0  0  0  0  0  0  0  0  0  0  0  0
    1.3931   -1.1497    4.4845 C   0  0  0  0  0  0  0  0  0  0  0  0
    3.0017   -1.2363    2.6688 C   0  0  0  0  0  0  0  0  0  0  0  0
  2  1  1  1
  2  3  1  0
  3  4  1  0
  4  5  1  0
  5  6  1  6
  5  7  1  0
  7  8  1  6
  8  9  1  0
  9 10  2  0
 11  9  1  1
 11 12  1  0
 12 13  1  0
 13 14  2  0
 14 15  1  0
 15 16  2  0
 16 17  1  0
 17 18  2  0
 11 19  1  0
 20 19  1  1
 20 21  1  0
 20 22  1  0
 22 23  1  0
 23 24  1  0
 24 25  1  0
 25 26  1  0
 26 27  1  0
 27 28  2  0
 27 29  1  0
 29 30  2  0
 30 31  1  0
 31 32  2  0
 32 33  1  0
 33 34  1  0
 34 35  1  0
 35 36  1  0
 36 37  1  0
 36 38  1  0
 38 39  1  0
 32 40  1  0
 40 41  1  0
 40 42  2  0
 26 43  1  0
 43 44  1  0
 44 45  1  1
 45 46  2  0
 45 47  1  0
 47 48  1  0
 48 49  1  0
 48 50  1  0
 48 51  1  0
  7  2  1  0
 18 13  1  0
 44 23  1  0
 42 29  1  0
 39 33  1  0
M  END
>  <zinc_id>  (1) 
ZINC000024447263

>  <smiles>  (1) 
C[C@H]1CC[C@@H](O)[C@H]1NC(=O)[C@H](Cc1ccccc1)C[C@H](O)CN1CCN(C(=O)c2cnc(N3CCN(C)CC3)c(Cl)n2)C[C@H]1C(=O)NC(C)(C)C

$$$$
