11569967
  -OEChem-09151814043D

 63 67  0     1  0  0  0  0  0999 V2000
    5.6516    1.5521    0.5918 F   0  0  0  0  0  0  0  0  0  0  0  0
    3.9501   -1.5451   -2.3200 O   0  0  0  0  0  0  0  0  0  0  0  0
    3.6462   -0.3453    0.6621 N   0  0  0  0  0  0  0  0  0  0  0  0
    2.1445   -0.1189   -2.3178 N   0  0  0  0  0  0  0  0  0  0  0  0
    2.0342    1.3726    0.3261 N   0  0  0  0  0  0  0  0  0  0  0  0
   -4.3620    0.2740   -0.0535 N   0  0  0  0  0  0  0  0  0  0  0  0
   -6.9211   -0.9754   -0.2757 N   0  0  0  0  0  0  0  0  0  0  0  0
    2.7487    3.6636    0.1066 N   0  0  0  0  0  0  0  0  0  0  0  0
    0.4750    3.0949   -0.0037 N   0  0  0  0  0  0  0  0  0  0  0  0
    3.2486   -2.6763    1.3603 C   0  0  2  0  0  0  0  0  0  0  0  0
    2.6356   -3.4003   -0.6667 C   0  0  1  0  0  0  0  0  0  0  0  0
    2.6572   -1.3980    0.7106 C   0  0  2  0  0  0  0  0  0  0  0  0
    2.2253   -1.9052   -0.7031 C   0  0  1  0  0  0  0  0  0  0  0  0
    3.9239   -3.3565    0.1639 C   0  0  0  0  0  0  0  0  0  0  0  0
    2.1121   -3.6547    1.5583 C   0  0  0  0  0  0  0  0  0  0  0  0
    1.7455   -4.0897    0.3430 C   0  0  0  0  0  0  0  0  0  0  0  0
    2.8678   -1.1933   -1.8568 C   0  0  0  0  0  0  0  0  0  0  0  0
    3.3359    0.9915    0.4756 C   0  0  0  0  0  0  0  0  0  0  0  0
    4.3748    1.9214    0.4459 C   0  0  0  0  0  0  0  0  0  0  0  0
    1.8190    2.6903    0.1502 C   0  0  0  0  0  0  0  0  0  0  0  0
    4.0215    3.2423    0.2585 C   0  0  0  0  0  0  0  0  0  0  0  0
   -4.5863   -0.7662   -1.0621 C   0  0  0  0  0  0  0  0  0  0  0  0
   -5.5650    0.9711    0.4187 C   0  0  0  0  0  0  0  0  0  0  0  0
   -5.7003   -1.7162   -0.6156 C   0  0  0  0  0  0  0  0  0  0  0  0
   -6.6466   -0.0353    0.8182 C   0  0  0  0  0  0  0  0  0  0  0  0
   -3.1480    0.9696   -0.0318 C   0  0  0  0  0  0  0  0  0  0  0  0
   -2.0698    0.5006    0.7190 C   0  0  0  0  0  0  0  0  0  0  0  0
   -0.7387    2.3827   -0.0128 C   0  0  0  0  0  0  0  0  0  0  0  0
   -7.9936   -1.8970    0.0973 C   0  0  0  0  0  0  0  0  0  0  0  0
   -3.0227    2.1448   -0.7727 C   0  0  0  0  0  0  0  0  0  0  0  0
   -0.8666    1.2062    0.7284 C   0  0  0  0  0  0  0  0  0  0  0  0
   -1.8195    2.8507   -0.7632 C   0  0  0  0  0  0  0  0  0  0  0  0
   -2.1772   -0.7552    1.5216 C   0  0  0  0  0  0  0  0  0  0  0  0
    3.8918   -2.5351    2.2303 H   0  0  0  0  0  0  0  0  0  0  0  0
    2.7277   -3.9149   -1.6245 H   0  0  0  0  0  0  0  0  0  0  0  0
    1.7835   -1.0689    1.2888 H   0  0  0  0  0  0  0  0  0  0  0  0
    1.1342   -1.8247   -0.8084 H   0  0  0  0  0  0  0  0  0  0  0  0
    4.7303   -2.7646   -0.2782 H   0  0  0  0  0  0  0  0  0  0  0  0
    4.3204   -4.3532    0.3999 H   0  0  0  0  0  0  0  0  0  0  0  0
    1.6475   -3.9091    2.4973 H   0  0  0  0  0  0  0  0  0  0  0  0
    0.9304   -4.7595    0.1210 H   0  0  0  0  0  0  0  0  0  0  0  0
    4.6164   -0.6106    0.5276 H   0  0  0  0  0  0  0  0  0  0  0  0
    1.2589    0.1589   -1.9068 H   0  0  0  0  0  0  0  0  0  0  0  0
    2.4825    0.4438   -3.0914 H   0  0  0  0  0  0  0  0  0  0  0  0
   -4.8500   -0.2956   -2.0179 H   0  0  0  0  0  0  0  0  0  0  0  0
   -3.6713   -1.3480   -1.2263 H   0  0  0  0  0  0  0  0  0  0  0  0
   -5.3287    1.5938    1.2906 H   0  0  0  0  0  0  0  0  0  0  0  0
   -5.9451    1.6329   -0.3700 H   0  0  0  0  0  0  0  0  0  0  0  0
   -5.9019   -2.4165   -1.4353 H   0  0  0  0  0  0  0  0  0  0  0  0
   -5.3544   -2.3084    0.2424 H   0  0  0  0  0  0  0  0  0  0  0  0
   -6.3302   -0.5739    1.7218 H   0  0  0  0  0  0  0  0  0  0  0  0
   -7.5564    0.5219    1.0722 H   0  0  0  0  0  0  0  0  0  0  0  0
    4.7752    4.0215    0.2242 H   0  0  0  0  0  0  0  0  0  0  0  0
    0.3913    4.0724   -0.2664 H   0  0  0  0  0  0  0  0  0  0  0  0
   -7.7363   -2.5007    0.9752 H   0  0  0  0  0  0  0  0  0  0  0  0
   -8.9150   -1.3457    0.3159 H   0  0  0  0  0  0  0  0  0  0  0  0
   -8.2232   -2.5750   -0.7322 H   0  0  0  0  0  0  0  0  0  0  0  0
   -3.8488    2.5224   -1.3699 H   0  0  0  0  0  0  0  0  0  0  0  0
   -0.0592    0.8424    1.3556 H   0  0  0  0  0  0  0  0  0  0  0  0
   -1.7344    3.7637   -1.3471 H   0  0  0  0  0  0  0  0  0  0  0  0
   -3.0578   -0.7265    2.1722 H   0  0  0  0  0  0  0  0  0  0  0  0
   -2.2438   -1.6255    0.8610 H   0  0  0  0  0  0  0  0  0  0  0  0
   -1.3065   -0.8997    2.1707 H   0  0  0  0  0  0  0  0  0  0  0  0
  1 19  1  0  0  0  0
  2 17  2  0  0  0  0
  3 12  1  0  0  0  0
  3 18  1  0  0  0  0
  3 42  1  0  0  0  0
  4 17  1  0  0  0  0
  4 43  1  0  0  0  0
  4 44  1  0  0  0  0
  5 18  2  0  0  0  0
  5 20  1  0  0  0  0
  6 22  1  0  0  0  0
  6 23  1  0  0  0  0
  6 26  1  0  0  0  0
  7 24  1  0  0  0  0
  7 25  1  0  0  0  0
  7 29  1  0  0  0  0
  8 20  2  0  0  0  0
  8 21  1  0  0  0  0
  9 20  1  0  0  0  0
  9 28  1  0  0  0  0
  9 54  1  0  0  0  0
 10 12  1  0  0  0  0
 10 14  1  0  0  0  0
 10 15  1  0  0  0  0
 10 34  1  0  0  0  0
 11 13  1  0  0  0  0
 11 14  1  0  0  0  0
 11 16  1  0  0  0  0
 11 35  1  0  0  0  0
 12 13  1  0  0  0  0
 12 36  1  0  0  0  0
 13 17  1  0  0  0  0
 13 37  1  0  0  0  0
 14 38  1  0  0  0  0
 14 39  1  0  0  0  0
 15 16  2  0  0  0  0
 15 40  1  0  0  0  0
 16 41  1  0  0  0  0
 18 19  1  0  0  0  0
 19 21  2  0  0  0  0
 21 53  1  0  0  0  0
 22 24  1  0  0  0  0
 22 45  1  0  0  0  0
 22 46  1  0  0  0  0
 23 25  1  0  0  0  0
 23 47  1  0  0  0  0
 23 48  1  0  0  0  0
 24 49  1  0  0  0  0
 24 50  1  0  0  0  0
 25 51  1  0  0  0  0
 25 52  1  0  0  0  0
 26 27  2  0  0  0  0
 26 30  1  0  0  0  0
 27 31  1  0  0  0  0
 27 33  1  0  0  0  0
 28 31  2  0  0  0  0
 28 32  1  0  0  0  0
 29 55  1  0  0  0  0
 29 56  1  0  0  0  0
 29 57  1  0  0  0  0
 30 32  2  0  0  0  0
 30 58  1  0  0  0  0
 31 59  1  0  0  0  0
 32 60  1  0  0  0  0
 33 61  1  0  0  0  0
 33 62  1  0  0  0  0
 33 63  1  0  0  0  0
M  END
> <DATABASE_ID>
DB06347

> <DATABASE_NAME>
drugbank

> <ORIGINAL_SOURCE>
PUBCHEM

> <ORIGINAL_SOURCE_URL>
https://pubchem.ncbi.nlm.nih.gov/rest/pug/compound/inchikey/KSOVGRCOLZZTPF-QMKUDKLTSA-N/SDF?record_type=3d

> <SMILES>
[H][C@@]12C[C@@]([H])(C=C1)[C@@H]([C@@H]2NC1=C(F)C=NC(NC2=CC=C(N3CCN(C)CC3)C(C)=C2)=N1)C(N)=O

> <INCHI_IDENTIFIER>
InChI=1S/C24H30FN7O/c1-14-11-17(5-6-19(14)32-9-7-31(2)8-10-32)28-24-27-13-18(25)23(30-24)29-21-16-4-3-15(12-16)20(21)22(26)33/h3-6,11,13,15-16,20-21H,7-10,12H2,1-2H3,(H2,26,33)(H2,27,28,29,30)/t15-,16+,20+,21-/m1/s1

> <INCHI_KEY>
KSOVGRCOLZZTPF-QMKUDKLTSA-N

> <FORMULA>
C24H30FN7O

> <MOLECULAR_WEIGHT>
451.55

> <EXACT_MASS>
451.249586777

> <JCHEM_ACCEPTOR_COUNT>
7

> <JCHEM_ATOM_COUNT>
63

> <JCHEM_AVERAGE_POLARIZABILITY>
48.424808770911085

> <JCHEM_BIOAVAILABILITY>
1

> <JCHEM_DONOR_COUNT>
3

> <JCHEM_FORMAL_CHARGE>
0

> <JCHEM_GHOSE_FILTER>
0

> <JCHEM_IUPAC>
(1S,2S,3R,4R)-3-[(5-fluoro-2-{[3-methyl-4-(4-methylpiperazin-1-yl)phenyl]amino}pyrimidin-4-yl)amino]bicyclo[2.2.1]hept-5-ene-2-carboxamide

> <ALOGPS_LOGP>
3.17

> <JCHEM_LOGP>
2.5997252636666666

> <ALOGPS_LOGS>
-3.78

> <JCHEM_MDDR_LIKE_RULE>
1

> <JCHEM_NUMBER_OF_RINGS>
5

> <JCHEM_PHYSIOLOGICAL_CHARGE>
1

> <JCHEM_PKA>
15.550113911854336

> <JCHEM_PKA_STRONGEST_ACIDIC>
14.792089758510485

> <JCHEM_PKA_STRONGEST_BASIC>
7.864498929159734

> <JCHEM_POLAR_SURFACE_AREA>
99.41

> <JCHEM_REFRACTIVITY>
130.054

> <JCHEM_ROTATABLE_BOND_COUNT>
6

> <JCHEM_RULE_OF_FIVE>
1

> <ALOGPS_SOLUBILITY>
7.52e-02 g/l

> <JCHEM_TRADITIONAL_IUPAC>
(1S,2S,3R,4R)-3-[(5-fluoro-2-{[3-methyl-4-(4-methylpiperazin-1-yl)phenyl]amino}pyrimidin-4-yl)amino]bicyclo[2.2.1]hept-5-ene-2-carboxamide

> <JCHEM_VEBER_RULE>
0

$$$$
