11670435
  -OEChem-06112215543D

 69 73  0     1  0  0  0  0  0999 V2000
    8.3901    0.6528    0.0398 F   0  0  0  0  0  0  0  0  0  0  0  0
    7.4453    2.5206   -0.5281 F   0  0  0  0  0  0  0  0  0  0  0  0
    7.5241    1.9378    1.5653 F   0  0  0  0  0  0  0  0  0  0  0  0
   -3.3010    4.4305   -1.0558 O   0  0  0  0  0  0  0  0  0  0  0  0
   -2.9089   -3.0404    1.5072 O   0  0  0  0  0  0  0  0  0  0  0  0
   -3.0048   -1.4202   -0.1389 N   0  0  0  0  0  0  0  0  0  0  0  0
   -1.8361    2.7889   -1.7292 N   0  0  0  0  0  0  0  0  0  0  0  0
   -0.2835   -2.2075   -0.4869 N   0  0  0  0  0  0  0  0  0  0  0  0
    2.3351   -1.1148   -0.1576 N   0  0  0  0  0  0  0  0  0  0  0  0
    3.5916    0.8344    0.3167 N   0  0  0  0  0  0  0  0  0  0  0  0
   -3.7256    2.1801   -0.3612 C   0  0  0  0  0  0  0  0  0  0  0  0
   -3.6045    0.4092    1.4374 C   0  0  1  0  0  0  0  0  0  0  0  0
   -4.9730    0.0001   -0.6443 C   0  0  2  0  0  0  0  0  0  0  0  0
   -5.7487    1.6909    1.0635 C   0  0  0  0  0  0  0  0  0  0  0  0
   -4.0895   -0.6623    0.4360 C   0  0  0  0  0  0  0  0  0  0  0  0
   -2.8273    1.5190    0.7015 C   0  0  0  0  0  0  0  0  0  0  0  0
   -4.1889    1.1113   -1.3701 C   0  0  0  0  0  0  0  0  0  0  0  0
   -4.9605    2.7899    0.3306 C   0  0  0  0  0  0  0  0  0  0  0  0
   -4.8372    1.0361    2.1174 C   0  0  0  0  0  0  0  0  0  0  0  0
   -6.1994    0.6291    0.0443 C   0  0  0  0  0  0  0  0  0  0  0  0
   -2.9479    3.2537   -1.0674 C   0  0  0  0  0  0  0  0  0  0  0  0
   -2.4900   -2.5684    0.4498 C   0  0  0  0  0  0  0  0  0  0  0  0
   -1.3389   -3.2101   -0.3470 C   0  0  0  0  0  0  0  0  0  0  0  0
   -1.7996   -3.6122   -1.7511 C   0  0  0  0  0  0  0  0  0  0  0  0
   -0.7562   -4.4109    0.4039 C   0  0  0  0  0  0  0  0  0  0  0  0
    0.8506   -2.7553   -1.2408 C   0  0  0  0  0  0  0  0  0  0  0  0
    0.1688   -1.7486    0.8323 C   0  0  0  0  0  0  0  0  0  0  0  0
    1.9392   -1.6982   -1.4431 C   0  0  0  0  0  0  0  0  0  0  0  0
    1.2335   -0.6574    0.6987 C   0  0  0  0  0  0  0  0  0  0  0  0
    3.5711   -0.4696   -0.0396 C   0  0  0  0  0  0  0  0  0  0  0  0
    4.7062   -1.2206   -0.2995 C   0  0  0  0  0  0  0  0  0  0  0  0
    5.9418   -0.5930   -0.1864 C   0  0  0  0  0  0  0  0  0  0  0  0
    4.8107    1.4105    0.4164 C   0  0  0  0  0  0  0  0  0  0  0  0
    6.0038    0.7475    0.1779 C   0  0  0  0  0  0  0  0  0  0  0  0
    7.3096    1.4471    0.3081 C   0  0  0  0  0  0  0  0  0  0  0  0
   -2.9583   -0.0441    2.1983 H   0  0  0  0  0  0  0  0  0  0  0  0
   -5.3050   -0.7482   -1.3738 H   0  0  0  0  0  0  0  0  0  0  0  0
   -6.6254    2.1289    1.5536 H   0  0  0  0  0  0  0  0  0  0  0  0
   -4.7114   -1.3826    0.9851 H   0  0  0  0  0  0  0  0  0  0  0  0
   -2.4812    2.2695    1.4250 H   0  0  0  0  0  0  0  0  0  0  0  0
   -1.9205    1.0875    0.2615 H   0  0  0  0  0  0  0  0  0  0  0  0
   -3.3502    0.6704   -1.9195 H   0  0  0  0  0  0  0  0  0  0  0  0
   -4.8295    1.5722   -2.1344 H   0  0  0  0  0  0  0  0  0  0  0  0
   -4.6599    3.5656    1.0475 H   0  0  0  0  0  0  0  0  0  0  0  0
   -5.6121    3.2817   -0.4039 H   0  0  0  0  0  0  0  0  0  0  0  0
   -5.3936    0.2674    2.6677 H   0  0  0  0  0  0  0  0  0  0  0  0
   -4.5183    1.7846    2.8533 H   0  0  0  0  0  0  0  0  0  0  0  0
   -6.8567    1.0856   -0.7059 H   0  0  0  0  0  0  0  0  0  0  0  0
   -6.7863   -0.1484    0.5489 H   0  0  0  0  0  0  0  0  0  0  0  0
   -2.5451   -1.0577   -0.9680 H   0  0  0  0  0  0  0  0  0  0  0  0
   -1.2414    3.4289   -2.2453 H   0  0  0  0  0  0  0  0  0  0  0  0
   -1.5496    1.8161   -1.7349 H   0  0  0  0  0  0  0  0  0  0  0  0
   -1.1307   -4.3315   -2.2362 H   0  0  0  0  0  0  0  0  0  0  0  0
   -2.7819   -4.0988   -1.6965 H   0  0  0  0  0  0  0  0  0  0  0  0
   -1.9229   -2.7497   -2.4174 H   0  0  0  0  0  0  0  0  0  0  0  0
   -0.4509   -4.2118    1.4349 H   0  0  0  0  0  0  0  0  0  0  0  0
   -1.5519   -5.1636    0.5078 H   0  0  0  0  0  0  0  0  0  0  0  0
    0.0436   -4.9442   -0.1162 H   0  0  0  0  0  0  0  0  0  0  0  0
    0.5675   -3.0827   -2.2455 H   0  0  0  0  0  0  0  0  0  0  0  0
    1.3397   -3.5950   -0.7364 H   0  0  0  0  0  0  0  0  0  0  0  0
   -0.6415   -1.3180    1.4297 H   0  0  0  0  0  0  0  0  0  0  0  0
    0.6283   -2.5460    1.4261 H   0  0  0  0  0  0  0  0  0  0  0  0
    2.7870   -2.1696   -1.9535 H   0  0  0  0  0  0  0  0  0  0  0  0
    1.5719   -0.9001   -2.1015 H   0  0  0  0  0  0  0  0  0  0  0  0
    0.7901    0.2526    0.2740 H   0  0  0  0  0  0  0  0  0  0  0  0
    1.6029   -0.4111    1.7024 H   0  0  0  0  0  0  0  0  0  0  0  0
    4.6603   -2.2709   -0.5684 H   0  0  0  0  0  0  0  0  0  0  0  0
    6.8453   -1.1634   -0.3820 H   0  0  0  0  0  0  0  0  0  0  0  0
    4.7961    2.4573    0.7040 H   0  0  0  0  0  0  0  0  0  0  0  0
  1 35  1  0  0  0  0
  2 35  1  0  0  0  0
  3 35  1  0  0  0  0
  4 21  2  0  0  0  0
  5 22  2  0  0  0  0
  6 15  1  0  0  0  0
  6 22  1  0  0  0  0
  6 50  1  0  0  0  0
  7 21  1  0  0  0  0
  7 51  1  0  0  0  0
  7 52  1  0  0  0  0
  8 23  1  0  0  0  0
  8 26  1  0  0  0  0
  8 27  1  0  0  0  0
  9 28  1  0  0  0  0
  9 29  1  0  0  0  0
  9 30  1  0  0  0  0
 10 30  2  0  0  0  0
 10 33  1  0  0  0  0
 11 16  1  0  0  0  0
 11 17  1  0  0  0  0
 11 18  1  0  0  0  0
 11 21  1  0  0  0  0
 12 15  1  0  0  0  0
 12 16  1  0  0  0  0
 12 19  1  0  0  0  0
 12 36  1  0  0  0  0
 13 15  1  0  0  0  0
 13 17  1  0  0  0  0
 13 20  1  0  0  0  0
 13 37  1  0  0  0  0
 14 18  1  0  0  0  0
 14 19  1  0  0  0  0
 14 20  1  0  0  0  0
 14 38  1  0  0  0  0
 15 39  1  0  0  0  0
 16 40  1  0  0  0  0
 16 41  1  0  0  0  0
 17 42  1  0  0  0  0
 17 43  1  0  0  0  0
 18 44  1  0  0  0  0
 18 45  1  0  0  0  0
 19 46  1  0  0  0  0
 19 47  1  0  0  0  0
 20 48  1  0  0  0  0
 20 49  1  0  0  0  0
 22 23  1  0  0  0  0
 23 24  1  0  0  0  0
 23 25  1  0  0  0  0
 24 53  1  0  0  0  0
 24 54  1  0  0  0  0
 24 55  1  0  0  0  0
 25 56  1  0  0  0  0
 25 57  1  0  0  0  0
 25 58  1  0  0  0  0
 26 28  1  0  0  0  0
 26 59  1  0  0  0  0
 26 60  1  0  0  0  0
 27 29  1  0  0  0  0
 27 61  1  0  0  0  0
 27 62  1  0  0  0  0
 28 63  1  0  0  0  0
 28 64  1  0  0  0  0
 29 65  1  0  0  0  0
 29 66  1  0  0  0  0
 30 31  1  0  0  0  0
 31 32  2  0  0  0  0
 31 67  1  0  0  0  0
 32 34  1  0  0  0  0
 32 68  1  0  0  0  0
 33 34  2  0  0  0  0
 33 69  1  0  0  0  0
 34 35  1  0  0  0  0
M  END
> <PUBCHEM_COMPOUND_CID>
11670435

> <PUBCHEM_CONFORMER_RMSD>
1

> <PUBCHEM_CONFORMER_DIVERSEORDER>
1
71
31
48
14
83
63
27
77
81
66
29
41
64
62
60
72
67
54
16
19
32
28
34
20
42
52
49
9
5
38
51
82
56
23
13
44
47
43
17
57
36
45
78
30
10
22
86
26
24
76
12
8
73
40
58
18
39
15
74
33
6
21
85
80
25
79
4
53
61
50
37
84
70
35
75
68
46
87
65
69
11
59
3
2
55
7

> <PUBCHEM_MMFF94_PARTIAL_CHARGES>
31
1 -0.34
10 -0.62
11 0.06
15 0.3
2 -0.34
21 0.57
22 0.57
23 0.33
26 0.27
27 0.27
28 0.37
29 0.37
3 -0.34
30 0.41
31 -0.15
32 -0.15
33 0.16
34 -0.14
35 1.16
4 -0.57
5 -0.57
50 0.37
51 0.37
52 0.37
6 -0.73
67 0.15
68 0.15
69 0.15
7 -0.8
8 -0.81
9 -0.84

> <PUBCHEM_EFFECTIVE_ROTOR_COUNT>
9.4

> <PUBCHEM_PHARMACOPHORE_FEATURES>
13
1 4 acceptor
1 5 acceptor
1 6 donor
1 7 donor
1 8 cation
3 23 24 25 hydrophobe
3 9 10 30 cation
6 10 30 31 32 33 34 rings
6 11 12 13 15 16 17 rings
6 11 12 14 16 18 19 rings
6 11 13 14 17 18 20 rings
6 12 13 14 15 19 20 rings
6 8 9 26 27 28 29 rings

> <PUBCHEM_HEAVY_ATOM_COUNT>
35

> <PUBCHEM_ATOM_DEF_STEREO_COUNT>
0

> <PUBCHEM_ATOM_UDEF_STEREO_COUNT>
2

> <PUBCHEM_BOND_DEF_STEREO_COUNT>
0

> <PUBCHEM_BOND_UDEF_STEREO_COUNT>
0

> <PUBCHEM_ISOTOPIC_ATOM_COUNT>
0

> <PUBCHEM_COMPONENT_COUNT>
1

> <PUBCHEM_CACTVS_TAUTO_COUNT>
4

> <PUBCHEM_CONFORMER_ID>
00B213A300000001

> <PUBCHEM_MMFF94_ENERGY>
109.8232

> <PUBCHEM_FEATURE_SELFOVERLAP>
78.467

> <PUBCHEM_SHAPE_FINGERPRINT>
100830 39 18409165537143265384
10087517 78 18337387248717622222
10165383 225 18273218582432563387
10369192 42 17917716799090637759
10411042 1 17763743591746204047
10454371 7 18059856215778224950
10554248 39 16916799461826249686
10580692 12 18409727362401298410
10675989 125 17400353452013351205
10816530 145 17314222439825290774
10838868 160 18270392777541924177
10883706 163 18260827124552435220
10930396 42 17676212377623227369
11621639 148 18337121150773351275
12107183 9 18264198133326014466
13402501 40 18341613698431991097
13911987 19 17203613683137191471
13947920 24 18342739606760002856
14347329 18 18342450439776387906
14395042 24 18191601933578200355
14765038 42 18130802109514692505
14840074 17 18260836986097662949
14904385 31 18408329877651197340
14950920 106 16298964167465983819
15021287 119 17458343087374233740
15131766 46 18058168320371801209
15183329 4 18272370867489001674
15575132 122 18261670373009336413
15604295 49 18126842932201810328
15876981 60 17971191666786866438
16728433 281 18268729259599303236
16992828 155 18409724075648855493
18393751 57 18334303037503961531
18608769 82 18271811263637532867
19309040 13 16772690805910126699
19611394 137 17897458413556257963
20609170 109 17242191238926082137
21033648 144 18411420587946981191
21033648 29 17822857464185936639
21133410 32 15266194007982207878
21859007 373 18412266117305960486
21927370 108 18119254110961763355
24771293 8 18411990144488284825
25019877 29 17702679868613949535
2838139 119 18339921502702825238
3418910 222 17685219769840227492
3459 39 18269538482101271010
4144715 1 18264782115734251426
44249763 50 18059000809371025954
50677037 204 18263072361845944244
5219985 13 18411420570529702870
5372103 7 17751336432202399821
57307002 19 18114458951763649293
6327066 14 18412543185144928623
7808743 9 18411134740614396459
9961470 85 18051403260916650501
9981440 41 18261683584445245179

> <PUBCHEM_SHAPE_MULTIPOLES>
661.82
18.53
4.98
1.44
37.06
1.88
0.01
-17.93
-3.47
-3.36
1.32
-1.39
-0.1
1.37

> <PUBCHEM_SHAPE_SELFOVERLAP>
1437.116

> <PUBCHEM_SHAPE_VOLUME>
364.9

> <PUBCHEM_COORDINATE_TYPE>
2
5
10

$$$$
