53497429
  -OEChem-01172013453D

 65 69  0     0  0  0  0  0  0999 V2000
    2.8075    4.4590    1.6272 F   0  0  0  0  0  0  0  0  0  0  0  0
    4.0548    5.0643   -0.0477 F   0  0  0  0  0  0  0  0  0  0  0  0
    2.0184    4.4059   -0.3983 F   0  0  0  0  0  0  0  0  0  0  0  0
   -6.3012   -0.3185    0.4433 O   0  0  0  0  0  0  0  0  0  0  0  0
   -6.2723    0.9687   -1.4827 O   0  0  0  0  0  0  0  0  0  0  0  0
    2.5046   -2.5567    1.8317 O   0  0  0  0  0  0  0  0  0  0  0  0
    7.0848   -0.5063   -1.0167 O   0  0  0  0  0  0  0  0  0  0  0  0
   -4.2835    0.4887   -0.3737 N   0  0  0  0  0  0  0  0  0  0  0  0
    1.8936   -1.4423   -0.1466 N   0  0  0  0  0  0  0  0  0  0  0  0
   -2.2847    0.6010   -1.7898 C   0  0  0  0  0  0  0  0  0  0  0  0
   -1.5118   -0.1094   -0.7101 C   0  0  0  0  0  0  0  0  0  0  0  0
   -3.4691    1.3652   -1.2114 C   0  0  0  0  0  0  0  0  0  0  0  0
   -2.1467   -0.4894    0.4857 C   0  0  0  0  0  0  0  0  0  0  0  0
   -3.5988   -0.1710    0.7448 C   0  0  0  0  0  0  0  0  0  0  0  0
   -0.1659   -0.4414   -0.9168 C   0  0  0  0  0  0  0  0  0  0  0  0
   -1.4123   -1.1706    1.4672 C   0  0  0  0  0  0  0  0  0  0  0  0
    0.5524   -1.1220    0.0657 C   0  0  0  0  0  0  0  0  0  0  0  0
   -0.0696   -1.4840    1.2578 C   0  0  0  0  0  0  0  0  0  0  0  0
   -5.6698    0.4273   -0.5567 C   0  0  0  0  0  0  0  0  0  0  0  0
    2.7662   -2.1180    0.7168 C   0  0  0  0  0  0  0  0  0  0  0  0
    4.1398   -2.3360    0.1921 C   0  0  0  0  0  0  0  0  0  0  0  0
    4.9685   -1.2735   -0.1685 C   0  0  0  0  0  0  0  0  0  0  0  0
    4.5034    0.0965   -0.0392 C   0  0  0  0  0  0  0  0  0  0  0  0
    6.2511   -1.5239   -0.6564 C   0  0  0  0  0  0  0  0  0  0  0  0
    4.5936   -3.6489    0.0649 C   0  0  0  0  0  0  0  0  0  0  0  0
   -7.6896   -0.4061    0.2996 C   0  0  0  0  0  0  0  0  0  0  0  0
    6.7049   -2.8368   -0.7838 C   0  0  0  0  0  0  0  0  0  0  0  0
    5.8761   -3.8991   -0.4230 C   0  0  0  0  0  0  0  0  0  0  0  0
    4.4318    0.9179   -1.1643 C   0  0  0  0  0  0  0  0  0  0  0  0
    4.1289    0.5908    1.2102 C   0  0  0  0  0  0  0  0  0  0  0  0
    3.6109    2.7278    0.2093 C   0  0  0  0  0  0  0  0  0  0  0  0
    3.9855    2.2335   -1.0400 C   0  0  0  0  0  0  0  0  0  0  0  0
    3.6826    1.9064    1.3346 C   0  0  0  0  0  0  0  0  0  0  0  0
   -8.2502   -1.4506   -0.4355 C   0  0  0  0  0  0  0  0  0  0  0  0
   -8.5136    0.5515    0.8908 C   0  0  0  0  0  0  0  0  0  0  0  0
    3.1335    4.1342    0.3422 C   0  0  0  0  0  0  0  0  0  0  0  0
   -9.6350   -1.5377   -0.5791 C   0  0  0  0  0  0  0  0  0  0  0  0
   -9.8983    0.4643    0.7474 C   0  0  0  0  0  0  0  0  0  0  0  0
    7.9386    0.0191   -0.0032 C   0  0  0  0  0  0  0  0  0  0  0  0
  -10.4590   -0.5802    0.0122 C   0  0  0  0  0  0  0  0  0  0  0  0
   -2.6380   -0.1488   -2.5083 H   0  0  0  0  0  0  0  0  0  0  0  0
   -1.6347    1.3032   -2.3246 H   0  0  0  0  0  0  0  0  0  0  0  0
   -3.1290    2.1938   -0.5776 H   0  0  0  0  0  0  0  0  0  0  0  0
   -4.0665    1.7967   -2.0209 H   0  0  0  0  0  0  0  0  0  0  0  0
   -4.1289   -1.0963    0.9953 H   0  0  0  0  0  0  0  0  0  0  0  0
   -3.6722    0.5105    1.6007 H   0  0  0  0  0  0  0  0  0  0  0  0
    0.3183   -0.1622   -1.8504 H   0  0  0  0  0  0  0  0  0  0  0  0
   -1.8880   -1.4625    2.4005 H   0  0  0  0  0  0  0  0  0  0  0  0
    0.4176   -2.0099    2.0665 H   0  0  0  0  0  0  0  0  0  0  0  0
    2.2656   -1.1621   -1.0516 H   0  0  0  0  0  0  0  0  0  0  0  0
    3.9581   -4.4869    0.3396 H   0  0  0  0  0  0  0  0  0  0  0  0
    7.7024   -3.0401   -1.1639 H   0  0  0  0  0  0  0  0  0  0  0  0
    4.7071    0.5505   -2.1500 H   0  0  0  0  0  0  0  0  0  0  0  0
    4.1931   -0.0240    2.1048 H   0  0  0  0  0  0  0  0  0  0  0  0
    6.2292   -4.9213   -0.5228 H   0  0  0  0  0  0  0  0  0  0  0  0
    3.9303    2.8651   -1.9226 H   0  0  0  0  0  0  0  0  0  0  0  0
    3.3989    2.2732    2.3171 H   0  0  0  0  0  0  0  0  0  0  0  0
   -7.6132   -2.1995   -0.8980 H   0  0  0  0  0  0  0  0  0  0  0  0
   -8.0826    1.3672    1.4647 H   0  0  0  0  0  0  0  0  0  0  0  0
  -10.0715   -2.3510   -1.1514 H   0  0  0  0  0  0  0  0  0  0  0  0
  -10.5400    1.2098    1.2079 H   0  0  0  0  0  0  0  0  0  0  0  0
    8.4948    0.8598   -0.4270 H   0  0  0  0  0  0  0  0  0  0  0  0
    8.6534   -0.7425    0.3239 H   0  0  0  0  0  0  0  0  0  0  0  0
    7.3604    0.3803    0.8527 H   0  0  0  0  0  0  0  0  0  0  0  0
  -11.5372   -0.6479   -0.0996 H   0  0  0  0  0  0  0  0  0  0  0  0
  1 36  1  0  0  0  0
  2 36  1  0  0  0  0
  3 36  1  0  0  0  0
  4 19  1  0  0  0  0
  4 26  1  0  0  0  0
  5 19  2  0  0  0  0
  6 20  2  0  0  0  0
  7 24  1  0  0  0  0
  7 39  1  0  0  0  0
  8 12  1  0  0  0  0
  8 14  1  0  0  0  0
  8 19  1  0  0  0  0
  9 17  1  0  0  0  0
  9 20  1  0  0  0  0
  9 50  1  0  0  0  0
 10 11  1  0  0  0  0
 10 12  1  0  0  0  0
 10 41  1  0  0  0  0
 10 42  1  0  0  0  0
 11 13  2  0  0  0  0
 11 15  1  0  0  0  0
 12 43  1  0  0  0  0
 12 44  1  0  0  0  0
 13 14  1  0  0  0  0
 13 16  1  0  0  0  0
 14 45  1  0  0  0  0
 14 46  1  0  0  0  0
 15 17  2  0  0  0  0
 15 47  1  0  0  0  0
 16 18  2  0  0  0  0
 16 48  1  0  0  0  0
 17 18  1  0  0  0  0
 18 49  1  0  0  0  0
 20 21  1  0  0  0  0
 21 22  2  0  0  0  0
 21 25  1  0  0  0  0
 22 23  1  0  0  0  0
 22 24  1  0  0  0  0
 23 29  2  0  0  0  0
 23 30  1  0  0  0  0
 24 27  2  0  0  0  0
 25 28  2  0  0  0  0
 25 51  1  0  0  0  0
 26 34  2  0  0  0  0
 26 35  1  0  0  0  0
 27 28  1  0  0  0  0
 27 52  1  0  0  0  0
 28 55  1  0  0  0  0
 29 32  1  0  0  0  0
 29 53  1  0  0  0  0
 30 33  2  0  0  0  0
 30 54  1  0  0  0  0
 31 32  2  0  0  0  0
 31 33  1  0  0  0  0
 31 36  1  0  0  0  0
 32 56  1  0  0  0  0
 33 57  1  0  0  0  0
 34 37  1  0  0  0  0
 34 58  1  0  0  0  0
 35 38  2  0  0  0  0
 35 59  1  0  0  0  0
 37 40  2  0  0  0  0
 37 60  1  0  0  0  0
 38 40  1  0  0  0  0
 38 61  1  0  0  0  0
 39 62  1  0  0  0  0
 39 63  1  0  0  0  0
 39 64  1  0  0  0  0
 40 65  1  0  0  0  0
M  END
> <DATABASE_ID>
DB05678

> <DATABASE_NAME>
drugbank

> <ORIGINAL_SOURCE>
PUBCHEM

> <ORIGINAL_SOURCE_URL>
https://pubchem.ncbi.nlm.nih.gov/rest/pug/compound/inchikey/AZUIUVJESCFSLJ-UHFFFAOYSA-N/SDF?record_type=3d

> <SMILES>
COC1=CC=CC(C(=O)NC2=CC3=C(CN(CC3)C(=O)OC3=CC=CC=C3)C=C2)=C1C1=CC=C(C=C1)C(F)(F)F

> <INCHI_IDENTIFIER>
InChI=1S/C31H25F3N2O4/c1-39-27-9-5-8-26(28(27)20-10-13-23(14-11-20)31(32,33)34)29(37)35-24-15-12-22-19-36(17-16-21(22)18-24)30(38)40-25-6-3-2-4-7-25/h2-15,18H,16-17,19H2,1H3,(H,35,37)

> <INCHI_KEY>
AZUIUVJESCFSLJ-UHFFFAOYSA-N

> <FORMULA>
C31H25F3N2O4

> <MOLECULAR_WEIGHT>
546.546

> <EXACT_MASS>
546.176641782

> <JCHEM_ACCEPTOR_COUNT>
3

> <JCHEM_ATOM_COUNT>
65

> <JCHEM_AVERAGE_NEUTRAL_MICROSPECIES_CHARGE>
-7.683442215516473e-09

> <JCHEM_AVERAGE_POLARIZABILITY>
55.02023124053801

> <JCHEM_BIOAVAILABILITY>
0

> <JCHEM_DONOR_COUNT>
1

> <JCHEM_FORMAL_CHARGE>
0

> <JCHEM_GHOSE_FILTER>
0

> <JCHEM_IUPAC>
phenyl 6-[6-methoxy-4'-(trifluoromethyl)-[1,1'-biphenyl]-2-amido]-1,2,3,4-tetrahydroisoquinoline-2-carboxylate

> <ALOGPS_LOGP>
5.24

> <JCHEM_LOGP>
6.917962395333333

> <ALOGPS_LOGS>
-6.44

> <JCHEM_MDDR_LIKE_RULE>
1

> <JCHEM_NEUTRAL_CHARGE>
0

> <JCHEM_NUMBER_OF_RINGS>
5

> <JCHEM_PHYSIOLOGICAL_CHARGE>
0

> <JCHEM_PKA_STRONGEST_ACIDIC>
15.113631879078584

> <JCHEM_PKA_STRONGEST_BASIC>
-3.8283374178435694

> <JCHEM_POLAR_SURFACE_AREA>
67.87

> <JCHEM_REFRACTIVITY>
146.6893

> <JCHEM_ROTATABLE_BOND_COUNT>
7

> <JCHEM_RULE_OF_FIVE>
0

> <ALOGPS_SOLUBILITY>
1.97e-04 g/l

> <JCHEM_TRADITIONAL_IUPAC>
motesanib

> <JCHEM_VEBER_RULE>
0

$$$$
