
     RDKit          3D

 52 57  0  0  0  0  0  0  0  0999 V2000
    6.7611    6.5304   -1.4897 O   0  0  0  0  0  0  0  0  0  0  0  0
    6.7689    5.4518   -0.8471 C   0  0  0  0  0  0  0  0  0  0  0  0
    7.5828    5.4065    0.2813 O   0  0  0  0  0  0  0  0  0  0  0  0
    5.6605    4.5263   -1.0602 C   0  0  0  0  0  0  0  0  0  0  0  0
    5.3072    4.0575   -2.3132 C   0  0  0  0  0  0  0  0  0  0  0  0
    4.1146    3.3695   -2.4965 C   0  0  0  0  0  0  0  0  0  0  0  0
    3.1774    3.4968   -1.4787 C   0  0  0  0  0  0  0  0  0  0  0  0
    1.7927    3.0705   -1.7772 C   0  0  0  0  0  0  0  0  0  0  0  0
    0.9937    2.7405   -0.5462 C   0  0  0  0  0  0  0  0  0  0  0  0
    1.6311    1.6976    0.3225 C   0  0  0  0  0  0  0  0  0  0  0  0
    1.1865    0.3119   -0.0262 C   0  0  0  0  0  0  0  0  0  0  0  0
    1.9062   -0.5254   -0.8700 C   0  0  0  0  0  0  0  0  0  0  0  0
    2.6756   -0.3193   -1.9966 C   0  0  0  0  0  0  0  0  0  0  0  0
    3.6844   -1.2019   -2.3617 C   0  0  0  0  0  0  0  0  0  0  0  0
    5.1237   -0.6348   -3.2030 Cl  0  0  0  0  0  0  0  0  0  0  0  0
    3.8090   -2.3565   -1.6046 C   0  0  0  0  0  0  0  0  0  0  0  0
    2.6934   -2.8169   -0.9148 C   0  0  0  0  0  0  0  0  0  0  0  0
    1.9055   -1.8174   -0.3573 C   0  0  0  0  0  0  0  0  0  0  0  0
    0.8587   -1.8286    0.5001 N   0  0  0  0  0  0  0  0  0  0  0  0
    0.2904   -2.9675    1.1707 C   0  0  0  0  0  0  0  0  0  0  0  0
    0.9708   -3.2105    2.4576 C   0  0  0  0  0  0  0  0  0  0  0  0
    0.5210   -4.2913    3.2056 C   0  0  0  0  0  0  0  0  0  0  0  0
    1.3672   -4.9342    4.0950 C   0  0  0  0  0  0  0  0  0  0  0  0
    2.4218   -4.1777    4.5818 C   0  0  0  0  0  0  0  0  0  0  0  0
    2.8862   -3.1308    3.8173 C   0  0  0  0  0  0  0  0  0  0  0  0
    2.1385   -2.5514    2.8027 C   0  0  0  0  0  0  0  0  0  0  0  0
    0.1862   -4.1673    0.3230 C   0  0  0  0  0  0  0  0  0  0  0  0
    0.8883   -5.3264    0.6002 C   0  0  0  0  0  0  0  0  0  0  0  0
    0.7457   -6.4202   -0.2242 C   0  0  0  0  0  0  0  0  0  0  0  0
    0.2645   -6.1840   -1.5032 C   0  0  0  0  0  0  0  0  0  0  0  0
   -0.6920   -5.1911   -1.6234 C   0  0  0  0  0  0  0  0  0  0  0  0
   -0.8488   -4.2719   -0.5958 C   0  0  0  0  0  0  0  0  0  0  0  0
    0.6431   -0.5559    0.9140 C   0  0  0  0  0  0  0  0  0  0  0  0
   -0.3907   -0.1361    1.9103 C   0  0  0  0  0  0  0  0  0  0  0  0
   -1.6294   -1.0051    1.7538 C   0  0  0  0  0  0  0  0  0  0  0  0
   -2.7697   -0.1605    2.0080 N   0  0  0  0  0  0  0  0  0  0  0  0
   -3.2876    0.6694    0.5721 S   0  0  0  0  0  0  0  0  0  0  0  0
   -2.4504    1.8918    0.4091 O   0  0  0  0  0  0  0  0  0  0  0  0
   -3.0832   -0.2588   -0.5773 O   0  0  0  0  0  0  0  0  0  0  0  0
   -4.9710    1.1443    0.7932 C   0  0  0  0  0  0  0  0  0  0  0  0
   -5.6762    1.3539   -0.5098 C   0  0  0  0  0  0  0  0  0  0  0  0
   -5.5120    0.4858   -1.5751 C   0  0  0  0  0  0  0  0  0  0  0  0
   -6.5441    0.2357   -2.4715 C   0  0  0  0  0  0  0  0  0  0  0  0
   -7.8090    0.6939   -2.2097 C   0  0  0  0  0  0  0  0  0  0  0  0
   -7.9583    1.7006   -1.2709 C   0  0  0  0  0  0  0  0  0  0  0  0
   -6.8755    2.0546   -0.4790 C   0  0  0  0  0  0  0  0  0  0  0  0
   -7.1800    2.8648    0.7334 C   0  0  0  0  0  0  0  0  0  0  0  0
   -6.0129    3.1887    1.3781 F   0  0  0  0  0  0  0  0  0  0  0  0
   -7.9346    3.9562    0.3803 F   0  0  0  0  0  0  0  0  0  0  0  0
   -7.9455    2.0477    1.5587 F   0  0  0  0  0  0  0  0  0  0  0  0
    3.6732    3.4865   -0.1934 C   0  0  0  0  0  0  0  0  0  0  0  0
    4.9408    4.0087    0.0074 C   0  0  0  0  0  0  0  0  0  0  0  0
  1  2  2  0
  2  3  1  0
  2  4  1  0
  4  5  2  0
  5  6  1  0
  6  7  2  0
  7  8  1  0
  8  9  1  0
  9 10  1  0
 10 11  1  0
 11 12  1  0
 12 13  2  0
 13 14  1  0
 14 15  1  0
 14 16  2  0
 16 17  1  0
 17 18  2  0
 18 19  1  0
 19 20  1  0
 20 21  1  0
 21 22  2  0
 22 23  1  0
 23 24  2  0
 24 25  1  0
 25 26  2  0
 20 27  1  0
 27 28  2  0
 28 29  1  0
 29 30  2  0
 30 31  1  0
 31 32  2  0
 19 33  1  0
 33 34  1  0
 34 35  1  0
 35 36  1  0
 36 37  1  0
 37 38  2  0
 37 39  2  0
 37 40  1  0
 40 41  1  0
 41 42  2  0
 42 43  1  0
 43 44  2  0
 44 45  1  0
 45 46  2  0
 46 47  1  0
 47 48  1  0
 47 49  1  0
 47 50  1  0
  7 51  1  0
 51 52  2  0
 52  4  1  0
 33 11  2  0
 46 41  1  0
 18 12  1  0
 26 21  1  0
 32 27  1  0
M  END
>  <zinc_id>  (1) 
ZINC000085537113

>  <smiles>  (1) 
O=C(O)c1ccc(CCCc2c(CCNS(=O)(=O)Cc3ccccc3C(F)(F)F)n(C(c3ccccc3)c3ccccc3)c3ccc(Cl)cc23)cc1

$$$$
