118063735
  -OEChem-12152013173D

 57 61  0     0  0  0  0  0  0999 V2000
    7.2633   -3.0843    0.6347 Cl  0  0  0  0  0  0  0  0  0  0  0  0
    3.7617    1.6477    0.9199 O   0  0  0  0  0  0  0  0  0  0  0  0
   -0.2139    1.7123   -2.5579 O   0  0  0  0  0  0  0  0  0  0  0  0
   -5.3796   -4.6545   -0.6184 O   0  0  0  0  0  0  0  0  0  0  0  0
   -6.4058   -3.9154    1.2704 O   0  0  0  0  0  0  0  0  0  0  0  0
    2.1919   -1.4941   -1.3130 N   0  0  0  0  0  0  0  0  0  0  0  0
   -1.3247    0.9722   -0.6390 N   0  0  0  0  0  0  0  0  0  0  0  0
    0.9977   -1.0470   -1.7529 N   0  0  0  0  0  0  0  0  0  0  0  0
    2.0710    0.5382   -0.5178 C   0  0  0  0  0  0  0  0  0  0  0  0
    2.8655   -0.5752   -0.5700 C   0  0  0  0  0  0  0  0  0  0  0  0
    0.9307    0.1973   -1.2628 C   0  0  0  0  0  0  0  0  0  0  0  0
    4.1470   -0.6380    0.0818 C   0  0  0  0  0  0  0  0  0  0  0  0
    2.4945    1.7492    0.2114 C   0  0  0  0  0  0  0  0  0  0  0  0
   -0.2234    1.0074   -1.5290 C   0  0  0  0  0  0  0  0  0  0  0  0
    4.5299    0.5085    0.8046 C   0  0  0  0  0  0  0  0  0  0  0  0
   -1.3266    0.1429    0.5644 C   0  0  0  0  0  0  0  0  0  0  0  0
   -2.5287    1.7600   -0.8635 C   0  0  0  0  0  0  0  0  0  0  0  0
    4.9908   -1.7492    0.0284 C   0  0  0  0  0  0  0  0  0  0  0  0
    2.5666   -2.8407   -1.6753 C   0  0  0  0  0  0  0  0  0  0  0  0
   -2.4151   -0.8906    0.5329 C   0  0  0  0  0  0  0  0  0  0  0  0
    5.7567    0.5274    1.4708 C   0  0  0  0  0  0  0  0  0  0  0  0
   -2.4213    3.1331   -0.2659 C   0  0  0  0  0  0  0  0  0  0  0  0
    6.2160   -1.7186    0.6957 C   0  0  0  0  0  0  0  0  0  0  0  0
    6.5975   -0.5847    1.4146 C   0  0  0  0  0  0  0  0  0  0  0  0
   -3.3922   -0.9043    1.5283 C   0  0  0  0  0  0  0  0  0  0  0  0
   -2.4495   -1.8370   -0.4913 C   0  0  0  0  0  0  0  0  0  0  0  0
   -2.8351    3.3571    1.0472 C   0  0  0  0  0  0  0  0  0  0  0  0
   -1.9072    4.1849   -1.0241 C   0  0  0  0  0  0  0  0  0  0  0  0
   -4.4036   -1.8642    1.4995 C   0  0  0  0  0  0  0  0  0  0  0  0
   -3.4610   -2.7969   -0.5201 C   0  0  0  0  0  0  0  0  0  0  0  0
   -4.4381   -2.8105    0.4752 C   0  0  0  0  0  0  0  0  0  0  0  0
   -2.7346    4.6330    1.6022 C   0  0  0  0  0  0  0  0  0  0  0  0
   -1.8066    5.4607   -0.4692 C   0  0  0  0  0  0  0  0  0  0  0  0
   -2.2204    5.6846    0.8439 C   0  0  0  0  0  0  0  0  0  0  0  0
   -5.4931   -3.8112    0.4442 C   0  0  0  0  0  0  0  0  0  0  0  0
    2.5882    2.5901   -0.4845 H   0  0  0  0  0  0  0  0  0  0  0  0
    1.7387    2.0194    0.9569 H   0  0  0  0  0  0  0  0  0  0  0  0
   -1.4424    0.8125    1.4242 H   0  0  0  0  0  0  0  0  0  0  0  0
   -0.3755   -0.3718    0.7219 H   0  0  0  0  0  0  0  0  0  0  0  0
   -3.4231    1.2488   -0.4934 H   0  0  0  0  0  0  0  0  0  0  0  0
   -2.6774    1.8556   -1.9468 H   0  0  0  0  0  0  0  0  0  0  0  0
    4.7417   -2.6484   -0.5168 H   0  0  0  0  0  0  0  0  0  0  0  0
    2.7052   -3.4260   -0.7637 H   0  0  0  0  0  0  0  0  0  0  0  0
    1.7619   -3.2951   -2.2618 H   0  0  0  0  0  0  0  0  0  0  0  0
    3.4679   -2.8018   -2.2907 H   0  0  0  0  0  0  0  0  0  0  0  0
    6.0648    1.4037    2.0350 H   0  0  0  0  0  0  0  0  0  0  0  0
    7.5500   -0.5537    1.9379 H   0  0  0  0  0  0  0  0  0  0  0  0
   -3.3784   -0.1733    2.3322 H   0  0  0  0  0  0  0  0  0  0  0  0
   -1.6972   -1.8426   -1.2739 H   0  0  0  0  0  0  0  0  0  0  0  0
   -3.2426    2.5487    1.6479 H   0  0  0  0  0  0  0  0  0  0  0  0
   -1.5855    4.0290   -2.0499 H   0  0  0  0  0  0  0  0  0  0  0  0
   -5.1558   -1.8578    2.2840 H   0  0  0  0  0  0  0  0  0  0  0  0
   -3.4498   -3.5148   -1.3354 H   0  0  0  0  0  0  0  0  0  0  0  0
   -3.0578    4.8077    2.6243 H   0  0  0  0  0  0  0  0  0  0  0  0
   -1.4073    6.2800   -1.0598 H   0  0  0  0  0  0  0  0  0  0  0  0
   -2.1426    6.6781    1.2758 H   0  0  0  0  0  0  0  0  0  0  0  0
   -6.0956   -5.3251   -0.6301 H   0  0  0  0  0  0  0  0  0  0  0  0
  1 23  1  0  0  0  0
  2 13  1  0  0  0  0
  2 15  1  0  0  0  0
  3 14  2  0  0  0  0
  4 35  1  0  0  0  0
  4 57  1  0  0  0  0
  5 35  2  0  0  0  0
  6  8  1  0  0  0  0
  6 10  1  0  0  0  0
  6 19  1  0  0  0  0
  7 14  1  0  0  0  0
  7 16  1  0  0  0  0
  7 17  1  0  0  0  0
  8 11  2  0  0  0  0
  9 10  2  0  0  0  0
  9 11  1  0  0  0  0
  9 13  1  0  0  0  0
 10 12  1  0  0  0  0
 11 14  1  0  0  0  0
 12 15  2  0  0  0  0
 12 18  1  0  0  0  0
 13 36  1  0  0  0  0
 13 37  1  0  0  0  0
 15 21  1  0  0  0  0
 16 20  1  0  0  0  0
 16 38  1  0  0  0  0
 16 39  1  0  0  0  0
 17 22  1  0  0  0  0
 17 40  1  0  0  0  0
 17 41  1  0  0  0  0
 18 23  2  0  0  0  0
 18 42  1  0  0  0  0
 19 43  1  0  0  0  0
 19 44  1  0  0  0  0
 19 45  1  0  0  0  0
 20 25  2  0  0  0  0
 20 26  1  0  0  0  0
 21 24  2  0  0  0  0
 21 46  1  0  0  0  0
 22 27  2  0  0  0  0
 22 28  1  0  0  0  0
 23 24  1  0  0  0  0
 24 47  1  0  0  0  0
 25 29  1  0  0  0  0
 25 48  1  0  0  0  0
 26 30  2  0  0  0  0
 26 49  1  0  0  0  0
 27 32  1  0  0  0  0
 27 50  1  0  0  0  0
 28 33  2  0  0  0  0
 28 51  1  0  0  0  0
 29 31  2  0  0  0  0
 29 52  1  0  0  0  0
 30 31  1  0  0  0  0
 30 53  1  0  0  0  0
 31 35  1  0  0  0  0
 32 34  2  0  0  0  0
 32 54  1  0  0  0  0
 33 34  1  0  0  0  0
 33 55  1  0  0  0  0
 34 56  1  0  0  0  0
M  END
> <DATABASE_ID>
DB16255

> <DATABASE_NAME>
drugbank

> <ORIGINAL_SOURCE>
PUBCHEM

> <ORIGINAL_SOURCE_URL>
https://pubchem.ncbi.nlm.nih.gov/rest/pug/compound/inchikey/JYTIXGYXBIBOMN-UHFFFAOYSA-N/SDF?record_type=3d

> <SMILES>
CN1N=C(C(=O)N(CC2=CC=CC=C2)CC2=CC=C(C=C2)C(O)=O)C2=C1C1=C(OC2)C=CC(Cl)=C1

> <INCHI_IDENTIFIER>
InChI=1S/C27H22ClN3O4/c1-30-25-21-13-20(28)11-12-23(21)35-16-22(25)24(29-30)26(32)31(14-17-5-3-2-4-6-17)15-18-7-9-19(10-8-18)27(33)34/h2-13H,14-16H2,1H3,(H,33,34)

> <INCHI_KEY>
JYTIXGYXBIBOMN-UHFFFAOYSA-N

> <FORMULA>
C27H22ClN3O4

> <MOLECULAR_WEIGHT>
487.94

> <EXACT_MASS>
487.1298839

> <JCHEM_ACCEPTOR_COUNT>
5

> <JCHEM_ATOM_COUNT>
57

> <JCHEM_AVERAGE_NEUTRAL_MICROSPECIES_CHARGE>
-0.9988393270788506

> <JCHEM_AVERAGE_POLARIZABILITY>
51.442404613998356

> <JCHEM_BIOAVAILABILITY>
1

> <JCHEM_DONOR_COUNT>
1

> <JCHEM_FORMAL_CHARGE>
0

> <JCHEM_GHOSE_FILTER>
0

> <JCHEM_IUPAC>
4-[(N-benzyl-1-{8-chloro-1-methyl-1H,4H-chromeno[4,3-c]pyrazol-3-yl}formamido)methyl]benzoic acid

> <ALOGPS_LOGP>
4.75

> <JCHEM_LOGP>
4.956304965333334

> <ALOGPS_LOGS>
-5.55

> <JCHEM_MDDR_LIKE_RULE>
1

> <JCHEM_NEUTRAL_CHARGE>
-1

> <JCHEM_NUMBER_OF_RINGS>
5

> <JCHEM_PHYSIOLOGICAL_CHARGE>
-1

> <JCHEM_PKA_STRONGEST_ACIDIC>
4.065214199469938

> <JCHEM_PKA_STRONGEST_BASIC>
-0.30307906740353197

> <JCHEM_POLAR_SURFACE_AREA>
84.66000000000001

> <JCHEM_REFRACTIVITY>
144.77889999999996

> <JCHEM_ROTATABLE_BOND_COUNT>
6

> <JCHEM_RULE_OF_FIVE>
1

> <ALOGPS_SOLUBILITY>
1.39e-03 g/l

> <JCHEM_TRADITIONAL_IUPAC>
2-methoxy-4-[(1E)-3-[4-(nitrooxy)butoxy]-3-oxoprop-1-en-1-yl]phenyl (4R)-4-[(1R,3aS,3bR,4S,5aS,7R,9aS,9bS,11aR)-4,7-dihydroxy-9a,11a-dimethyl-tetradecahydro-1H-cyclopenta[a]phenanthren-1-yl]pentanoate

> <JCHEM_VEBER_RULE>
0

$$$$
