28417
  -OEChem-10051719353D

 52 56  0     1  0  0  0  0  0999 V2000
    5.2669   -0.9766   -0.7049 O   0  0  0  0  0  0  0  0  0  0  0  0
   -5.5816    0.1560    0.7908 O   0  0  0  0  0  0  0  0  0  0  0  0
   -6.0520   -1.1220    0.5146 N   0  0  0  0  0  0  0  0  0  0  0  0
    2.1717    0.7469    0.2625 C   0  0  2  0  0  0  0  0  0  0  0  0
    2.8681   -0.3556   -0.5661 C   0  0  2  0  0  0  0  0  0  0  0  0
    0.7606    1.0790   -0.2411 C   0  0  1  0  0  0  0  0  0  0  0  0
   -0.1147   -0.2115   -0.1815 C   0  0  1  0  0  0  0  0  0  0  0  0
   -1.6065    0.0283   -0.6329 C   0  0  2  0  0  0  0  0  0  0  0  0
    2.0245   -1.6391   -0.4537 C   0  0  0  0  0  0  0  0  0  0  0  0
    4.2741   -0.3721    0.1111 C   0  0  2  0  0  0  0  0  0  0  0  0
    0.5693   -1.4075   -0.9007 C   0  0  0  0  0  0  0  0  0  0  0  0
    3.2121    1.8640    0.3166 C   0  0  0  0  0  0  0  0  0  0  0  0
    0.1200    2.1918    0.5990 C   0  0  0  0  0  0  0  0  0  0  0  0
    4.5725    1.1355    0.3339 C   0  0  0  0  0  0  0  0  0  0  0  0
   -2.1711    1.2908    0.0859 C   0  0  0  0  0  0  0  0  0  0  0  0
    3.0154    0.0045   -2.0736 C   0  0  0  0  0  0  0  0  0  0  0  0
   -1.2856    2.5130    0.1103 C   0  0  0  0  0  0  0  0  0  0  0  0
   -2.4308   -1.2852   -0.3176 C   0  0  0  0  0  0  0  0  0  0  0  0
   -1.7143    0.2953   -2.1547 C   0  0  0  0  0  0  0  0  0  0  0  0
    4.2890   -1.0766    1.4087 C   0  0  0  0  0  0  0  0  0  0  0  0
   -3.4102    1.3608    0.6173 C   0  0  0  0  0  0  0  0  0  0  0  0
   -3.8396   -1.0017    0.0427 C   0  0  0  0  0  0  0  0  0  0  0  0
   -4.2480    0.2319    0.4994 C   0  0  0  0  0  0  0  0  0  0  0  0
   -4.9910   -1.8002    0.0704 C   0  0  0  0  0  0  0  0  0  0  0  0
    4.3011   -1.6498    2.4635 C   0  0  0  0  0  0  0  0  0  0  0  0
    2.0512    0.3900    1.2979 H   0  0  0  0  0  0  0  0  0  0  0  0
    0.8205    1.4376   -1.2745 H   0  0  0  0  0  0  0  0  0  0  0  0
   -0.1589   -0.4932    0.8834 H   0  0  0  0  0  0  0  0  0  0  0  0
    1.9929   -2.0005    0.5806 H   0  0  0  0  0  0  0  0  0  0  0  0
    2.4696   -2.4447   -1.0499 H   0  0  0  0  0  0  0  0  0  0  0  0
    0.5474   -1.2644   -1.9851 H   0  0  0  0  0  0  0  0  0  0  0  0
    0.0113   -2.3305   -0.7067 H   0  0  0  0  0  0  0  0  0  0  0  0
    3.0893    2.4897    1.2067 H   0  0  0  0  0  0  0  0  0  0  0  0
    3.1439    2.5192   -0.5591 H   0  0  0  0  0  0  0  0  0  0  0  0
    0.7261    3.1036    0.5436 H   0  0  0  0  0  0  0  0  0  0  0  0
    0.0862    1.8967    1.6558 H   0  0  0  0  0  0  0  0  0  0  0  0
    5.2149    1.5354   -0.4601 H   0  0  0  0  0  0  0  0  0  0  0  0
    5.0953    1.3219    1.2798 H   0  0  0  0  0  0  0  0  0  0  0  0
    3.6399    0.8893   -2.2323 H   0  0  0  0  0  0  0  0  0  0  0  0
    3.4858   -0.8217   -2.6195 H   0  0  0  0  0  0  0  0  0  0  0  0
    2.0596    0.2041   -2.5641 H   0  0  0  0  0  0  0  0  0  0  0  0
   -1.2348    2.9374   -0.8998 H   0  0  0  0  0  0  0  0  0  0  0  0
   -1.7087    3.2960    0.7516 H   0  0  0  0  0  0  0  0  0  0  0  0
   -1.9873   -1.8065    0.5415 H   0  0  0  0  0  0  0  0  0  0  0  0
   -2.3910   -1.9841   -1.1618 H   0  0  0  0  0  0  0  0  0  0  0  0
   -1.0875    1.1329   -2.4764 H   0  0  0  0  0  0  0  0  0  0  0  0
   -1.4180   -0.5784   -2.7440 H   0  0  0  0  0  0  0  0  0  0  0  0
   -2.7457    0.5339   -2.4416 H   0  0  0  0  0  0  0  0  0  0  0  0
   -3.7926    2.2635    1.0798 H   0  0  0  0  0  0  0  0  0  0  0  0
    6.1376   -0.7785   -0.3191 H   0  0  0  0  0  0  0  0  0  0  0  0
   -5.1075   -2.8390   -0.2016 H   0  0  0  0  0  0  0  0  0  0  0  0
    4.3108   -2.1582    3.3991 H   0  0  0  0  0  0  0  0  0  0  0  0
  1 10  1  0  0  0  0
  1 50  1  0  0  0  0
  2  3  1  0  0  0  0
  2 23  1  0  0  0  0
  3 24  2  0  0  0  0
  4  5  1  0  0  0  0
  4  6  1  0  0  0  0
  4 12  1  0  0  0  0
  4 26  1  0  0  0  0
  5  9  1  0  0  0  0
  5 10  1  0  0  0  0
  5 16  1  0  0  0  0
  6  7  1  0  0  0  0
  6 13  1  0  0  0  0
  6 27  1  0  0  0  0
  7  8  1  0  0  0  0
  7 11  1  0  0  0  0
  7 28  1  0  0  0  0
  8 15  1  0  0  0  0
  8 18  1  0  0  0  0
  8 19  1  0  0  0  0
  9 11  1  0  0  0  0
  9 29  1  0  0  0  0
  9 30  1  0  0  0  0
 10 14  1  0  0  0  0
 10 20  1  0  0  0  0
 11 31  1  0  0  0  0
 11 32  1  0  0  0  0
 12 14  1  0  0  0  0
 12 33  1  0  0  0  0
 12 34  1  0  0  0  0
 13 17  1  0  0  0  0
 13 35  1  0  0  0  0
 13 36  1  0  0  0  0
 14 37  1  0  0  0  0
 14 38  1  0  0  0  0
 15 17  1  0  0  0  0
 15 21  2  0  0  0  0
 16 39  1  0  0  0  0
 16 40  1  0  0  0  0
 16 41  1  0  0  0  0
 17 42  1  0  0  0  0
 17 43  1  0  0  0  0
 18 22  1  0  0  0  0
 18 44  1  0  0  0  0
 18 45  1  0  0  0  0
 19 46  1  0  0  0  0
 19 47  1  0  0  0  0
 19 48  1  0  0  0  0
 20 25  3  0  0  0  0
 21 23  1  0  0  0  0
 21 49  1  0  0  0  0
 22 23  2  0  0  0  0
 22 24  1  0  0  0  0
 24 51  1  0  0  0  0
 25 52  1  0  0  0  0
M  END
> <DATABASE_ID>
DB01406

> <DATABASE_NAME>
drugbank

> <ORIGINAL_SOURCE>
PUBCHEM

> <ORIGINAL_SOURCE_URL>
https://pubchem.ncbi.nlm.nih.gov/rest/pug/compound/inchikey/POZRVZJJTULAOH-LHZXLZLDSA-N/SDF?record_type=3d

> <SMILES>
[H][C@@]12CC[C@@](O)(C#C)[C@@]1(C)CC[C@@]1([H])[C@@]2([H])CCC2=CC3=C(C[C@]12C)C=NO3

> <INCHI_IDENTIFIER>
InChI=1S/C22H27NO2/c1-4-22(24)10-8-18-16-6-5-15-11-19-14(13-23-25-19)12-20(15,2)17(16)7-9-21(18,22)3/h1,11,13,16-18,24H,5-10,12H2,2-3H3/t16-,17+,18+,20+,21+,22+/m1/s1

> <INCHI_KEY>
POZRVZJJTULAOH-LHZXLZLDSA-N

> <FORMULA>
C22H27NO2

> <MOLECULAR_WEIGHT>
337.4553

> <EXACT_MASS>
337.204179113

> <JCHEM_ACCEPTOR_COUNT>
2

> <JCHEM_ATOM_COUNT>
52

> <JCHEM_AVERAGE_NEUTRAL_MICROSPECIES_CHARGE>
1.7616601428879563e-07

> <JCHEM_AVERAGE_POLARIZABILITY>
38.43900475915706

> <JCHEM_BIOAVAILABILITY>
1

> <JCHEM_DONOR_COUNT>
1

> <JCHEM_FORMAL_CHARGE>
0

> <JCHEM_GHOSE_FILTER>
1

> <JCHEM_IUPAC>
(1S,2R,13R,14S,17R,18S)-17-ethynyl-2,18-dimethyl-7-oxa-6-azapentacyclo[11.7.0.0^{2,10}.0^{4,8}.0^{14,18}]icosa-4(8),5,9-trien-17-ol

> <ALOGPS_LOGP>
3.62

> <JCHEM_LOGP>
3.462082191666666

> <ALOGPS_LOGS>
-4.28

> <JCHEM_MDDR_LIKE_RULE>
0

> <JCHEM_NEUTRAL_CHARGE>
0

> <JCHEM_NUMBER_OF_RINGS>
5

> <JCHEM_PHYSIOLOGICAL_CHARGE>
0

> <JCHEM_PKA_STRONGEST_ACIDIC>
17.59493194220648

> <JCHEM_PKA_STRONGEST_BASIC>
0.24625761539361118

> <JCHEM_POLAR_SURFACE_AREA>
46.260000000000005

> <JCHEM_REFRACTIVITY>
98.5352

> <JCHEM_ROTATABLE_BOND_COUNT>
0

> <JCHEM_RULE_OF_FIVE>
1

> <ALOGPS_SOLUBILITY>
1.76e-02 g/l

> <JCHEM_TRADITIONAL_IUPAC>
biotin

> <JCHEM_VEBER_RULE>
0

$$$$
