242493
  -OEChem-10061700023D

 56 59  0     1  0  0  0  0  0999 V2000
   -4.9930   -0.9571    0.2334 O   0  0  0  0  0  0  0  0  0  0  0  0
    4.8456   -0.0540   -1.7658 O   0  0  0  0  0  0  0  0  0  0  0  0
   -0.3828    0.8300    0.3411 C   0  0  1  0  0  0  0  0  0  0  0  0
   -1.8003    0.7554   -0.2431 C   0  0  1  0  0  0  0  0  0  0  0  0
    0.4188   -0.4305   -0.1205 C   0  0  1  0  0  0  0  0  0  0  0  0
   -2.5718   -0.5070    0.1998 C   0  0  1  0  0  0  0  0  0  0  0  0
    1.9059   -0.4032    0.3958 C   0  0  2  0  0  0  0  0  0  0  0  0
    2.5484    0.9296   -0.1061 C   0  0  1  0  0  0  0  0  0  0  0  0
   -3.9676   -0.2302   -0.4404 C   0  0  2  0  0  0  0  0  0  0  0  0
   -0.3424   -1.7469    0.1853 C   0  0  0  0  0  0  0  0  0  0  0  0
   -1.7996   -1.7340   -0.3140 C   0  0  0  0  0  0  0  0  0  0  0  0
    0.3283    2.1259   -0.0762 C   0  0  0  0  0  0  0  0  0  0  0  0
   -2.7723    1.8912    0.0587 C   0  0  0  0  0  0  0  0  0  0  0  0
    1.7847    2.1662    0.3815 C   0  0  0  0  0  0  0  0  0  0  0  0
   -4.1649    1.2932   -0.2147 C   0  0  0  0  0  0  0  0  0  0  0  0
    2.7205   -1.5783   -0.2159 C   0  0  0  0  0  0  0  0  0  0  0  0
    4.0482    1.0329    0.2205 C   0  0  0  0  0  0  0  0  0  0  0  0
   -2.7276   -0.6283    1.7444 C   0  0  0  0  0  0  0  0  0  0  0  0
    1.9534   -0.5274    1.9405 C   0  0  0  0  0  0  0  0  0  0  0  0
    4.2260   -1.4954    0.0672 C   0  0  0  0  0  0  0  0  0  0  0  0
    4.8311   -0.1542   -0.3418 C   0  0  1  0  0  0  0  0  0  0  0  0
   -4.0888   -0.5779   -1.9295 C   0  0  0  0  0  0  0  0  0  0  0  0
   -0.4529    0.8427    1.4332 H   0  0  0  0  0  0  0  0  0  0  0  0
    0.4726   -0.3765   -1.2198 H   0  0  0  0  0  0  0  0  0  0  0  0
   -1.6803    0.7341   -1.3370 H   0  0  0  0  0  0  0  0  0  0  0  0
    2.4708    0.9363   -1.2045 H   0  0  0  0  0  0  0  0  0  0  0  0
   -0.3302   -1.9595    1.2582 H   0  0  0  0  0  0  0  0  0  0  0  0
    0.1634   -2.5896   -0.2992 H   0  0  0  0  0  0  0  0  0  0  0  0
   -1.7702   -1.7415   -1.4100 H   0  0  0  0  0  0  0  0  0  0  0  0
   -2.3021   -2.6598   -0.0098 H   0  0  0  0  0  0  0  0  0  0  0  0
   -0.1957    2.9942    0.3398 H   0  0  0  0  0  0  0  0  0  0  0  0
    0.2941    2.2318   -1.1682 H   0  0  0  0  0  0  0  0  0  0  0  0
   -2.5867    2.7660   -0.5732 H   0  0  0  0  0  0  0  0  0  0  0  0
   -2.6970    2.2171    1.1022 H   0  0  0  0  0  0  0  0  0  0  0  0
    2.2524    3.0740   -0.0190 H   0  0  0  0  0  0  0  0  0  0  0  0
    1.8329    2.2496    1.4731 H   0  0  0  0  0  0  0  0  0  0  0  0
   -4.8315    1.4948    0.6321 H   0  0  0  0  0  0  0  0  0  0  0  0
   -4.6171    1.7738   -1.0899 H   0  0  0  0  0  0  0  0  0  0  0  0
    2.5686   -1.6015   -1.3031 H   0  0  0  0  0  0  0  0  0  0  0  0
    2.3577   -2.5392    0.1677 H   0  0  0  0  0  0  0  0  0  0  0  0
    4.4412    1.9592   -0.2177 H   0  0  0  0  0  0  0  0  0  0  0  0
    4.2029    1.1042    1.3027 H   0  0  0  0  0  0  0  0  0  0  0  0
   -1.7711   -0.6404    2.2727 H   0  0  0  0  0  0  0  0  0  0  0  0
   -3.3118    0.1931    2.1714 H   0  0  0  0  0  0  0  0  0  0  0  0
   -3.2420   -1.5604    2.0066 H   0  0  0  0  0  0  0  0  0  0  0  0
    1.5956   -1.5084    2.2704 H   0  0  0  0  0  0  0  0  0  0  0  0
    2.9669   -0.4205    2.3367 H   0  0  0  0  0  0  0  0  0  0  0  0
    1.3439    0.2265    2.4444 H   0  0  0  0  0  0  0  0  0  0  0  0
    4.4125   -1.6711    1.1325 H   0  0  0  0  0  0  0  0  0  0  0  0
    4.7223   -2.3080   -0.4774 H   0  0  0  0  0  0  0  0  0  0  0  0
    5.8718   -0.0960   -0.0045 H   0  0  0  0  0  0  0  0  0  0  0  0
   -3.3400   -0.0750   -2.5472 H   0  0  0  0  0  0  0  0  0  0  0  0
   -4.0072   -1.6591   -2.0865 H   0  0  0  0  0  0  0  0  0  0  0  0
   -5.0785   -0.2964   -2.3091 H   0  0  0  0  0  0  0  0  0  0  0  0
   -5.8508   -0.6485   -0.1052 H   0  0  0  0  0  0  0  0  0  0  0  0
    5.3707   -0.7979   -2.1070 H   0  0  0  0  0  0  0  0  0  0  0  0
  1  9  1  0  0  0  0
  1 55  1  0  0  0  0
  2 21  1  0  0  0  0
  2 56  1  0  0  0  0
  3  4  1  0  0  0  0
  3  5  1  0  0  0  0
  3 12  1  0  0  0  0
  3 23  1  0  0  0  0
  4  6  1  0  0  0  0
  4 13  1  0  0  0  0
  4 25  1  0  0  0  0
  5  7  1  0  0  0  0
  5 10  1  0  0  0  0
  5 24  1  0  0  0  0
  6  9  1  0  0  0  0
  6 11  1  0  0  0  0
  6 18  1  0  0  0  0
  7  8  1  0  0  0  0
  7 16  1  0  0  0  0
  7 19  1  0  0  0  0
  8 14  1  0  0  0  0
  8 17  1  0  0  0  0
  8 26  1  0  0  0  0
  9 15  1  0  0  0  0
  9 22  1  0  0  0  0
 10 11  1  0  0  0  0
 10 27  1  0  0  0  0
 10 28  1  0  0  0  0
 11 29  1  0  0  0  0
 11 30  1  0  0  0  0
 12 14  1  0  0  0  0
 12 31  1  0  0  0  0
 12 32  1  0  0  0  0
 13 15  1  0  0  0  0
 13 33  1  0  0  0  0
 13 34  1  0  0  0  0
 14 35  1  0  0  0  0
 14 36  1  0  0  0  0
 15 37  1  0  0  0  0
 15 38  1  0  0  0  0
 16 20  1  0  0  0  0
 16 39  1  0  0  0  0
 16 40  1  0  0  0  0
 17 21  1  0  0  0  0
 17 41  1  0  0  0  0
 17 42  1  0  0  0  0
 18 43  1  0  0  0  0
 18 44  1  0  0  0  0
 18 45  1  0  0  0  0
 19 46  1  0  0  0  0
 19 47  1  0  0  0  0
 19 48  1  0  0  0  0
 20 21  1  0  0  0  0
 20 49  1  0  0  0  0
 20 50  1  0  0  0  0
 21 51  1  0  0  0  0
 22 52  1  0  0  0  0
 22 53  1  0  0  0  0
 22 54  1  0  0  0  0
M  END
> <DATABASE_ID>
DB01479

> <DATABASE_NAME>
drugbank

> <ORIGINAL_SOURCE>
PUBCHEM

> <ORIGINAL_SOURCE_URL>
https://pubchem.ncbi.nlm.nih.gov/rest/pug/compound/inchikey/QGKQXZFZOIQFBI-XSWYFRFISA-N/SDF?record_type=3d

> <SMILES>
C[C@]1(O)CC[C@H]2[C@@H]3CC[C@H]4C[C@H](O)CC[C@]4(C)[C@H]3CC[C@]12C

> <INCHI_IDENTIFIER>
InChI=1S/C20H34O2/c1-18-9-6-14(21)12-13(18)4-5-15-16(18)7-10-19(2)17(15)8-11-20(19,3)22/h13-17,21-22H,4-12H2,1-3H3/t13-,14+,15+,16-,17-,18-,19-,20-/m0/s1

> <INCHI_KEY>
QGKQXZFZOIQFBI-XSWYFRFISA-N

> <FORMULA>
C20H34O2

> <MOLECULAR_WEIGHT>
306.49

> <EXACT_MASS>
306.255880335

> <JCHEM_ACCEPTOR_COUNT>
2

> <JCHEM_ATOM_COUNT>
56

> <JCHEM_AVERAGE_POLARIZABILITY>
37.05532129870035

> <JCHEM_BIOAVAILABILITY>
1

> <JCHEM_DONOR_COUNT>
2

> <JCHEM_FORMAL_CHARGE>
0

> <JCHEM_GHOSE_FILTER>
1

> <JCHEM_IUPAC>
(1S,2S,5R,7S,10R,11S,14S,15S)-2,14,15-trimethyltetracyclo[8.7.0.0^{2,7}.0^{11,15}]heptadecane-5,14-diol

> <ALOGPS_LOGP>
4.28

> <JCHEM_LOGP>
3.484333499333334

> <ALOGPS_LOGS>
-4.82

> <JCHEM_MDDR_LIKE_RULE>
0

> <JCHEM_NUMBER_OF_RINGS>
4

> <JCHEM_PHYSIOLOGICAL_CHARGE>
0

> <JCHEM_PKA_STRONGEST_ACIDIC>
18.2963963211217

> <JCHEM_PKA_STRONGEST_BASIC>
-0.46803704333201435

> <JCHEM_POLAR_SURFACE_AREA>
40.46

> <JCHEM_REFRACTIVITY>
89.2694

> <JCHEM_ROTATABLE_BOND_COUNT>
0

> <JCHEM_RULE_OF_FIVE>
1

> <ALOGPS_SOLUBILITY>
4.69e-03 g/l

> <JCHEM_TRADITIONAL_IUPAC>
(1S,2S,5R,7S,10R,11S,14S,15S)-2,14,15-trimethyltetracyclo[8.7.0.0^{2,7}.0^{11,15}]heptadecane-5,14-diol

> <JCHEM_VEBER_RULE>
0

$$$$
