7092657
  -OEChem-01121815193D

 52 55  0     1  0  0  0  0  0999 V2000
   -5.0494    0.9232   -0.3058 O   0  0  0  0  0  0  0  0  0  0  0  0
    5.9329    0.1365    0.6871 O   0  0  0  0  0  0  0  0  0  0  0  0
   -2.6125    0.5008   -0.2276 C   0  0  1  0  0  0  0  0  0  0  0  0
   -1.8431   -0.7391    0.2758 C   0  0  2  0  0  0  0  0  0  0  0  0
   -0.4162   -0.8315   -0.2834 C   0  0  1  0  0  0  0  0  0  0  0  0
    0.3812    0.4471    0.1452 C   0  0  1  0  0  0  0  0  0  0  0  0
    1.8749    0.3930   -0.3542 C   0  0  1  0  0  0  0  0  0  0  0  0
   -4.0158    0.2454    0.4047 C   0  0  2  0  0  0  0  0  0  0  0  0
   -1.8502    1.7484    0.2473 C   0  0  0  0  0  0  0  0  0  0  0  0
   -0.3863    1.7450   -0.2325 C   0  0  0  0  0  0  0  0  0  0  0  0
   -2.8078   -1.8897    0.0066 C   0  0  0  0  0  0  0  0  0  0  0  0
    0.2822   -2.1158    0.1865 C   0  0  0  0  0  0  0  0  0  0  0  0
    2.4979   -0.9278    0.2013 C   0  0  1  0  0  0  0  0  0  0  0  0
   -4.2059   -1.2862    0.2360 C   0  0  0  0  0  0  0  0  0  0  0  0
    1.7414   -2.1777   -0.2544 C   0  0  0  0  0  0  0  0  0  0  0  0
   -2.7483    0.5590   -1.7777 C   0  0  0  0  0  0  0  0  0  0  0  0
    1.9554    0.4834   -1.8968 C   0  0  0  0  0  0  0  0  0  0  0  0
   -4.1633    0.6435    1.8785 C   0  0  0  0  0  0  0  0  0  0  0  0
    2.7098    1.5476    0.1857 C   0  0  0  0  0  0  0  0  0  0  0  0
    3.9952   -1.0391   -0.0947 C   0  0  0  0  0  0  0  0  0  0  0  0
    3.9952    1.4569    0.5519 C   0  0  0  0  0  0  0  0  0  0  0  0
    4.7329    0.1771    0.4204 C   0  0  0  0  0  0  0  0  0  0  0  0
   -1.7387   -0.6740    1.3696 H   0  0  0  0  0  0  0  0  0  0  0  0
   -0.4667   -0.8793   -1.3761 H   0  0  0  0  0  0  0  0  0  0  0  0
    0.4187    0.4408    1.2466 H   0  0  0  0  0  0  0  0  0  0  0  0
   -1.8368    1.8003    1.3425 H   0  0  0  0  0  0  0  0  0  0  0  0
   -2.3505    2.6598   -0.1011 H   0  0  0  0  0  0  0  0  0  0  0  0
   -0.3615    1.9067   -1.3139 H   0  0  0  0  0  0  0  0  0  0  0  0
    0.1022    2.6158    0.2170 H   0  0  0  0  0  0  0  0  0  0  0  0
   -2.6289   -2.7373    0.6762 H   0  0  0  0  0  0  0  0  0  0  0  0
   -2.7166   -2.2574   -1.0216 H   0  0  0  0  0  0  0  0  0  0  0  0
   -0.2411   -2.9957   -0.2056 H   0  0  0  0  0  0  0  0  0  0  0  0
    0.2354   -2.1839    1.2810 H   0  0  0  0  0  0  0  0  0  0  0  0
    2.4069   -0.8952    1.2999 H   0  0  0  0  0  0  0  0  0  0  0  0
   -4.8588   -1.5244   -0.6122 H   0  0  0  0  0  0  0  0  0  0  0  0
   -4.6701   -1.7347    1.1220 H   0  0  0  0  0  0  0  0  0  0  0  0
    2.2027   -3.0726    0.1811 H   0  0  0  0  0  0  0  0  0  0  0  0
    1.8014   -2.2969   -1.3421 H   0  0  0  0  0  0  0  0  0  0  0  0
   -1.7855    0.5551   -2.2942 H   0  0  0  0  0  0  0  0  0  0  0  0
   -3.3232   -0.2819   -2.1788 H   0  0  0  0  0  0  0  0  0  0  0  0
   -3.2646    1.4769   -2.0828 H   0  0  0  0  0  0  0  0  0  0  0  0
    2.9879    0.4158   -2.2575 H   0  0  0  0  0  0  0  0  0  0  0  0
    1.3923   -0.3095   -2.3956 H   0  0  0  0  0  0  0  0  0  0  0  0
    1.5687    1.4398   -2.2656 H   0  0  0  0  0  0  0  0  0  0  0  0
   -4.0899    1.7301    1.9975 H   0  0  0  0  0  0  0  0  0  0  0  0
   -5.1568    0.3696    2.2538 H   0  0  0  0  0  0  0  0  0  0  0  0
   -3.4204    0.1687    2.5249 H   0  0  0  0  0  0  0  0  0  0  0  0
    2.2524    2.5306    0.2459 H   0  0  0  0  0  0  0  0  0  0  0  0
    4.1990   -1.1500   -1.1641 H   0  0  0  0  0  0  0  0  0  0  0  0
    4.4017   -1.9180    0.4200 H   0  0  0  0  0  0  0  0  0  0  0  0
   -5.9045    0.6199    0.0443 H   0  0  0  0  0  0  0  0  0  0  0  0
    4.5400    2.3218    0.9123 H   0  0  0  0  0  0  0  0  0  0  0  0
  1  8  1  0  0  0  0
  1 51  1  0  0  0  0
  2 22  2  0  0  0  0
  3  4  1  0  0  0  0
  3  8  1  0  0  0  0
  3  9  1  0  0  0  0
  3 16  1  0  0  0  0
  4  5  1  0  0  0  0
  4 11  1  0  0  0  0
  4 23  1  0  0  0  0
  5  6  1  0  0  0  0
  5 12  1  0  0  0  0
  5 24  1  0  0  0  0
  6  7  1  0  0  0  0
  6 10  1  0  0  0  0
  6 25  1  0  0  0  0
  7 13  1  0  0  0  0
  7 17  1  0  0  0  0
  7 19  1  0  0  0  0
  8 14  1  0  0  0  0
  8 18  1  0  0  0  0
  9 10  1  0  0  0  0
  9 26  1  0  0  0  0
  9 27  1  0  0  0  0
 10 28  1  0  0  0  0
 10 29  1  0  0  0  0
 11 14  1  0  0  0  0
 11 30  1  0  0  0  0
 11 31  1  0  0  0  0
 12 15  1  0  0  0  0
 12 32  1  0  0  0  0
 12 33  1  0  0  0  0
 13 15  1  0  0  0  0
 13 20  1  0  0  0  0
 13 34  1  0  0  0  0
 14 35  1  0  0  0  0
 14 36  1  0  0  0  0
 15 37  1  0  0  0  0
 15 38  1  0  0  0  0
 16 39  1  0  0  0  0
 16 40  1  0  0  0  0
 16 41  1  0  0  0  0
 17 42  1  0  0  0  0
 17 43  1  0  0  0  0
 17 44  1  0  0  0  0
 18 45  1  0  0  0  0
 18 46  1  0  0  0  0
 18 47  1  0  0  0  0
 19 21  2  0  0  0  0
 19 48  1  0  0  0  0
 20 22  1  0  0  0  0
 20 49  1  0  0  0  0
 20 50  1  0  0  0  0
 21 22  1  0  0  0  0
 21 52  1  0  0  0  0
M  END
> <DATABASE_ID>
DB01572

> <DATABASE_NAME>
drugbank

> <ORIGINAL_SOURCE>
PUBCHEM

> <ORIGINAL_SOURCE_URL>
https://pubchem.ncbi.nlm.nih.gov/rest/pug/compound/inchikey/JRNSSSJKIGAFCT-YDSAWKJFSA-N/SDF?record_type=3d

> <SMILES>
[H][C@@]12CC[C@](C)(O)[C@@]1(C)CC[C@@]1([H])[C@@]2([H])CC[C@@]2([H])CC(=O)C=C[C@]12C

> <INCHI_IDENTIFIER>
InChI=1S/C20H30O2/c1-18-9-6-14(21)12-13(18)4-5-15-16(18)7-10-19(2)17(15)8-11-20(19,3)22/h6,9,13,15-17,22H,4-5,7-8,10-12H2,1-3H3/t13-,15+,16-,17-,18-,19-,20-/m0/s1

> <INCHI_KEY>
JRNSSSJKIGAFCT-YDSAWKJFSA-N

> <FORMULA>
C20H30O2

> <MOLECULAR_WEIGHT>
302.458

> <EXACT_MASS>
302.224580206

> <JCHEM_ACCEPTOR_COUNT>
2

> <JCHEM_ATOM_COUNT>
52

> <JCHEM_AVERAGE_POLARIZABILITY>
35.72707369181495

> <JCHEM_BIOAVAILABILITY>
1

> <JCHEM_DONOR_COUNT>
1

> <JCHEM_FORMAL_CHARGE>
0

> <JCHEM_GHOSE_FILTER>
1

> <JCHEM_IUPAC>
(1S,3aS,3bR,5aS,9aR,9bS,11aS)-1-hydroxy-1,9a,11a-trimethyl-1H,2H,3H,3aH,3bH,4H,5H,5aH,6H,7H,9aH,9bH,10H,11H,11aH-cyclopenta[a]phenanthren-7-one

> <ALOGPS_LOGP>
3.79

> <JCHEM_LOGP>
3.6896577906666677

> <ALOGPS_LOGS>
-4.88

> <JCHEM_MDDR_LIKE_RULE>
0

> <JCHEM_NUMBER_OF_RINGS>
4

> <JCHEM_PHYSIOLOGICAL_CHARGE>
0

> <JCHEM_PKA_STRONGEST_BASIC>
-0.5280733046100229

> <JCHEM_POLAR_SURFACE_AREA>
37.3

> <JCHEM_REFRACTIVITY>
89.3346

> <JCHEM_ROTATABLE_BOND_COUNT>
0

> <JCHEM_RULE_OF_FIVE>
1

> <ALOGPS_SOLUBILITY>
4.01e-03 g/l

> <JCHEM_TRADITIONAL_IUPAC>
methyl-1-testosterone

> <JCHEM_VEBER_RULE>
1

$$$$
