
     RDKit          3D

 52 56  0  0  0  0  0  0  0  0999 V2000
    5.0907    0.9658    4.3756 C   0  0  0  0  0  0  0  0  0  0  0  0
    4.3940    1.0733    3.5176 C   0  0  0  0  0  0  0  0  0  0  0  0
    4.5069    2.3598    2.5667 C   0  0  1  0  0  0  0  0  0  0  0  0
    5.1969    1.4586    1.4001 C   0  0  0  0  0  0  0  0  0  0  0  0
    4.4452    0.2727    1.2477 C   0  0  2  0  0  0  0  0  0  0  0  0
    5.0087   -0.8441    0.6366 C   0  0  0  0  0  0  0  0  0  0  0  0
    4.5757   -1.5840   -0.4867 C   0  0  0  0  0  0  0  0  0  0  0  0
    3.3625   -0.9916   -1.3803 C   0  0  1  0  0  0  0  0  0  0  0  0
    2.6086   -2.4012   -1.6629 C   0  0  0  0  0  0  0  0  0  0  0  0
    3.0293   -2.5821   -3.0994 C   0  0  0  0  0  0  0  0  0  0  0  0
    3.9702   -3.3452   -3.4603 O   0  0  0  0  0  0  0  0  0  0  0  0
    2.4130   -1.8875   -4.1380 O   0  0  0  0  0  0  0  0  0  0  0  0
    3.1704   -3.5071   -0.9795 C   0  0  0  0  0  0  0  0  0  0  0  0
    4.3649   -3.8743   -1.2323 O   0  0  0  0  0  0  0  0  0  0  0  0
    2.5090   -4.5561   -0.3315 O   0  0  0  0  0  0  0  0  0  0  0  0
    1.1643   -2.2296   -1.8163 C   0  0  0  0  0  0  0  0  0  0  0  0
    0.5171   -1.7394   -0.3874 C   0  0  2  0  0  0  0  0  0  0  0  0
   -0.8096   -1.3364   -0.9980 O   0  0  0  0  0  0  0  0  0  0  0  0
   -1.1235   -0.2944    0.0696 C   0  0  1  0  0  0  0  0  0  0  0  0
   -1.5729    0.6687   -1.0180 O   0  0  0  0  0  0  0  0  0  0  0  0
   -1.9165    1.8437   -0.1496 C   0  0  1  0  0  0  0  0  0  0  0  0
   -2.3757    2.7333   -1.4592 C   0  0  0  0  0  0  0  0  0  0  0  0
   -1.3102    3.5474   -1.7564 O   0  0  0  0  0  0  0  0  0  0  0  0
   -1.4346    3.8609   -3.0417 O   0  0  0  0  0  0  0  0  0  0  0  0
   -3.5333    1.3299    0.0159 C   0  0  2  0  0  0  0  0  0  0  0  0
   -3.7422    2.4249    1.0191 O   0  0  0  0  0  0  0  0  0  0  0  0
   -5.1068    3.2775    0.5931 S   0  0  0  0  0  0  0  0  0  0  0  0
   -6.1684    2.2340    0.3820 O   0  0  0  0  0  0  0  0  0  0  0  0
   -5.4300    4.0564    1.8537 O   0  0  0  0  0  0  0  0  0  0  0  0
   -4.8953    4.2570   -0.7400 O   0  0  0  0  0  0  0  0  0  0  0  0
   -3.3461    0.1809    1.2526 C   0  0  2  0  0  0  0  0  0  0  0  0
   -2.1037    0.7213    1.9001 O   0  0  0  0  0  0  0  0  0  0  0  0
   -2.2384   -0.0040    3.4304 S   0  0  0  0  0  0  0  0  0  0  0  0
   -3.6175   -0.4803    3.7499 O   0  0  0  0  0  0  0  0  0  0  0  0
   -1.3873   -1.2509    3.3974 O   0  0  0  0  0  0  0  0  0  0  0  0
   -1.7124    0.9526    4.6792 O   0  0  0  0  0  0  0  0  0  0  0  0
   -2.6460   -1.0663    0.3232 C   0  0  1  0  0  0  0  0  0  0  0  0
   -3.2225   -0.7353   -1.0270 O   0  0  0  0  0  0  0  0  0  0  0  0
   -4.3918   -1.0995   -1.4869 C   0  0  0  0  0  0  0  0  0  0  0  0
   -5.2869   -1.1898   -0.6277 O   0  0  0  0  0  0  0  0  0  0  0  0
   -4.6811   -0.4200   -2.8033 C   0  0  0  0  0  0  0  0  0  0  0  0
   -3.5770   -0.5303   -3.7875 C   0  0  0  0  0  0  0  0  0  0  0  0
   -3.1002   -1.9011   -4.0977 C   0  0  0  0  0  0  0  0  0  0  0  0
   -2.5731    0.5465   -3.8229 C   0  0  0  0  0  0  0  0  0  0  0  0
    1.1508   -0.2220   -0.5854 C   0  0  0  0  0  0  0  0  0  0  0  0
    2.4977   -0.5995   -0.0471 C   0  0  1  0  0  0  0  0  0  0  0  0
    2.5635   -1.6357    0.8888 C   0  0  0  0  0  0  0  0  0  0  0  0
    3.3480    0.7703    0.1411 C   0  0  1  0  0  0  0  0  0  0  0  0
    2.3932    1.4762    1.2504 C   0  0  0  0  0  0  0  0  0  0  0  0
    2.9695    2.3987    2.0459 C   0  0  0  0  0  0  0  0  0  0  0  0
    3.5815    0.0240    2.6049 C   0  0  1  0  0  0  0  0  0  0  0  0
    4.4713   -1.1269    3.0812 O   0  0  0  0  0  0  0  0  0  0  0  0
  1  2  2  0
  3  2  1  1
  3  4  1  0
  4  5  1  0
  5  6  1  6
  6  7  1  0
  8  7  1  1
  8  9  1  0
  9 10  1  0
 10 11  2  0
 10 12  1  0
  9 13  1  0
 13 14  2  0
 13 15  1  0
  9 16  1  0
 16 17  1  0
 17 18  1  6
 19 18  1  6
 19 20  1  0
 20 21  1  0
 21 22  1  6
 22 23  1  0
 23 24  1  0
 21 25  1  0
 25 26  1  1
 26 27  1  0
 27 28  2  0
 27 29  2  0
 27 30  1  0
 25 31  1  0
 31 32  1  1
 32 33  1  0
 33 34  2  0
 33 35  2  0
 33 36  1  0
 31 37  1  0
 37 38  1  6
 38 39  1  0
 39 40  2  0
 39 41  1  0
 41 42  1  0
 42 43  1  0
 42 44  1  0
 17 45  1  0
 45 46  1  0
 46 47  1  1
 46 48  1  0
 48 49  1  1
 49 50  1  0
  5 51  1  0
 51 52  1  1
 51  2  1  0
 50  3  1  0
 48  5  1  0
 46  8  1  0
 37 19  1  0
M  END
>  <zinc_id>  (1) 
ZINC000096006053

>  <smiles>  (1) 
C=C1[C@H](O)[C@@]23CC[C@H]4C(C(=O)O)(C(=O)O)C[C@H](O[C@H]5O[C@@H](COO)[C@H](OS(=O)(=O)O)[C@H](OS(=O)(=O)O)[C@H]5OC(=O)CC(C)C)C[C@]4(C)[C@H]2CC[C@@H]1C3

$$$$
