
     RDKit          3D

 56 61  0  0  0  0  0  0  0  0999 V2000
   -5.7353    5.2933   -0.9054 C   0  0  0  0  0  0  0  0  0  0  0  0
   -4.9057    4.0739   -1.0322 C   0  0  0  0  0  0  0  0  0  0  0  0
   -3.6371    3.9399   -0.3743 C   0  0  0  0  0  0  0  0  0  0  0  0
   -5.5209    3.0299   -1.6049 C   0  0  0  0  0  0  0  0  0  0  0  0
   -5.3312    1.5952   -1.3489 C   0  0  0  0  0  0  0  0  0  0  0  0
   -4.0674    1.0139   -1.9920 C   0  0  0  0  0  0  0  0  0  0  0  0
   -3.7516   -0.2928   -1.5557 C   0  0  2  0  0  0  0  0  0  0  0  0
   -4.1735   -1.3703   -2.4517 C   0  0  0  0  0  0  0  0  0  0  0  0
   -4.4412   -0.3232   -0.3011 O   0  0  0  0  0  0  0  0  0  0  0  0
   -4.0936   -1.7280    0.2042 C   0  0  2  0  0  0  0  0  0  0  0  0
   -5.5685   -2.1406    0.1309 O   0  0  0  0  0  0  0  0  0  0  0  0
   -5.1369   -3.4145    0.8546 C   0  0  2  0  0  0  0  0  0  0  0  0
   -6.3736   -4.4508    0.4294 C   0  0  0  0  0  0  0  0  0  0  0  0
   -6.5184   -4.3346   -0.9795 O   0  0  0  0  0  0  0  0  0  0  0  0
   -6.0245   -2.5448    2.0851 C   0  0  1  0  0  0  0  0  0  0  0  0
   -6.3568   -3.7571    2.9116 O   0  0  0  0  0  0  0  0  0  0  0  0
   -4.4449   -2.4039    2.7214 C   0  0  2  0  0  0  0  0  0  0  0  0
   -4.8203   -1.4757    3.8614 O   0  0  0  0  0  0  0  0  0  0  0  0
   -4.0213   -1.0611    1.7794 C   0  0  1  0  0  0  0  0  0  0  0  0
   -2.6005   -1.5669    1.8440 O   0  0  0  0  0  0  0  0  0  0  0  0
   -2.3057   -0.5669   -0.9206 C   0  0  1  0  0  0  0  0  0  0  0  0
   -1.7852   -1.5909   -2.0774 C   0  0  0  0  0  0  0  0  0  0  0  0
   -0.3130   -1.1468   -2.2141 C   0  0  0  0  0  0  0  0  0  0  0  0
   -0.1373   -0.1710   -1.0576 C   0  0  2  0  0  0  0  0  0  0  0  0
   -0.3565   -0.8093    0.2189 C   0  0  0  0  0  0  0  0  0  0  0  0
   -1.3928    0.6725   -1.5952 C   0  0  2  0  0  0  0  0  0  0  0  0
   -1.5568    1.7146   -0.2637 C   0  0  2  0  0  0  0  0  0  0  0  0
   -2.0587    2.8020   -1.1951 O   0  0  0  0  0  0  0  0  0  0  0  0
   -0.0969    2.4435   -0.2831 C   0  0  0  0  0  0  0  0  0  0  0  0
    0.9017    1.3085    0.3090 C   0  0  2  0  0  0  0  0  0  0  0  0
    2.1537    2.3390    0.3460 C   0  0  1  0  0  0  0  0  0  0  0  0
    1.9856    3.4704   -0.4665 C   0  0  0  0  0  0  0  0  0  0  0  0
    2.1770    2.5516    1.8724 C   0  0  0  0  0  0  0  0  0  0  0  0
    3.4261    2.0354    2.4654 C   0  0  0  0  0  0  0  0  0  0  0  0
    4.7360    2.8568    1.8866 C   0  0  2  0  0  0  0  0  0  0  0  0
    3.9837    4.1755    1.8864 O   0  0  0  0  0  0  0  0  0  0  0  0
    4.4965    2.6521    0.2732 C   0  0  0  0  0  0  0  0  0  0  0  0
    5.8889    2.1930   -0.0393 C   0  0  0  0  0  0  0  0  0  0  0  0
    4.3289    3.7658   -0.5024 C   0  0  0  0  0  0  0  0  0  0  0  0
    3.4689    1.4263    0.2474 C   0  0  2  0  0  0  0  0  0  0  0  0
    3.4719    1.1167   -1.4241 C   0  0  1  0  0  0  0  0  0  0  0  0
    4.5597    0.0618   -1.4260 O   0  0  0  0  0  0  0  0  0  0  0  0
    4.3036   -0.7080   -0.1395 C   0  0  2  0  0  0  0  0  0  0  0  0
    5.7721   -1.0123    0.0476 O   0  0  0  0  0  0  0  0  0  0  0  0
    5.2567   -1.8501    1.1846 C   0  0  2  0  0  0  0  0  0  0  0  0
    6.5997   -1.5583    2.0869 C   0  0  0  0  0  0  0  0  0  0  0  0
    6.0440   -1.0639    3.2730 O   0  0  0  0  0  0  0  0  0  0  0  0
    6.0155   -3.1359    0.3930 C   0  0  1  0  0  0  0  0  0  0  0  0
    5.0742   -4.1534    0.9734 O   0  0  0  0  0  0  0  0  0  0  0  0
    5.2149   -3.1044   -1.1052 C   0  0  2  0  0  0  0  0  0  0  0  0
    6.0730   -2.0458   -1.7658 O   0  0  0  0  0  0  0  0  0  0  0  0
    3.8300   -2.1619   -0.9168 C   0  0  1  0  0  0  0  0  0  0  0  0
    3.3123   -2.8425    0.3248 O   0  0  0  0  0  0  0  0  0  0  0  0
    2.3302   -0.0423   -1.2093 C   0  0  0  0  0  0  0  0  0  0  0  0
    1.0959    0.6772   -1.1804 C   0  0  1  0  0  0  0  0  0  0  0  0
    1.0252    1.6194   -2.2829 C   0  0  0  0  0  0  0  0  0  0  0  0
  1  2  1  0
  2  3  1  0
  2  4  2  3
  4  5  1  0
  5  6  1  0
  7  6  1  6
  7  8  1  0
  7  9  1  0
 10  9  1  6
 10 11  1  0
 11 12  1  0
 12 13  1  6
 13 14  1  0
 12 15  1  0
 15 16  1  1
 15 17  1  0
 17 18  1  1
 17 19  1  0
 19 20  1  1
  7 21  1  0
 21 22  1  6
 22 23  1  0
 23 24  1  0
 24 25  1  1
 24 26  1  0
 26 27  1  1
 27 28  1  6
 27 29  1  0
 30 29  1  6
 30 31  1  0
 31 32  1  6
 31 33  1  0
 33 34  1  0
 34 35  1  0
 35 36  1  6
 35 37  1  0
 37 38  1  0
 37 39  1  0
 40 37  1  6
 40 41  1  0
 41 42  1  1
 43 42  1  6
 43 44  1  0
 44 45  1  0
 45 46  1  1
 46 47  1  0
 45 48  1  0
 48 49  1  1
 48 50  1  0
 50 51  1  6
 50 52  1  0
 52 53  1  1
 41 54  1  0
 54 55  1  0
 55 56  1  6
 19 10  1  0
 26 21  1  0
 55 30  1  0
 55 24  1  0
 40 31  1  0
 52 43  1  0
M  END
>  <zinc_id>  (1) 
ZINC000238809655

>  <smiles>  (1) 
CC(C)=CCC[C@](C)(O[C@@H]1O[C@H](CO)[C@@H](O)[C@H](O)[C@H]1O)[C@H]1CC[C@]2(C)[C@@H]1[C@H](O)C[C@@H]1[C@@]3(C)CC[C@H](O)C(C)(C)[C@@H]3[C@@H](O[C@@H]3O[C@H](CO)[C@@H](O)[C@H](O)[C@H]3O)C[C@]12C

$$$$
