6857724
  -OEChem-02102012233D

 59 63  0     1  0  0  0  0  0999 V2000
   -3.3333    2.2711   -0.4706 O   0  0  0  0  0  0  0  0  0  0  0  0
   -1.5631   -3.3619    0.4357 O   0  0  0  0  0  0  0  0  0  0  0  0
    1.4192   -0.2446    2.3891 O   0  0  0  0  0  0  0  0  0  0  0  0
    4.0015   -0.8259   -1.7546 O   0  0  0  0  0  0  0  0  0  0  0  0
    3.0502    1.4024    2.3796 O   0  0  0  0  0  0  0  0  0  0  0  0
    7.7867    0.6771   -1.6152 O   0  0  0  0  0  0  0  0  0  0  0  0
    6.6721   -1.2067   -2.2282 O   0  0  0  0  0  0  0  0  0  0  0  0
    2.1475   -0.0453    0.1661 N   0  0  0  0  0  0  0  0  0  0  0  0
   -4.1914   -0.4105   -0.9496 C   0  0  1  0  0  0  0  0  0  0  0  0
   -3.0062   -0.0567    0.0241 C   0  0  1  0  0  0  0  0  0  0  0  0
   -5.4920    1.3643   -0.0297 C   0  0  1  0  0  0  0  0  0  0  0  0
   -4.5669    1.9190   -1.1478 C   0  0  2  0  0  0  0  0  0  0  0  0
   -3.2598    1.3501    0.6515 C   0  0  2  0  0  0  0  0  0  0  0  0
   -5.5686   -0.1396   -0.3166 C   0  0  0  0  0  0  0  0  0  0  0  0
   -4.2302    0.7040   -2.0269 C   0  0  0  0  0  0  0  0  0  0  0  0
   -4.6511    1.5595    1.2234 C   0  0  0  0  0  0  0  0  0  0  0  0
   -2.5776   -1.2145    0.9711 C   0  0  1  0  0  0  0  0  0  0  0  0
   -4.0723   -1.7855   -1.5203 C   0  0  0  0  0  0  0  0  0  0  0  0
   -5.0989    3.1136   -1.9063 C   0  0  0  0  0  0  0  0  0  0  0  0
   -2.3767   -2.4894    0.1284 C   0  0  0  0  0  0  0  0  0  0  0  0
   -1.2246   -0.8574    1.6280 C   0  0  0  0  0  0  0  0  0  0  0  0
   -3.5559   -1.5746    2.0940 C   0  0  0  0  0  0  0  0  0  0  0  0
   -3.2428   -2.7250   -1.0562 C   0  0  0  0  0  0  0  0  0  0  0  0
   -0.1472   -0.5972    0.5903 C   0  0  0  0  0  0  0  0  0  0  0  0
    1.2196   -0.2696    1.1792 C   0  0  0  0  0  0  0  0  0  0  0  0
    3.5168    0.2834    0.3078 C   0  0  0  0  0  0  0  0  0  0  0  0
    4.4201   -0.1178   -0.6650 C   0  0  0  0  0  0  0  0  0  0  0  0
    3.9308    1.0031    1.4185 C   0  0  0  0  0  0  0  0  0  0  0  0
    5.7690    0.2086   -0.5237 C   0  0  0  0  0  0  0  0  0  0  0  0
    5.2796    1.3293    1.5598 C   0  0  0  0  0  0  0  0  0  0  0  0
    6.1987    0.9321    0.5887 C   0  0  0  0  0  0  0  0  0  0  0  0
    6.7470   -0.1956   -1.5245 C   0  0  0  0  0  0  0  0  0  0  0  0
   -2.1804    0.0854   -0.6845 H   0  0  0  0  0  0  0  0  0  0  0  0
   -6.4824    1.8222    0.0338 H   0  0  0  0  0  0  0  0  0  0  0  0
   -2.4620    1.6796    1.3197 H   0  0  0  0  0  0  0  0  0  0  0  0
   -5.7844   -0.7279    0.5765 H   0  0  0  0  0  0  0  0  0  0  0  0
   -6.3776   -0.3433   -1.0315 H   0  0  0  0  0  0  0  0  0  0  0  0
   -3.2709    0.8130   -2.5463 H   0  0  0  0  0  0  0  0  0  0  0  0
   -5.0106    0.5167   -2.7755 H   0  0  0  0  0  0  0  0  0  0  0  0
   -4.7621    2.5923    1.5768 H   0  0  0  0  0  0  0  0  0  0  0  0
   -4.9182    0.8910    2.0422 H   0  0  0  0  0  0  0  0  0  0  0  0
   -4.6997   -2.0329   -2.3734 H   0  0  0  0  0  0  0  0  0  0  0  0
   -5.2764    3.9550   -1.2278 H   0  0  0  0  0  0  0  0  0  0  0  0
   -4.3708    3.4575   -2.6490 H   0  0  0  0  0  0  0  0  0  0  0  0
   -6.0361    2.8779   -2.4199 H   0  0  0  0  0  0  0  0  0  0  0  0
   -0.8920   -1.6764    2.2808 H   0  0  0  0  0  0  0  0  0  0  0  0
   -1.3288    0.0130    2.2870 H   0  0  0  0  0  0  0  0  0  0  0  0
   -3.1622   -2.4010    2.6998 H   0  0  0  0  0  0  0  0  0  0  0  0
   -3.7199   -0.7372    2.7765 H   0  0  0  0  0  0  0  0  0  0  0  0
   -4.5182   -1.9230    1.7141 H   0  0  0  0  0  0  0  0  0  0  0  0
   -3.1876   -3.6995   -1.5288 H   0  0  0  0  0  0  0  0  0  0  0  0
   -0.3840    0.2845   -0.0134 H   0  0  0  0  0  0  0  0  0  0  0  0
   -0.0124   -1.4460   -0.0873 H   0  0  0  0  0  0  0  0  0  0  0  0
    1.8775   -0.3368   -0.7714 H   0  0  0  0  0  0  0  0  0  0  0  0
    5.6288    1.8902    2.4227 H   0  0  0  0  0  0  0  0  0  0  0  0
    7.2444    1.1904    0.7341 H   0  0  0  0  0  0  0  0  0  0  0  0
    4.7329   -0.9745   -2.3741 H   0  0  0  0  0  0  0  0  0  0  0  0
    3.5318    1.8893    3.0701 H   0  0  0  0  0  0  0  0  0  0  0  0
    8.4402    0.3975   -2.2913 H   0  0  0  0  0  0  0  0  0  0  0  0
  1 12  1  0  0  0  0
  1 13  1  0  0  0  0
  2 20  2  0  0  0  0
  3 25  2  0  0  0  0
  4 27  1  0  0  0  0
  4 57  1  0  0  0  0
  5 28  1  0  0  0  0
  5 58  1  0  0  0  0
  6 32  1  0  0  0  0
  6 59  1  0  0  0  0
  7 32  2  0  0  0  0
  8 25  1  0  0  0  0
  8 26  1  0  0  0  0
  8 54  1  0  0  0  0
  9 10  1  0  0  0  0
  9 14  1  0  0  0  0
  9 15  1  0  0  0  0
  9 18  1  0  0  0  0
 10 13  1  0  0  0  0
 10 17  1  0  0  0  0
 10 33  1  0  0  0  0
 11 12  1  0  0  0  0
 11 14  1  0  0  0  0
 11 16  1  0  0  0  0
 11 34  1  0  0  0  0
 12 15  1  0  0  0  0
 12 19  1  0  0  0  0
 13 16  1  0  0  0  0
 13 35  1  0  0  0  0
 14 36  1  0  0  0  0
 14 37  1  0  0  0  0
 15 38  1  0  0  0  0
 15 39  1  0  0  0  0
 16 40  1  0  0  0  0
 16 41  1  0  0  0  0
 17 20  1  0  0  0  0
 17 21  1  0  0  0  0
 17 22  1  0  0  0  0
 18 23  2  0  0  0  0
 18 42  1  0  0  0  0
 19 43  1  0  0  0  0
 19 44  1  0  0  0  0
 19 45  1  0  0  0  0
 20 23  1  0  0  0  0
 21 24  1  0  0  0  0
 21 46  1  0  0  0  0
 21 47  1  0  0  0  0
 22 48  1  0  0  0  0
 22 49  1  0  0  0  0
 22 50  1  0  0  0  0
 23 51  1  0  0  0  0
 24 25  1  0  0  0  0
 24 52  1  0  0  0  0
 24 53  1  0  0  0  0
 26 27  1  0  0  0  0
 26 28  2  0  0  0  0
 27 29  2  0  0  0  0
 28 30  1  0  0  0  0
 29 31  1  0  0  0  0
 29 32  1  0  0  0  0
 30 31  2  0  0  0  0
 30 55  1  0  0  0  0
 31 56  1  0  0  0  0
M  END
> <DATABASE_ID>
DB08407

> <DATABASE_NAME>
drugbank

> <ORIGINAL_SOURCE>
PUBCHEM

> <ORIGINAL_SOURCE_URL>
https://pubchem.ncbi.nlm.nih.gov/rest/pug/compound/inchikey/CSOMAHTTWTVBFL-OFBLZTNGSA-N/SDF?record_type=3d

> <SMILES>
[H][C@]12C[C@@H]3O[C@@]1(C)C[C@@]1(C2)C=CC(=O)[C@@](C)(CCC(=O)NC2=C(O)C(=CC=C2O)C(O)=O)[C@]31[H]

> <INCHI_IDENTIFIER>
InChI=1S/C24H27NO7/c1-22(7-6-17(28)25-18-14(26)4-3-13(19(18)29)21(30)31)16(27)5-8-24-10-12-9-15(20(22)24)32-23(12,2)11-24/h3-5,8,12,15,20,26,29H,6-7,9-11H2,1-2H3,(H,25,28)(H,30,31)/t12-,15+,20+,22-,23+,24+/m1/s1

> <INCHI_KEY>
CSOMAHTTWTVBFL-OFBLZTNGSA-N

> <FORMULA>
C24H27NO7

> <MOLECULAR_WEIGHT>
441.4737

> <EXACT_MASS>
441.178752223

> <JCHEM_ACCEPTOR_COUNT>
7

> <JCHEM_ATOM_COUNT>
59

> <JCHEM_AVERAGE_NEUTRAL_MICROSPECIES_CHARGE>
-1.0069455965979939

> <JCHEM_AVERAGE_POLARIZABILITY>
44.80704516566028

> <JCHEM_BIOAVAILABILITY>
1

> <JCHEM_DONOR_COUNT>
4

> <JCHEM_FORMAL_CHARGE>
0

> <JCHEM_GHOSE_FILTER>
1

> <JCHEM_IUPAC>
3-{3-[(1S,5S,6R,7S,9S,10S)-5,9-dimethyl-4-oxo-8-oxatetracyclo[7.2.1.1^{7,10}.0^{1,6}]tridec-2-en-5-yl]propanamido}-2,4-dihydroxybenzoic acid

> <ALOGPS_LOGP>
2.60

> <JCHEM_LOGP>
3.2362086423333336

> <ALOGPS_LOGS>
-4.50

> <JCHEM_MDDR_LIKE_RULE>
0

> <JCHEM_NEUTRAL_CHARGE>
-1

> <JCHEM_NUMBER_OF_RINGS>
5

> <JCHEM_PHYSIOLOGICAL_CHARGE>
-1

> <JCHEM_PKA>
9.149922452000974

> <JCHEM_PKA_STRONGEST_ACIDIC>
2.9567831906943804

> <JCHEM_PKA_STRONGEST_BASIC>
-3.3995074083452637

> <JCHEM_POLAR_SURFACE_AREA>
133.16

> <JCHEM_REFRACTIVITY>
116.81049999999996

> <JCHEM_ROTATABLE_BOND_COUNT>
5

> <JCHEM_RULE_OF_FIVE>
1

> <ALOGPS_SOLUBILITY>
1.39e-02 g/l

> <JCHEM_TRADITIONAL_IUPAC>
9-hydroxyminocycline

> <JCHEM_VEBER_RULE>
0

$$$$
