
     RDKit          3D

 58 64  0  0  0  0  0  0  0  0999 V2000
   -0.7140    2.1888   -0.3552 C   0  0  0  0  0  0  0  0  0  0  0  0
   -0.8732    2.0331    0.4797 C   0  0  0  0  0  0  0  0  0  0  0  0
   -1.3975    3.2440    1.2466 C   0  0  0  0  0  0  0  0  0  0  0  0
    0.5231    1.6595    1.1968 C   0  0  2  0  0  0  0  0  0  0  0  0
    1.2877    2.8762    0.4178 C   0  0  0  0  0  0  0  0  0  0  0  0
    2.7053    2.7050    0.9069 C   0  0  0  0  0  0  0  0  0  0  0  0
    3.2833    1.4759    0.3265 C   0  0  2  0  0  0  0  0  0  0  0  0
    3.6334    1.4374   -1.0709 C   0  0  0  0  0  0  0  0  0  0  0  0
    2.4260    0.1958    0.8525 C   0  0  2  0  0  0  0  0  0  0  0  0
    3.0150   -0.7803   -0.2802 C   0  0  0  0  0  0  0  0  0  0  0  0
    2.3734   -1.8748   -0.3334 O   0  0  0  0  0  0  0  0  0  0  0  0
    4.4666   -0.9036   -0.0575 C   0  0  0  0  0  0  0  0  0  0  0  0
    5.2610    0.1040    0.3198 C   0  0  0  0  0  0  0  0  0  0  0  0
    6.2141    0.6628   -0.8557 C   0  0  2  0  0  0  0  0  0  0  0  0
    7.1512   -0.6569   -0.9271 C   0  0  0  0  0  0  0  0  0  0  0  0
    7.8036   -1.1030    0.2309 C   0  0  1  0  0  0  0  0  0  0  0  0
    7.2925   -2.5088    0.5741 C   0  0  0  0  0  0  0  0  0  0  0  0
    9.2419   -1.3618   -0.1379 C   0  0  0  0  0  0  0  0  0  0  0  0
    9.4466   -2.2558   -1.0137 O   0  0  0  0  0  0  0  0  0  0  0  0
   10.2976   -1.0768    0.6963 O   0  0  0  0  0  0  0  0  0  0  0  0
    7.8417   -0.3883    1.5180 C   0  0  0  0  0  0  0  0  0  0  0  0
    7.3029    0.9671    1.4422 C   0  0  0  0  0  0  0  0  0  0  0  0
    7.1978    1.5234    0.1187 C   0  0  1  0  0  0  0  0  0  0  0  0
    8.4592    1.7875   -0.6354 C   0  0  0  0  0  0  0  0  0  0  0  0
    6.3255    2.7782    0.2215 C   0  0  0  0  0  0  0  0  0  0  0  0
    5.2929    2.4463    1.2494 C   0  0  0  0  0  0  0  0  0  0  0  0
    4.5781    1.1667    1.0908 C   0  0  1  0  0  0  0  0  0  0  0  0
    4.2526    0.6520    2.4906 C   0  0  0  0  0  0  0  0  0  0  0  0
    1.0177    0.5530    0.1074 C   0  0  2  0  0  0  0  0  0  0  0  0
    1.1138    1.0054   -1.2083 C   0  0  0  0  0  0  0  0  0  0  0  0
    0.1400   -0.6106    0.4286 C   0  0  0  0  0  0  0  0  0  0  0  0
   -0.8447   -0.2598    1.4379 C   0  0  0  0  0  0  0  0  0  0  0  0
   -1.9367    0.8208    0.8387 C   0  0  2  0  0  0  0  0  0  0  0  0
   -1.8252    0.3859   -0.5802 O   0  0  0  0  0  0  0  0  0  0  0  0
   -2.6919   -0.7995   -0.8539 C   0  0  1  0  0  0  0  0  0  0  0  0
   -3.1285   -1.1928    0.5413 O   0  0  0  0  0  0  0  0  0  0  0  0
   -4.1053   -2.2515    0.0281 C   0  0  2  0  0  0  0  0  0  0  0  0
   -3.1510   -3.4585    0.4699 C   0  0  0  0  0  0  0  0  0  0  0  0
   -3.8406   -4.4117    0.8646 O   0  0  0  0  0  0  0  0  0  0  0  0
   -1.8451   -3.4346    0.1487 O   0  0  0  0  0  0  0  0  0  0  0  0
   -3.5399   -2.3428   -1.5867 C   0  0  1  0  0  0  0  0  0  0  0  0
   -4.5585   -3.3873   -1.9040 O   0  0  0  0  0  0  0  0  0  0  0  0
   -4.5427   -1.1450   -2.2620 C   0  0  2  0  0  0  0  0  0  0  0  0
   -3.4608   -0.7785   -3.2337 O   0  0  0  0  0  0  0  0  0  0  0  0
   -4.0977    0.1449   -1.2315 C   0  0  1  0  0  0  0  0  0  0  0  0
   -5.0758   -0.3131   -0.2211 O   0  0  0  0  0  0  0  0  0  0  0  0
   -5.4769    0.9261    0.5587 C   0  0  2  0  0  0  0  0  0  0  0  0
   -6.1022    0.2021    1.6728 O   0  0  0  0  0  0  0  0  0  0  0  0
   -7.2407   -0.7062    1.6332 C   0  0  2  0  0  0  0  0  0  0  0  0
   -7.2543   -1.2339    0.1014 C   0  0  0  0  0  0  0  0  0  0  0  0
   -6.7603   -2.4163    0.2268 O   0  0  0  0  0  0  0  0  0  0  0  0
   -8.5166   -1.4252   -0.4760 O   0  0  0  0  0  0  0  0  0  0  0  0
   -8.5296    0.4103    1.3722 C   0  0  1  0  0  0  0  0  0  0  0  0
   -8.6642    0.5584    2.8570 O   0  0  0  0  0  0  0  0  0  0  0  0
   -7.6125    1.8217    1.2215 C   0  0  2  0  0  0  0  0  0  0  0  0
   -8.7267    2.5239    0.5005 O   0  0  0  0  0  0  0  0  0  0  0  0
   -6.9700    1.2363   -0.2461 C   0  0  1  0  0  0  0  0  0  0  0  0
   -6.4615    2.5850   -0.6333 O   0  0  0  0  0  0  0  0  0  0  0  0
  1  2  1  0
  2  3  1  0
  4  2  1  6
  4  5  1  0
  5  6  1  0
  6  7  1  0
  7  8  1  6
  7  9  1  0
  9 10  1  6
 10 11  2  0
 10 12  1  0
 12 13  2  0
 14 13  1  1
 14 15  1  0
 15 16  1  0
 16 17  1  1
 16 18  1  0
 18 19  2  0
 18 20  1  0
 16 21  1  0
 21 22  1  0
 22 23  1  0
 23 24  1  6
 23 25  1  0
 25 26  1  0
 26 27  1  0
 27 28  1  1
  9 29  1  0
 29 30  1  6
 29 31  1  0
 31 32  1  0
 32 33  1  0
 33 34  1  6
 35 34  1  1
 35 36  1  0
 36 37  1  0
 37 38  1  1
 38 39  2  0
 38 40  1  0
 37 41  1  0
 41 42  1  6
 41 43  1  0
 43 44  1  6
 43 45  1  0
 45 46  1  1
 47 46  1  6
 47 48  1  0
 48 49  1  0
 49 50  1  6
 50 51  2  0
 50 52  1  0
 49 53  1  0
 53 54  1  1
 53 55  1  0
 55 56  1  6
 55 57  1  0
 57 58  1  6
 33  2  1  0
 45 35  1  0
 57 47  1  0
 29  4  1  0
 27  7  1  0
 27 13  1  0
 23 14  1  0
M  END
>  <zinc_id>  (1) 
ZINC000096015174

>  <smiles>  (1) 
CC1(C)[C@@H](O[C@H]2O[C@H](C(=O)O)[C@@H](O)[C@H](O)[C@H]2O[C@@H]2O[C@H](C(=O)O)[C@@H](O)[C@H](O)[C@H]2O)CC[C@@]2(C)[C@H]1CC[C@]1(C)[C@@H]2C(=O)C=C2[C@@H]3C[C@@](C)(C(=O)O)CC[C@]3(C)CC[C@]21C

$$$$
