10246085
  -OEChem-01161813423D

 54 57  0     1  0  0  0  0  0999 V2000
   -4.3273    0.7996   -0.0772 O   0  0  0  0  0  0  0  0  0  0  0  0
    6.4947    0.3900    0.8049 O   0  0  0  0  0  0  0  0  0  0  0  0
   -5.7874   -0.4939    1.1606 O   0  0  0  0  0  0  0  0  0  0  0  0
   -1.0527   -0.7988    0.0784 C   0  0  2  0  0  0  0  0  0  0  0  0
   -1.8914    0.4535   -0.2500 C   0  0  2  0  0  0  0  0  0  0  0  0
    0.3709   -0.7178   -0.4818 C   0  0  1  0  0  0  0  0  0  0  0  0
    1.0859    0.5246    0.1349 C   0  0  2  0  0  0  0  0  0  0  0  0
   -1.2255    1.6598    0.4226 C   0  0  0  0  0  0  0  0  0  0  0  0
   -3.2333    0.0259    0.3758 C   0  0  2  0  0  0  0  0  0  0  0  0
    0.2401    1.8176   -0.0183 C   0  0  0  0  0  0  0  0  0  0  0  0
   -1.9563   -1.9514   -0.3525 C   0  0  0  0  0  0  0  0  0  0  0  0
    1.1969   -2.0122   -0.2821 C   0  0  1  0  0  0  0  0  0  0  0  0
    2.5255    0.6991   -0.4434 C   0  0  2  0  0  0  0  0  0  0  0  0
   -3.3762   -1.4555   -0.0239 C   0  0  0  0  0  0  0  0  0  0  0  0
    2.5793   -1.8268   -0.9245 C   0  0  0  0  0  0  0  0  0  0  0  0
   -2.0712    0.7402   -1.7626 C   0  0  0  0  0  0  0  0  0  0  0  0
    3.3064   -0.6072   -0.4123 C   0  0  0  0  0  0  0  0  0  0  0  0
    3.2684    1.8281    0.3016 C   0  0  0  0  0  0  0  0  0  0  0  0
    1.3292   -2.4718    1.1754 C   0  0  0  0  0  0  0  0  0  0  0  0
    4.7589    1.8399    0.0108 C   0  0  0  0  0  0  0  0  0  0  0  0
    4.5815   -0.7102   -0.0047 C   0  0  0  0  0  0  0  0  0  0  0  0
    5.3621    0.4996    0.3411 C   0  0  0  0  0  0  0  0  0  0  0  0
   -5.5610    0.4323    0.3939 C   0  0  0  0  0  0  0  0  0  0  0  0
   -6.6177    1.3355   -0.1665 C   0  0  0  0  0  0  0  0  0  0  0  0
   -0.9653   -0.8676    1.1748 H   0  0  0  0  0  0  0  0  0  0  0  0
    0.3076   -0.5643   -1.5673 H   0  0  0  0  0  0  0  0  0  0  0  0
    1.1775    0.3512    1.2168 H   0  0  0  0  0  0  0  0  0  0  0  0
   -1.2479    1.5414    1.5137 H   0  0  0  0  0  0  0  0  0  0  0  0
   -1.7785    2.5807    0.2018 H   0  0  0  0  0  0  0  0  0  0  0  0
   -3.1732    0.1077    1.4703 H   0  0  0  0  0  0  0  0  0  0  0  0
    0.2784    2.1598   -1.0590 H   0  0  0  0  0  0  0  0  0  0  0  0
    0.6780    2.6220    0.5837 H   0  0  0  0  0  0  0  0  0  0  0  0
   -1.7256   -2.8789    0.1808 H   0  0  0  0  0  0  0  0  0  0  0  0
   -1.8621   -2.1548   -1.4250 H   0  0  0  0  0  0  0  0  0  0  0  0
    0.6959   -2.8237   -0.8267 H   0  0  0  0  0  0  0  0  0  0  0  0
    2.4393    0.9893   -1.5002 H   0  0  0  0  0  0  0  0  0  0  0  0
   -4.0394   -1.5992   -0.8844 H   0  0  0  0  0  0  0  0  0  0  0  0
   -3.7892   -2.0399    0.8059 H   0  0  0  0  0  0  0  0  0  0  0  0
    2.4554   -1.7137   -2.0101 H   0  0  0  0  0  0  0  0  0  0  0  0
    3.1751   -2.7374   -0.7823 H   0  0  0  0  0  0  0  0  0  0  0  0
   -1.1222    0.9065   -2.2788 H   0  0  0  0  0  0  0  0  0  0  0  0
   -2.5788   -0.0765   -2.2855 H   0  0  0  0  0  0  0  0  0  0  0  0
   -2.6752    1.6426   -1.9141 H   0  0  0  0  0  0  0  0  0  0  0  0
    3.1211    1.7156    1.3843 H   0  0  0  0  0  0  0  0  0  0  0  0
    2.8523    2.8026    0.0224 H   0  0  0  0  0  0  0  0  0  0  0  0
    1.9269   -3.3885    1.2312 H   0  0  0  0  0  0  0  0  0  0  0  0
    1.8159   -1.7249    1.8088 H   0  0  0  0  0  0  0  0  0  0  0  0
    0.3527   -2.7009    1.6118 H   0  0  0  0  0  0  0  0  0  0  0  0
    5.2443    2.6058    0.6253 H   0  0  0  0  0  0  0  0  0  0  0  0
    4.9584    2.0641   -1.0425 H   0  0  0  0  0  0  0  0  0  0  0  0
    5.1058   -1.6592    0.0195 H   0  0  0  0  0  0  0  0  0  0  0  0
   -6.6286    1.2596   -1.2566 H   0  0  0  0  0  0  0  0  0  0  0  0
   -6.4278    2.3653    0.1463 H   0  0  0  0  0  0  0  0  0  0  0  0
   -7.5962    1.0295    0.2144 H   0  0  0  0  0  0  0  0  0  0  0  0
  1  9  1  0  0  0  0
  1 23  1  0  0  0  0
  2 22  2  0  0  0  0
  3 23  2  0  0  0  0
  4  5  1  0  0  0  0
  4  6  1  0  0  0  0
  4 11  1  0  0  0  0
  4 25  1  0  0  0  0
  5  8  1  0  0  0  0
  5  9  1  0  0  0  0
  5 16  1  0  0  0  0
  6  7  1  0  0  0  0
  6 12  1  0  0  0  0
  6 26  1  0  0  0  0
  7 10  1  0  0  0  0
  7 13  1  0  0  0  0
  7 27  1  0  0  0  0
  8 10  1  0  0  0  0
  8 28  1  0  0  0  0
  8 29  1  0  0  0  0
  9 14  1  0  0  0  0
  9 30  1  0  0  0  0
 10 31  1  0  0  0  0
 10 32  1  0  0  0  0
 11 14  1  0  0  0  0
 11 33  1  0  0  0  0
 11 34  1  0  0  0  0
 12 15  1  0  0  0  0
 12 19  1  0  0  0  0
 12 35  1  0  0  0  0
 13 17  1  0  0  0  0
 13 18  1  0  0  0  0
 13 36  1  0  0  0  0
 14 37  1  0  0  0  0
 14 38  1  0  0  0  0
 15 17  1  0  0  0  0
 15 39  1  0  0  0  0
 15 40  1  0  0  0  0
 16 41  1  0  0  0  0
 16 42  1  0  0  0  0
 16 43  1  0  0  0  0
 17 21  2  0  0  0  0
 18 20  1  0  0  0  0
 18 44  1  0  0  0  0
 18 45  1  0  0  0  0
 19 46  1  0  0  0  0
 19 47  1  0  0  0  0
 19 48  1  0  0  0  0
 20 22  1  0  0  0  0
 20 49  1  0  0  0  0
 20 50  1  0  0  0  0
 21 22  1  0  0  0  0
 21 51  1  0  0  0  0
 23 24  1  0  0  0  0
 24 52  1  0  0  0  0
 24 53  1  0  0  0  0
 24 54  1  0  0  0  0
M  END
> <DATABASE_ID>
DB13958

> <DATABASE_NAME>
drugbank

> <ORIGINAL_SOURCE>
PUBCHEM

> <ORIGINAL_SOURCE_URL>
https://pubchem.ncbi.nlm.nih.gov/rest/pug/compound/inchikey/IVCRCPJOLWECJU-XQVQQVTHSA-N/SDF?record_type=3d

> <SMILES>
[H][C@@]12CC[C@H](OC(C)=O)[C@@]1(C)CC[C@]1([H])[C@@]3([H])CCC(=O)C=C3C[C@@H](C)[C@@]21[H]

> <INCHI_IDENTIFIER>
InChI=1S/C21H30O3/c1-12-10-14-11-15(23)4-5-16(14)17-8-9-21(3)18(20(12)17)6-7-19(21)24-13(2)22/h11-12,16-20H,4-10H2,1-3H3/t12-,16+,17-,18+,19+,20-,21+/m1/s1

> <INCHI_KEY>
IVCRCPJOLWECJU-XQVQQVTHSA-N

> <FORMULA>
C21H30O3

> <MOLECULAR_WEIGHT>
330.468

> <EXACT_MASS>
330.219494826

> <JCHEM_ACCEPTOR_COUNT>
2

> <JCHEM_ATOM_COUNT>
54

> <JCHEM_AVERAGE_POLARIZABILITY>
38.59297934267988

> <JCHEM_BIOAVAILABILITY>
1

> <JCHEM_DONOR_COUNT>
0

> <JCHEM_FORMAL_CHARGE>
0

> <JCHEM_GHOSE_FILTER>
1

> <JCHEM_IUPAC>
(1S,3aS,3bR,4R,9aR,9bS,11aS)-4,11a-dimethyl-7-oxo-1H,2H,3H,3aH,3bH,4H,5H,7H,8H,9H,9aH,9bH,10H,11H,11aH-cyclopenta[a]phenanthren-1-yl acetate

> <ALOGPS_LOGP>
3.12

> <JCHEM_LOGP>
3.7935206843333336

> <ALOGPS_LOGS>
-4.75

> <JCHEM_MDDR_LIKE_RULE>
0

> <JCHEM_NUMBER_OF_RINGS>
4

> <JCHEM_PHYSIOLOGICAL_CHARGE>
0

> <JCHEM_PKA_STRONGEST_ACIDIC>
18.337530072321876

> <JCHEM_PKA_STRONGEST_BASIC>
-4.7467229035238665

> <JCHEM_POLAR_SURFACE_AREA>
43.370000000000005

> <JCHEM_REFRACTIVITY>
93.6548

> <JCHEM_ROTATABLE_BOND_COUNT>
2

> <JCHEM_RULE_OF_FIVE>
1

> <ALOGPS_SOLUBILITY>
5.82e-03 g/l

> <JCHEM_TRADITIONAL_IUPAC>
trestolone acetate

> <JCHEM_VEBER_RULE>
0

$$$$
