12594
  -OEChem-10051720483D

 53 56  0     1  0  0  0  0  0999 V2000
    5.6954   -0.5661    0.1744 S   0  0  0  0  0  0  0  0  0  0  0  0
   -6.2495    0.5489    0.7995 O   0  0  0  0  0  0  0  0  0  0  0  0
    4.7147    0.7382    0.1046 O   0  0  0  0  0  0  0  0  0  0  0  0
    7.1778    0.0533   -0.1086 O   0  0  0  0  0  0  0  0  0  0  0  0
    5.6782   -1.0510    1.5420 O   0  0  0  0  0  0  0  0  0  0  0  0
    5.3694   -1.4610   -0.9204 O   0  0  0  0  0  0  0  0  0  0  0  0
   -1.0365    0.5944    0.2719 C   0  0  1  0  0  0  0  0  0  0  0  0
   -1.6936   -0.6916   -0.3139 C   0  0  2  0  0  0  0  0  0  0  0  0
   -3.1099   -0.8305    0.2492 C   0  0  1  0  0  0  0  0  0  0  0  0
   -3.9934    0.3829   -0.0960 C   0  0  2  0  0  0  0  0  0  0  0  0
    0.4179    0.8146   -0.3069 C   0  0  2  0  0  0  0  0  0  0  0  0
   -1.9569    1.8446    0.1744 C   0  0  0  0  0  0  0  0  0  0  0  0
   -3.4084    1.5949    0.6213 C   0  0  0  0  0  0  0  0  0  0  0  0
   -3.9596   -2.0365   -0.1360 C   0  0  0  0  0  0  0  0  0  0  0  0
   -0.8427   -1.9227    0.0294 C   0  0  0  0  0  0  0  0  0  0  0  0
    1.2073   -0.5024   -0.3110 C   0  0  0  0  0  0  0  0  0  0  0  0
    1.1524    1.8480    0.5985 C   0  0  0  0  0  0  0  0  0  0  0  0
   -5.3128   -0.1490    0.4344 C   0  0  0  0  0  0  0  0  0  0  0  0
   -5.3413   -1.6684    0.4246 C   0  0  0  0  0  0  0  0  0  0  0  0
    0.6259   -1.7034   -0.1457 C   0  0  0  0  0  0  0  0  0  0  0  0
   -4.1998    0.6576   -1.5965 C   0  0  0  0  0  0  0  0  0  0  0  0
    0.3717    1.3478   -1.7590 C   0  0  0  0  0  0  0  0  0  0  0  0
    2.7030   -0.4094   -0.5057 C   0  0  0  0  0  0  0  0  0  0  0  0
    2.6529    1.9628    0.3344 C   0  0  0  0  0  0  0  0  0  0  0  0
    3.3377    0.6041    0.4413 C   0  0  2  0  0  0  0  0  0  0  0  0
   -0.9237    0.4053    1.3522 H   0  0  0  0  0  0  0  0  0  0  0  0
   -1.7441   -0.6142   -1.4061 H   0  0  0  0  0  0  0  0  0  0  0  0
   -3.0065   -0.8826    1.3474 H   0  0  0  0  0  0  0  0  0  0  0  0
   -1.9801    2.2216   -0.8523 H   0  0  0  0  0  0  0  0  0  0  0  0
   -1.5474    2.6540    0.7892 H   0  0  0  0  0  0  0  0  0  0  0  0
   -3.4335    1.4447    1.7085 H   0  0  0  0  0  0  0  0  0  0  0  0
   -4.0132    2.4892    0.4275 H   0  0  0  0  0  0  0  0  0  0  0  0
   -3.5921   -2.9690    0.3036 H   0  0  0  0  0  0  0  0  0  0  0  0
   -3.9989   -2.1728   -1.2222 H   0  0  0  0  0  0  0  0  0  0  0  0
   -1.1519   -2.7598   -0.6080 H   0  0  0  0  0  0  0  0  0  0  0  0
   -1.0147   -2.2344    1.0672 H   0  0  0  0  0  0  0  0  0  0  0  0
    1.0173    1.5728    1.6535 H   0  0  0  0  0  0  0  0  0  0  0  0
    0.7072    2.8431    0.4804 H   0  0  0  0  0  0  0  0  0  0  0  0
   -5.4574   -2.0260    1.4518 H   0  0  0  0  0  0  0  0  0  0  0  0
   -6.1463   -2.0419   -0.2117 H   0  0  0  0  0  0  0  0  0  0  0  0
    1.2383   -2.6019   -0.1374 H   0  0  0  0  0  0  0  0  0  0  0  0
   -3.2638    0.8562   -2.1252 H   0  0  0  0  0  0  0  0  0  0  0  0
   -4.6945   -0.1746   -2.1090 H   0  0  0  0  0  0  0  0  0  0  0  0
   -4.8461    1.5327   -1.7355 H   0  0  0  0  0  0  0  0  0  0  0  0
    1.3674    1.4078   -2.2117 H   0  0  0  0  0  0  0  0  0  0  0  0
   -0.2313    0.7059   -2.4093 H   0  0  0  0  0  0  0  0  0  0  0  0
   -0.0439    2.3594   -1.8059 H   0  0  0  0  0  0  0  0  0  0  0  0
    3.1267   -1.4025   -0.3313 H   0  0  0  0  0  0  0  0  0  0  0  0
    2.9299   -0.1581   -1.5490 H   0  0  0  0  0  0  0  0  0  0  0  0
    2.8402    2.4039   -0.6523 H   0  0  0  0  0  0  0  0  0  0  0  0
    3.1050    2.6575    1.0530 H   0  0  0  0  0  0  0  0  0  0  0  0
    3.2644    0.2501    1.4778 H   0  0  0  0  0  0  0  0  0  0  0  0
    7.2387    0.6649   -0.8796 H   0  0  0  0  0  0  0  0  0  0  0  0
  1  3  1  0  0  0  0
  1  4  1  0  0  0  0
  1  5  2  0  0  0  0
  1  6  2  0  0  0  0
  2 18  2  0  0  0  0
  3 25  1  0  0  0  0
  4 53  1  0  0  0  0
  7  8  1  0  0  0  0
  7 11  1  0  0  0  0
  7 12  1  0  0  0  0
  7 26  1  0  0  0  0
  8  9  1  0  0  0  0
  8 15  1  0  0  0  0
  8 27  1  0  0  0  0
  9 10  1  0  0  0  0
  9 14  1  0  0  0  0
  9 28  1  0  0  0  0
 10 13  1  0  0  0  0
 10 18  1  0  0  0  0
 10 21  1  0  0  0  0
 11 16  1  0  0  0  0
 11 17  1  0  0  0  0
 11 22  1  0  0  0  0
 12 13  1  0  0  0  0
 12 29  1  0  0  0  0
 12 30  1  0  0  0  0
 13 31  1  0  0  0  0
 13 32  1  0  0  0  0
 14 19  1  0  0  0  0
 14 33  1  0  0  0  0
 14 34  1  0  0  0  0
 15 20  1  0  0  0  0
 15 35  1  0  0  0  0
 15 36  1  0  0  0  0
 16 20  2  0  0  0  0
 16 23  1  0  0  0  0
 17 24  1  0  0  0  0
 17 37  1  0  0  0  0
 17 38  1  0  0  0  0
 18 19  1  0  0  0  0
 19 39  1  0  0  0  0
 19 40  1  0  0  0  0
 20 41  1  0  0  0  0
 21 42  1  0  0  0  0
 21 43  1  0  0  0  0
 21 44  1  0  0  0  0
 22 45  1  0  0  0  0
 22 46  1  0  0  0  0
 22 47  1  0  0  0  0
 23 25  1  0  0  0  0
 23 48  1  0  0  0  0
 23 49  1  0  0  0  0
 24 25  1  0  0  0  0
 24 50  1  0  0  0  0
 24 51  1  0  0  0  0
 25 52  1  0  0  0  0
M  END
> <DATABASE_ID>
DB05804

> <DATABASE_NAME>
drugbank

> <ORIGINAL_SOURCE>
PUBCHEM

> <ORIGINAL_SOURCE_URL>
https://pubchem.ncbi.nlm.nih.gov/rest/pug/compound/inchikey/CZWCKYRVOZZJNM-USOAJAOKSA-N/SDF?record_type=3d

> <SMILES>
[H][C@@]12CCC(=O)[C@@]1(C)CC[C@@]1([H])[C@@]2([H])CC=C2C[C@H](CC[C@]12C)OS(O)(=O)=O

> <INCHI_IDENTIFIER>
InChI=1S/C19H28O5S/c1-18-9-7-13(24-25(21,22)23)11-12(18)3-4-14-15-5-6-17(20)19(15,2)10-8-16(14)18/h3,13-16H,4-11H2,1-2H3,(H,21,22,23)/t13-,14-,15-,16-,18-,19-/m0/s1

> <INCHI_KEY>
CZWCKYRVOZZJNM-USOAJAOKSA-N

> <FORMULA>
C19H28O5S

> <MOLECULAR_WEIGHT>
368.488

> <EXACT_MASS>
368.165744696

> <JCHEM_ACCEPTOR_COUNT>
4

> <JCHEM_ATOM_COUNT>
53

> <JCHEM_AVERAGE_NEUTRAL_MICROSPECIES_CHARGE>
-0.9999999956676435

> <JCHEM_AVERAGE_POLARIZABILITY>
39.8474725985752

> <JCHEM_BIOAVAILABILITY>
1

> <JCHEM_DONOR_COUNT>
1

> <JCHEM_FORMAL_CHARGE>
0

> <JCHEM_GHOSE_FILTER>
1

> <JCHEM_IUPAC>
[(3aS,3bR,7S,9aR,9bS,11aS)-9a,11a-dimethyl-1-oxo-1H,2H,3H,3aH,3bH,4H,6H,7H,8H,9H,9aH,9bH,10H,11H,11aH-cyclopenta[a]phenanthren-7-yl]oxidanesulfonic acid

> <ALOGPS_LOGP>
0.49

> <JCHEM_LOGP>
3.416690823333334

> <ALOGPS_LOGS>
-4.66

> <JCHEM_MDDR_LIKE_RULE>
0

> <JCHEM_NEUTRAL_CHARGE>
-1

> <JCHEM_NUMBER_OF_RINGS>
4

> <JCHEM_PHYSIOLOGICAL_CHARGE>
-1

> <JCHEM_PKA_STRONGEST_ACIDIC>
-1.3632754765266997

> <JCHEM_PKA_STRONGEST_BASIC>
-7.475649210786417

> <JCHEM_POLAR_SURFACE_AREA>
80.67

> <JCHEM_REFRACTIVITY>
94.6507

> <JCHEM_ROTATABLE_BOND_COUNT>
2

> <JCHEM_RULE_OF_FIVE>
1

> <ALOGPS_SOLUBILITY>
8.06e-03 g/l

> <JCHEM_TRADITIONAL_IUPAC>
biotin

> <JCHEM_VEBER_RULE>
0

$$$$
