
     RDKit          3D

 58 64  0  0  0  0  0  0  0  0999 V2000
   -1.3600    0.2818    0.4346 C   0  0  0  0  0  0  0  0  0  0  0  0
   -1.2663    0.1834    0.8522 C   0  0  0  0  0  0  0  0  0  0  0  0
   -1.9440    0.9223    2.0242 C   0  0  0  0  0  0  0  0  0  0  0  0
    0.2730    0.0242    1.4382 C   0  0  2  0  0  0  0  0  0  0  0  0
    0.7915    1.5281    1.0671 C   0  0  0  0  0  0  0  0  0  0  0  0
    2.2999    1.4995    1.3709 C   0  0  0  0  0  0  0  0  0  0  0  0
    2.9805    0.8458    0.2200 C   0  0  2  0  0  0  0  0  0  0  0  0
    2.6326    1.5192   -1.0059 C   0  0  0  0  0  0  0  0  0  0  0  0
    2.4650   -0.6876    0.4043 C   0  0  2  0  0  0  0  0  0  0  0  0
    2.9932   -1.1538   -1.0376 C   0  0  0  0  0  0  0  0  0  0  0  0
    2.6046   -0.6717   -2.0810 O   0  0  0  0  0  0  0  0  0  0  0  0
    4.3853   -1.3312   -0.6006 C   0  0  0  0  0  0  0  0  0  0  0  0
    4.9819   -0.5475    0.3124 C   0  0  0  0  0  0  0  0  0  0  0  0
    6.5578   -0.8601    0.3995 C   0  0  2  0  0  0  0  0  0  0  0  0
    7.0915    0.6574    0.6631 C   0  0  0  0  0  0  0  0  0  0  0  0
    8.5188    0.7934    0.4196 C   0  0  1  0  0  0  0  0  0  0  0  0
    8.7111    2.3152    0.3544 C   0  0  0  0  0  0  0  0  0  0  0  0
    9.4662    0.3238    1.4161 C   0  0  0  0  0  0  0  0  0  0  0  0
    9.3925   -0.8790    1.8166 O   0  0  0  0  0  0  0  0  0  0  0  0
   10.7312    0.8872    1.4174 O   0  0  0  0  0  0  0  0  0  0  0  0
    9.0603    0.3839   -0.9195 C   0  0  0  0  0  0  0  0  0  0  0  0
    8.3333   -0.7703   -1.4166 C   0  0  0  0  0  0  0  0  0  0  0  0
    6.8130   -0.6909   -1.2037 C   0  0  1  0  0  0  0  0  0  0  0  0
    6.4832   -2.0211   -1.8592 C   0  0  0  0  0  0  0  0  0  0  0  0
    6.1675    0.4931   -1.6689 C   0  0  0  0  0  0  0  0  0  0  0  0
    5.1412    1.2900   -1.0533 C   0  0  0  0  0  0  0  0  0  0  0  0
    4.4927    0.8128    0.2433 C   0  0  1  0  0  0  0  0  0  0  0  0
    4.8228    1.7549    1.3303 C   0  0  0  0  0  0  0  0  0  0  0  0
    0.8892   -0.5257    0.0423 C   0  0  2  0  0  0  0  0  0  0  0  0
    0.4752    0.1361   -1.0647 C   0  0  0  0  0  0  0  0  0  0  0  0
    0.6342   -2.0407    0.1587 C   0  0  0  0  0  0  0  0  0  0  0  0
   -0.8048   -1.9220   -0.1783 C   0  0  0  0  0  0  0  0  0  0  0  0
   -1.5773   -1.4109    1.1962 C   0  0  2  0  0  0  0  0  0  0  0  0
   -2.9581   -1.6679    0.6787 O   0  0  0  0  0  0  0  0  0  0  0  0
   -3.2228   -0.8048   -0.5059 C   0  0  1  0  0  0  0  0  0  0  0  0
   -3.1564   -1.8946   -1.5507 O   0  0  0  0  0  0  0  0  0  0  0  0
   -3.0993   -3.2645   -1.0045 C   0  0  2  0  0  0  0  0  0  0  0  0
   -3.5489   -3.8961   -2.4456 C   0  0  0  0  0  0  0  0  0  0  0  0
   -3.5051   -3.1770   -3.4683 O   0  0  0  0  0  0  0  0  0  0  0  0
   -4.3855   -4.9434   -2.4942 O   0  0  0  0  0  0  0  0  0  0  0  0
   -4.6880   -3.5535   -0.4493 C   0  0  1  0  0  0  0  0  0  0  0  0
   -4.0772   -4.4113    0.6362 O   0  0  0  0  0  0  0  0  0  0  0  0
   -4.9272   -2.3023    0.6396 C   0  0  2  0  0  0  0  0  0  0  0  0
   -6.4147   -2.4773    0.5393 O   0  0  0  0  0  0  0  0  0  0  0  0
   -4.9147   -1.1778   -0.6622 C   0  0  1  0  0  0  0  0  0  0  0  0
   -5.5665   -0.2199    0.2293 O   0  0  0  0  0  0  0  0  0  0  0  0
   -5.2153    1.2123    0.0759 C   0  0  2  0  0  0  0  0  0  0  0  0
   -6.5923    1.4706    0.6837 O   0  0  0  0  0  0  0  0  0  0  0  0
   -6.5339    2.9214    1.0675 C   0  0  2  0  0  0  0  0  0  0  0  0
   -8.1246    3.0144    1.3920 C   0  0  0  0  0  0  0  0  0  0  0  0
   -8.6737    2.0247    1.9175 O   0  0  0  0  0  0  0  0  0  0  0  0
   -8.1914    4.0604    2.3012 O   0  0  0  0  0  0  0  0  0  0  0  0
   -6.9354    3.5987   -0.4663 C   0  0  1  0  0  0  0  0  0  0  0  0
   -6.3248    4.9118   -0.0451 O   0  0  0  0  0  0  0  0  0  0  0  0
   -5.4894    3.1365   -1.2211 C   0  0  2  0  0  0  0  0  0  0  0  0
   -6.0676    3.5652   -2.5342 O   0  0  0  0  0  0  0  0  0  0  0  0
   -5.9501    1.5047   -1.4644 C   0  0  1  0  0  0  0  0  0  0  0  0
   -4.6735    1.2299   -2.1779 O   0  0  0  0  0  0  0  0  0  0  0  0
  1  2  1  0
  2  3  1  0
  4  2  1  6
  4  5  1  0
  5  6  1  0
  6  7  1  0
  7  8  1  6
  7  9  1  0
  9 10  1  6
 10 11  2  0
 10 12  1  0
 12 13  2  0
 14 13  1  6
 14 15  1  0
 15 16  1  0
 16 17  1  6
 16 18  1  0
 18 19  2  0
 18 20  1  0
 16 21  1  0
 21 22  1  0
 22 23  1  0
 23 24  1  6
 23 25  1  0
 25 26  1  0
 26 27  1  0
 27 28  1  1
  9 29  1  0
 29 30  1  6
 29 31  1  0
 31 32  1  0
 32 33  1  0
 33 34  1  6
 35 34  1  1
 35 36  1  0
 36 37  1  0
 37 38  1  6
 38 39  2  0
 38 40  1  0
 37 41  1  0
 41 42  1  1
 41 43  1  0
 43 44  1  6
 43 45  1  0
 45 46  1  1
 47 46  1  6
 47 48  1  0
 48 49  1  0
 49 50  1  1
 50 51  2  0
 50 52  1  0
 49 53  1  0
 53 54  1  1
 53 55  1  0
 55 56  1  6
 55 57  1  0
 57 58  1  6
 33  2  1  0
 45 35  1  0
 57 47  1  0
 29  4  1  0
 27  7  1  0
 27 13  1  0
 23 14  1  0
M  END
>  <zinc_id>  (1) 
ZINC000096015174

>  <smiles>  (1) 
CC1(C)[C@@H](O[C@H]2O[C@H](C(=O)O)[C@@H](O)[C@H](O)[C@H]2O[C@@H]2O[C@H](C(=O)O)[C@@H](O)[C@H](O)[C@H]2O)CC[C@@]2(C)[C@H]1CC[C@]1(C)[C@@H]2C(=O)C=C2[C@@H]3C[C@@](C)(C(=O)O)CC[C@]3(C)CC[C@]21C

$$$$
