449547
  -OEChem-10051720023D

 52 51  0     1  0  0  0  0  0999 V2000
   -3.7474   -0.8997   -0.1902 P   0  0  2  0  0  0  0  0  0  0  0  0
   -3.2998    1.9694    0.2808 P   0  0  0  0  0  0  0  0  0  0  0  0
    1.6309   -4.6000    0.2049 F   0  0  0  0  0  0  0  0  0  0  0  0
    0.7036   -3.1882    1.5752 F   0  0  0  0  0  0  0  0  0  0  0  0
   -0.5036   -4.2086    0.0752 F   0  0  0  0  0  0  0  0  0  0  0  0
   -2.2687   -1.1431   -0.7941 O   0  0  0  0  0  0  0  0  0  0  0  0
   -3.6084    0.4404    0.7034 O   0  0  0  0  0  0  0  0  0  0  0  0
   -3.9311   -2.0656    0.9162 O   0  0  0  0  0  0  0  0  0  0  0  0
   -4.8406   -0.8435   -1.2176 O   0  0  0  0  0  0  0  0  0  0  0  0
   -4.6075    2.3929   -0.5695 O   0  0  0  0  0  0  0  0  0  0  0  0
   -3.4747    2.7762    1.6703 O   0  0  0  0  0  0  0  0  0  0  0  0
   -1.9875    2.1734   -0.4166 O   0  0  0  0  0  0  0  0  0  0  0  0
    3.4624   -2.0992   -0.9134 C   0  0  0  0  0  0  0  0  0  0  0  0
    2.1690   -2.6270   -1.5490 C   0  0  0  0  0  0  0  0  0  0  0  0
    3.4807    1.5845    0.4535 C   0  0  0  0  0  0  0  0  0  0  0  0
    3.5784    0.0695    0.4516 C   0  0  0  0  0  0  0  0  0  0  0  0
    3.4426   -0.6107   -0.7034 C   0  0  0  0  0  0  0  0  0  0  0  0
    2.0687    2.1279    0.7057 C   0  0  0  0  0  0  0  0  0  0  0  0
    0.9420   -2.4785   -0.6718 C   0  0  0  0  0  0  0  0  0  0  0  0
    3.7835   -0.5637    1.7997 C   0  0  0  0  0  0  0  0  0  0  0  0
    2.0136    3.6308    0.7317 C   0  0  0  0  0  0  0  0  0  0  0  0
    0.0800   -1.4446   -0.7392 C   0  0  0  0  0  0  0  0  0  0  0  0
    0.6986   -3.6145    0.2852 C   0  0  0  0  0  0  0  0  0  0  0  0
    1.8487    4.4613   -0.3151 C   0  0  0  0  0  0  0  0  0  0  0  0
   -1.1499   -1.2154    0.0811 C   0  0  0  0  0  0  0  0  0  0  0  0
    1.7845    5.9505   -0.1066 C   0  0  0  0  0  0  0  0  0  0  0  0
    1.7322    4.0254   -1.7482 C   0  0  0  0  0  0  0  0  0  0  0  0
    3.6671   -2.6555    0.0046 H   0  0  0  0  0  0  0  0  0  0  0  0
    4.2947   -2.3238   -1.5923 H   0  0  0  0  0  0  0  0  0  0  0  0
    2.2998   -3.6778   -1.8355 H   0  0  0  0  0  0  0  0  0  0  0  0
    1.9967   -2.0964   -2.4959 H   0  0  0  0  0  0  0  0  0  0  0  0
    3.8484    1.9719   -0.5067 H   0  0  0  0  0  0  0  0  0  0  0  0
    4.1744    1.9849    1.2050 H   0  0  0  0  0  0  0  0  0  0  0  0
    3.2918   -0.0332   -1.6154 H   0  0  0  0  0  0  0  0  0  0  0  0
    1.6939    1.7583    1.6687 H   0  0  0  0  0  0  0  0  0  0  0  0
    1.3727    1.7354   -0.0455 H   0  0  0  0  0  0  0  0  0  0  0  0
    4.7355   -0.2312    2.2267 H   0  0  0  0  0  0  0  0  0  0  0  0
    2.9800   -0.2653    2.4813 H   0  0  0  0  0  0  0  0  0  0  0  0
    3.7984   -1.6544    1.7828 H   0  0  0  0  0  0  0  0  0  0  0  0
    2.1114    4.0662    1.7251 H   0  0  0  0  0  0  0  0  0  0  0  0
    0.2948   -0.6583   -1.4622 H   0  0  0  0  0  0  0  0  0  0  0  0
   -1.0477   -0.2681    0.6189 H   0  0  0  0  0  0  0  0  0  0  0  0
   -1.3236   -2.0036    0.8167 H   0  0  0  0  0  0  0  0  0  0  0  0
    1.8734    6.2286    0.9489 H   0  0  0  0  0  0  0  0  0  0  0  0
    2.5965    6.4450   -0.6497 H   0  0  0  0  0  0  0  0  0  0  0  0
    0.8305    6.3430   -0.4737 H   0  0  0  0  0  0  0  0  0  0  0  0
    0.7566    4.3157   -2.1518 H   0  0  0  0  0  0  0  0  0  0  0  0
    2.5118    4.5022   -2.3517 H   0  0  0  0  0  0  0  0  0  0  0  0
    1.8368    2.9454   -1.8794 H   0  0  0  0  0  0  0  0  0  0  0  0
   -4.1757   -2.9675    0.6184 H   0  0  0  0  0  0  0  0  0  0  0  0
   -4.6244    3.2693   -1.0096 H   0  0  0  0  0  0  0  0  0  0  0  0
   -3.2525    3.7313    1.6960 H   0  0  0  0  0  0  0  0  0  0  0  0
  1  6  1  0  0  0  0
  1  7  1  0  0  0  0
  1  8  1  0  0  0  0
  1  9  2  0  0  0  0
  2  7  1  0  0  0  0
  2 10  1  0  0  0  0
  2 11  1  0  0  0  0
  2 12  2  0  0  0  0
  3 23  1  0  0  0  0
  4 23  1  0  0  0  0
  5 23  1  0  0  0  0
  6 25  1  0  0  0  0
  8 50  1  0  0  0  0
 10 51  1  0  0  0  0
 11 52  1  0  0  0  0
 13 14  1  0  0  0  0
 13 17  1  0  0  0  0
 13 28  1  0  0  0  0
 13 29  1  0  0  0  0
 14 19  1  0  0  0  0
 14 30  1  0  0  0  0
 14 31  1  0  0  0  0
 15 16  1  0  0  0  0
 15 18  1  0  0  0  0
 15 32  1  0  0  0  0
 15 33  1  0  0  0  0
 16 17  2  0  0  0  0
 16 20  1  0  0  0  0
 17 34  1  0  0  0  0
 18 21  1  0  0  0  0
 18 35  1  0  0  0  0
 18 36  1  0  0  0  0
 19 22  2  0  0  0  0
 19 23  1  0  0  0  0
 20 37  1  0  0  0  0
 20 38  1  0  0  0  0
 20 39  1  0  0  0  0
 21 24  2  0  0  0  0
 21 40  1  0  0  0  0
 22 25  1  0  0  0  0
 22 41  1  0  0  0  0
 24 26  1  0  0  0  0
 24 27  1  0  0  0  0
 25 42  1  0  0  0  0
 25 43  1  0  0  0  0
 26 44  1  0  0  0  0
 26 45  1  0  0  0  0
 26 46  1  0  0  0  0
 27 47  1  0  0  0  0
 27 48  1  0  0  0  0
 27 49  1  0  0  0  0
M  END
> <DATABASE_ID>
DB02808

> <DATABASE_NAME>
drugbank

> <ORIGINAL_SOURCE>
PUBCHEM

> <ORIGINAL_SOURCE_URL>
https://pubchem.ncbi.nlm.nih.gov/rest/pug/compound/inchikey/PXLMLAFPAPGGKK-GVCYOOEQSA-N/SDF?record_type=3d

> <SMILES>
CC(C)=CCC\C(C)=C\CC\C(=C\CO[P@@](=O)(O)OP(O)(O)=O)C(F)(F)F

> <INCHI_IDENTIFIER>
InChI=1S/C15H25F3O7P2/c1-12(2)6-4-7-13(3)8-5-9-14(15(16,17)18)10-11-24-27(22,23)25-26(19,20)21/h6,8,10H,4-5,7,9,11H2,1-3H3,(H,22,23)(H2,19,20,21)/b13-8+,14-10-

> <INCHI_KEY>
PXLMLAFPAPGGKK-GVCYOOEQSA-N

> <FORMULA>
C15H25F3O7P2

> <MOLECULAR_WEIGHT>
436.2975

> <EXACT_MASS>
436.102760793

> <JCHEM_ACCEPTOR_COUNT>
5

> <JCHEM_ATOM_COUNT>
52

> <JCHEM_AVERAGE_NEUTRAL_MICROSPECIES_CHARGE>
-2.430134109953281

> <JCHEM_AVERAGE_POLARIZABILITY>
38.80239127906465

> <JCHEM_BIOAVAILABILITY>
1

> <JCHEM_DONOR_COUNT>
3

> <JCHEM_FORMAL_CHARGE>
0

> <JCHEM_GHOSE_FILTER>
1

> <JCHEM_IUPAC>
[({[(2Z,6E)-7,11-dimethyl-3-(trifluoromethyl)dodeca-2,6,10-trien-1-yl]oxy}(hydroxy)phosphoryl)oxy]phosphonic acid

> <ALOGPS_LOGP>
2.95

> <JCHEM_LOGP>
3.981160153000001

> <ALOGPS_LOGS>
-3.69

> <JCHEM_MDDR_LIKE_RULE>
0

> <JCHEM_NEUTRAL_CHARGE>
-2

> <JCHEM_NUMBER_OF_RINGS>
0

> <JCHEM_PHYSIOLOGICAL_CHARGE>
-3

> <JCHEM_PKA>
3.204320120976337

> <JCHEM_PKA_STRONGEST_ACIDIC>
1.7672038558888294

> <JCHEM_POLAR_SURFACE_AREA>
113.29000000000002

> <JCHEM_REFRACTIVITY>
97.663

> <JCHEM_ROTATABLE_BOND_COUNT>
12

> <JCHEM_RULE_OF_FIVE>
1

> <ALOGPS_SOLUBILITY>
8.96e-02 g/l

> <JCHEM_TRADITIONAL_IUPAC>
biotin

> <JCHEM_VEBER_RULE>
0

$$$$
