
     RDKit          3D

 30 29  0  0  0  0  0  0  0  0999 V2000
   -8.3808   -1.3795   -1.1954 C   0  0  0  0  0  0  0  0  0  0  0  0
   -8.6390   -0.0980   -0.4645 C   0  0  0  0  0  0  0  0  0  0  0  0
  -10.0040    0.4922   -0.6496 C   0  0  0  0  0  0  0  0  0  0  0  0
   -7.9990    0.1066    0.6926 C   0  0  0  0  0  0  0  0  0  0  0  0
   -6.9114    1.1212    0.8160 C   0  0  0  0  0  0  0  0  0  0  0  0
   -5.6113    0.4743    1.2691 C   0  0  0  0  0  0  0  0  0  0  0  0
   -4.8514   -0.0813    0.1103 C   0  0  0  0  0  0  0  0  0  0  0  0
   -4.7015   -1.5682    0.0596 C   0  0  0  0  0  0  0  0  0  0  0  0
   -4.9554    0.5474   -1.0523 C   0  0  0  0  0  0  0  0  0  0  0  0
   -4.6344   -0.1079   -2.3565 C   0  0  0  0  0  0  0  0  0  0  0  0
   -3.3059   -0.8257   -2.3147 C   0  0  0  0  0  0  0  0  0  0  0  0
   -2.1894    0.1729   -2.2835 C   0  0  0  0  0  0  0  0  0  0  0  0
   -2.4711    1.5046   -1.6915 C   0  0  0  0  0  0  0  0  0  0  0  0
   -0.9483   -0.3022   -2.1294 C   0  0  0  0  0  0  0  0  0  0  0  0
    0.1064    0.5480   -1.4979 C   0  0  0  0  0  0  0  0  0  0  0  0
   -0.1244    0.6655    0.0041 C   0  0  0  0  0  0  0  0  0  0  0  0
    1.2327    0.8879    0.6025 C   0  0  0  0  0  0  0  0  0  0  0  0
    1.8768   -0.0306    1.2994 C   0  0  0  0  0  0  0  0  0  0  0  0
    1.0234   -1.0174    2.0391 C   0  0  0  0  0  0  0  0  0  0  0  0
    3.2792   -0.4648    1.0080 C   0  0  0  0  0  0  0  0  0  0  0  0
    4.2911    0.3961    1.7496 C   0  0  0  0  0  0  0  0  0  0  0  0
    5.6192   -0.2816    1.5935 C   0  0  0  0  0  0  0  0  0  0  0  0
    6.5593   -0.2233    2.5326 C   0  0  0  0  0  0  0  0  0  0  0  0
    6.1045   -0.0617    3.9358 C   0  0  0  0  0  0  0  0  0  0  0  0
    7.9423   -0.5654    2.1382 C   0  0  0  0  0  0  0  0  0  0  0  0
    8.2885    0.2895    0.9280 C   0  0  0  0  0  0  0  0  0  0  0  0
    7.7940   -0.3436   -0.3426 C   0  0  0  0  0  0  0  0  0  0  0  0
    7.0412    0.5660   -1.1724 N   0  0  0  0  0  0  0  0  0  0  0  0
    7.5118    1.9320   -1.0781 C   0  0  0  0  0  0  0  0  0  0  0  0
    7.0572    0.0935   -2.5502 C   0  0  0  0  0  0  0  0  0  0  0  0
  1  2  1  0
  2  3  1  0
  2  4  2  3
  4  5  1  0
  5  6  1  0
  6  7  1  0
  7  8  1  0
  7  9  2  0
  9 10  1  0
 10 11  1  0
 11 12  1  0
 12 13  1  0
 12 14  2  0
 14 15  1  0
 15 16  1  0
 16 17  1  0
 17 18  2  0
 18 19  1  0
 18 20  1  0
 20 21  1  0
 21 22  1  0
 22 23  2  0
 23 24  1  0
 23 25  1  0
 25 26  1  0
 26 27  1  0
 27 28  1  0
 28 29  1  0
 28 30  1  0
M  END
>  <zinc_id>  (1) 
ZINC000005158550

>  <smiles>  (1) 
CC(C)=CCC/C(C)=C/CC/C(C)=C/CC/C=C(\C)CC/C=C(\C)CCCN(C)C

$$$$
