6438583
  -OEChem-10051721213D

 47 47  0     0  0  0  0  0  0999 V2000
   -7.1856    0.2198   -1.3446 O   0  0  0  0  0  0  0  0  0  0  0  0
    8.3013    0.3475   -1.9345 O   0  0  0  0  0  0  0  0  0  0  0  0
    8.3647   -0.6400    0.1174 O   0  0  0  0  0  0  0  0  0  0  0  0
   -4.0649   -0.9818    0.1594 C   0  0  0  0  0  0  0  0  0  0  0  0
   -3.4047    0.2261    0.3410 C   0  0  0  0  0  0  0  0  0  0  0  0
   -5.3390   -0.9907   -0.4083 C   0  0  0  0  0  0  0  0  0  0  0  0
   -3.9952    1.4254   -0.0345 C   0  0  0  0  0  0  0  0  0  0  0  0
   -5.9413    0.2084   -0.7890 C   0  0  0  0  0  0  0  0  0  0  0  0
   -5.2694    1.4165   -0.6020 C   0  0  0  0  0  0  0  0  0  0  0  0
   -3.4299   -2.2769    0.5638 C   0  0  0  0  0  0  0  0  0  0  0  0
   -2.0590    0.2384    0.9396 C   0  0  0  0  0  0  0  0  0  0  0  0
   -6.0678   -2.2807   -0.6129 C   0  0  0  0  0  0  0  0  0  0  0  0
   -3.3081    2.7410    0.1473 C   0  0  0  0  0  0  0  0  0  0  0  0
   -0.9097    0.1668    0.2474 C   0  0  0  0  0  0  0  0  0  0  0  0
    0.4240    0.1703    0.8452 C   0  0  0  0  0  0  0  0  0  0  0  0
    0.3911    0.2159    2.3503 C   0  0  0  0  0  0  0  0  0  0  0  0
    1.5318    0.0953    0.0793 C   0  0  0  0  0  0  0  0  0  0  0  0
    2.9100    0.0641    0.5301 C   0  0  0  0  0  0  0  0  0  0  0  0
    3.9480   -0.0122   -0.3210 C   0  0  0  0  0  0  0  0  0  0  0  0
    5.3723   -0.0547    0.0300 C   0  0  0  0  0  0  0  0  0  0  0  0
    5.7251    0.0174    1.4937 C   0  0  0  0  0  0  0  0  0  0  0  0
    6.2676   -0.1316   -0.9751 C   0  0  0  0  0  0  0  0  0  0  0  0
    7.7387   -0.1842   -0.8228 C   0  0  0  0  0  0  0  0  0  0  0  0
   -5.7420    2.3491   -0.9012 H   0  0  0  0  0  0  0  0  0  0  0  0
   -4.1616   -2.9798    0.9750 H   0  0  0  0  0  0  0  0  0  0  0  0
   -2.9407   -2.7395   -0.2997 H   0  0  0  0  0  0  0  0  0  0  0  0
   -2.6864   -2.1599    1.3582 H   0  0  0  0  0  0  0  0  0  0  0  0
   -2.0901    0.3128    2.0227 H   0  0  0  0  0  0  0  0  0  0  0  0
   -6.4237   -2.6715    0.3460 H   0  0  0  0  0  0  0  0  0  0  0  0
   -6.9391   -2.1746   -1.2670 H   0  0  0  0  0  0  0  0  0  0  0  0
   -5.4235   -3.0247   -1.0938 H   0  0  0  0  0  0  0  0  0  0  0  0
   -2.4242    2.8047   -0.4957 H   0  0  0  0  0  0  0  0  0  0  0  0
   -3.9616    3.5810   -0.1139 H   0  0  0  0  0  0  0  0  0  0  0  0
   -3.0112    2.8840    1.1917 H   0  0  0  0  0  0  0  0  0  0  0  0
   -0.9556    0.0983   -0.8381 H   0  0  0  0  0  0  0  0  0  0  0  0
   -7.4376    1.1380   -1.5427 H   0  0  0  0  0  0  0  0  0  0  0  0
   -0.0753    1.1409    2.7087 H   0  0  0  0  0  0  0  0  0  0  0  0
   -0.1411   -0.6485    2.7642 H   0  0  0  0  0  0  0  0  0  0  0  0
    1.3871    0.1932    2.7994 H   0  0  0  0  0  0  0  0  0  0  0  0
    1.4042    0.0522   -1.0027 H   0  0  0  0  0  0  0  0  0  0  0  0
    3.0889    0.0990    1.5978 H   0  0  0  0  0  0  0  0  0  0  0  0
    3.7298   -0.0498   -1.3886 H   0  0  0  0  0  0  0  0  0  0  0  0
    6.7948    0.1186    1.6843 H   0  0  0  0  0  0  0  0  0  0  0  0
    5.3828   -0.8832    2.0150 H   0  0  0  0  0  0  0  0  0  0  0  0
    5.2595    0.8927    1.9609 H   0  0  0  0  0  0  0  0  0  0  0  0
    5.9229   -0.1411   -2.0081 H   0  0  0  0  0  0  0  0  0  0  0  0
    9.2813    0.3312   -1.8936 H   0  0  0  0  0  0  0  0  0  0  0  0
  1  8  1  0  0  0  0
  1 36  1  0  0  0  0
  2 23  1  0  0  0  0
  2 47  1  0  0  0  0
  3 23  2  0  0  0  0
  4  5  2  0  0  0  0
  4  6  1  0  0  0  0
  4 10  1  0  0  0  0
  5  7  1  0  0  0  0
  5 11  1  0  0  0  0
  6  8  2  0  0  0  0
  6 12  1  0  0  0  0
  7  9  2  0  0  0  0
  7 13  1  0  0  0  0
  8  9  1  0  0  0  0
  9 24  1  0  0  0  0
 10 25  1  0  0  0  0
 10 26  1  0  0  0  0
 10 27  1  0  0  0  0
 11 14  2  0  0  0  0
 11 28  1  0  0  0  0
 12 29  1  0  0  0  0
 12 30  1  0  0  0  0
 12 31  1  0  0  0  0
 13 32  1  0  0  0  0
 13 33  1  0  0  0  0
 13 34  1  0  0  0  0
 14 15  1  0  0  0  0
 14 35  1  0  0  0  0
 15 16  1  0  0  0  0
 15 17  2  0  0  0  0
 16 37  1  0  0  0  0
 16 38  1  0  0  0  0
 16 39  1  0  0  0  0
 17 18  1  0  0  0  0
 17 40  1  0  0  0  0
 18 19  2  0  0  0  0
 18 41  1  0  0  0  0
 19 20  1  0  0  0  0
 19 42  1  0  0  0  0
 20 21  1  0  0  0  0
 20 22  2  0  0  0  0
 21 43  1  0  0  0  0
 21 44  1  0  0  0  0
 21 45  1  0  0  0  0
 22 23  1  0  0  0  0
 22 46  1  0  0  0  0
M  END
> <DATABASE_ID>
DB08455

> <DATABASE_NAME>
drugbank

> <ORIGINAL_SOURCE>
PUBCHEM

> <ORIGINAL_SOURCE_URL>
https://pubchem.ncbi.nlm.nih.gov/rest/pug/compound/inchikey/CAAFTBWHFUPDGX-OFCLTBKTSA-N/SDF?record_type=3d

> <SMILES>
[H]/C(=C(/[H])\C(\C)=C(/[H])C(O)=O)/C(/[H])=C(\C)/C(/[H])=C(\[H])C1=C(C)C=C(O)C(C)=C1C

> <INCHI_IDENTIFIER>
InChI=1S/C20H24O3/c1-13(7-6-8-14(2)11-20(22)23)9-10-18-15(3)12-19(21)17(5)16(18)4/h6-12,21H,1-5H3,(H,22,23)/b8-6+,10-9+,13-7+,14-11+

> <INCHI_KEY>
CAAFTBWHFUPDGX-OFCLTBKTSA-N

> <FORMULA>
C20H24O3

> <MOLECULAR_WEIGHT>
312.4028

> <EXACT_MASS>
312.172544634

> <JCHEM_ACCEPTOR_COUNT>
3

> <JCHEM_ATOM_COUNT>
47

> <JCHEM_AVERAGE_NEUTRAL_MICROSPECIES_CHARGE>
-0.9949867301332583

> <JCHEM_AVERAGE_POLARIZABILITY>
36.517751842477296

> <JCHEM_BIOAVAILABILITY>
1

> <JCHEM_DONOR_COUNT>
2

> <JCHEM_FORMAL_CHARGE>
0

> <JCHEM_GHOSE_FILTER>
1

> <JCHEM_IUPAC>
(2E,4E,6E,8E)-9-(4-hydroxy-2,3,6-trimethylphenyl)-3,7-dimethylnona-2,4,6,8-tetraenoic acid

> <ALOGPS_LOGP>
5.60

> <JCHEM_LOGP>
5.441154669666666

> <ALOGPS_LOGS>
-5.42

> <JCHEM_MDDR_LIKE_RULE>
0

> <JCHEM_NEUTRAL_CHARGE>
-1

> <JCHEM_NUMBER_OF_RINGS>
1

> <JCHEM_PHYSIOLOGICAL_CHARGE>
-1

> <JCHEM_PKA>
10.053497574246965

> <JCHEM_PKA_STRONGEST_ACIDIC>
4.77316978711855

> <JCHEM_PKA_STRONGEST_BASIC>
-5.936110717812234

> <JCHEM_POLAR_SURFACE_AREA>
57.53

> <JCHEM_REFRACTIVITY>
99.68419999999998

> <JCHEM_ROTATABLE_BOND_COUNT>
5

> <JCHEM_RULE_OF_FIVE>
0

> <ALOGPS_SOLUBILITY>
1.19e-03 g/l

> <JCHEM_TRADITIONAL_IUPAC>
tetrahydrofolic acid

> <JCHEM_VEBER_RULE>
0

$$$$
