5288173
  -OEChem-02282013063D

 57 57  0     0  0  0  0  0  0999 V2000
    6.8492    0.8706    0.8064 O   0  0  0  0  0  0  0  0  0  0  0  0
    6.7339   -0.9662   -0.6113 N   0  0  0  0  0  0  0  0  0  0  0  0
   -5.1475    1.1248   -0.5673 C   0  0  0  0  0  0  0  0  0  0  0  0
   -6.6108    1.1381   -0.0461 C   0  0  0  0  0  0  0  0  0  0  0  0
   -7.1922   -0.2595    0.0695 C   0  0  0  0  0  0  0  0  0  0  0  0
   -4.3044    0.0325    0.1320 C   0  0  0  0  0  0  0  0  0  0  0  0
   -6.3686   -1.0876    1.0440 C   0  0  0  0  0  0  0  0  0  0  0  0
   -4.8684   -0.9487    0.8805 C   0  0  0  0  0  0  0  0  0  0  0  0
   -4.5899    2.5459   -0.3082 C   0  0  0  0  0  0  0  0  0  0  0  0
   -5.1593    0.8722   -2.0924 C   0  0  0  0  0  0  0  0  0  0  0  0
   -2.8693    0.1113   -0.0858 C   0  0  0  0  0  0  0  0  0  0  0  0
   -4.1208   -2.0202    1.6402 C   0  0  0  0  0  0  0  0  0  0  0  0
   -2.0991   -0.9664   -0.3058 C   0  0  0  0  0  0  0  0  0  0  0  0
   -0.6535   -0.9658   -0.5317 C   0  0  0  0  0  0  0  0  0  0  0  0
   -0.1127   -1.9086   -1.5821 C   0  0  0  0  0  0  0  0  0  0  0  0
    0.2172   -0.1779    0.1358 C   0  0  0  0  0  0  0  0  0  0  0  0
    1.6577   -0.1006   -0.0111 C   0  0  0  0  0  0  0  0  0  0  0  0
    2.4175    0.7322    0.7195 C   0  0  0  0  0  0  0  0  0  0  0  0
    3.8594    0.8577    0.5804 C   0  0  0  0  0  0  0  0  0  0  0  0
    4.7288   -0.1507    0.3808 C   0  0  0  0  0  0  0  0  0  0  0  0
    4.3505    2.2776    0.6911 C   0  0  0  0  0  0  0  0  0  0  0  0
    6.2088   -0.0077    0.2395 C   0  0  0  0  0  0  0  0  0  0  0  0
    8.1399   -1.0437   -0.9387 C   0  0  0  0  0  0  0  0  0  0  0  0
    8.9332    0.0407   -0.2392 C   0  0  0  0  0  0  0  0  0  0  0  0
   -6.6522    1.6153    0.9431 H   0  0  0  0  0  0  0  0  0  0  0  0
   -7.2471    1.7434   -0.7043 H   0  0  0  0  0  0  0  0  0  0  0  0
   -8.2297   -0.2065    0.4192 H   0  0  0  0  0  0  0  0  0  0  0  0
   -7.2185   -0.7478   -0.9113 H   0  0  0  0  0  0  0  0  0  0  0  0
   -6.6292   -0.7998    2.0707 H   0  0  0  0  0  0  0  0  0  0  0  0
   -6.6575   -2.1394    0.9251 H   0  0  0  0  0  0  0  0  0  0  0  0
   -4.4320    2.7234    0.7619 H   0  0  0  0  0  0  0  0  0  0  0  0
   -3.6413    2.7217   -0.8269 H   0  0  0  0  0  0  0  0  0  0  0  0
   -5.2869    3.3110   -0.6714 H   0  0  0  0  0  0  0  0  0  0  0  0
   -5.5139   -0.1350   -2.3365 H   0  0  0  0  0  0  0  0  0  0  0  0
   -5.8087    1.5895   -2.6071 H   0  0  0  0  0  0  0  0  0  0  0  0
   -4.1568    0.9767   -2.5237 H   0  0  0  0  0  0  0  0  0  0  0  0
   -2.4075    1.0914   -0.0309 H   0  0  0  0  0  0  0  0  0  0  0  0
   -4.0804   -2.9477    1.0607 H   0  0  0  0  0  0  0  0  0  0  0  0
   -4.6401   -2.2415    2.5806 H   0  0  0  0  0  0  0  0  0  0  0  0
   -3.1127   -1.7223    1.9390 H   0  0  0  0  0  0  0  0  0  0  0  0
   -2.5477   -1.9506   -0.4202 H   0  0  0  0  0  0  0  0  0  0  0  0
   -0.9234   -2.3564   -2.1684 H   0  0  0  0  0  0  0  0  0  0  0  0
    0.5324   -1.3889   -2.2986 H   0  0  0  0  0  0  0  0  0  0  0  0
    0.4447   -2.7281   -1.1160 H   0  0  0  0  0  0  0  0  0  0  0  0
   -0.1883    0.4901    0.8965 H   0  0  0  0  0  0  0  0  0  0  0  0
    2.1246   -0.7421   -0.7522 H   0  0  0  0  0  0  0  0  0  0  0  0
    1.9543    1.3891    1.4532 H   0  0  0  0  0  0  0  0  0  0  0  0
    4.3544   -1.1689    0.2945 H   0  0  0  0  0  0  0  0  0  0  0  0
    3.5587    2.9950    0.4423 H   0  0  0  0  0  0  0  0  0  0  0  0
    5.1662    2.4929   -0.0066 H   0  0  0  0  0  0  0  0  0  0  0  0
    4.6814    2.4909    1.7131 H   0  0  0  0  0  0  0  0  0  0  0  0
    8.2315   -0.9550   -2.0255 H   0  0  0  0  0  0  0  0  0  0  0  0
    8.4932   -2.0371   -0.6457 H   0  0  0  0  0  0  0  0  0  0  0  0
    6.1183   -1.6498   -1.0423 H   0  0  0  0  0  0  0  0  0  0  0  0
    8.6548    1.0496   -0.5608 H   0  0  0  0  0  0  0  0  0  0  0  0
    8.9230   -0.0573    0.8513 H   0  0  0  0  0  0  0  0  0  0  0  0
    9.9863   -0.0716   -0.5272 H   0  0  0  0  0  0  0  0  0  0  0  0
  1 22  2  0  0  0  0
  2 22  1  0  0  0  0
  2 23  1  0  0  0  0
  2 54  1  0  0  0  0
  3  4  1  0  0  0  0
  3  6  1  0  0  0  0
  3  9  1  0  0  0  0
  3 10  1  0  0  0  0
  4  5  1  0  0  0  0
  4 25  1  0  0  0  0
  4 26  1  0  0  0  0
  5  7  1  0  0  0  0
  5 27  1  0  0  0  0
  5 28  1  0  0  0  0
  6  8  2  0  0  0  0
  6 11  1  0  0  0  0
  7  8  1  0  0  0  0
  7 29  1  0  0  0  0
  7 30  1  0  0  0  0
  8 12  1  0  0  0  0
  9 31  1  0  0  0  0
  9 32  1  0  0  0  0
  9 33  1  0  0  0  0
 10 34  1  0  0  0  0
 10 35  1  0  0  0  0
 10 36  1  0  0  0  0
 11 13  2  0  0  0  0
 11 37  1  0  0  0  0
 12 38  1  0  0  0  0
 12 39  1  0  0  0  0
 12 40  1  0  0  0  0
 13 14  1  0  0  0  0
 13 41  1  0  0  0  0
 14 15  1  0  0  0  0
 14 16  2  0  0  0  0
 15 42  1  0  0  0  0
 15 43  1  0  0  0  0
 15 44  1  0  0  0  0
 16 17  1  0  0  0  0
 16 45  1  0  0  0  0
 17 18  2  0  0  0  0
 17 46  1  0  0  0  0
 18 19  1  0  0  0  0
 18 47  1  0  0  0  0
 19 20  2  0  0  0  0
 19 21  1  0  0  0  0
 20 22  1  0  0  0  0
 20 48  1  0  0  0  0
 21 49  1  0  0  0  0
 21 50  1  0  0  0  0
 21 51  1  0  0  0  0
 23 24  1  0  0  0  0
 23 52  1  0  0  0  0
 23 53  1  0  0  0  0
 24 55  1  0  0  0  0
 24 56  1  0  0  0  0
 24 57  1  0  0  0  0
M  END
> <DATABASE_ID>
DB03917

> <DATABASE_NAME>
drugbank

> <ORIGINAL_SOURCE>
PUBCHEM

> <ORIGINAL_SOURCE_URL>
https://pubchem.ncbi.nlm.nih.gov/rest/pug/compound/inchikey/WKYDOCGICAMTKE-NBIQJRODSA-N/SDF?record_type=3d

> <SMILES>
CCNC(=O)\C=C(/C)\C=C\C=C(/C)\C=C\C1=C(C)CCCC1(C)C

> <INCHI_IDENTIFIER>
InChI=1S/C22H33NO/c1-7-23-21(24)16-18(3)11-8-10-17(2)13-14-20-19(4)12-9-15-22(20,5)6/h8,10-11,13-14,16H,7,9,12,15H2,1-6H3,(H,23,24)/b11-8+,14-13+,17-10+,18-16+

> <INCHI_KEY>
WKYDOCGICAMTKE-NBIQJRODSA-N

> <FORMULA>
C22H33NO

> <MOLECULAR_WEIGHT>
327.5035

> <EXACT_MASS>
327.256214683

> <JCHEM_ACCEPTOR_COUNT>
1

> <JCHEM_ATOM_COUNT>
57

> <JCHEM_AVERAGE_NEUTRAL_MICROSPECIES_CHARGE>
5.9121049652920573e-08

> <JCHEM_AVERAGE_POLARIZABILITY>
41.34504326820861

> <JCHEM_BIOAVAILABILITY>
1

> <JCHEM_DONOR_COUNT>
1

> <JCHEM_FORMAL_CHARGE>
0

> <JCHEM_GHOSE_FILTER>
1

> <JCHEM_IUPAC>
(2E,4E,6E,8E)-N-ethyl-3,7-dimethyl-9-(2,6,6-trimethylcyclohex-1-en-1-yl)nona-2,4,6,8-tetraenamide

> <ALOGPS_LOGP>
6.05

> <JCHEM_LOGP>
4.787909117666668

> <ALOGPS_LOGS>
-4.99

> <JCHEM_MDDR_LIKE_RULE>
0

> <JCHEM_NEUTRAL_CHARGE>
0

> <JCHEM_NUMBER_OF_RINGS>
1

> <JCHEM_PHYSIOLOGICAL_CHARGE>
0

> <JCHEM_PKA_STRONGEST_ACIDIC>
16.31470693676814

> <JCHEM_PKA_STRONGEST_BASIC>
-0.2247132827725103

> <JCHEM_POLAR_SURFACE_AREA>
29.1

> <JCHEM_REFRACTIVITY>
109.25829999999999

> <JCHEM_ROTATABLE_BOND_COUNT>
6

> <JCHEM_RULE_OF_FIVE>
1

> <ALOGPS_SOLUBILITY>
3.32e-03 g/l

> <JCHEM_TRADITIONAL_IUPAC>
4'-phosphopantetheine

> <JCHEM_VEBER_RULE>
1

$$$$
