3312
  -OEChem-10051719263D

 56 56  0     0  0  0  0  0  0999 V2000
    7.4636   -1.6918   -0.1505 O   0  0  0  0  0  0  0  0  0  0  0  0
   -7.8655   -1.3457   -0.1598 O   0  0  0  0  0  0  0  0  0  0  0  0
   -7.8446    0.9303   -0.5448 O   0  0  0  0  0  0  0  0  0  0  0  0
    4.5153    0.3415   -0.9366 C   0  0  0  0  0  0  0  0  0  0  0  0
    3.8755    0.3216    0.2949 C   0  0  0  0  0  0  0  0  0  0  0  0
    5.7248   -0.3353   -1.0932 C   0  0  0  0  0  0  0  0  0  0  0  0
    4.4209   -0.3615    1.3730 C   0  0  0  0  0  0  0  0  0  0  0  0
    6.2825   -1.0252   -0.0169 C   0  0  0  0  0  0  0  0  0  0  0  0
    5.6306   -1.0383    1.2163 C   0  0  0  0  0  0  0  0  0  0  0  0
    3.9277    1.0784   -2.1008 C   0  0  0  0  0  0  0  0  0  0  0  0
    2.5968    1.0354    0.4632 C   0  0  0  0  0  0  0  0  0  0  0  0
    6.4319   -0.3273   -2.4114 C   0  0  0  0  0  0  0  0  0  0  0  0
    3.7531   -0.4015    2.7103 C   0  0  0  0  0  0  0  0  0  0  0  0
    1.3866    0.4987    0.2306 C   0  0  0  0  0  0  0  0  0  0  0  0
    0.0924    1.1711    0.3804 C   0  0  0  0  0  0  0  0  0  0  0  0
    8.6553   -0.9607    0.1309 C   0  0  0  0  0  0  0  0  0  0  0  0
    0.0988    2.6149    0.8172 C   0  0  0  0  0  0  0  0  0  0  0  0
   -1.0302    0.4751    0.1013 C   0  0  0  0  0  0  0  0  0  0  0  0
   -2.4048    0.9238    0.1904 C   0  0  0  0  0  0  0  0  0  0  0  0
   -3.4703    0.1617   -0.1081 C   0  0  0  0  0  0  0  0  0  0  0  0
   -4.8801    0.5590   -0.0376 C   0  0  0  0  0  0  0  0  0  0  0  0
   -5.1810    1.9551    0.4440 C   0  0  0  0  0  0  0  0  0  0  0  0
   -5.8114   -0.3537   -0.3802 C   0  0  0  0  0  0  0  0  0  0  0  0
   -7.2783   -0.1359   -0.3716 C   0  0  0  0  0  0  0  0  0  0  0  0
   -9.2970   -1.3402   -0.1429 C   0  0  0  0  0  0  0  0  0  0  0  0
   -9.7925   -2.7496    0.1016 C   0  0  0  0  0  0  0  0  0  0  0  0
    6.0734   -1.5807    2.0483 H   0  0  0  0  0  0  0  0  0  0  0  0
    3.2646    1.8957   -1.8008 H   0  0  0  0  0  0  0  0  0  0  0  0
    3.3589    0.3886   -2.7329 H   0  0  0  0  0  0  0  0  0  0  0  0
    4.7000    1.5620   -2.7081 H   0  0  0  0  0  0  0  0  0  0  0  0
    2.7075    2.0618    0.8026 H   0  0  0  0  0  0  0  0  0  0  0  0
    6.9290    0.6353   -2.5687 H   0  0  0  0  0  0  0  0  0  0  0  0
    7.1914   -1.1119   -2.4879 H   0  0  0  0  0  0  0  0  0  0  0  0
    5.7358   -0.5161   -3.2357 H   0  0  0  0  0  0  0  0  0  0  0  0
    3.5740    0.6116    3.0857 H   0  0  0  0  0  0  0  0  0  0  0  0
    4.3698   -0.9126    3.4579 H   0  0  0  0  0  0  0  0  0  0  0  0
    2.8026   -0.9415    2.6491 H   0  0  0  0  0  0  0  0  0  0  0  0
    1.3497   -0.5377   -0.1045 H   0  0  0  0  0  0  0  0  0  0  0  0
    8.6803   -0.6648    1.1844 H   0  0  0  0  0  0  0  0  0  0  0  0
    8.7317   -0.0754   -0.5083 H   0  0  0  0  0  0  0  0  0  0  0  0
    9.5112   -1.6110   -0.0696 H   0  0  0  0  0  0  0  0  0  0  0  0
   -0.8915    3.0687    0.8829 H   0  0  0  0  0  0  0  0  0  0  0  0
    0.6720    3.2252    0.1099 H   0  0  0  0  0  0  0  0  0  0  0  0
    0.5535    2.7102    1.8097 H   0  0  0  0  0  0  0  0  0  0  0  0
   -0.9267   -0.5619   -0.2211 H   0  0  0  0  0  0  0  0  0  0  0  0
   -2.5646    1.9440    0.5178 H   0  0  0  0  0  0  0  0  0  0  0  0
   -3.2863   -0.8604   -0.4395 H   0  0  0  0  0  0  0  0  0  0  0  0
   -6.2408    2.1428    0.6223 H   0  0  0  0  0  0  0  0  0  0  0  0
   -4.6876    2.1483    1.4036 H   0  0  0  0  0  0  0  0  0  0  0  0
   -4.8338    2.6950   -0.2853 H   0  0  0  0  0  0  0  0  0  0  0  0
   -5.5056   -1.3547   -0.6810 H   0  0  0  0  0  0  0  0  0  0  0  0
   -9.6720   -0.9777   -1.1064 H   0  0  0  0  0  0  0  0  0  0  0  0
   -9.6501   -0.6796    0.6568 H   0  0  0  0  0  0  0  0  0  0  0  0
   -9.4106   -3.1326    1.0537 H   0  0  0  0  0  0  0  0  0  0  0  0
   -9.4321   -3.4259   -0.6806 H   0  0  0  0  0  0  0  0  0  0  0  0
  -10.8854   -2.7821    0.1207 H   0  0  0  0  0  0  0  0  0  0  0  0
  1  8  1  0  0  0  0
  1 16  1  0  0  0  0
  2 24  1  0  0  0  0
  2 25  1  0  0  0  0
  3 24  2  0  0  0  0
  4  5  2  0  0  0  0
  4  6  1  0  0  0  0
  4 10  1  0  0  0  0
  5  7  1  0  0  0  0
  5 11  1  0  0  0  0
  6  8  2  0  0  0  0
  6 12  1  0  0  0  0
  7  9  2  0  0  0  0
  7 13  1  0  0  0  0
  8  9  1  0  0  0  0
  9 27  1  0  0  0  0
 10 28  1  0  0  0  0
 10 29  1  0  0  0  0
 10 30  1  0  0  0  0
 11 14  2  0  0  0  0
 11 31  1  0  0  0  0
 12 32  1  0  0  0  0
 12 33  1  0  0  0  0
 12 34  1  0  0  0  0
 13 35  1  0  0  0  0
 13 36  1  0  0  0  0
 13 37  1  0  0  0  0
 14 15  1  0  0  0  0
 14 38  1  0  0  0  0
 15 17  1  0  0  0  0
 15 18  2  0  0  0  0
 16 39  1  0  0  0  0
 16 40  1  0  0  0  0
 16 41  1  0  0  0  0
 17 42  1  0  0  0  0
 17 43  1  0  0  0  0
 17 44  1  0  0  0  0
 18 19  1  0  0  0  0
 18 45  1  0  0  0  0
 19 20  2  0  0  0  0
 19 46  1  0  0  0  0
 20 21  1  0  0  0  0
 20 47  1  0  0  0  0
 21 22  1  0  0  0  0
 21 23  2  0  0  0  0
 22 48  1  0  0  0  0
 22 49  1  0  0  0  0
 22 50  1  0  0  0  0
 23 24  1  0  0  0  0
 23 51  1  0  0  0  0
 25 26  1  0  0  0  0
 25 52  1  0  0  0  0
 25 53  1  0  0  0  0
 26 54  1  0  0  0  0
 26 55  1  0  0  0  0
 26 56  1  0  0  0  0
M  END
> <DATABASE_ID>
DB00926

> <DATABASE_NAME>
drugbank

> <ORIGINAL_SOURCE>
PUBCHEM

> <ORIGINAL_SOURCE_URL>
https://pubchem.ncbi.nlm.nih.gov/rest/pug/compound/inchikey/HQMNCQVAMBCHCO-UHFFFAOYSA-N/SDF?record_type=3d

> <SMILES>
CCOC(=O)C=C(C)C=CC=C(C)C=CC1=C(C)C(C)=C(OC)C=C1C

> <INCHI_IDENTIFIER>
InChI=1S/C23H30O3/c1-8-26-23(24)14-17(3)11-9-10-16(2)12-13-21-18(4)15-22(25-7)20(6)19(21)5/h9-15H,8H2,1-7H3

> <INCHI_KEY>
HQMNCQVAMBCHCO-UHFFFAOYSA-N

> <FORMULA>
C23H30O3

> <MOLECULAR_WEIGHT>
354.4825

> <EXACT_MASS>
354.219494826

> <JCHEM_ACCEPTOR_COUNT>
2

> <JCHEM_ATOM_COUNT>
56

> <JCHEM_AVERAGE_NEUTRAL_MICROSPECIES_CHARGE>
1.5131424081979049e-12

> <JCHEM_AVERAGE_POLARIZABILITY>
42.97739701003265

> <JCHEM_BIOAVAILABILITY>
1

> <JCHEM_DONOR_COUNT>
0

> <JCHEM_FORMAL_CHARGE>
0

> <JCHEM_GHOSE_FILTER>
0

> <JCHEM_IUPAC>
ethyl 9-(4-methoxy-2,3,6-trimethylphenyl)-3,7-dimethylnona-2,4,6,8-tetraenoate

> <ALOGPS_LOGP>
6.32

> <JCHEM_LOGP>
6.323084069666667

> <ALOGPS_LOGS>
-5.94

> <JCHEM_MDDR_LIKE_RULE>
0

> <JCHEM_NEUTRAL_CHARGE>
0

> <JCHEM_NUMBER_OF_RINGS>
1

> <JCHEM_PHYSIOLOGICAL_CHARGE>
0

> <JCHEM_PKA_STRONGEST_BASIC>
-4.815754728353506

> <JCHEM_POLAR_SURFACE_AREA>
35.53

> <JCHEM_REFRACTIVITY>
113.6842

> <JCHEM_ROTATABLE_BOND_COUNT>
8

> <JCHEM_RULE_OF_FIVE>
0

> <ALOGPS_SOLUBILITY>
4.05e-04 g/l

> <JCHEM_TRADITIONAL_IUPAC>
tetrahydrofolic acid

> <JCHEM_VEBER_RULE>
1

$$$$
