5288209
  -OEChem-10051720453D

 62 63  0     0  0  0  0  0  0999 V2000
    5.1944   -2.0693   -0.7813 O   0  0  0  0  0  0  0  0  0  0  0  0
   10.6685    1.3276    0.0693 O   0  0  0  0  0  0  0  0  0  0  0  0
    5.3715   -0.2098    0.6482 N   0  0  0  0  0  0  0  0  0  0  0  0
   -7.4169    1.3032   -0.0477 C   0  0  0  0  0  0  0  0  0  0  0  0
   -8.8720    0.8737    0.2855 C   0  0  0  0  0  0  0  0  0  0  0  0
   -8.9285   -0.1317    1.4217 C   0  0  0  0  0  0  0  0  0  0  0  0
   -6.4606    0.0882   -0.0913 C   0  0  0  0  0  0  0  0  0  0  0  0
   -8.1572   -1.3877    1.0451 C   0  0  0  0  0  0  0  0  0  0  0  0
   -6.8180   -1.1316    0.3833 C   0  0  0  0  0  0  0  0  0  0  0  0
   -6.9306    2.3055    1.0242 C   0  0  0  0  0  0  0  0  0  0  0  0
   -7.4902    2.0364   -1.4095 C   0  0  0  0  0  0  0  0  0  0  0  0
   -5.1433    0.3447   -0.6503 C   0  0  0  0  0  0  0  0  0  0  0  0
   -5.9703   -2.3818    0.3326 C   0  0  0  0  0  0  0  0  0  0  0  0
   -4.0134   -0.1607   -0.1297 C   0  0  0  0  0  0  0  0  0  0  0  0
   -2.6570    0.0482   -0.6372 C   0  0  0  0  0  0  0  0  0  0  0  0
   -2.5000    0.9028   -1.8737 C   0  0  0  0  0  0  0  0  0  0  0  0
   -1.5491   -0.4834   -0.0765 C   0  0  0  0  0  0  0  0  0  0  0  0
   -0.1698   -0.3383   -0.4992 C   0  0  0  0  0  0  0  0  0  0  0  0
    0.8530   -0.9217    0.1472 C   0  0  0  0  0  0  0  0  0  0  0  0
    2.2541   -0.8036   -0.2325 C   0  0  0  0  0  0  0  0  0  0  0  0
    3.2943   -1.3793    0.4005 C   0  0  0  0  0  0  0  0  0  0  0  0
    2.4798    0.0292   -1.4663 C   0  0  0  0  0  0  0  0  0  0  0  0
    4.7256   -1.2510    0.0020 C   0  0  0  0  0  0  0  0  0  0  0  0
    6.7231    0.1828    0.5001 C   0  0  0  0  0  0  0  0  0  0  0  0
    7.2006    1.2564    1.2329 C   0  0  0  0  0  0  0  0  0  0  0  0
    7.5392   -0.5150   -0.3746 C   0  0  0  0  0  0  0  0  0  0  0  0
    8.5329    1.6433    1.0870 C   0  0  0  0  0  0  0  0  0  0  0  0
    8.8715   -0.1282   -0.5204 C   0  0  0  0  0  0  0  0  0  0  0  0
    9.3683    0.9510    0.2104 C   0  0  0  0  0  0  0  0  0  0  0  0
   -9.3425    0.4245   -0.6004 H   0  0  0  0  0  0  0  0  0  0  0  0
   -9.4808    1.7494    0.5441 H   0  0  0  0  0  0  0  0  0  0  0  0
   -9.9704   -0.3930    1.6399 H   0  0  0  0  0  0  0  0  0  0  0  0
   -8.5171    0.3019    2.3402 H   0  0  0  0  0  0  0  0  0  0  0  0
   -8.0120   -1.9831    1.9551 H   0  0  0  0  0  0  0  0  0  0  0  0
   -8.7666   -1.9933    0.3619 H   0  0  0  0  0  0  0  0  0  0  0  0
   -6.8263    1.8333    2.0071 H   0  0  0  0  0  0  0  0  0  0  0  0
   -7.6294    3.1435    1.1282 H   0  0  0  0  0  0  0  0  0  0  0  0
   -5.9541    2.7298    0.7627 H   0  0  0  0  0  0  0  0  0  0  0  0
   -6.5646    2.5734   -1.6436 H   0  0  0  0  0  0  0  0  0  0  0  0
   -8.2899    2.7870   -1.4062 H   0  0  0  0  0  0  0  0  0  0  0  0
   -7.6959    1.3372   -2.2284 H   0  0  0  0  0  0  0  0  0  0  0  0
   -5.1076    0.9423   -1.5536 H   0  0  0  0  0  0  0  0  0  0  0  0
   -6.6080   -3.2571    0.1589 H   0  0  0  0  0  0  0  0  0  0  0  0
   -5.4524   -2.5367    1.2841 H   0  0  0  0  0  0  0  0  0  0  0  0
   -5.2514   -2.3905   -0.4904 H   0  0  0  0  0  0  0  0  0  0  0  0
   -4.0474   -0.7310    0.7959 H   0  0  0  0  0  0  0  0  0  0  0  0
   -3.0617    0.4609   -2.7056 H   0  0  0  0  0  0  0  0  0  0  0  0
   -2.9004    1.9064   -1.6856 H   0  0  0  0  0  0  0  0  0  0  0  0
   -1.4893    1.0540   -2.2480 H   0  0  0  0  0  0  0  0  0  0  0  0
   -1.6866   -1.1026    0.8108 H   0  0  0  0  0  0  0  0  0  0  0  0
    0.0255    0.2708   -1.3681 H   0  0  0  0  0  0  0  0  0  0  0  0
    0.6552   -1.5332    1.0259 H   0  0  0  0  0  0  0  0  0  0  0  0
    3.1279   -1.9840    1.2886 H   0  0  0  0  0  0  0  0  0  0  0  0
    2.1475    1.0626   -1.3130 H   0  0  0  0  0  0  0  0  0  0  0  0
    1.9633   -0.3969   -2.3342 H   0  0  0  0  0  0  0  0  0  0  0  0
    3.5339    0.0965   -1.7539 H   0  0  0  0  0  0  0  0  0  0  0  0
    4.8261    0.3506    1.3001 H   0  0  0  0  0  0  0  0  0  0  0  0
    6.5584    1.8023    1.9185 H   0  0  0  0  0  0  0  0  0  0  0  0
    7.2287   -1.3558   -0.9770 H   0  0  0  0  0  0  0  0  0  0  0  0
    8.9078    2.4857    1.6623 H   0  0  0  0  0  0  0  0  0  0  0  0
    9.5183   -0.6701   -1.2052 H   0  0  0  0  0  0  0  0  0  0  0  0
   10.8405    2.0897    0.6488 H   0  0  0  0  0  0  0  0  0  0  0  0
  1 23  2  0  0  0  0
  2 29  1  0  0  0  0
  2 62  1  0  0  0  0
  3 23  1  0  0  0  0
  3 24  1  0  0  0  0
  3 57  1  0  0  0  0
  4  5  1  0  0  0  0
  4  7  1  0  0  0  0
  4 10  1  0  0  0  0
  4 11  1  0  0  0  0
  5  6  1  0  0  0  0
  5 30  1  0  0  0  0
  5 31  1  0  0  0  0
  6  8  1  0  0  0  0
  6 32  1  0  0  0  0
  6 33  1  0  0  0  0
  7  9  2  0  0  0  0
  7 12  1  0  0  0  0
  8  9  1  0  0  0  0
  8 34  1  0  0  0  0
  8 35  1  0  0  0  0
  9 13  1  0  0  0  0
 10 36  1  0  0  0  0
 10 37  1  0  0  0  0
 10 38  1  0  0  0  0
 11 39  1  0  0  0  0
 11 40  1  0  0  0  0
 11 41  1  0  0  0  0
 12 14  2  0  0  0  0
 12 42  1  0  0  0  0
 13 43  1  0  0  0  0
 13 44  1  0  0  0  0
 13 45  1  0  0  0  0
 14 15  1  0  0  0  0
 14 46  1  0  0  0  0
 15 16  1  0  0  0  0
 15 17  2  0  0  0  0
 16 47  1  0  0  0  0
 16 48  1  0  0  0  0
 16 49  1  0  0  0  0
 17 18  1  0  0  0  0
 17 50  1  0  0  0  0
 18 19  2  0  0  0  0
 18 51  1  0  0  0  0
 19 20  1  0  0  0  0
 19 52  1  0  0  0  0
 20 21  2  0  0  0  0
 20 22  1  0  0  0  0
 21 23  1  0  0  0  0
 21 53  1  0  0  0  0
 22 54  1  0  0  0  0
 22 55  1  0  0  0  0
 22 56  1  0  0  0  0
 24 25  2  0  0  0  0
 24 26  1  0  0  0  0
 25 27  1  0  0  0  0
 25 58  1  0  0  0  0
 26 28  2  0  0  0  0
 26 59  1  0  0  0  0
 27 29  2  0  0  0  0
 27 60  1  0  0  0  0
 28 29  1  0  0  0  0
 28 61  1  0  0  0  0
M  END
> <DATABASE_ID>
DB05076

> <DATABASE_NAME>
drugbank

> <ORIGINAL_SOURCE>
PUBCHEM

> <ORIGINAL_SOURCE_URL>
https://pubchem.ncbi.nlm.nih.gov/rest/pug/compound/inchikey/AKJHMTWEGVYYSE-FXILSDISSA-N/SDF?record_type=3d

> <SMILES>
C\C(\C=C\C1=C(C)CCCC1(C)C)=C/C=C/C(/C)=C/C(=O)NC1=CC=C(O)C=C1

> <INCHI_IDENTIFIER>
InChI=1S/C26H33NO2/c1-19(11-16-24-21(3)10-7-17-26(24,4)5)8-6-9-20(2)18-25(29)27-22-12-14-23(28)15-13-22/h6,8-9,11-16,18,28H,7,10,17H2,1-5H3,(H,27,29)/b9-6+,16-11+,19-8+,20-18+

> <INCHI_KEY>
AKJHMTWEGVYYSE-FXILSDISSA-N

> <FORMULA>
C26H33NO2

> <MOLECULAR_WEIGHT>
391.5457

> <EXACT_MASS>
391.251129305

> <JCHEM_ACCEPTOR_COUNT>
2

> <JCHEM_ATOM_COUNT>
62

> <JCHEM_AVERAGE_NEUTRAL_MICROSPECIES_CHARGE>
-0.003559315346797039

> <JCHEM_AVERAGE_POLARIZABILITY>
47.67340632494771

> <JCHEM_BIOAVAILABILITY>
1

> <JCHEM_DONOR_COUNT>
2

> <JCHEM_FORMAL_CHARGE>
0

> <JCHEM_GHOSE_FILTER>
0

> <JCHEM_IUPAC>
(2E,4E,6E,8E)-N-(4-hydroxyphenyl)-3,7-dimethyl-9-(2,6,6-trimethylcyclohex-1-en-1-yl)nona-2,4,6,8-tetraenamide

> <ALOGPS_LOGP>
6.31

> <JCHEM_LOGP>
6.1451042870000006

> <ALOGPS_LOGS>
-5.52

> <JCHEM_MDDR_LIKE_RULE>
0

> <JCHEM_NEUTRAL_CHARGE>
0

> <JCHEM_NUMBER_OF_RINGS>
2

> <JCHEM_PHYSIOLOGICAL_CHARGE>
0

> <JCHEM_PKA>
17.11211592504473

> <JCHEM_PKA_STRONGEST_ACIDIC>
9.447084298847619

> <JCHEM_PKA_STRONGEST_BASIC>
-1.2461780193702023

> <JCHEM_POLAR_SURFACE_AREA>
49.33

> <JCHEM_REFRACTIVITY>
128.049

> <JCHEM_ROTATABLE_BOND_COUNT>
6

> <JCHEM_RULE_OF_FIVE>
0

> <ALOGPS_SOLUBILITY>
1.19e-03 g/l

> <JCHEM_TRADITIONAL_IUPAC>
tetrahydrofolic acid

> <JCHEM_VEBER_RULE>
0

$$$$
