
     RDKit          3D

 55 57  0  0  0  0  0  0  0  0999 V2000
   -1.0999   -1.3363    2.3504 N   0  0  0  0  0  0  0  0  0  0  0  0
   -0.4240   -1.4746    2.4167 C   0  0  0  0  0  0  0  0  0  0  0  0
    0.5170   -0.7306    3.2104 N   0  0  0  0  0  0  0  0  0  0  0  0
    0.2110   -2.2685    1.3989 N   0  0  0  0  0  0  0  0  0  0  0  0
   -0.3513   -2.8758    0.3122 C   0  0  0  0  0  0  0  0  0  0  0  0
   -0.7710   -2.5862   -0.8993 C   0  0  0  0  0  0  0  0  0  0  0  0
   -0.5555   -2.1559   -2.1972 C   0  0  0  0  0  0  0  0  0  0  0  0
   -0.6069   -0.5113   -2.2505 C   0  0  2  0  0  0  0  0  0  0  0  0
    0.4601   -0.4092   -1.1009 N   0  0  0  0  0  0  0  0  0  0  0  0
    1.5515    0.4571   -1.3238 C   0  0  0  0  0  0  0  0  0  0  0  0
    1.2961    1.4998   -1.9957 O   0  0  0  0  0  0  0  0  0  0  0  0
    2.8889    0.2281   -0.7288 C   0  0  0  0  0  0  0  0  0  0  0  0
    2.9515   -0.8413   -0.1255 O   0  0  0  0  0  0  0  0  0  0  0  0
    3.2681    1.5978    0.0394 C   0  0  1  0  0  0  0  0  0  0  0  0
    3.7687    0.8811    1.4390 C   0  0  0  0  0  0  0  0  0  0  0  0
    5.0176    0.1850    1.2337 C   0  0  0  0  0  0  0  0  0  0  0  0
    6.1810    1.0703    1.6460 C   0  0  0  0  0  0  0  0  0  0  0  0
    7.4006    0.1812    1.8422 C   0  0  0  0  0  0  0  0  0  0  0  0
    7.4388   -0.8697    0.7557 C   0  0  0  0  0  0  0  0  0  0  0  0
    6.2834   -1.8439    0.9562 C   0  0  0  0  0  0  0  0  0  0  0  0
    5.2319   -1.1574    1.8256 C   0  0  0  0  0  0  0  0  0  0  0  0
    4.7249    1.7259   -0.5329 N   0  0  0  0  0  0  0  0  0  0  0  0
    5.0363    1.3084   -1.8039 C   0  0  0  0  0  0  0  0  0  0  0  0
    4.4373    0.2992   -2.2387 O   0  0  0  0  0  0  0  0  0  0  0  0
    6.3822    1.3561   -2.1888 O   0  0  0  0  0  0  0  0  0  0  0  0
    7.0716    0.2122   -2.6925 C   0  0  0  0  0  0  0  0  0  0  0  0
    7.8495   -0.4591   -1.6028 C   0  0  0  0  0  0  0  0  0  0  0  0
    7.6938   -0.1042   -0.2677 C   0  0  0  0  0  0  0  0  0  0  0  0
    8.7739   -0.0706    0.6064 C   0  0  0  0  0  0  0  0  0  0  0  0
   10.0597   -0.3139    0.1388 C   0  0  0  0  0  0  0  0  0  0  0  0
   10.1295   -1.0179   -1.0570 C   0  0  0  0  0  0  0  0  0  0  0  0
    9.0204   -1.1546   -1.8830 C   0  0  0  0  0  0  0  0  0  0  0  0
   -1.8259   -0.4141   -1.1953 C   0  0  0  0  0  0  0  0  0  0  0  0
   -2.8377   -1.0750   -1.4750 O   0  0  0  0  0  0  0  0  0  0  0  0
   -1.9154    0.9137   -0.7219 N   0  0  0  0  0  0  0  0  0  0  0  0
   -2.9847    1.0122    0.4315 C   0  0  1  0  0  0  0  0  0  0  0  0
   -3.0471    2.6524    0.3177 C   0  0  0  0  0  0  0  0  0  0  0  0
   -4.4200    2.9144    0.8592 C   0  0  0  0  0  0  0  0  0  0  0  0
   -4.8073    4.3181    0.6299 C   0  0  0  0  0  0  0  0  0  0  0  0
   -5.2578    4.6852   -0.4921 O   0  0  0  0  0  0  0  0  0  0  0  0
   -5.2936    5.0214    1.7360 O   0  0  0  0  0  0  0  0  0  0  0  0
   -4.2303    0.8035   -0.5720 C   0  0  0  0  0  0  0  0  0  0  0  0
   -4.2313    1.4409   -1.6236 O   0  0  0  0  0  0  0  0  0  0  0  0
   -5.4354    0.3825    0.0886 N   0  0  0  0  0  0  0  0  0  0  0  0
   -6.6848    0.7324   -0.8142 C   0  0  1  0  0  0  0  0  0  0  0  0
   -6.9938   -0.8592   -1.0939 C   0  0  0  0  0  0  0  0  0  0  0  0
   -7.4276   -1.5165    0.1314 C   0  0  0  0  0  0  0  0  0  0  0  0
   -6.4856   -2.4822    0.7762 C   0  0  0  0  0  0  0  0  0  0  0  0
   -7.3116   -3.4505    1.6108 C   0  0  0  0  0  0  0  0  0  0  0  0
   -8.5185   -2.7953    2.2239 C   0  0  0  0  0  0  0  0  0  0  0  0
   -9.5235   -2.4095    1.1456 C   0  0  0  0  0  0  0  0  0  0  0  0
   -8.7362   -2.2263   -0.1296 C   0  0  0  0  0  0  0  0  0  0  0  0
   -7.7417    0.8532    0.3957 C   0  0  0  0  0  0  0  0  0  0  0  0
   -7.3681    0.9403    1.5477 O   0  0  0  0  0  0  0  0  0  0  0  0
   -8.7587    1.7373    0.0164 O   0  0  0  0  0  0  0  0  0  0  0  0
  1  2  2  0
  2  3  1  0
  2  4  1  0
  4  5  1  0
  5  6  1  0
  6  7  1  0
  8  7  1  1
  8  9  1  0
  9 10  1  0
 10 11  2  0
 10 12  1  0
 12 13  2  0
 14 12  1  6
 14 15  1  0
 15 16  1  0
 16 17  1  0
 17 18  1  0
 18 19  1  0
 19 20  1  0
 20 21  1  0
 14 22  1  0
 22 23  1  0
 23 24  2  0
 23 25  1  0
 25 26  1  0
 26 27  1  0
 27 28  2  0
 28 29  1  0
 29 30  2  0
 30 31  1  0
 31 32  2  0
  8 33  1  0
 33 34  2  0
 33 35  1  0
 36 35  1  6
 36 37  1  0
 37 38  1  0
 38 39  1  0
 39 40  2  0
 39 41  1  0
 36 42  1  0
 42 43  2  0
 42 44  1  0
 45 44  1  1
 45 46  1  0
 46 47  1  0
 47 48  1  0
 48 49  1  0
 49 50  1  0
 50 51  1  0
 51 52  1  0
 45 53  1  0
 53 54  2  0
 53 55  1  0
 21 16  1  0
 32 27  1  0
 52 47  1  0
M  END
>  <zinc_id>  (1) 
ZINC000098208801

>  <smiles>  (1) 
N=C(N)NCCC[C@H](NC(=O)C(=O)[C@@H](CC1CCCCC1)NC(=O)OCc1ccccc1)C(=O)N[C@@H](CCC(=O)O)C(=O)N[C@@H](CC1CCCCC1)C(=O)O

$$$$
