
     RDKit          3D

 52 54  0  0  0  0  0  0  0  0999 V2000
   -9.9395    0.7756   -3.8657 N   0  0  0  0  0  0  0  0  0  0  0  0
  -10.1123    0.4496   -2.4891 C   0  0  0  0  0  0  0  0  0  0  0  0
  -10.5987    1.3403   -1.5879 N   0  0  0  0  0  0  0  0  0  0  0  0
  -10.0320    1.4719   -0.3609 C   0  0  0  0  0  0  0  0  0  0  0  0
  -10.4176    2.2888    0.5017 O   0  0  0  0  0  0  0  0  0  0  0  0
   -9.1761    0.5002    0.0655 C   0  0  0  0  0  0  0  0  0  0  0  0
   -9.0074   -0.6342   -0.7206 C   0  0  0  0  0  0  0  0  0  0  0  0
   -9.5410   -0.6555   -1.9514 N   0  0  0  0  0  0  0  0  0  0  0  0
   -8.0030   -1.4947   -0.2638 N   0  0  0  0  0  0  0  0  0  0  0  0
   -6.9735   -1.2881    0.6533 C   0  0  0  0  0  0  0  0  0  0  0  0
   -6.8370    0.3319    0.9582 C   0  0  2  0  0  0  0  0  0  0  0  0
   -6.4995    0.0430    2.5564 C   0  0  0  0  0  0  0  0  0  0  0  0
   -5.3672   -0.8842    2.4858 N   0  0  0  0  0  0  0  0  0  0  0  0
   -4.3651   -0.6234    1.5042 C   0  0  0  0  0  0  0  0  0  0  0  0
   -3.6256   -1.6104    0.8875 C   0  0  0  0  0  0  0  0  0  0  0  0
   -2.9623   -1.2312   -0.2762 C   0  0  0  0  0  0  0  0  0  0  0  0
   -2.4874    0.0669   -0.4416 C   0  0  0  0  0  0  0  0  0  0  0  0
   -1.0832    0.2900   -0.8188 C   0  0  0  0  0  0  0  0  0  0  0  0
   -0.6791   -0.0472   -1.9670 O   0  0  0  0  0  0  0  0  0  0  0  0
   -0.0932    0.6909    0.1384 N   0  0  0  0  0  0  0  0  0  0  0  0
    1.1140   -0.3455    0.2339 C   0  0  1  0  0  0  0  0  0  0  0  0
    2.2285    0.8701    0.4633 C   0  0  0  0  0  0  0  0  0  0  0  0
    3.3463    0.0226    1.0621 C   0  0  0  0  0  0  0  0  0  0  0  0
    3.5809   -1.0808    0.0840 C   0  0  0  0  0  0  0  0  0  0  0  0
    2.9566   -2.1832    0.1085 O   0  0  0  0  0  0  0  0  0  0  0  0
    3.9613   -0.6998   -1.1924 N   0  0  0  0  0  0  0  0  0  0  0  0
    4.6439   -1.7606   -2.1629 C   0  0  1  0  0  0  0  0  0  0  0  0
    6.1612   -1.3822   -1.5829 C   0  0  0  0  0  0  0  0  0  0  0  0
    6.2661    0.0999   -1.6910 C   0  0  0  0  0  0  0  0  0  0  0  0
    7.1672    0.5457   -0.5812 C   0  0  0  0  0  0  0  0  0  0  0  0
    6.7754    1.3699    0.2995 O   0  0  0  0  0  0  0  0  0  0  0  0
    8.2723   -0.2525   -0.2875 N   0  0  0  0  0  0  0  0  0  0  0  0
    9.3538    0.3306    0.7218 C   0  0  1  0  0  0  0  0  0  0  0  0
    9.3785    1.8212   -0.0187 C   0  0  0  0  0  0  0  0  0  0  0  0
   10.8290    1.9406   -0.3884 C   0  0  0  0  0  0  0  0  0  0  0  0
   11.1268    1.5822   -1.7800 C   0  0  0  0  0  0  0  0  0  0  0  0
   10.2688    1.3481   -2.6716 O   0  0  0  0  0  0  0  0  0  0  0  0
   12.4615    1.5865   -2.1697 O   0  0  0  0  0  0  0  0  0  0  0  0
    8.2136    0.8045    1.7933 C   0  0  0  0  0  0  0  0  0  0  0  0
    7.8783   -0.2490    2.4205 O   0  0  0  0  0  0  0  0  0  0  0  0
    8.6999    1.8298    2.6149 O   0  0  0  0  0  0  0  0  0  0  0  0
    4.4469   -3.0531   -1.1842 C   0  0  0  0  0  0  0  0  0  0  0  0
    5.4350   -3.4951   -0.6005 O   0  0  0  0  0  0  0  0  0  0  0  0
    3.7756   -4.0225   -1.9451 O   0  0  0  0  0  0  0  0  0  0  0  0
    0.8941   -0.5716    1.8338 C   0  0  0  0  0  0  0  0  0  0  0  0
    0.7770    0.4371    2.5284 O   0  0  0  0  0  0  0  0  0  0  0  0
    0.2185   -1.7413    2.1445 O   0  0  0  0  0  0  0  0  0  0  0  0
   -3.2122    1.0609    0.2082 C   0  0  0  0  0  0  0  0  0  0  0  0
   -4.1072    0.7024    1.2094 C   0  0  0  0  0  0  0  0  0  0  0  0
   -8.3927    0.5064    1.2475 N   0  0  0  0  0  0  0  0  0  0  0  0
   -8.6731    1.5590    2.1634 C   0  0  0  0  0  0  0  0  0  0  0  0
   -8.0451    2.6399    2.1112 O   0  0  0  0  0  0  0  0  0  0  0  0
  1  2  1  0
  2  3  2  0
  3  4  1  0
  4  5  2  0
  4  6  1  0
  6  7  2  0
  7  8  1  0
  7  9  1  0
  9 10  1  0
 10 11  1  0
 11 12  1  1
 12 13  1  0
 13 14  1  0
 14 15  2  0
 15 16  1  0
 16 17  2  0
 17 18  1  0
 18 19  2  0
 18 20  1  0
 21 20  1  6
 21 22  1  0
 22 23  1  0
 23 24  1  0
 24 25  2  0
 24 26  1  0
 27 26  1  1
 27 28  1  0
 28 29  1  0
 29 30  1  0
 30 31  2  0
 30 32  1  0
 33 32  1  6
 33 34  1  0
 34 35  1  0
 35 36  1  0
 36 37  2  0
 36 38  1  0
 33 39  1  0
 39 40  2  0
 39 41  1  0
 27 42  1  0
 42 43  2  0
 42 44  1  0
 21 45  1  0
 45 46  2  0
 45 47  1  0
 17 48  1  0
 48 49  2  0
 11 50  1  0
 50 51  1  0
 51 52  2  0
  8  2  1  0
 49 14  1  0
 50  6  1  0
M  END
>  <zinc_id>  (1) 
ZINC000055398661

>  <smiles>  (1) 
Nc1nc(=O)c2c([nH]1)NC[C@H](CNc1ccc(C(=O)N[C@@H](CCC(=O)N[C@@H](CCC(=O)N[C@@H](CCC(=O)O)C(=O)O)C(=O)O)C(=O)O)cc1)N2C=O

$$$$
