
     RDKit          3D

 58 57  0  0  0  0  0  0  0  0999 V2000
   12.5056   -3.7922   -1.2928 N   0  0  0  0  0  0  0  0  0  0  0  0
   12.1360   -4.1998   -1.0263 C   0  0  0  0  0  0  0  0  0  0  0  0
   11.4147   -4.5996    0.2558 C   0  0  0  0  0  0  0  0  0  0  0  0
   10.8076   -3.3661    0.9143 C   0  0  0  0  0  0  0  0  0  0  0  0
    9.8736   -2.6392   -0.0324 C   0  0  0  0  0  0  0  0  0  0  0  0
   10.1350   -1.2265    0.0510 N   0  0  0  0  0  0  0  0  0  0  0  0
    9.2985   -0.5563    1.0352 C   0  0  0  0  0  0  0  0  0  0  0  0
    8.3785   -1.5414    1.7248 C   0  0  0  0  0  0  0  0  0  0  0  0
    7.3016   -1.9197    0.7402 C   0  0  0  0  0  0  0  0  0  0  0  0
    7.1083   -0.7862   -0.1607 N   0  0  0  0  0  0  0  0  0  0  0  0
    6.6148    0.4049    0.4665 C   0  0  0  0  0  0  0  0  0  0  0  0
    5.6660    0.2032    1.2859 O   0  0  0  0  0  0  0  0  0  0  0  0
    6.3970    1.5872   -0.4284 C   0  0  0  0  0  0  0  0  0  0  0  0
    5.1315    1.4399   -1.0950 N   0  0  0  0  0  0  0  0  0  0  0  0
    3.9549    2.1704   -0.6834 C   0  0  0  0  0  0  0  0  0  0  0  0
    4.2247    3.4122   -0.6689 O   0  0  0  0  0  0  0  0  0  0  0  0
    2.8238    1.7911   -1.8128 C   0  0  2  0  0  0  0  0  0  0  0  0
    1.7790    2.9775   -1.2933 C   0  0  0  0  0  0  0  0  0  0  0  0
    0.5791    2.4340   -0.2236 S   0  0  0  0  0  0  0  0  0  0  0  0
   -0.6309    0.8156   -0.7175 S   0  0  0  0  0  0  0  0  0  0  0  0
   -1.7239    0.9313   -2.0177 C   0  0  0  0  0  0  0  0  0  0  0  0
   -3.2822    0.4786   -1.6508 C   0  0  2  0  0  0  0  0  0  0  0  0
   -3.8333    1.9736   -1.7203 N   0  0  0  0  0  0  0  0  0  0  0  0
   -3.0538    2.9612   -1.1107 C   0  0  0  0  0  0  0  0  0  0  0  0
   -2.9012    2.7218    0.1203 O   0  0  0  0  0  0  0  0  0  0  0  0
   -3.2486    4.3990   -1.4764 C   0  0  0  0  0  0  0  0  0  0  0  0
   -3.3650    5.2634   -0.2283 C   0  0  0  0  0  0  0  0  0  0  0  0
   -5.0309    5.3267   -0.1941 C   0  0  1  0  0  0  0  0  0  0  0  0
   -5.0734    4.9071    1.3460 N   0  0  0  0  0  0  0  0  0  0  0  0
   -5.0327    6.9240    0.1406 C   0  0  0  0  0  0  0  0  0  0  0  0
   -4.2961    7.2883    1.0565 O   0  0  0  0  0  0  0  0  0  0  0  0
   -5.3375    7.6527   -1.0024 O   0  0  0  0  0  0  0  0  0  0  0  0
   -3.1028    0.4763   -0.0158 C   0  0  0  0  0  0  0  0  0  0  0  0
   -2.4595   -0.6035    0.2074 O   0  0  0  0  0  0  0  0  0  0  0  0
   -4.4047    0.3608    0.5934 N   0  0  0  0  0  0  0  0  0  0  0  0
   -4.8652   -0.7639    1.3621 C   0  0  0  0  0  0  0  0  0  0  0  0
   -6.2475   -1.0083    0.8256 C   0  0  0  0  0  0  0  0  0  0  0  0
   -6.2653   -1.1756   -0.4335 O   0  0  0  0  0  0  0  0  0  0  0  0
   -7.2042   -0.0492    1.2993 N   0  0  0  0  0  0  0  0  0  0  0  0
   -8.4129    0.2204    0.5284 C   0  0  0  0  0  0  0  0  0  0  0  0
   -8.3063   -0.3466   -0.8652 C   0  0  0  0  0  0  0  0  0  0  0  0
   -9.3215   -1.4247   -1.1114 C   0  0  0  0  0  0  0  0  0  0  0  0
   -9.6030   -2.2024    0.0900 N   0  0  0  0  0  0  0  0  0  0  0  0
  -10.9039   -2.8484   -0.0470 C   0  0  0  0  0  0  0  0  0  0  0  0
  -10.6448   -4.2459   -0.5796 C   0  0  0  0  0  0  0  0  0  0  0  0
  -11.2745   -5.2135    0.4056 C   0  0  0  0  0  0  0  0  0  0  0  0
  -11.0502   -6.6211   -0.0943 C   0  0  0  0  0  0  0  0  0  0  0  0
  -12.2795   -7.3601    0.0934 N   0  0  0  0  0  0  0  0  0  0  0  0
    2.1149    0.6331   -0.9792 N   0  0  0  0  0  0  0  0  0  0  0  0
    2.7678    0.1181    0.1318 C   0  0  0  0  0  0  0  0  0  0  0  0
    3.0597    1.0478    0.9490 O   0  0  0  0  0  0  0  0  0  0  0  0
    2.6125   -1.2982    0.5137 C   0  0  0  0  0  0  0  0  0  0  0  0
    2.6254   -1.5429    1.9776 C   0  0  0  0  0  0  0  0  0  0  0  0
    4.0148   -2.4085    2.2910 C   0  0  1  0  0  0  0  0  0  0  0  0
    3.7612   -3.3793    1.0460 N   0  0  0  0  0  0  0  0  0  0  0  0
    4.9201   -1.3342    1.4607 C   0  0  0  0  0  0  0  0  0  0  0  0
    5.6680   -0.7538    2.3083 O   0  0  0  0  0  0  0  0  0  0  0  0
    5.4809   -1.7129    0.2962 O   0  0  0  0  0  0  0  0  0  0  0  0
  1  2  1  0
  2  3  1  0
  3  4  1  0
  4  5  1  0
  5  6  1  0
  6  7  1  0
  7  8  1  0
  8  9  1  0
  9 10  1  0
 10 11  1  0
 11 12  2  0
 11 13  1  0
 13 14  1  0
 14 15  1  0
 15 16  2  0
 17 15  1  1
 17 18  1  0
 18 19  1  0
 19 20  1  0
 20 21  1  0
 22 21  1  6
 22 23  1  0
 23 24  1  0
 24 25  2  0
 24 26  1  0
 26 27  1  0
 28 27  1  1
 28 29  1  0
 28 30  1  0
 30 31  2  0
 30 32  1  0
 22 33  1  0
 33 34  2  0
 33 35  1  0
 35 36  1  0
 36 37  1  0
 37 38  2  0
 37 39  1  0
 39 40  1  0
 40 41  1  0
 41 42  1  0
 42 43  1  0
 43 44  1  0
 44 45  1  0
 45 46  1  0
 46 47  1  0
 47 48  1  0
 17 49  1  0
 49 50  1  0
 50 51  2  0
 50 52  1  0
 52 53  1  0
 54 53  1  6
 54 55  1  0
 54 56  1  0
 56 57  2  0
 56 58  1  0
M  END
>  <zinc_id>  (1) 
ZINC000195757935

>  <smiles>  (1) 
NCCCCNCCCNC(=O)CNC(=O)[C@H](CSSC[C@H](NC(=O)CC[C@@H](N)C(=O)O)C(=O)NCC(=O)NCCCNCCCCN)NC(=O)CC[C@@H](N)C(=O)O

$$$$
