
     RDKit          3D

 28 27  0  0  0  0  0  0  0  0999 V2000
    8.8146   -0.4315   -1.0362 C   0  0  0  0  0  0  0  0  0  0  0  0
    7.9922   -0.6719   -0.7788 C   0  0  0  0  0  0  0  0  0  0  0  0
    7.0528    0.5163   -0.6101 C   0  0  0  0  0  0  0  0  0  0  0  0
    5.9678    0.2569    0.3920 C   0  0  0  0  0  0  0  0  0  0  0  0
    5.3191   -1.1030    0.2073 C   0  0  0  0  0  0  0  0  0  0  0  0
    3.9679   -1.1179    0.8403 C   0  0  0  0  0  0  0  0  0  0  0  0
    3.0987    0.0486    0.5214 C   0  0  0  0  0  0  0  0  0  0  0  0
    3.0309    0.4297   -0.9212 C   0  0  0  0  0  0  0  0  0  0  0  0
    1.7791   -0.3903   -1.8688 S   0  0  0  0  0  0  0  0  0  0  0  0
    0.1015   -0.1551   -1.4050 C   0  0  0  0  0  0  0  0  0  0  0  0
    0.0265    1.0109   -0.2138 C   0  0  2  0  0  0  0  0  0  0  0  0
   -0.4326    0.0158    0.9530 N   0  0  0  0  0  0  0  0  0  0  0  0
   -1.1411   -1.1061    0.6162 C   0  0  0  0  0  0  0  0  0  0  0  0
   -0.6325   -1.7740   -0.3218 O   0  0  0  0  0  0  0  0  0  0  0  0
   -2.2278   -1.7978    1.3740 C   0  0  0  0  0  0  0  0  0  0  0  0
   -3.2665   -2.0581    0.2861 C   0  0  0  0  0  0  0  0  0  0  0  0
   -3.9947   -3.4872    0.7387 C   0  0  2  0  0  0  0  0  0  0  0  0
   -3.8551   -4.0876   -0.7382 N   0  0  0  0  0  0  0  0  0  0  0  0
   -5.4948   -2.9039    0.4415 C   0  0  0  0  0  0  0  0  0  0  0  0
   -5.8455   -2.3060    1.5060 O   0  0  0  0  0  0  0  0  0  0  0  0
   -5.6566   -2.2019   -0.7185 O   0  0  0  0  0  0  0  0  0  0  0  0
   -1.5001    1.4220   -0.6559 C   0  0  0  0  0  0  0  0  0  0  0  0
   -2.2909    1.5568    0.3069 O   0  0  0  0  0  0  0  0  0  0  0  0
   -1.4402    2.5902   -1.4925 N   0  0  0  0  0  0  0  0  0  0  0  0
   -2.4815    3.6136   -1.4573 C   0  0  0  0  0  0  0  0  0  0  0  0
   -2.4471    4.3799   -0.1824 C   0  0  0  0  0  0  0  0  0  0  0  0
   -3.0440    5.4957   -0.1236 O   0  0  0  0  0  0  0  0  0  0  0  0
   -1.4003    4.2558    0.7368 O   0  0  0  0  0  0  0  0  0  0  0  0
  1  2  1  0
  2  3  1  0
  3  4  1  0
  4  5  1  0
  5  6  1  0
  6  7  1  0
  7  8  1  0
  8  9  1  0
  9 10  1  0
 11 10  1  6
 11 12  1  0
 12 13  1  0
 13 14  2  0
 13 15  1  0
 15 16  1  0
 17 16  1  6
 17 18  1  0
 17 19  1  0
 19 20  2  0
 19 21  1  0
 11 22  1  0
 22 23  2  0
 22 24  1  0
 24 25  1  0
 25 26  1  0
 26 27  2  0
 26 28  1  0
M  END
>  <zinc_id>  (1) 
ZINC000008234408

>  <smiles>  (1) 
CCCCCCCCSC[C@H](NC(=O)CC[C@H](N)C(=O)O)C(=O)NCC(=O)O

$$$$
