
     RDKit          3D

 34 34  0  0  0  0  0  0  0  0999 V2000
   -5.3237    3.1559    2.3966 N   0  0  0  0  0  0  0  0  0  0  0  0
   -4.1394    3.3004    1.3215 C   0  0  1  0  0  0  0  0  0  0  0  0
   -5.1552    2.8577    0.0638 C   0  0  0  0  0  0  0  0  0  0  0  0
   -4.1400    2.6050   -1.0428 C   0  0  0  0  0  0  0  0  0  0  0  0
   -3.4316    1.3375   -0.6822 C   0  0  0  0  0  0  0  0  0  0  0  0
   -3.5966    0.7750    0.4454 O   0  0  0  0  0  0  0  0  0  0  0  0
   -2.1065    1.0716   -1.1139 N   0  0  0  0  0  0  0  0  0  0  0  0
   -1.8348   -0.4761   -1.4417 C   0  0  1  0  0  0  0  0  0  0  0  0
   -0.2878   -0.3401   -0.8058 C   0  0  0  0  0  0  0  0  0  0  0  0
    0.1945   -2.0988   -0.7660 S   0  0  0  0  0  0  0  0  0  0  0  0
    2.0027   -1.9458   -0.1632 C   0  0  1  0  0  0  0  0  0  0  0  0
    2.4413   -3.4077   -0.6183 C   0  0  0  0  0  0  0  0  0  0  0  0
    1.9408   -3.6526   -1.8760 O   0  0  0  0  0  0  0  0  0  0  0  0
    2.5128   -1.2280   -1.4920 C   0  0  0  0  0  0  0  0  0  0  0  0
    3.9097   -1.3874   -1.5669 O   0  0  0  0  0  0  0  0  0  0  0  0
    4.8080   -0.7366   -0.7543 C   0  0  0  0  0  0  0  0  0  0  0  0
    5.9444   -0.1903   -1.3364 C   0  0  0  0  0  0  0  0  0  0  0  0
    6.8629    0.5010   -0.5655 C   0  0  0  0  0  0  0  0  0  0  0  0
    6.7474    0.4941    0.8183 C   0  0  0  0  0  0  0  0  0  0  0  0
    7.2430    1.6069    1.5439 N   0  0  0  0  0  0  0  0  0  0  0  0
    7.6573    2.6398    0.9906 O   0  0  0  0  0  0  0  0  0  0  0  0
    7.0875    1.6122    2.9138 O   0  0  0  0  0  0  0  0  0  0  0  0
    5.8761   -0.4292    1.3605 C   0  0  0  0  0  0  0  0  0  0  0  0
    4.9054   -1.0275    0.5902 C   0  0  0  0  0  0  0  0  0  0  0  0
   -2.5251   -1.0183   -0.0497 C   0  0  0  0  0  0  0  0  0  0  0  0
   -1.7693   -1.4905    0.8010 O   0  0  0  0  0  0  0  0  0  0  0  0
   -3.4800   -2.0136   -0.4818 N   0  0  0  0  0  0  0  0  0  0  0  0
   -4.2138   -2.8102    0.4916 C   0  0  0  0  0  0  0  0  0  0  0  0
   -4.7144   -4.0460   -0.1887 C   0  0  0  0  0  0  0  0  0  0  0  0
   -4.6149   -5.1523    0.4117 O   0  0  0  0  0  0  0  0  0  0  0  0
   -5.0657   -3.9775   -1.5342 O   0  0  0  0  0  0  0  0  0  0  0  0
   -4.4352    4.9002    1.0985 C   0  0  0  0  0  0  0  0  0  0  0  0
   -3.5606    5.3140    0.2768 O   0  0  0  0  0  0  0  0  0  0  0  0
   -5.7393    5.2570    0.9555 O   0  0  0  0  0  0  0  0  0  0  0  0
  2  1  1  1
  2  3  1  0
  3  4  1  0
  4  5  1  0
  5  6  2  0
  5  7  1  0
  8  7  1  1
  8  9  1  0
  9 10  1  0
 11 10  1  6
 11 12  1  0
 12 13  1  0
 11 14  1  0
 14 15  1  0
 15 16  1  0
 16 17  2  0
 17 18  1  0
 18 19  2  0
 19 20  1  0
 20 21  2  0
 20 22  1  0
 19 23  1  0
 23 24  2  0
  8 25  1  0
 25 26  2  0
 25 27  1  0
 27 28  1  0
 28 29  1  0
 29 30  2  0
 29 31  1  0
  2 32  1  0
 32 33  2  0
 32 34  1  0
 24 16  1  0
M  CHG  2  20   1  22  -1
M  END
>  <zinc_id>  (1) 
ZINC000012503844

>  <smiles>  (1) 
N[C@@H](CCC(=O)N[C@@H](CS[C@@H](CO)COc1ccc([N+](=O)[O-])cc1)C(=O)NCC(=O)O)C(=O)O

$$$$
