
     RDKit          3D

 46 47  0  0  0  0  0  0  0  0999 V2000
   -6.2164   -2.0923   -1.8334 C   0  0  0  0  0  0  0  0  0  0  0  0
   -5.8474   -2.4801   -0.4321 C   0  0  0  0  0  0  0  0  0  0  0  0
   -4.5494   -1.5580   -0.1541 C   0  0  2  0  0  0  0  0  0  0  0  0
   -3.4524   -2.7380   -0.3065 C   0  0  0  0  0  0  0  0  0  0  0  0
   -4.7368   -1.5796    1.5447 C   0  0  2  0  0  0  0  0  0  0  0  0
   -3.2233   -1.2184    1.7788 N   0  0  0  0  0  0  0  0  0  0  0  0
   -2.9238   -0.0014    1.1749 C   0  0  0  0  0  0  0  0  0  0  0  0
   -3.3602    0.1581    0.0504 O   0  0  0  0  0  0  0  0  0  0  0  0
   -1.6351    0.8187    1.6687 C   0  0  2  0  0  0  0  0  0  0  0  0
   -2.3253    2.1635    1.5555 O   0  0  0  0  0  0  0  0  0  0  0  0
   -2.8245    2.2752    0.3231 C   0  0  0  0  0  0  0  0  0  0  0  0
   -3.0068    3.5391   -0.3050 C   0  0  0  0  0  0  0  0  0  0  0  0
   -2.2012    4.5699    0.1712 C   0  0  0  0  0  0  0  0  0  0  0  0
   -2.6013    5.8833    0.1068 C   0  0  0  0  0  0  0  0  0  0  0  0
   -3.9733    6.1172    0.1368 C   0  0  0  0  0  0  0  0  0  0  0  0
   -4.7169    5.2103   -0.6167 C   0  0  0  0  0  0  0  0  0  0  0  0
   -4.1862    3.9569   -0.9124 C   0  0  0  0  0  0  0  0  0  0  0  0
   -0.8979    0.9939    0.1219 C   0  0  2  0  0  0  0  0  0  0  0  0
   -1.0096   -0.4576   -0.2139 O   0  0  0  0  0  0  0  0  0  0  0  0
    0.6838    0.9292    0.7661 C   0  0  1  0  0  0  0  0  0  0  0  0
    0.4964   -0.3180    1.5736 O   0  0  0  0  0  0  0  0  0  0  0  0
    1.3246    0.0301   -0.5467 C   0  0  1  0  0  0  0  0  0  0  0  0
    1.2541    1.2217   -1.4764 O   0  0  0  0  0  0  0  0  0  0  0  0
    2.3573    1.1895   -2.2699 C   0  0  0  0  0  0  0  0  0  0  0  0
    2.3779    0.1619   -3.3212 C   0  0  0  0  0  0  0  0  0  0  0  0
    2.2997    0.5514   -4.6541 C   0  0  0  0  0  0  0  0  0  0  0  0
    3.0165   -0.0977   -5.6518 C   0  0  0  0  0  0  0  0  0  0  0  0
    3.6354   -1.2948   -5.3719 C   0  0  0  0  0  0  0  0  0  0  0  0
    3.6819   -1.7470   -4.0726 C   0  0  0  0  0  0  0  0  0  0  0  0
    3.0719   -1.0141   -3.0924 C   0  0  0  0  0  0  0  0  0  0  0  0
    2.8329    0.3281   -0.0645 C   0  0  0  0  0  0  0  0  0  0  0  0
    3.1719    1.4968    0.0832 O   0  0  0  0  0  0  0  0  0  0  0  0
    3.2120   -0.6283    0.9421 N   0  0  0  0  0  0  0  0  0  0  0  0
    4.4802   -0.1243    1.7187 C   0  0  2  0  0  0  0  0  0  0  0  0
    5.4920   -0.9401    0.7818 C   0  0  0  0  0  0  0  0  0  0  0  0
    6.6564   -0.7487    1.2512 O   0  0  0  0  0  0  0  0  0  0  0  0
    5.3565   -0.7887   -0.6174 N   0  0  0  0  0  0  0  0  0  0  0  0
    6.3952   -0.1982   -1.4644 C   0  0  0  0  0  0  0  0  0  0  0  0
    4.2615   -1.2844    2.9547 C   0  0  1  0  0  0  0  0  0  0  0  0
    5.0727   -2.5304    2.3248 C   0  0  0  0  0  0  0  0  0  0  0  0
    5.5622   -0.7288    3.7478 C   0  0  0  0  0  0  0  0  0  0  0  0
    5.2924   -1.0036    5.2165 C   0  0  0  0  0  0  0  0  0  0  0  0
   -4.4645   -3.1204    1.8232 C   0  0  0  0  0  0  0  0  0  0  0  0
   -4.5184   -3.2389    3.0882 O   0  0  0  0  0  0  0  0  0  0  0  0
   -4.9458   -4.1788    1.1415 N   0  0  0  0  0  0  0  0  0  0  0  0
   -4.3688   -5.4843    1.3312 C   0  0  0  0  0  0  0  0  0  0  0  0
  1  2  1  0
  3  2  1  6
  3  4  1  0
  3  5  1  0
  5  6  1  1
  6  7  1  0
  7  8  2  0
  9  7  1  6
  9 10  1  0
 10 11  1  0
 11 12  1  0
 12 13  2  0
 13 14  1  0
 14 15  2  0
 15 16  1  0
 16 17  2  0
  9 18  1  0
 18 19  1  6
 18 20  1  0
 20 21  1  1
 20 22  1  0
 22 23  1  6
 23 24  1  0
 24 25  1  0
 25 26  2  0
 26 27  1  0
 27 28  2  0
 28 29  1  0
 29 30  2  0
 22 31  1  0
 31 32  2  0
 31 33  1  0
 34 33  1  6
 34 35  1  0
 35 36  2  0
 35 37  1  0
 37 38  1  0
 34 39  1  0
 39 40  1  6
 39 41  1  0
 41 42  1  0
  5 43  1  0
 43 44  2  0
 43 45  1  0
 45 46  1  0
 17 12  1  0
 30 25  1  0
M  END
>  <zinc_id>  (1) 
ZINC000024495494

>  <smiles>  (1) 
CC[C@H](C)[C@H](NC(=O)[C@H](OCc1ccccc1)[C@H](O)[C@@H](O)[C@@H](OCc1ccccc1)C(=O)N[C@H](C(=O)NC)[C@@H](C)CC)C(=O)NC

$$$$
