
     RDKit          3D

 49 51  0  0  0  0  0  0  0  0999 V2000
    0.6805    6.2103    0.6159 C   0  0  0  0  0  0  0  0  0  0  0  0
    0.5648    5.7257    0.5179 C   0  0  0  0  0  0  0  0  0  0  0  0
    0.1524    4.4008   -0.0218 C   0  0  0  0  0  0  0  0  0  0  0  0
    0.4871    3.3849    0.9230 O   0  0  0  0  0  0  0  0  0  0  0  0
    0.4340    2.0694    0.4746 C   0  0  0  0  0  0  0  0  0  0  0  0
    0.7816    1.8569   -0.7273 O   0  0  0  0  0  0  0  0  0  0  0  0
   -0.1552    1.0672    1.2555 N   0  0  0  0  0  0  0  0  0  0  0  0
   -0.3640   -0.3478    0.5674 C   0  0  1  0  0  0  0  0  0  0  0  0
   -1.0133    0.3162   -0.8080 C   0  0  0  0  0  0  0  0  0  0  0  0
   -2.1833    1.0568   -0.2253 C   0  0  0  0  0  0  0  0  0  0  0  0
   -3.0645    1.6987   -1.0911 C   0  0  0  0  0  0  0  0  0  0  0  0
   -4.4296    1.4117   -1.0793 C   0  0  0  0  0  0  0  0  0  0  0  0
   -4.9672    0.5344   -0.1400 C   0  0  0  0  0  0  0  0  0  0  0  0
   -5.8337   -0.5439   -0.5232 N   0  0  0  0  0  0  0  0  0  0  0  0
   -5.3762   -1.6539   -1.2913 C   0  0  0  0  0  0  0  0  0  0  0  0
   -5.9923   -2.7534   -1.2300 O   0  0  0  0  0  0  0  0  0  0  0  0
   -4.2289   -1.6066   -2.1758 C   0  0  0  0  0  0  0  0  0  0  0  0
   -3.3867   -2.5519   -2.0971 O   0  0  0  0  0  0  0  0  0  0  0  0
   -4.1996   -0.8976   -3.3725 O   0  0  0  0  0  0  0  0  0  0  0  0
   -7.2134   -0.4751   -0.2400 C   0  0  0  0  0  0  0  0  0  0  0  0
   -7.9819    0.3238   -1.0578 C   0  0  0  0  0  0  0  0  0  0  0  0
   -9.3242    0.3888   -0.8070 C   0  0  0  0  0  0  0  0  0  0  0  0
   -9.7465    0.1123    0.4738 C   0  0  0  0  0  0  0  0  0  0  0  0
   -8.8642   -0.3562    1.4395 C   0  0  0  0  0  0  0  0  0  0  0  0
   -7.6416   -0.8396    1.0070 C   0  0  0  0  0  0  0  0  0  0  0  0
   -6.8638   -1.6968    1.9109 C   0  0  0  0  0  0  0  0  0  0  0  0
   -6.6637   -1.2121    3.0666 O   0  0  0  0  0  0  0  0  0  0  0  0
   -7.1843   -3.0588    1.9191 O   0  0  0  0  0  0  0  0  0  0  0  0
   -4.1892    0.4707    1.0136 C   0  0  0  0  0  0  0  0  0  0  0  0
   -2.8071    0.6371    0.9470 C   0  0  0  0  0  0  0  0  0  0  0  0
    1.1350   -0.3634   -0.0736 C   0  0  0  0  0  0  0  0  0  0  0  0
    1.1910   -1.3735   -0.8364 O   0  0  0  0  0  0  0  0  0  0  0  0
    2.0671   -0.3756    1.0157 N   0  0  0  0  0  0  0  0  0  0  0  0
    3.4483   -0.5984    0.7078 C   0  0  0  0  0  0  0  0  0  0  0  0
    4.1137    0.6377    0.1249 C   0  0  0  0  0  0  0  0  0  0  0  0
    4.8669    0.2181   -1.1319 C   0  0  0  0  0  0  0  0  0  0  0  0
    5.4776   -1.1389   -0.8001 C   0  0  0  0  0  0  0  0  0  0  0  0
    5.9311   -1.0272    0.5468 O   0  0  0  0  0  0  0  0  0  0  0  0
    7.1572   -1.5572    0.9598 C   0  0  0  0  0  0  0  0  0  0  0  0
    7.2009   -2.9111    1.2679 C   0  0  0  0  0  0  0  0  0  0  0  0
    8.3426   -3.6575    1.0147 C   0  0  0  0  0  0  0  0  0  0  0  0
    9.3951   -3.0728    0.3202 C   0  0  0  0  0  0  0  0  0  0  0  0
    9.4493   -1.6931    0.2070 C   0  0  0  0  0  0  0  0  0  0  0  0
   10.4716   -1.1095   -0.5473 O   0  0  0  0  0  0  0  0  0  0  0  0
    8.2746   -0.9708    0.3779 C   0  0  0  0  0  0  0  0  0  0  0  0
    8.1790    0.4204   -0.0795 C   0  0  0  0  0  0  0  0  0  0  0  0
    8.5402    0.7029   -1.2416 O   0  0  0  0  0  0  0  0  0  0  0  0
    7.7716    1.4466    0.7560 O   0  0  0  0  0  0  0  0  0  0  0  0
    7.5612    2.7513    0.2536 C   0  0  0  0  0  0  0  0  0  0  0  0
  1  2  2  0
  2  3  1  0
  3  4  1  0
  4  5  1  0
  5  6  2  0
  5  7  1  0
  8  7  1  1
  8  9  1  0
  9 10  1  0
 10 11  2  0
 11 12  1  0
 12 13  2  0
 13 14  1  0
 14 15  1  0
 15 16  2  0
 15 17  1  0
 17 18  2  0
 17 19  1  0
 14 20  1  0
 20 21  2  0
 21 22  1  0
 22 23  2  0
 23 24  1  0
 24 25  2  0
 25 26  1  0
 26 27  2  0
 26 28  1  0
 13 29  1  0
 29 30  2  0
  8 31  1  0
 31 32  2  0
 31 33  1  0
 33 34  1  0
 34 35  1  0
 35 36  1  0
 36 37  1  0
 37 38  1  0
 38 39  1  0
 39 40  2  0
 40 41  1  0
 41 42  2  0
 42 43  1  0
 43 44  1  0
 43 45  2  0
 45 46  1  0
 46 47  2  0
 46 48  1  0
 48 49  1  0
 30 10  1  0
 45 39  1  0
 25 20  1  0
M  END
>  <zinc_id>  (1) 
ZINC000027090034

>  <smiles>  (1) 
C=CCOC(=O)N[C@@H](Cc1ccc(N(C(=O)C(=O)O)c2ccccc2C(=O)O)cc1)C(=O)NCCCCOc1cccc(O)c1C(=O)OC

$$$$
