
     RDKit          3D

 26 25  0  0  0  0  0  0  0  0999 V2000
    4.3023    5.7916    0.4600 C   0  0  0  0  0  0  0  0  0  0  0  0
    4.9088    4.6653    0.4742 C   0  0  0  0  0  0  0  0  0  0  0  0
    3.9287    3.5296    0.2108 C   0  0  0  0  0  0  0  0  0  0  0  0
    2.5531    4.1616    0.1284 C   0  0  0  0  0  0  0  0  0  0  0  0
    1.5100    3.2238   -0.4032 C   0  0  0  0  0  0  0  0  0  0  0  0
    1.1228    2.1402    0.5569 C   0  0  0  0  0  0  0  0  0  0  0  0
    1.9814    0.6339    0.0532 S   0  0  0  0  0  0  0  0  0  0  0  0
    1.1174   -0.2800   -1.2156 C   0  0  0  0  0  0  0  0  0  0  0  0
   -0.0110   -1.2279   -0.4332 C   0  0  2  0  0  0  0  0  0  0  0  0
   -0.5173    0.0215    0.4208 N   0  0  0  0  0  0  0  0  0  0  0  0
   -1.6203   -0.2341    1.2536 C   0  0  0  0  0  0  0  0  0  0  0  0
   -1.9393   -1.3693    1.6547 O   0  0  0  0  0  0  0  0  0  0  0  0
   -2.6515    0.8324    1.4655 C   0  0  0  0  0  0  0  0  0  0  0  0
   -3.5578    0.7845    0.2534 C   0  0  0  0  0  0  0  0  0  0  0  0
   -4.6354   -0.4281    0.6405 C   0  0  2  0  0  0  0  0  0  0  0  0
   -4.2302   -1.2597   -0.6619 N   0  0  0  0  0  0  0  0  0  0  0  0
   -5.8761    0.3099   -0.1233 C   0  0  0  0  0  0  0  0  0  0  0  0
   -6.7548    0.7116    0.6939 O   0  0  0  0  0  0  0  0  0  0  0  0
   -5.6274    0.8276   -1.3486 O   0  0  0  0  0  0  0  0  0  0  0  0
    1.0139   -1.7029    0.7529 C   0  0  0  0  0  0  0  0  0  0  0  0
    0.4830   -2.7641    1.2216 O   0  0  0  0  0  0  0  0  0  0  0  0
    2.3342   -1.9901    0.3358 N   0  0  0  0  0  0  0  0  0  0  0  0
    3.1336   -3.0982    0.7914 C   0  0  0  0  0  0  0  0  0  0  0  0
    3.0191   -4.1449   -0.2726 C   0  0  0  0  0  0  0  0  0  0  0  0
    3.1724   -5.3533   -0.0118 O   0  0  0  0  0  0  0  0  0  0  0  0
    2.8406   -3.7809   -1.6097 O   0  0  0  0  0  0  0  0  0  0  0  0
  1  2  1  0
  2  3  1  0
  3  4  1  0
  4  5  1  0
  5  6  1  0
  6  7  1  0
  7  8  1  0
  9  8  1  6
  9 10  1  0
 10 11  1  0
 11 12  2  0
 11 13  1  0
 13 14  1  0
 15 14  1  6
 15 16  1  0
 15 17  1  0
 17 18  2  0
 17 19  1  0
  9 20  1  0
 20 21  2  0
 20 22  1  0
 22 23  1  0
 23 24  1  0
 24 25  2  0
 24 26  1  0
M  END
>  <zinc_id>  (1) 
ZINC000003874923

>  <smiles>  (1) 
CCCCCCSC[C@H](NC(=O)CC[C@H](N)C(=O)O)C(=O)NCC(=O)O

$$$$
