
     RDKit          3D

 41 42  0  0  0  0  0  0  0  0999 V2000
    1.4558   -3.5094   -1.7250 C   0  0  0  0  0  0  0  0  0  0  0  0
    1.6949   -2.7621   -1.7740 C   0  0  0  0  0  0  0  0  0  0  0  0
    2.5802   -2.0329   -0.6306 C   0  0  1  0  0  0  0  0  0  0  0  0
    2.8659   -0.7002   -1.5061 C   0  0  0  0  0  0  0  0  0  0  0  0
    1.2208   -1.4685    0.2443 C   0  0  1  0  0  0  0  0  0  0  0  0
    2.1089   -0.4019    0.9781 N   0  0  0  0  0  0  0  0  0  0  0  0
    3.0967   -1.2472    2.0907 S   0  0  0  0  0  0  0  0  0  0  0  0
    2.2953   -2.1302    3.0228 O   0  0  0  0  0  0  0  0  0  0  0  0
    3.7233   -0.2022    2.9616 O   0  0  0  0  0  0  0  0  0  0  0  0
    4.3601   -2.2171    1.3893 C   0  0  0  0  0  0  0  0  0  0  0  0
    5.6240   -1.5233    1.1134 C   0  0  0  0  0  0  0  0  0  0  0  0
    6.5838   -2.2619    0.4311 C   0  0  0  0  0  0  0  0  0  0  0  0
    7.4831   -1.6799   -0.4489 C   0  0  0  0  0  0  0  0  0  0  0  0
    7.6928   -0.3332   -0.3080 C   0  0  0  0  0  0  0  0  0  0  0  0
    6.8393    0.4272    0.4815 C   0  0  0  0  0  0  0  0  0  0  0  0
    6.9398    1.8676    0.3745 C   0  0  0  0  0  0  0  0  0  0  0  0
    6.0499    2.6031    0.8686 O   0  0  0  0  0  0  0  0  0  0  0  0
    8.0442    2.4751   -0.1734 O   0  0  0  0  0  0  0  0  0  0  0  0
    5.8650   -0.1861    1.2528 C   0  0  0  0  0  0  0  0  0  0  0  0
    0.6888   -0.3886   -0.8116 C   0  0  0  0  0  0  0  0  0  0  0  0
    0.2927   -0.7687   -1.9155 O   0  0  0  0  0  0  0  0  0  0  0  0
   -0.1968    0.5207   -0.1311 N   0  0  0  0  0  0  0  0  0  0  0  0
   -0.7059    1.5981   -1.1635 C   0  0  1  0  0  0  0  0  0  0  0  0
   -1.6536    0.4844   -1.9228 C   0  0  0  0  0  0  0  0  0  0  0  0
   -2.6601    0.0169   -1.0270 C   0  0  0  0  0  0  0  0  0  0  0  0
   -3.0201   -1.3210   -0.7240 C   0  0  0  0  0  0  0  0  0  0  0  0
   -4.2199   -1.6756   -1.0979 N   0  0  0  0  0  0  0  0  0  0  0  0
   -2.5611   -1.8481    0.5337 N   0  0  0  0  0  0  0  0  0  0  0  0
   -1.8749    2.1132   -0.1782 C   0  0  0  0  0  0  0  0  0  0  0  0
   -1.4677    2.5773    0.9180 O   0  0  0  0  0  0  0  0  0  0  0  0
   -2.9199    2.8413   -0.8274 N   0  0  0  0  0  0  0  0  0  0  0  0
   -3.9777    3.4640   -0.0813 C   0  0  0  0  0  0  0  0  0  0  0  0
   -5.1733    2.6185    0.0760 C   0  0  0  0  0  0  0  0  0  0  0  0
   -6.2362    2.7361   -0.8058 C   0  0  0  0  0  0  0  0  0  0  0  0
   -7.2032    1.7442   -0.8745 C   0  0  0  0  0  0  0  0  0  0  0  0
   -7.0426    0.5652   -0.1573 C   0  0  0  0  0  0  0  0  0  0  0  0
   -8.0893   -0.4385   -0.1172 C   0  0  0  0  0  0  0  0  0  0  0  0
   -7.7756   -1.6653    0.1390 N   0  0  0  0  0  0  0  0  0  0  0  0
   -9.4475   -0.0358   -0.2048 N   0  0  0  0  0  0  0  0  0  0  0  0
   -5.9456    0.4774    0.6911 C   0  0  0  0  0  0  0  0  0  0  0  0
   -5.3343    1.6673    1.0729 C   0  0  0  0  0  0  0  0  0  0  0  0
  1  2  1  0
  3  2  1  6
  3  4  1  0
  3  5  1  0
  5  6  1  1
  6  7  1  0
  7  8  2  0
  7  9  2  0
  7 10  1  0
 10 11  1  0
 11 12  2  0
 12 13  1  0
 13 14  2  0
 14 15  1  0
 15 16  1  0
 16 17  2  0
 16 18  1  0
 15 19  2  0
  5 20  1  0
 20 21  2  0
 20 22  1  0
 23 22  1  1
 23 24  1  0
 24 25  1  0
 25 26  1  0
 26 27  2  0
 26 28  1  0
 23 29  1  0
 29 30  2  0
 29 31  1  0
 31 32  1  0
 32 33  1  0
 33 34  2  0
 34 35  1  0
 35 36  2  0
 36 37  1  0
 37 38  2  0
 37 39  1  0
 36 40  1  0
 40 41  2  0
 19 11  1  0
 41 33  1  0
M  END
>  <zinc_id>  (1) 
ZINC000014881275

>  <smiles>  (1) 
CC[C@@H](C)[C@@H](NS(=O)(=O)Cc1cccc(C(=O)O)c1)C(=O)N[C@@H](CCC(=N)N)C(=O)NCc1ccc(C(=N)N)cc1

$$$$
