
     RDKit          3D

 44 45  0  0  0  0  0  0  0  0999 V2000
   -7.8027    0.1503    1.9311 C   0  0  0  0  0  0  0  0  0  0  0  0
   -8.1854   -1.0682    1.8127 C   0  0  0  0  0  0  0  0  0  0  0  0
   -7.0778   -1.9423    1.7604 O   0  0  0  0  0  0  0  0  0  0  0  0
   -6.5114   -2.4179    0.5847 C   0  0  0  0  0  0  0  0  0  0  0  0
   -7.3472   -2.6240   -0.3495 O   0  0  0  0  0  0  0  0  0  0  0  0
   -5.1427   -2.0859    0.1611 C   0  0  0  0  0  0  0  0  0  0  0  0
   -4.8497   -1.2188   -0.7920 C   0  0  0  0  0  0  0  0  0  0  0  0
   -4.1370    0.1547   -0.2319 C   0  0  2  0  0  0  0  0  0  0  0  0
   -4.7699    1.2000   -1.3728 C   0  0  0  0  0  0  0  0  0  0  0  0
   -5.7747    0.2353   -2.2570 C   0  0  2  0  0  0  0  0  0  0  0  0
   -5.5340    1.1326   -3.6355 C   0  0  0  0  0  0  0  0  0  0  0  0
   -5.6990    2.5154   -3.0981 C   0  0  0  0  0  0  0  0  0  0  0  0
   -6.7330    2.4153   -2.1161 N   0  0  0  0  0  0  0  0  0  0  0  0
   -7.0993    1.0980   -1.8528 C   0  0  0  0  0  0  0  0  0  0  0  0
   -8.1858    0.4951   -1.7528 O   0  0  0  0  0  0  0  0  0  0  0  0
   -2.8196   -0.1020   -1.1190 N   0  0  0  0  0  0  0  0  0  0  0  0
   -1.7134    0.4206   -0.3630 C   0  0  0  0  0  0  0  0  0  0  0  0
   -1.9046    1.4070    0.4200 O   0  0  0  0  0  0  0  0  0  0  0  0
   -0.4548    0.9033   -1.3060 C   0  0  2  0  0  0  0  0  0  0  0  0
   -0.0297   -0.6725   -1.6902 C   0  0  0  0  0  0  0  0  0  0  0  0
   -0.3746   -0.8175   -3.1405 C   0  0  0  0  0  0  0  0  0  0  0  0
    0.8715   -1.1746   -3.9271 C   0  0  0  0  0  0  0  0  0  0  0  0
   -1.2854   -2.0385   -3.2327 C   0  0  0  0  0  0  0  0  0  0  0  0
    0.5448    1.0004   -0.0610 N   0  0  0  0  0  0  0  0  0  0  0  0
    1.0248   -0.1270    0.5277 C   0  0  0  0  0  0  0  0  0  0  0  0
    0.4460   -1.2344    0.2977 O   0  0  0  0  0  0  0  0  0  0  0  0
    1.2381   -0.1194    2.1543 C   0  0  1  0  0  0  0  0  0  0  0  0
    2.6020   -0.9528    2.0342 N   0  0  0  0  0  0  0  0  0  0  0  0
    3.5327   -0.3943    1.1513 C   0  0  0  0  0  0  0  0  0  0  0  0
    3.4073    0.6576    0.5250 O   0  0  0  0  0  0  0  0  0  0  0  0
    4.7530   -1.3769    0.6981 C   0  0  2  0  0  0  0  0  0  0  0  0
    5.2340   -1.5517    2.2960 C   0  0  0  0  0  0  0  0  0  0  0  0
    5.7530   -0.1388    0.4938 N   0  0  0  0  0  0  0  0  0  0  0  0
    6.8999   -0.4235   -0.2698 C   0  0  0  0  0  0  0  0  0  0  0  0
    6.7438   -1.0740   -1.3208 O   0  0  0  0  0  0  0  0  0  0  0  0
    8.2274   -0.0169    0.2301 C   0  0  0  0  0  0  0  0  0  0  0  0
    9.0360   -0.8517    0.9959 C   0  0  0  0  0  0  0  0  0  0  0  0
    9.5934   -0.1205    2.0425 C   0  0  0  0  0  0  0  0  0  0  0  0
    9.8857   -0.6113    3.4251 C   0  0  0  0  0  0  0  0  0  0  0  0
    9.4555    1.1294    1.6290 O   0  0  0  0  0  0  0  0  0  0  0  0
    8.5117    1.2091    0.7373 N   0  0  0  0  0  0  0  0  0  0  0  0
    2.0503    1.3475    2.1627 C   0  0  0  0  0  0  0  0  0  0  0  0
    0.9875    2.3878    2.2431 C   0  0  0  0  0  0  0  0  0  0  0  0
    2.6334    1.2684    3.5747 C   0  0  0  0  0  0  0  0  0  0  0  0
  1  2  1  0
  2  3  1  0
  3  4  1  0
  4  5  2  0
  4  6  1  0
  6  7  2  0
  8  7  1  6
  8  9  1  0
 10  9  1  1
 10 11  1  0
 11 12  1  0
 12 13  1  0
 13 14  1  0
 14 15  2  0
  8 16  1  0
 16 17  1  0
 17 18  2  0
 19 17  1  1
 19 20  1  0
 20 21  1  0
 21 22  1  0
 21 23  1  0
 19 24  1  0
 24 25  1  0
 25 26  2  0
 27 25  1  6
 27 28  1  0
 28 29  1  0
 29 30  2  0
 31 29  1  1
 31 32  1  0
 31 33  1  0
 33 34  1  0
 34 35  2  0
 34 36  1  0
 36 37  1  0
 37 38  2  0
 38 39  1  0
 38 40  1  0
 40 41  1  0
 27 42  1  0
 42 43  1  0
 42 44  1  0
 14 10  1  0
 41 36  2  0
M  END
>  <zinc_id>  (1) 
ZINC000014881295

>  <smiles>  (1) 
CCOC(=O)/C=C/[C@H](C[C@@H]1CCNC1=O)NC(=O)[C@H](CC(C)C)NC(=O)[C@@H](NC(=O)[C@H](C)NC(=O)c1cc(C)on1)C(C)C

$$$$
