
     RDKit          3D

 70 70  0  0  0  0  0  0  0  0999 V2000
   -0.4627    0.7073   -4.3411 C   0  0  0  0  0  0  0  0  0  0  0  0
   -1.3478   -0.2784   -4.2292 C   0  0  0  0  0  0  0  0  0  0  0  0
   -1.5482   -0.8011   -2.8097 C   0  0  0  0  0  0  0  0  0  0  0  0
   -1.0846    0.4724   -1.8459 C   0  0  2  0  0  0  0  0  0  0  0  0
   -0.5541   -0.5020   -0.7023 N   0  0  0  0  0  0  0  0  0  0  0  0
    0.7793   -0.0482   -0.4064 C   0  0  0  0  0  0  0  0  0  0  0  0
    1.5486   -0.5080   -1.2596 O   0  0  0  0  0  0  0  0  0  0  0  0
    1.2075   -0.1374    1.1443 C   0  0  1  0  0  0  0  0  0  0  0  0
    2.7543   -0.0057    0.8786 N   0  0  0  0  0  0  0  0  0  0  0  0
    3.5881   -0.9665    1.5383 C   0  0  0  0  0  0  0  0  0  0  0  0
    3.1296   -1.8046    2.2917 O   0  0  0  0  0  0  0  0  0  0  0  0
    5.0073   -0.2699    1.8825 C   0  0  2  0  0  0  0  0  0  0  0  0
    5.8347   -1.3934    1.1518 N   0  0  0  0  0  0  0  0  0  0  0  0
    5.9811   -1.3448   -0.2634 C   0  0  0  0  0  0  0  0  0  0  0  0
    4.8350   -1.2853   -0.7732 O   0  0  0  0  0  0  0  0  0  0  0  0
    7.0588   -0.2535   -0.8263 C   0  0  1  0  0  0  0  0  0  0  0  0
    8.1164   -1.2978   -1.3907 N   0  0  0  0  0  0  0  0  0  0  0  0
    8.3990   -2.3609   -0.4680 C   0  0  0  0  0  0  0  0  0  0  0  0
    7.3866   -3.1229   -0.5652 O   0  0  0  0  0  0  0  0  0  0  0  0
    9.7479   -2.9692   -0.4019 C   0  0  0  0  0  0  0  0  0  0  0  0
   10.6398   -2.2485    0.4969 N   0  0  0  0  0  0  0  0  0  0  0  0
   12.0322   -2.2176    0.1985 C   0  0  0  0  0  0  0  0  0  0  0  0
   12.5475   -3.2165   -0.3507 O   0  0  0  0  0  0  0  0  0  0  0  0
   12.9294   -1.1024    0.5611 C   0  0  0  0  0  0  0  0  0  0  0  0
   12.6859    0.0674   -0.2568 N   0  0  0  0  0  0  0  0  0  0  0  0
   11.8008   -0.0432   -1.4093 C   0  0  0  0  0  0  0  0  0  0  0  0
   13.1237    1.3578    0.1326 C   0  0  0  0  0  0  0  0  0  0  0  0
   12.1133    2.3967    0.4624 C   0  0  0  0  0  0  0  0  0  0  0  0
   14.2618    1.7260   -0.2642 O   0  0  0  0  0  0  0  0  0  0  0  0
    6.3483   -0.0758   -2.3207 C   0  0  0  0  0  0  0  0  0  0  0  0
    7.3254    0.8108   -3.0316 C   0  0  0  0  0  0  0  0  0  0  0  0
    6.2021   -1.4398   -2.8862 C   0  0  0  0  0  0  0  0  0  0  0  0
    5.2098   -1.0212    3.4203 C   0  0  1  0  0  0  0  0  0  0  0  0
    6.8263   -1.1568    3.3156 C   0  0  0  0  0  0  0  0  0  0  0  0
    5.3320    0.4043    4.1904 C   0  0  0  0  0  0  0  0  0  0  0  0
    4.1163    1.1718    3.7491 C   0  0  0  0  0  0  0  0  0  0  0  0
    0.9504    1.5696    1.4068 C   0  0  1  0  0  0  0  0  0  0  0  0
    2.2043    1.6972    2.4719 C   0  0  0  0  0  0  0  0  0  0  0  0
    1.8140    2.0136    0.2374 O   0  0  0  0  0  0  0  0  0  0  0  0
   -2.5241    0.6176   -1.1145 C   0  0  0  0  0  0  0  0  0  0  0  0
   -3.4955    0.0855   -1.5240 O   0  0  0  0  0  0  0  0  0  0  0  0
   -2.5975    1.4740   -0.0297 N   0  0  0  0  0  0  0  0  0  0  0  0
   -3.5067    1.0513    1.1923 C   0  0  2  0  0  0  0  0  0  0  0  0
   -4.7211    0.4432    0.3135 C   0  0  0  0  0  0  0  0  0  0  0  0
   -4.7988   -0.7233    0.8258 O   0  0  0  0  0  0  0  0  0  0  0  0
   -5.9415    1.0748    0.1925 N   0  0  0  0  0  0  0  0  0  0  0  0
   -7.2185    0.3550    0.8131 C   0  0  1  0  0  0  0  0  0  0  0  0
   -8.1699    1.6958    0.5806 C   0  0  0  0  0  0  0  0  0  0  0  0
   -7.9440    2.1314   -0.8217 C   0  0  0  0  0  0  0  0  0  0  0  0
   -7.7161    3.5975   -1.0109 C   0  0  0  0  0  0  0  0  0  0  0  0
   -9.0239    4.1703   -1.3195 N   0  0  0  0  0  0  0  0  0  0  0  0
   -9.9695    4.1280   -0.4381 C   0  0  0  0  0  0  0  0  0  0  0  0
   -9.9102    5.0610    0.6226 N   0  0  0  0  0  0  0  0  0  0  0  0
  -10.9392    3.1046   -0.3818 N   0  0  0  0  0  0  0  0  0  0  0  0
   -7.6780   -0.2901   -0.6091 C   0  0  0  0  0  0  0  0  0  0  0  0
   -6.7973   -0.9382   -1.2014 O   0  0  0  0  0  0  0  0  0  0  0  0
   -8.9955   -0.8142   -0.5750 N   0  0  0  0  0  0  0  0  0  0  0  0
   -9.9915   -1.0176   -1.5630 C   0  0  0  0  0  0  0  0  0  0  0  0
  -11.1575   -0.3271   -0.9465 C   0  0  0  0  0  0  0  0  0  0  0  0
  -11.0001   -0.2362    0.5050 C   0  0  0  0  0  0  0  0  0  0  0  0
   -9.6826   -1.1963    0.8047 C   0  0  1  0  0  0  0  0  0  0  0  0
  -10.4014   -2.5244    0.1862 C   0  0  0  0  0  0  0  0  0  0  0  0
  -11.0860   -2.9909    1.1511 O   0  0  0  0  0  0  0  0  0  0  0  0
   -9.3868   -3.4400   -0.2586 N   0  0  0  0  0  0  0  0  0  0  0  0
   -9.7856   -4.8096   -0.4894 C   0  0  0  0  0  0  0  0  0  0  0  0
   -9.1152   -5.7278    0.4984 C   0  0  0  0  0  0  0  0  0  0  0  0
   -4.1925    2.6206    1.4197 C   0  0  1  0  0  0  0  0  0  0  0  0
   -2.7257    3.2739    1.6688 C   0  0  0  0  0  0  0  0  0  0  0  0
   -4.2444    3.0573   -0.1455 C   0  0  0  0  0  0  0  0  0  0  0  0
   -4.1235    4.5701   -0.0087 C   0  0  0  0  0  0  0  0  0  0  0  0
  1  2  1  0
  2  3  1  0
  4  3  1  6
  4  5  1  0
  5  6  1  0
  6  7  2  0
  8  6  1  6
  8  9  1  0
  9 10  1  0
 10 11  2  0
 12 10  1  6
 12 13  1  0
 13 14  1  0
 14 15  2  0
 16 14  1  1
 16 17  1  0
 17 18  1  0
 18 19  2  0
 18 20  1  0
 20 21  1  0
 21 22  1  0
 22 23  2  0
 22 24  1  0
 24 25  1  0
 25 26  1  0
 25 27  1  0
 27 28  1  0
 27 29  2  0
 16 30  1  0
 30 31  1  0
 30 32  1  0
 12 33  1  0
 33 34  1  6
 33 35  1  0
 35 36  1  0
  8 37  1  0
 37 38  1  1
 37 39  1  0
  4 40  1  0
 40 41  2  0
 40 42  1  0
 43 42  1  6
 43 44  1  0
 44 45  2  0
 44 46  1  0
 47 46  1  6
 47 48  1  0
 48 49  1  0
 49 50  1  0
 50 51  1  0
 51 52  2  3
 52 53  1  0
 52 54  1  0
 47 55  1  0
 55 56  2  0
 55 57  1  0
 57 58  1  0
 58 59  1  0
 59 60  1  0
 60 61  1  0
 61 62  1  6
 62 63  2  0
 62 64  1  0
 64 65  1  0
 65 66  1  0
 43 67  1  0
 67 68  1  1
 67 69  1  0
 69 70  1  0
 61 57  1  0
M  END
>  <zinc_id>  (1) 
ZINC000169362874

>  <smiles>  (1) 
CCC[C@H](NC(=O)[C@@H](NC(=O)[C@H](NC(=O)[C@@H](NC(=O)CNC(=O)CN(C)C(C)=O)C(C)C)[C@@H](C)CC)[C@@H](C)O)C(=O)N[C@H](C(=O)N[C@@H](CCCN=C(N)N)C(=O)N1CCC[C@H]1C(=O)NCC)[C@@H](C)CC

$$$$
