
     RDKit          3D

 41 42  0  0  0  0  0  0  0  0999 V2000
   -6.4260    1.6145    1.9083 C   0  0  0  0  0  0  0  0  0  0  0  0
   -6.5835    1.5786    1.0344 C   0  0  0  0  0  0  0  0  0  0  0  0
   -7.7496    1.2125    0.7697 O   0  0  0  0  0  0  0  0  0  0  0  0
   -5.6364    1.9855    0.0426 N   0  0  0  0  0  0  0  0  0  0  0  0
   -5.7672    3.2791   -0.6078 C   0  0  0  0  0  0  0  0  0  0  0  0
   -5.2302    3.1338   -1.9980 C   0  0  0  0  0  0  0  0  0  0  0  0
   -4.4368    1.8391   -1.9784 C   0  0  0  0  0  0  0  0  0  0  0  0
   -5.6508    0.9763   -1.2060 C   0  0  1  0  0  0  0  0  0  0  0  0
   -4.6317   -0.0639   -0.4494 C   0  0  0  0  0  0  0  0  0  0  0  0
   -5.3362   -0.5583    0.4870 O   0  0  0  0  0  0  0  0  0  0  0  0
   -3.3136    0.3179   -0.2893 N   0  0  0  0  0  0  0  0  0  0  0  0
   -2.6516   -0.5348    0.8953 C   0  0  1  0  0  0  0  0  0  0  0  0
   -2.3650   -1.8393   -0.1191 C   0  0  0  0  0  0  0  0  0  0  0  0
   -3.3179   -2.8740    0.3266 C   0  0  0  0  0  0  0  0  0  0  0  0
   -3.4802   -3.4869    1.5531 C   0  0  0  0  0  0  0  0  0  0  0  0
   -4.6732   -4.1223    1.4561 N   0  0  0  0  0  0  0  0  0  0  0  0
   -5.0416   -4.2176    0.1555 C   0  0  0  0  0  0  0  0  0  0  0  0
   -4.0031   -3.6761   -0.5267 N   0  0  0  0  0  0  0  0  0  0  0  0
   -1.1698    0.1082    0.6234 C   0  0  0  0  0  0  0  0  0  0  0  0
   -0.2944   -0.3133    1.4088 O   0  0  0  0  0  0  0  0  0  0  0  0
   -0.7324    0.1289   -0.6915 N   0  0  0  0  0  0  0  0  0  0  0  0
    0.5199    1.0854   -0.9762 C   0  0  1  0  0  0  0  0  0  0  0  0
   -0.2243    2.4031   -0.2624 C   0  0  0  0  0  0  0  0  0  0  0  0
    0.0185    2.4395    1.0300 O   0  0  0  0  0  0  0  0  0  0  0  0
    1.3708    0.6048    0.3588 C   0  0  0  0  0  0  0  0  0  0  0  0
    2.1406    1.5535    0.7281 O   0  0  0  0  0  0  0  0  0  0  0  0
    2.2077   -0.4493   -0.1743 N   0  0  0  0  0  0  0  0  0  0  0  0
    3.2352   -0.9799    0.9413 C   0  0  1  0  0  0  0  0  0  0  0  0
    3.5106   -2.3928    0.0777 C   0  0  0  0  0  0  0  0  0  0  0  0
    3.6676   -3.6666    1.3527 S   0  0  0  0  0  0  0  0  0  0  0  0
    4.4820   -0.2047    0.2295 C   0  0  0  0  0  0  0  0  0  0  0  0
    4.6836   -0.3765   -0.9508 O   0  0  0  0  0  0  0  0  0  0  0  0
    5.5054   -0.0056    1.1463 N   0  0  0  0  0  0  0  0  0  0  0  0
    6.7643    0.8161    0.5927 C   0  0  1  0  0  0  0  0  0  0  0  0
    6.8889   -0.1454   -0.7747 C   0  0  0  0  0  0  0  0  0  0  0  0
    8.2792   -0.6689   -0.6011 C   0  0  0  0  0  0  0  0  0  0  0  0
    9.4262    0.0086   -1.0981 N   0  0  0  0  0  0  0  0  0  0  0  0
    8.5071   -1.7202    0.0688 O   0  0  0  0  0  0  0  0  0  0  0  0
    5.8290    1.9196   -0.1939 C   0  0  0  0  0  0  0  0  0  0  0  0
    6.6891    2.8330   -0.8899 N   0  0  0  0  0  0  0  0  0  0  0  0
    4.9896    2.4586    0.5704 O   0  0  0  0  0  0  0  0  0  0  0  0
  1  2  1  0
  2  3  2  0
  2  4  1  0
  4  5  1  0
  5  6  1  0
  6  7  1  0
  7  8  1  0
  8  9  1  1
  9 10  2  0
  9 11  1  0
 12 11  1  6
 12 13  1  0
 13 14  1  0
 14 15  2  0
 15 16  1  0
 16 17  1  0
 17 18  2  0
 12 19  1  0
 19 20  2  0
 19 21  1  0
 22 21  1  1
 22 23  1  0
 23 24  1  0
 22 25  1  0
 25 26  2  0
 25 27  1  0
 28 27  1  6
 28 29  1  0
 29 30  1  0
 28 31  1  0
 31 32  2  0
 31 33  1  0
 34 33  1  1
 34 35  1  0
 35 36  1  0
 36 37  1  0
 36 38  2  0
 34 39  1  0
 39 40  1  0
 39 41  2  0
  8  4  1  0
 18 14  1  0
M  END
>  <zinc_id>  (1) 
ZINC000003924034

>  <smiles>  (1) 
CC(=O)N1CCC[C@H]1C(=O)N[C@@H](Cc1c[nH]cn1)C(=O)N[C@@H](CO)C(=O)N[C@@H](CS)C(=O)N[C@@H](CC(N)=O)C(N)=O

$$$$
