
     RDKit          3D

 51 51  0  0  0  0  0  0  0  0999 V2000
    2.6446    1.2079   -3.0322 C   0  0  0  0  0  0  0  0  0  0  0  0
    2.7679    1.3156   -3.1465 C   0  0  0  0  0  0  0  0  0  0  0  0
    2.7412    2.6880   -2.5454 C   0  0  0  0  0  0  0  0  0  0  0  0
    2.9808    0.1847   -2.2395 C   0  0  0  0  0  0  0  0  0  0  0  0
    2.0743    0.6449   -0.9377 C   0  0  2  0  0  0  0  0  0  0  0  0
    3.1179    0.2337    0.1732 N   0  0  0  0  0  0  0  0  0  0  0  0
    4.4813    0.2166   -0.2464 C   0  0  0  0  0  0  0  0  0  0  0  0
    4.5274   -0.5625   -1.2032 O   0  0  0  0  0  0  0  0  0  0  0  0
    5.4726   -0.0793    0.9841 C   0  0  1  0  0  0  0  0  0  0  0  0
    6.7814    0.2968    0.1973 N   0  0  0  0  0  0  0  0  0  0  0  0
    7.4483   -0.7213   -0.4758 C   0  0  0  0  0  0  0  0  0  0  0  0
    6.7806   -1.4355   -1.2492 O   0  0  0  0  0  0  0  0  0  0  0  0
    8.6771   -0.4059   -1.2762 C   0  0  0  0  0  0  0  0  0  0  0  0
    9.7833   -0.0358   -0.4693 N   0  0  0  0  0  0  0  0  0  0  0  0
   10.0841    1.2912   -0.1071 C   0  0  0  0  0  0  0  0  0  0  0  0
    9.1014    2.0879   -0.0271 O   0  0  0  0  0  0  0  0  0  0  0  0
   11.4177    1.9184   -0.3824 C   0  0  0  0  0  0  0  0  0  0  0  0
   11.3436    3.3465   -0.1091 N   0  0  0  0  0  0  0  0  0  0  0  0
    5.2488    1.4620    1.5366 C   0  0  0  0  0  0  0  0  0  0  0  0
    5.6189    2.3869    0.4362 C   0  0  0  0  0  0  0  0  0  0  0  0
    6.0582    1.6278    2.7578 C   0  0  0  0  0  0  0  0  0  0  0  0
    1.3461   -0.7930   -0.8835 C   0  0  0  0  0  0  0  0  0  0  0  0
    2.0118   -1.8005   -1.0525 O   0  0  0  0  0  0  0  0  0  0  0  0
    0.0014   -0.7653   -0.4381 N   0  0  0  0  0  0  0  0  0  0  0  0
   -0.6150   -2.1894   -0.7528 C   0  0  2  0  0  0  0  0  0  0  0  0
   -2.0559   -1.7553   -0.2035 C   0  0  0  0  0  0  0  0  0  0  0  0
   -2.6953   -1.0733   -1.0267 O   0  0  0  0  0  0  0  0  0  0  0  0
   -2.2844   -1.3676    1.0660 N   0  0  0  0  0  0  0  0  0  0  0  0
   -3.7552   -1.4438    1.6359 C   0  0  1  0  0  0  0  0  0  0  0  0
   -4.0979    0.1140    1.2271 C   0  0  0  0  0  0  0  0  0  0  0  0
   -3.2778    0.8677    2.2723 C   0  0  0  0  0  0  0  0  0  0  0  0
   -3.2510    2.2874    1.8096 C   0  0  0  0  0  0  0  0  0  0  0  0
   -3.8902    3.2687    2.5981 N   0  0  0  0  0  0  0  0  0  0  0  0
   -2.7210    2.5931    0.7182 O   0  0  0  0  0  0  0  0  0  0  0  0
   -4.4563   -2.0333    0.3032 C   0  0  0  0  0  0  0  0  0  0  0  0
   -4.1019   -3.2571    0.3605 O   0  0  0  0  0  0  0  0  0  0  0  0
   -5.8498   -1.8530    0.1416 N   0  0  0  0  0  0  0  0  0  0  0  0
   -6.4339   -2.6209   -0.9624 C   0  0  0  0  0  0  0  0  0  0  0  0
   -6.0496   -1.6926   -2.0794 C   0  0  0  0  0  0  0  0  0  0  0  0
   -6.0985   -0.3047   -1.6338 C   0  0  0  0  0  0  0  0  0  0  0  0
   -6.4808   -0.4153   -0.0342 C   0  0  1  0  0  0  0  0  0  0  0  0
   -8.0004   -0.9194   -0.2756 C   0  0  0  0  0  0  0  0  0  0  0  0
   -8.3734   -1.3214   -1.3567 O   0  0  0  0  0  0  0  0  0  0  0  0
   -8.9920   -0.0062    0.2517 N   0  0  0  0  0  0  0  0  0  0  0  0
  -10.0043    0.5918   -0.6255 C   0  0  0  0  0  0  0  0  0  0  0  0
   -9.7922    2.0660   -0.6527 C   0  0  0  0  0  0  0  0  0  0  0  0
  -10.2218    2.6491    0.3887 O   0  0  0  0  0  0  0  0  0  0  0  0
   -8.6308    2.5050   -1.2902 O   0  0  0  0  0  0  0  0  0  0  0  0
   -0.1006   -2.8476    0.6543 C   0  0  0  0  0  0  0  0  0  0  0  0
    0.2778   -1.9545    1.6457 C   0  0  0  0  0  0  0  0  0  0  0  0
   -0.5584   -4.1972    0.7900 C   0  0  0  0  0  0  0  0  0  0  0  0
  1  2  1  0
  2  3  1  0
  2  4  1  0
  5  4  1  6
  5  6  1  0
  6  7  1  0
  7  8  2  0
  9  7  1  6
  9 10  1  0
 10 11  1  0
 11 12  2  0
 11 13  1  0
 13 14  1  0
 14 15  1  0
 15 16  2  0
 15 17  1  0
 17 18  1  0
  9 19  1  0
 19 20  1  0
 19 21  1  0
  5 22  1  0
 22 23  2  0
 22 24  1  0
 25 24  1  1
 25 26  1  0
 26 27  2  0
 26 28  1  0
 29 28  1  6
 29 30  1  0
 30 31  1  0
 31 32  1  0
 32 33  1  0
 32 34  2  0
 29 35  1  0
 35 36  2  0
 35 37  1  0
 37 38  1  0
 38 39  1  0
 39 40  1  0
 40 41  1  0
 41 42  1  6
 42 43  2  0
 42 44  1  0
 44 45  1  0
 45 46  1  0
 46 47  2  0
 46 48  1  0
 25 49  1  0
 49 50  1  0
 49 51  1  0
 41 37  1  0
M  END
>  <zinc_id>  (1) 
ZINC000068009799

>  <smiles>  (1) 
CC(C)C[C@H](NC(=O)[C@@H](NC(=O)CNC(=O)CN)C(C)C)C(=O)N[C@H](C(=O)N[C@@H](CCC(N)=O)C(=O)N1CCC[C@H]1C(=O)NCC(=O)O)C(C)C

$$$$
