
     RDKit          3D

 32 32  0  0  0  0  0  0  0  0999 V2000
    1.5107   -0.7214    1.1760 C   0  0  0  0  0  0  0  0  0  0  0  0
    1.5576   -0.5190    0.9519 C   0  0  0  0  0  0  0  0  0  0  0  0
    0.5559   -1.0207    1.9534 C   0  0  0  0  0  0  0  0  0  0  0  0
    1.3574   -1.3683   -0.4404 C   0  0  2  0  0  0  0  0  0  0  0  0
    2.4975   -0.6239   -1.2380 N   0  0  0  0  0  0  0  0  0  0  0  0
    3.6000   -0.1486   -0.5425 C   0  0  0  0  0  0  0  0  0  0  0  0
    3.2263    0.7160    0.3092 O   0  0  0  0  0  0  0  0  0  0  0  0
    4.9401   -0.3089   -0.8235 O   0  0  0  0  0  0  0  0  0  0  0  0
    5.7975    0.0614    0.2585 C   0  0  0  0  0  0  0  0  0  0  0  0
    7.2169   -0.1554   -0.0416 C   0  0  0  0  0  0  0  0  0  0  0  0
    7.5916   -0.7446   -1.2342 C   0  0  0  0  0  0  0  0  0  0  0  0
    8.7062   -0.3705   -1.9461 C   0  0  0  0  0  0  0  0  0  0  0  0
    9.6471    0.3897   -1.2976 C   0  0  0  0  0  0  0  0  0  0  0  0
    9.2859    1.0751   -0.1494 C   0  0  0  0  0  0  0  0  0  0  0  0
    8.1731    0.6429    0.5659 C   0  0  0  0  0  0  0  0  0  0  0  0
    0.2028   -0.3496   -0.9485 C   0  0  0  0  0  0  0  0  0  0  0  0
    0.1203   -0.2180   -2.1876 O   0  0  0  0  0  0  0  0  0  0  0  0
   -0.9669   -0.3426   -0.1242 N   0  0  0  0  0  0  0  0  0  0  0  0
   -2.3288   -0.6568   -0.8562 C   0  0  1  0  0  0  0  0  0  0  0  0
   -2.5279   -2.0701   -0.0275 C   0  0  0  0  0  0  0  0  0  0  0  0
   -3.2075    0.1866    0.2003 C   0  0  0  0  0  0  0  0  0  0  0  0
   -2.9745    0.0569    1.3957 O   0  0  0  0  0  0  0  0  0  0  0  0
   -4.5205    0.5404   -0.2096 N   0  0  0  0  0  0  0  0  0  0  0  0
   -5.6487    0.1571    0.8278 C   0  0  1  0  0  0  0  0  0  0  0  0
   -6.2837    1.6769    0.8551 C   0  0  0  0  0  0  0  0  0  0  0  0
   -7.0043    1.6732    2.1708 C   0  0  0  0  0  0  0  0  0  0  0  0
   -6.3085    1.7764    3.2272 O   0  0  0  0  0  0  0  0  0  0  0  0
   -8.1392    0.8662    2.3048 O   0  0  0  0  0  0  0  0  0  0  0  0
   -6.6551   -0.3458   -0.3308 C   0  0  0  0  0  0  0  0  0  0  0  0
   -6.8622    0.3640   -1.2591 O   0  0  0  0  0  0  0  0  0  0  0  0
   -6.4800   -1.8055   -0.6223 C   0  0  0  0  0  0  0  0  0  0  0  0
   -6.0792   -2.0157   -1.9173 F   0  0  0  0  0  0  0  0  0  0  0  0
  1  2  1  0
  2  3  1  0
  4  2  1  1
  4  5  1  0
  5  6  1  0
  6  7  2  0
  6  8  1  0
  8  9  1  0
  9 10  1  0
 10 11  2  0
 11 12  1  0
 12 13  2  0
 13 14  1  0
 14 15  2  0
  4 16  1  0
 16 17  2  0
 16 18  1  0
 19 18  1  1
 19 20  1  0
 19 21  1  0
 21 22  2  0
 21 23  1  0
 24 23  1  6
 24 25  1  0
 25 26  1  0
 26 27  2  0
 26 28  1  0
 24 29  1  0
 29 30  2  0
 29 31  1  0
 31 32  1  0
 15 10  1  0
M  END
>  <zinc_id>  (1) 
ZINC000025668028

>  <smiles>  (1) 
CC(C)[C@H](NC(=O)OCc1ccccc1)C(=O)N[C@@H](C)C(=O)N[C@@H](CC(=O)O)C(=O)CF

$$$$
