
     RDKit          3D

 39 39  0  0  0  0  0  0  0  0999 V2000
    7.4188    3.4349    0.7363 C   0  0  0  0  0  0  0  0  0  0  0  0
    8.2685    3.7102   -0.3068 O   0  0  0  0  0  0  0  0  0  0  0  0
    8.9442    2.5486   -0.7147 C   0  0  0  0  0  0  0  0  0  0  0  0
    7.9187    1.7369   -1.4840 C   0  0  0  0  0  0  0  0  0  0  0  0
    7.9340    0.3359   -0.8877 C   0  0  0  0  0  0  0  0  0  0  0  0
    6.9500    0.1881    0.1043 O   0  0  0  0  0  0  0  0  0  0  0  0
    5.8188   -0.5919   -0.1584 C   0  0  0  0  0  0  0  0  0  0  0  0
    4.5381   -0.1368    0.0529 C   0  0  0  0  0  0  0  0  0  0  0  0
    3.4845   -0.9976    0.3051 C   0  0  0  0  0  0  0  0  0  0  0  0
    2.0640   -0.5311    0.2291 C   0  0  0  0  0  0  0  0  0  0  0  0
    1.2777   -1.6409    1.1844 C   0  0  1  0  0  0  0  0  0  0  0  0
    0.2810   -0.4709    1.7857 C   0  0  0  0  0  0  0  0  0  0  0  0
   -1.0739   -0.6244    0.8754 C   0  0  2  0  0  0  0  0  0  0  0  0
   -0.5484    0.3756   -0.2373 N   0  0  0  0  0  0  0  0  0  0  0  0
   -1.8739    0.6069    1.8302 C   0  0  1  0  0  0  0  0  0  0  0  0
   -0.7878    1.6675    1.6128 O   0  0  0  0  0  0  0  0  0  0  0  0
   -2.7533    1.1325    0.5111 C   0  0  0  0  0  0  0  0  0  0  0  0
   -4.0227    0.1142    0.8620 C   0  0  2  0  0  0  0  0  0  0  0  0
   -4.7339    0.3429   -0.5903 C   0  0  0  0  0  0  0  0  0  0  0  0
   -3.9596    0.0542   -1.5570 O   0  0  0  0  0  0  0  0  0  0  0  0
   -5.8946   -0.5102   -0.5825 N   0  0  0  0  0  0  0  0  0  0  0  0
   -6.7718   -0.3686   -1.7264 C   0  0  0  0  0  0  0  0  0  0  0  0
   -8.0959    0.1439   -1.1714 C   0  0  0  0  0  0  0  0  0  0  0  0
   -9.2450   -0.2630   -2.0763 C   0  0  0  0  0  0  0  0  0  0  0  0
   -8.2619   -0.4588    0.2183 C   0  0  0  0  0  0  0  0  0  0  0  0
   -8.0940    1.6369   -1.0711 C   0  0  0  0  0  0  0  0  0  0  0  0
   -7.0226    2.3870   -1.6542 N   0  0  0  0  0  0  0  0  0  0  0  0
   -8.7425    2.1709   -0.1231 O   0  0  0  0  0  0  0  0  0  0  0  0
   -4.9176    1.3350    1.5448 C   0  0  0  0  0  0  0  0  0  0  0  0
   -4.4182    1.4592    2.9462 C   0  0  0  0  0  0  0  0  0  0  0  0
   -4.7453    2.5286    0.6825 C   0  0  0  0  0  0  0  0  0  0  0  0
    0.3080   -2.1557   -0.0602 C   0  0  0  0  0  0  0  0  0  0  0  0
    0.1127   -3.6004    0.3914 C   0  0  0  0  0  0  0  0  0  0  0  0
    1.1279   -2.1944   -1.2906 C   0  0  0  0  0  0  0  0  0  0  0  0
    3.8202   -2.3168    0.5672 C   0  0  0  0  0  0  0  0  0  0  0  0
    4.9219   -2.8128   -0.1046 C   0  0  0  0  0  0  0  0  0  0  0  0
    6.0086   -1.9637   -0.2240 C   0  0  0  0  0  0  0  0  0  0  0  0
    7.3073   -2.4425   -0.4295 O   0  0  0  0  0  0  0  0  0  0  0  0
    7.4581   -3.8297   -0.7313 C   0  0  0  0  0  0  0  0  0  0  0  0
  1  2  1  0
  2  3  1  0
  3  4  1  0
  4  5  1  0
  5  6  1  0
  6  7  1  0
  7  8  2  0
  8  9  1  0
  9 10  1  0
 11 10  1  6
 11 12  1  0
 13 12  1  1
 13 14  1  0
 13 15  1  0
 15 16  1  6
 15 17  1  0
 18 17  1  6
 18 19  1  0
 19 20  2  0
 19 21  1  0
 21 22  1  0
 22 23  1  0
 23 24  1  0
 23 25  1  0
 23 26  1  0
 26 27  1  0
 26 28  2  0
 18 29  1  0
 29 30  1  0
 29 31  1  0
 11 32  1  0
 32 33  1  0
 32 34  1  0
  9 35  2  0
 35 36  1  0
 36 37  2  0
 37 38  1  0
 38 39  1  0
 37  7  1  0
M  END
>  <zinc_id>  (1) 
ZINC000004393164

>  <smiles>  (1) 
COCCCOc1cc(C[C@@H](C[C@H](N)[C@@H](O)C[C@H](C(=O)NCC(C)(C)C(N)=O)C(C)C)C(C)C)ccc1OC

$$$$
