
     RDKit          3D

 66 70  0  0  0  0  0  0  0  0999 V2000
    7.4873   -3.3123   -1.4445 C   0  0  0  0  0  0  0  0  0  0  0  0
    6.6079   -4.6516   -1.7969 C   0  0  1  0  0  0  0  0  0  0  0  0
    7.6441   -5.6189   -1.2813 O   0  0  0  0  0  0  0  0  0  0  0  0
    5.6559   -4.6513   -0.3482 C   0  0  2  0  0  0  0  0  0  0  0  0
    5.0976   -3.2795   -0.8499 N   0  0  0  0  0  0  0  0  0  0  0  0
    4.3736   -2.4366   -0.0721 C   0  0  0  0  0  0  0  0  0  0  0  0
    4.8579   -2.2386    1.0429 O   0  0  0  0  0  0  0  0  0  0  0  0
    2.7641   -2.5847   -0.0448 C   0  0  2  0  0  0  0  0  0  0  0  0
    2.5698   -1.8577   -1.5168 C   0  0  0  0  0  0  0  0  0  0  0  0
    0.9501   -2.6314   -1.9029 S   0  0  0  0  0  0  0  0  0  0  0  0
    0.0420   -2.7183   -0.2498 S   0  0  0  0  0  0  0  0  0  0  0  0
   -0.9902   -3.2406    0.8752 C   0  0  0  0  0  0  0  0  0  0  0  0
   -1.8508   -1.8559    1.1585 C   0  0  2  0  0  0  0  0  0  0  0  0
   -3.1541   -2.6440    1.5926 N   0  0  0  0  0  0  0  0  0  0  0  0
   -3.5343   -3.7247    0.7796 C   0  0  0  0  0  0  0  0  0  0  0  0
   -2.7051   -4.3947    0.2281 O   0  0  0  0  0  0  0  0  0  0  0  0
   -5.0947   -4.0972    0.7190 C   0  0  2  0  0  0  0  0  0  0  0  0
   -4.8579   -5.5383    0.1135 N   0  0  0  0  0  0  0  0  0  0  0  0
   -5.2703   -3.4519   -0.7859 C   0  0  0  0  0  0  0  0  0  0  0  0
   -6.6519   -3.6668   -1.1925 C   0  0  0  0  0  0  0  0  0  0  0  0
   -7.0362   -4.9603   -1.4876 C   0  0  0  0  0  0  0  0  0  0  0  0
   -8.2918   -5.4456   -1.1347 C   0  0  0  0  0  0  0  0  0  0  0  0
   -9.2040   -4.5010   -0.6955 C   0  0  0  0  0  0  0  0  0  0  0  0
   -8.9112   -3.1527   -0.7335 C   0  0  0  0  0  0  0  0  0  0  0  0
   -7.6433   -2.7289   -1.0459 C   0  0  0  0  0  0  0  0  0  0  0  0
   -2.3202   -1.6904   -0.3669 C   0  0  0  0  0  0  0  0  0  0  0  0
   -2.0451   -2.3004   -1.3168 O   0  0  0  0  0  0  0  0  0  0  0  0
   -3.2392   -0.6618   -0.2280 N   0  0  0  0  0  0  0  0  0  0  0  0
   -2.4128    0.6596   -0.3962 C   0  0  1  0  0  0  0  0  0  0  0  0
   -3.7945    1.5152   -0.1476 C   0  0  0  0  0  0  0  0  0  0  0  0
   -3.4040    2.8953   -0.3142 C   0  0  0  0  0  0  0  0  0  0  0  0
   -2.7943    3.3823   -1.4460 C   0  0  0  0  0  0  0  0  0  0  0  0
   -2.4740    4.7192   -1.4381 C   0  0  0  0  0  0  0  0  0  0  0  0
   -2.4952    5.4339   -0.2473 C   0  0  0  0  0  0  0  0  0  0  0  0
   -1.9393    6.6992   -0.2953 O   0  0  0  0  0  0  0  0  0  0  0  0
   -3.2452    4.9558    0.8030 C   0  0  0  0  0  0  0  0  0  0  0  0
   -3.9174    3.7699    0.6162 C   0  0  0  0  0  0  0  0  0  0  0  0
   -1.9027    0.6864    1.1382 C   0  0  0  0  0  0  0  0  0  0  0  0
   -2.6847    0.9042    2.0300 O   0  0  0  0  0  0  0  0  0  0  0  0
   -1.0689    1.7185    0.6487 N   0  0  0  0  0  0  0  0  0  0  0  0
    0.4555    1.3943    0.4861 C   0  0  2  0  0  0  0  0  0  0  0  0
    0.6981    2.9715    0.9460 C   0  0  0  0  0  0  0  0  0  0  0  0
    0.4091    3.8700   -0.0908 C   0  0  0  0  0  0  0  0  0  0  0  0
   -0.3221    4.0477   -1.2545 C   0  0  0  0  0  0  0  0  0  0  0  0
    0.3546    5.0181   -1.9281 N   0  0  0  0  0  0  0  0  0  0  0  0
    0.8601    5.8554   -0.9880 C   0  0  0  0  0  0  0  0  0  0  0  0
    1.2572    7.1834   -0.9514 C   0  0  0  0  0  0  0  0  0  0  0  0
    1.5251    7.7407    0.2935 C   0  0  0  0  0  0  0  0  0  0  0  0
    0.6736    7.3721    1.3275 C   0  0  0  0  0  0  0  0  0  0  0  0
    0.3654    6.0140    1.3319 C   0  0  0  0  0  0  0  0  0  0  0  0
    0.6722    5.2012    0.2395 C   0  0  0  0  0  0  0  0  0  0  0  0
    0.6485    1.6482   -1.1043 C   0  0  0  0  0  0  0  0  0  0  0  0
   -0.1436    1.1972   -1.9055 O   0  0  0  0  0  0  0  0  0  0  0  0
    2.0802    1.6476   -1.1739 N   0  0  0  0  0  0  0  0  0  0  0  0
    2.7515    0.2149   -1.1766 C   0  0  1  0  0  0  0  0  0  0  0  0
    4.2812    0.8530   -1.1790 C   0  0  0  0  0  0  0  0  0  0  0  0
    4.3649    1.9462   -0.2571 C   0  0  0  0  0  0  0  0  0  0  0  0
    5.5169    2.3877    0.4081 C   0  0  0  0  0  0  0  0  0  0  0  0
    6.0565    2.0446    1.6943 C   0  0  0  0  0  0  0  0  0  0  0  0
    5.1461    1.7259    2.7688 N   0  0  0  0  0  0  0  0  0  0  0  0
    2.6909   -0.0212    0.3994 C   0  0  0  0  0  0  0  0  0  0  0  0
    3.0619    0.7446    1.2532 O   0  0  0  0  0  0  0  0  0  0  0  0
    2.5106   -1.2956    0.8083 N   0  0  0  0  0  0  0  0  0  0  0  0
    6.7549   -4.0753    0.6622 C   0  0  0  0  0  0  0  0  0  0  0  0
    6.3035   -4.4294    1.9950 N   0  0  0  0  0  0  0  0  0  0  0  0
    7.9104   -4.5604    0.6548 O   0  0  0  0  0  0  0  0  0  0  0  0
  2  1  1  1
  2  3  1  0
  2  4  1  0
  4  5  1  6
  5  6  1  0
  6  7  2  0
  8  6  1  6
  8  9  1  0
  9 10  1  0
 10 11  1  0
 11 12  1  0
 12 13  1  0
 13 14  1  1
 14 15  1  0
 15 16  2  0
 17 15  1  6
 17 18  1  0
 17 19  1  0
 19 20  1  0
 20 21  2  0
 21 22  1  0
 22 23  2  0
 23 24  1  0
 24 25  2  0
 13 26  1  0
 26 27  2  0
 26 28  1  0
 28 29  1  0
 29 30  1  1
 30 31  1  0
 31 32  2  0
 32 33  1  0
 33 34  2  0
 34 35  1  0
 34 36  1  0
 36 37  2  0
 29 38  1  0
 38 39  2  0
 38 40  1  0
 40 41  1  0
 41 42  1  1
 42 43  1  0
 43 44  2  0
 44 45  1  0
 45 46  1  0
 46 47  2  0
 47 48  1  0
 48 49  2  0
 49 50  1  0
 50 51  2  0
 41 52  1  0
 52 53  2  0
 52 54  1  0
 54 55  1  0
 55 56  1  1
 56 57  1  0
 57 58  1  0
 58 59  1  0
 59 60  1  0
 55 61  1  0
 61 62  2  0
 61 63  1  0
  4 64  1  0
 64 65  1  0
 64 66  2  0
 63  8  1  0
 25 20  1  0
 37 31  1  0
 51 43  1  0
 51 46  1  0
M  END
>  <zinc_id>  (1) 
ZINC000169289417

>  <smiles>  (1) 
C[C@@H](O)[C@H](NC(=O)[C@@H]1CSSC[C@H](NC(=O)[C@H](N)Cc2ccccc2)C(=O)N[C@@H](Cc2ccc(O)cc2)C(=O)N[C@H](Cc2c[nH]c3ccccc23)C(=O)N[C@@H](CCCCN)C(=O)N1)C(N)=O

$$$$
