5331010
  -OEChem-06112217103D

 37 40  0     0  0  0  0  0  0999 V2000
   -5.4188   -0.0256   -0.0674 S   0  0  0  0  0  0  0  0  0  0  0  0
    4.5847   -2.7434   -0.3120 O   0  0  0  0  0  0  0  0  0  0  0  0
   -5.8606   -0.6189    1.1792 O   0  0  0  0  0  0  0  0  0  0  0  0
   -5.5967    1.3841   -0.3535 O   0  0  0  0  0  0  0  0  0  0  0  0
    0.5175   -0.6297    0.1679 N   0  0  0  0  0  0  0  0  0  0  0  0
    1.1284   -1.8585    0.1959 N   0  0  0  0  0  0  0  0  0  0  0  0
    2.7538    3.6490    0.0688 N   0  0  0  0  0  0  0  0  0  0  0  0
    1.3481    3.9230    0.3212 N   0  0  0  0  0  0  0  0  0  0  0  0
    2.7313   -4.0796    0.0210 N   0  0  0  0  0  0  0  0  0  0  0  0
   -6.0208   -0.9443   -1.3721 N   0  0  0  0  0  0  0  0  0  0  0  0
    1.5145    0.3391    0.0658 C   0  0  0  0  0  0  0  0  0  0  0  0
    2.7975   -0.4076   -0.0779 C   0  0  0  0  0  0  0  0  0  0  0  0
    1.6052    1.6676    0.1293 C   0  0  0  0  0  0  0  0  0  0  0  0
    2.4876   -1.7171    0.0037 C   0  0  0  0  0  0  0  0  0  0  0  0
   -0.8888   -0.4846    0.1142 C   0  0  0  0  0  0  0  0  0  0  0  0
    2.8957    2.3574   -0.0279 C   0  0  0  0  0  0  0  0  0  0  0  0
    4.0674    0.2470   -0.2783 C   0  0  0  0  0  0  0  0  0  0  0  0
    4.1372    1.5876   -0.2607 C   0  0  0  0  0  0  0  0  0  0  0  0
   -1.4770    0.5425   -0.6437 C   0  0  0  0  0  0  0  0  0  0  0  0
   -1.7291   -1.3667    0.8152 C   0  0  0  0  0  0  0  0  0  0  0  0
    0.7135    2.7870    0.3596 C   0  0  0  0  0  0  0  0  0  0  0  0
   -3.6830   -0.2008    0.0029 C   0  0  0  0  0  0  0  0  0  0  0  0
    3.3719   -2.8648   -0.1121 C   0  0  0  0  0  0  0  0  0  0  0  0
   -2.8637    0.6833   -0.6990 C   0  0  0  0  0  0  0  0  0  0  0  0
   -3.1157   -1.2259    0.7600 C   0  0  0  0  0  0  0  0  0  0  0  0
    0.6381   -2.6988   -0.0791 H   0  0  0  0  0  0  0  0  0  0  0  0
    4.9675   -0.3319   -0.4403 H   0  0  0  0  0  0  0  0  0  0  0  0
    5.0684    2.1218   -0.4000 H   0  0  0  0  0  0  0  0  0  0  0  0
   -0.8733    1.2129   -1.2483 H   0  0  0  0  0  0  0  0  0  0  0  0
   -1.3102   -2.1707    1.4160 H   0  0  0  0  0  0  0  0  0  0  0  0
   -0.3542    2.6628    0.5657 H   0  0  0  0  0  0  0  0  0  0  0  0
   -3.2788    1.4758   -1.3152 H   0  0  0  0  0  0  0  0  0  0  0  0
   -3.7294   -1.9349    1.3082 H   0  0  0  0  0  0  0  0  0  0  0  0
    3.2574   -4.9449   -0.0482 H   0  0  0  0  0  0  0  0  0  0  0  0
    1.7413   -4.1800    0.2133 H   0  0  0  0  0  0  0  0  0  0  0  0
   -6.5515   -1.7961   -1.1525 H   0  0  0  0  0  0  0  0  0  0  0  0
   -6.3721   -0.4360   -2.1928 H   0  0  0  0  0  0  0  0  0  0  0  0
  1  3  2  0  0  0  0
  1  4  2  0  0  0  0
  1 10  1  0  0  0  0
  1 22  1  0  0  0  0
  2 23  2  0  0  0  0
  5  6  1  0  0  0  0
  5 11  1  0  0  0  0
  5 15  1  0  0  0  0
  6 14  1  0  0  0  0
  6 26  1  0  0  0  0
  7  8  1  0  0  0  0
  7 16  2  0  0  0  0
  8 21  2  0  0  0  0
  9 23  1  0  0  0  0
  9 34  1  0  0  0  0
  9 35  1  0  0  0  0
 10 36  1  0  0  0  0
 10 37  1  0  0  0  0
 11 12  1  0  0  0  0
 11 13  2  0  0  0  0
 12 14  2  0  0  0  0
 12 17  1  0  0  0  0
 13 16  1  0  0  0  0
 13 21  1  0  0  0  0
 14 23  1  0  0  0  0
 15 19  2  0  0  0  0
 15 20  1  0  0  0  0
 16 18  1  0  0  0  0
 17 18  2  0  0  0  0
 17 27  1  0  0  0  0
 18 28  1  0  0  0  0
 19 24  1  0  0  0  0
 19 29  1  0  0  0  0
 20 25  2  0  0  0  0
 20 30  1  0  0  0  0
 21 31  1  0  0  0  0
 22 24  2  0  0  0  0
 22 25  1  0  0  0  0
 24 32  1  0  0  0  0
 25 33  1  0  0  0  0
M  END
> <PUBCHEM_COMPOUND_CID>
5331010

> <PUBCHEM_CONFORMER_RMSD>
0.6

> <PUBCHEM_CONFORMER_DIVERSEORDER>
2
5
3
8
4
1
7
6

> <PUBCHEM_MMFF94_PARTIAL_CHARGES>
36
1 1.45
10 -0.98
11 0.1
13 0.03
14 0.11
15 0.1
16 0.42
17 -0.15
18 -0.14
19 -0.15
2 -0.57
20 -0.15
21 0.38
22 -0.01
23 0.62
24 -0.15
25 -0.15
26 0.4
27 0.15
28 0.15
29 0.15
3 -0.65
30 0.15
31 0.06
32 0.15
33 0.15
34 0.37
35 0.37
36 0.42
37 0.42
4 -0.65
5 -0.2
6 -0.5
7 -0.45
8 -0.45
9 -0.8

> <PUBCHEM_EFFECTIVE_ROTOR_COUNT>
3

> <PUBCHEM_PHARMACOPHORE_FEATURES>
12
1 10 donor
1 2 acceptor
1 3 acceptor
1 4 acceptor
1 6 donor
1 7 acceptor
1 8 acceptor
1 9 donor
5 5 6 11 12 14 rings
5 7 8 13 16 21 rings
6 11 12 13 16 17 18 rings
6 15 19 20 22 24 25 rings

> <PUBCHEM_HEAVY_ATOM_COUNT>
25

> <PUBCHEM_ATOM_DEF_STEREO_COUNT>
0

> <PUBCHEM_ATOM_UDEF_STEREO_COUNT>
0

> <PUBCHEM_BOND_DEF_STEREO_COUNT>
0

> <PUBCHEM_BOND_UDEF_STEREO_COUNT>
0

> <PUBCHEM_ISOTOPIC_ATOM_COUNT>
0

> <PUBCHEM_COMPONENT_COUNT>
1

> <PUBCHEM_CACTVS_TAUTO_COUNT>
6

> <PUBCHEM_CONFORMER_ID>
0051584200000002

> <PUBCHEM_MMFF94_ENERGY>
104.5723

> <PUBCHEM_FEATURE_SELFOVERLAP>
62.338

> <PUBCHEM_SHAPE_FINGERPRINT>
10411042 1 18194966232431142726
10595046 47 18271522109195285247
10622 236 17772441665050943391
10693767 8 18131079208278593990
10967382 1 18410857681327821864
12107183 9 18055079753343526561
12236239 1 17489873756063317481
12403259 226 18261388884941618885
12403259 415 17822006468229985981
12730499 353 18336554926868076395
12769317 202 18338793528184139425
12788726 201 17902234416930966162
13009979 54 17701829795109875546
13140716 1 18124871519861675872
13402501 40 18260546770345598540
13533116 47 18411984676514635051
13583140 156 18337962302253127187
13785724 45 17911815573813286287
138480 1 18410856525786687288
13955234 65 18412262869424266482
14178000 15 18340205181287382752
14790565 3 17975985576540030252
14866123 147 17041479410747782770
15042514 8 17329993491528454674
15081414 286 18411424998741205064
15250474 111 18130492137641411383
15927050 60 17980200005273056918
16992752 21 17905614303286310582
17844677 252 18340493279446470627
1813 80 17915471505952368470
18335252 114 18194391209757124077
19591789 44 16033241469130119194
20645477 70 18408600348942631855
20832881 197 18116997689377515779
21033648 29 17603854629627000341
21041028 32 18268429031950612212
21049683 271 18261407636937599596
21065198 57 18409451397318709947
21279426 13 18262796242898900453
21344244 78 18199733800114860970
21478907 32 17978229357627921146
22033318 11 17697634050839711457
221357 26 18335979770934091629
22182313 1 17749655343004874901
22289505 5 18409727339739415476
23559900 14 18409445890611720835
3004659 81 18041846095531462278
335352 9 18338517560168002620
3421961 26 18411698751482424290
4015057 19 18410287034867125683
46194498 28 17749394788466041348
474 4 18268429212144124865
495365 180 18198334246409308512
5104073 3 18260269633965917425
543358 83 18412549799120400817
59755656 215 18408889555271737364
6443956 14 18408889512395644406
7364860 26 18410012152311695338
7471813 234 18130499756353542553
8272917 22 18341336659971796470
9709674 26 18335142024783989579
9777508 108 17762619890529346554
9981440 41 17907007727033684688

> <PUBCHEM_SHAPE_MULTIPOLES>
470.84
11.45
4.06
0.81
17.54
0.43
0.02
-1.98
1.33
-6.79
-0.27
0.82
-0.08
0.51

> <PUBCHEM_SHAPE_SELFOVERLAP>
1039.325

> <PUBCHEM_SHAPE_VOLUME>
254.3

> <PUBCHEM_COORDINATE_TYPE>
2
5
10

$$$$
