
     RDKit          3D

 58 59  0  0  0  0  0  0  0  0999 V2000
   -4.7371    1.0961   -2.5070 C   0  0  0  0  0  0  0  0  0  0  0  0
   -4.1230    0.9994   -2.2948 C   0  0  0  0  0  0  0  0  0  0  0  0
   -3.2238   -0.3390   -2.1707 C   0  0  2  0  0  0  0  0  0  0  0  0
   -4.4979   -1.3292   -2.0287 C   0  0  0  0  0  0  0  0  0  0  0  0
   -2.9145   -0.1145   -0.4999 C   0  0  2  0  0  0  0  0  0  0  0  0
   -2.7501   -1.6583   -0.2519 N   0  0  0  0  0  0  0  0  0  0  0  0
   -1.4444   -1.8541   -0.8199 C   0  0  0  0  0  0  0  0  0  0  0  0
   -1.6145   -2.1384   -2.0543 O   0  0  0  0  0  0  0  0  0  0  0  0
   -0.4833   -3.0217   -0.2762 C   0  0  2  0  0  0  0  0  0  0  0  0
   -1.1824   -3.1485    1.2103 C   0  0  0  0  0  0  0  0  0  0  0  0
   -1.7284   -4.4322    1.2363 O   0  0  0  0  0  0  0  0  0  0  0  0
    0.6242   -2.0427    0.2861 N   0  0  0  0  0  0  0  0  0  0  0  0
    1.1269   -1.0777   -0.4737 C   0  0  0  0  0  0  0  0  0  0  0  0
    0.5083   -0.5527   -1.3953 O   0  0  0  0  0  0  0  0  0  0  0  0
    2.6732   -0.6821   -0.6575 C   0  0  1  0  0  0  0  0  0  0  0  0
    3.1932   -1.4665    0.6142 N   0  0  0  0  0  0  0  0  0  0  0  0
    4.5198   -1.0641    0.9986 C   0  0  0  0  0  0  0  0  0  0  0  0
    4.9229    0.0548    0.7718 O   0  0  0  0  0  0  0  0  0  0  0  0
    5.5499   -2.2818    1.2406 C   0  0  2  0  0  0  0  0  0  0  0  0
    5.8815   -1.7962    2.7768 C   0  0  0  0  0  0  0  0  0  0  0  0
    7.2723   -2.3929    2.8470 C   0  0  0  0  0  0  0  0  0  0  0  0
    7.8535   -2.2015    1.4729 C   0  0  0  0  0  0  0  0  0  0  0  0
    6.8213   -1.5338    0.6984 N   0  0  0  0  0  0  0  0  0  0  0  0
    6.7765   -1.2752   -0.6565 C   0  0  0  0  0  0  0  0  0  0  0  0
    6.4802   -2.2218   -1.4532 O   0  0  0  0  0  0  0  0  0  0  0  0
    8.0632   -0.6003   -1.3548 C   0  0  2  0  0  0  0  0  0  0  0  0
    9.0337   -1.8753   -0.9687 C   0  0  0  0  0  0  0  0  0  0  0  0
    8.5186    0.1973   -0.0742 N   0  0  0  0  0  0  0  0  0  0  0  0
    8.9354    1.5223   -0.4487 C   0  0  0  0  0  0  0  0  0  0  0  0
    7.9610    2.2143   -0.8812 O   0  0  0  0  0  0  0  0  0  0  0  0
    9.6294    2.1780    0.8567 C   0  0  1  0  0  0  0  0  0  0  0  0
   11.0068    1.4818    0.5377 N   0  0  0  0  0  0  0  0  0  0  0  0
   10.0558    3.5338    0.0295 C   0  0  0  0  0  0  0  0  0  0  0  0
    8.9387    4.4584    0.3533 C   0  0  0  0  0  0  0  0  0  0  0  0
    8.8786    5.6797   -0.3644 N   0  0  0  0  0  0  0  0  0  0  0  0
    8.2341    4.3626    1.3868 O   0  0  0  0  0  0  0  0  0  0  0  0
    2.9689   -1.9266   -1.6964 C   0  0  0  0  0  0  0  0  0  0  0  0
    2.1811   -1.6706   -2.9202 C   0  0  0  0  0  0  0  0  0  0  0  0
    2.6908   -3.1860   -1.0081 C   0  0  0  0  0  0  0  0  0  0  0  0
   -4.4352    0.0358   -0.0200 C   0  0  0  0  0  0  0  0  0  0  0  0
   -4.3125    1.2910    0.2408 O   0  0  0  0  0  0  0  0  0  0  0  0
   -4.9379   -0.7144    1.0142 N   0  0  0  0  0  0  0  0  0  0  0  0
   -4.3630   -1.2345    2.2351 C   0  0  0  0  0  0  0  0  0  0  0  0
   -5.3396   -0.7566    3.2599 C   0  0  0  0  0  0  0  0  0  0  0  0
   -6.6417   -0.6388    2.5809 C   0  0  0  0  0  0  0  0  0  0  0  0
   -6.3648   -1.3873    1.1344 C   0  0  1  0  0  0  0  0  0  0  0  0
   -7.2228   -0.2744    0.3638 C   0  0  0  0  0  0  0  0  0  0  0  0
   -6.7086    0.7341    0.0392 O   0  0  0  0  0  0  0  0  0  0  0  0
   -8.5789   -0.2338    0.2823 N   0  0  0  0  0  0  0  0  0  0  0  0
   -9.2786    1.1587   -0.0148 C   0  0  1  0  0  0  0  0  0  0  0  0
   -8.6927    1.8307    1.3666 C   0  0  0  0  0  0  0  0  0  0  0  0
   -9.2359    3.2026    1.4759 C   0  0  0  0  0  0  0  0  0  0  0  0
  -10.4101    3.5301    0.6739 C   0  0  0  0  0  0  0  0  0  0  0  0
  -11.5124    2.6915    0.4194 N   0  0  0  0  0  0  0  0  0  0  0  0
  -10.4983    4.7186    0.2344 O   0  0  0  0  0  0  0  0  0  0  0  0
   -8.1171    1.7901   -0.9435 C   0  0  0  0  0  0  0  0  0  0  0  0
   -7.8238    2.9945   -0.7805 O   0  0  0  0  0  0  0  0  0  0  0  0
   -8.1266    1.3673   -2.2760 O   0  0  0  0  0  0  0  0  0  0  0  0
  1  2  1  0
  3  2  1  1
  3  4  1  0
  3  5  1  0
  5  6  1  1
  6  7  1  0
  7  8  2  0
  9  7  1  6
  9 10  1  0
 10 11  1  0
  9 12  1  0
 12 13  1  0
 13 14  2  0
 15 13  1  1
 15 16  1  0
 16 17  1  0
 17 18  2  0
 19 17  1  6
 19 20  1  0
 20 21  1  0
 21 22  1  0
 22 23  1  0
 23 24  1  0
 24 25  2  0
 26 24  1  1
 26 27  1  0
 26 28  1  0
 28 29  1  0
 29 30  2  0
 31 29  1  6
 31 32  1  0
 31 33  1  0
 33 34  1  0
 34 35  1  0
 34 36  2  0
 15 37  1  0
 37 38  1  0
 37 39  1  0
  5 40  1  0
 40 41  2  0
 40 42  1  0
 42 43  1  0
 43 44  1  0
 44 45  1  0
 45 46  1  0
 46 47  1  6
 47 48  2  0
 47 49  1  0
 50 49  1  1
 50 51  1  0
 51 52  1  0
 52 53  1  0
 53 54  1  0
 53 55  2  0
 50 56  1  0
 56 57  2  0
 56 58  1  0
 23 19  1  0
 46 42  1  0
M  END
>  <zinc_id>  (1) 
ZINC000085540112

>  <smiles>  (1) 
CC[C@H](C)[C@H](NC(=O)[C@H](CO)NC(=O)[C@@H](NC(=O)[C@@H]1CCCN1C(=O)[C@H](C)NC(=O)[C@@H](N)CC(N)=O)C(C)C)C(=O)N1CCC[C@H]1C(=O)N[C@@H](CCC(N)=O)C(=O)O

$$$$
