
     RDKit          3D

 40 41  0  0  0  0  0  0  0  0999 V2000
   -5.2839    5.2773    0.1586 C   0  0  0  0  0  0  0  0  0  0  0  0
   -4.7808    4.3695   -1.1804 S   0  0  0  0  0  0  0  0  0  0  0  0
   -6.0395    3.1480   -1.5961 C   0  0  0  0  0  0  0  0  0  0  0  0
   -5.6824    1.7577   -1.1170 C   0  0  0  0  0  0  0  0  0  0  0  0
   -5.4159    1.9665    0.5244 C   0  0  2  0  0  0  0  0  0  0  0  0
   -4.8228    0.4822    0.6583 N   0  0  0  0  0  0  0  0  0  0  0  0
   -3.4161    0.4401    0.4729 C   0  0  0  0  0  0  0  0  0  0  0  0
   -2.9157    1.3186   -0.2942 O   0  0  0  0  0  0  0  0  0  0  0  0
   -3.0155   -1.0295   -0.1496 C   0  0  2  0  0  0  0  0  0  0  0  0
   -3.3163   -1.7820    1.3154 C   0  0  0  0  0  0  0  0  0  0  0  0
   -4.0726   -2.9791    0.8284 C   0  0  0  0  0  0  0  0  0  0  0  0
   -5.4546   -3.0226    0.8474 C   0  0  0  0  0  0  0  0  0  0  0  0
   -6.1511   -3.7198   -0.1124 C   0  0  0  0  0  0  0  0  0  0  0  0
   -5.5114   -4.5883   -0.9732 C   0  0  0  0  0  0  0  0  0  0  0  0
   -4.1795   -4.8546   -0.6845 C   0  0  0  0  0  0  0  0  0  0  0  0
   -3.4606   -3.9089    0.0073 C   0  0  0  0  0  0  0  0  0  0  0  0
   -1.4722   -0.8139    0.2293 N   0  0  0  0  0  0  0  0  0  0  0  0
   -0.8883   -0.1062   -0.8734 C   0  0  0  0  0  0  0  0  0  0  0  0
   -1.1865   -0.4245   -2.0580 O   0  0  0  0  0  0  0  0  0  0  0  0
    0.4448    0.5036   -0.6506 C   0  0  0  0  0  0  0  0  0  0  0  0
    1.2419   -0.5910   -0.1020 N   0  0  0  0  0  0  0  0  0  0  0  0
    2.5042   -0.1995    0.4433 C   0  0  0  0  0  0  0  0  0  0  0  0
    3.1397    0.6293   -0.2767 O   0  0  0  0  0  0  0  0  0  0  0  0
    3.2241   -1.1109    1.3854 C   0  0  0  0  0  0  0  0  0  0  0  0
    4.3701   -1.5882    0.6268 N   0  0  0  0  0  0  0  0  0  0  0  0
    5.6204   -1.5975    1.2426 C   0  0  0  0  0  0  0  0  0  0  0  0
    5.9362   -0.8241    2.1857 O   0  0  0  0  0  0  0  0  0  0  0  0
    6.9019   -1.9349    0.2714 C   0  0  1  0  0  0  0  0  0  0  0  0
    6.1401   -3.1429   -0.4649 N   0  0  0  0  0  0  0  0  0  0  0  0
    6.4144   -0.8417   -0.9031 C   0  0  0  0  0  0  0  0  0  0  0  0
    6.7483    0.4573   -0.2333 C   0  0  0  0  0  0  0  0  0  0  0  0
    6.0539    1.6167   -0.5626 C   0  0  0  0  0  0  0  0  0  0  0  0
    6.6680    2.8564   -0.6454 C   0  0  0  0  0  0  0  0  0  0  0  0
    8.0202    2.9642   -0.3828 C   0  0  0  0  0  0  0  0  0  0  0  0
    8.8237    3.8195   -1.1245 O   0  0  0  0  0  0  0  0  0  0  0  0
    8.5949    1.8903    0.2841 C   0  0  0  0  0  0  0  0  0  0  0  0
    7.9648    0.6632    0.3852 C   0  0  0  0  0  0  0  0  0  0  0  0
   -6.9278    1.4335    0.8877 C   0  0  0  0  0  0  0  0  0  0  0  0
   -7.8190    2.1534    0.3422 O   0  0  0  0  0  0  0  0  0  0  0  0
   -6.9991    1.3126    2.2728 O   0  0  0  0  0  0  0  0  0  0  0  0
  1  2  1  0
  2  3  1  0
  3  4  1  0
  5  4  1  6
  5  6  1  0
  6  7  1  0
  7  8  2  0
  9  7  1  1
  9 10  1  0
 10 11  1  0
 11 12  2  0
 12 13  1  0
 13 14  2  0
 14 15  1  0
 15 16  2  0
  9 17  1  0
 17 18  1  0
 18 19  2  0
 18 20  1  0
 20 21  1  0
 21 22  1  0
 22 23  2  0
 22 24  1  0
 24 25  1  0
 25 26  1  0
 26 27  2  0
 28 26  1  1
 28 29  1  0
 28 30  1  0
 30 31  1  0
 31 32  2  0
 32 33  1  0
 33 34  2  0
 34 35  1  0
 34 36  1  0
 36 37  2  0
  5 38  1  0
 38 39  2  0
 38 40  1  0
 16 11  1  0
 37 31  1  0
M  END
>  <zinc_id>  (1) 
ZINC000004102171

>  <smiles>  (1) 
CSCC[C@H](NC(=O)[C@H](Cc1ccccc1)NC(=O)CNC(=O)CNC(=O)[C@@H](N)Cc1ccc(O)cc1)C(=O)O

$$$$
