
     RDKit          3D

 50 51  0  0  0  0  0  0  0  0999 V2000
   -2.1190    2.3965   -3.4184 C   0  0  0  0  0  0  0  0  0  0  0  0
   -1.4744    2.4494   -2.1399 C   0  0  0  0  0  0  0  0  0  0  0  0
   -2.6728    1.8929   -1.1587 C   0  0  2  0  0  0  0  0  0  0  0  0
   -2.0214    2.5888    0.1737 C   0  0  0  0  0  0  0  0  0  0  0  0
   -1.9729    0.3278   -1.0119 C   0  0  1  0  0  0  0  0  0  0  0  0
   -0.8961    0.7505    0.2804 C   0  0  1  0  0  0  0  0  0  0  0  0
   -0.3726   -0.8167    0.4975 C   0  0  0  0  0  0  0  0  0  0  0  0
    0.6050   -0.5540    1.5992 C   0  0  0  0  0  0  0  0  0  0  0  0
    0.0613   -0.1511    2.6727 O   0  0  0  0  0  0  0  0  0  0  0  0
    2.0386   -0.5793    1.4395 N   0  0  0  0  0  0  0  0  0  0  0  0
    2.6712   -1.2652    2.5699 C   0  0  0  0  0  0  0  0  0  0  0  0
    3.1106   -0.1438    3.5103 C   0  0  0  0  0  0  0  0  0  0  0  0
    3.9212    0.5263    2.4282 C   0  0  0  0  0  0  0  0  0  0  0  0
    2.6222    0.8932    1.4748 C   0  0  1  0  0  0  0  0  0  0  0  0
    3.5983    0.7465    0.0363 C   0  0  2  0  0  0  0  0  0  0  0  0
    2.4312    0.2442   -0.7896 O   0  0  0  0  0  0  0  0  0  0  0  0
    2.4379    1.0302   -1.9540 C   0  0  0  0  0  0  0  0  0  0  0  0
    4.1450   -0.8499    0.4114 C   0  0  1  0  0  0  0  0  0  0  0  0
    4.2871   -1.2738   -1.1721 C   0  0  0  0  0  0  0  0  0  0  0  0
    5.6803   -0.3756    0.5000 C   0  0  0  0  0  0  0  0  0  0  0  0
    6.1282    0.3451   -0.3861 O   0  0  0  0  0  0  0  0  0  0  0  0
    6.5179   -1.1604    1.3243 N   0  0  0  0  0  0  0  0  0  0  0  0
    7.6900   -0.4924    1.8483 C   0  0  0  0  0  0  0  0  0  0  0  0
    8.0466    0.7532    1.0762 C   0  0  0  0  0  0  0  0  0  0  0  0
    9.3672    0.5570    0.4224 C   0  0  0  0  0  0  0  0  0  0  0  0
   10.3927    1.4523    0.5135 C   0  0  0  0  0  0  0  0  0  0  0  0
   11.5655    1.2303   -0.1726 C   0  0  0  0  0  0  0  0  0  0  0  0
   11.5381    0.2091   -1.1106 C   0  0  0  0  0  0  0  0  0  0  0  0
   10.5986   -0.8054   -1.0527 C   0  0  0  0  0  0  0  0  0  0  0  0
    9.5929   -0.7087   -0.1042 C   0  0  0  0  0  0  0  0  0  0  0  0
    0.2182    1.0327   -0.7429 O   0  0  0  0  0  0  0  0  0  0  0  0
    0.2595   -0.1210   -1.5458 C   0  0  0  0  0  0  0  0  0  0  0  0
   -3.1622   -0.1302   -0.1121 N   0  0  0  0  0  0  0  0  0  0  0  0
   -2.9770   -1.0716    0.9204 C   0  0  0  0  0  0  0  0  0  0  0  0
   -4.3322   -0.1206   -0.9442 C   0  0  0  0  0  0  0  0  0  0  0  0
   -5.0819    0.8513   -1.0397 O   0  0  0  0  0  0  0  0  0  0  0  0
   -5.0443   -1.5916   -1.1245 C   0  0  1  0  0  0  0  0  0  0  0  0
   -6.1849   -1.2542   -0.0521 N   0  0  0  0  0  0  0  0  0  0  0  0
   -7.3008   -0.5668   -0.3682 C   0  0  0  0  0  0  0  0  0  0  0  0
   -7.6012   -0.3499   -1.5451 O   0  0  0  0  0  0  0  0  0  0  0  0
   -7.7673    0.6222    0.6712 C   0  0  2  0  0  0  0  0  0  0  0  0
   -8.0433   -0.4941    1.8938 C   0  0  0  0  0  0  0  0  0  0  0  0
   -8.7230    0.4381    2.8938 C   0  0  0  0  0  0  0  0  0  0  0  0
   -6.6419   -0.6997    2.4689 C   0  0  0  0  0  0  0  0  0  0  0  0
   -9.2979    0.5483    0.1964 N   0  0  0  0  0  0  0  0  0  0  0  0
   -9.3762    1.3545   -0.9753 C   0  0  0  0  0  0  0  0  0  0  0  0
   -9.6114   -0.8192    0.0708 C   0  0  0  0  0  0  0  0  0  0  0  0
   -5.9161   -1.1040   -2.4816 C   0  0  0  0  0  0  0  0  0  0  0  0
   -4.8545   -0.4239   -3.3419 C   0  0  0  0  0  0  0  0  0  0  0  0
   -6.0800   -2.4708   -3.1500 C   0  0  0  0  0  0  0  0  0  0  0  0
  1  2  1  0
  3  2  1  6
  3  4  1  0
  3  5  1  0
  5  6  1  0
  6  7  1  1
  7  8  1  0
  8  9  2  0
  8 10  1  0
 10 11  1  0
 11 12  1  0
 12 13  1  0
 14 13  1  1
 14 15  1  0
 15 16  1  6
 16 17  1  0
 15 18  1  0
 18 19  1  6
 18 20  1  0
 20 21  2  0
 20 22  1  0
 22 23  1  0
 23 24  1  0
 24 25  1  0
 25 26  2  0
 26 27  1  0
 27 28  2  0
 28 29  1  0
 29 30  2  0
  6 31  1  0
 31 32  1  0
  5 33  1  1
 33 34  1  0
 33 35  1  0
 35 36  2  0
 37 35  1  1
 37 38  1  0
 38 39  1  0
 39 40  2  0
 41 39  1  6
 41 42  1  0
 42 43  1  0
 42 44  1  0
 41 45  1  0
 45 46  1  0
 45 47  1  0
 37 48  1  0
 48 49  1  0
 48 50  1  0
 14 10  1  0
 30 25  1  0
M  END
>  <zinc_id>  (1) 
ZINC000003951627

>  <smiles>  (1) 
CC[C@H](C)[C@@H]([C@@H](CC(=O)N1CCC[C@H]1[C@H](OC)[C@@H](C)C(=O)NCCc1ccccc1)OC)N(C)C(=O)[C@@H](NC(=O)[C@H](C(C)C)N(C)C)C(C)C

$$$$
