
     RDKit          3D

 46 45  0  0  0  0  0  0  0  0999 V2000
    9.1960   -0.5717    3.0735 C   0  0  0  0  0  0  0  0  0  0  0  0
    9.5077   -0.9538    2.4521 S   0  0  0  0  0  0  0  0  0  0  0  0
    8.7296   -1.4239    0.8710 C   0  0  0  0  0  0  0  0  0  0  0  0
    8.1044   -0.1394    0.3369 C   0  0  0  0  0  0  0  0  0  0  0  0
    7.2072   -0.7963   -0.8926 C   0  0  2  0  0  0  0  0  0  0  0  0
    7.5426    0.4195   -1.8555 N   0  0  0  0  0  0  0  0  0  0  0  0
    7.0143    0.2274   -3.1674 C   0  0  0  0  0  0  0  0  0  0  0  0
    7.3551   -0.8520   -3.7347 O   0  0  0  0  0  0  0  0  0  0  0  0
    5.8474   -0.1305   -0.3265 C   0  0  0  0  0  0  0  0  0  0  0  0
    5.6500    1.0486   -0.3961 O   0  0  0  0  0  0  0  0  0  0  0  0
    5.2423   -0.9704    0.6046 N   0  0  0  0  0  0  0  0  0  0  0  0
    4.1584   -0.3455    1.5731 C   0  0  1  0  0  0  0  0  0  0  0  0
    5.1539    0.9027    2.0143 C   0  0  0  0  0  0  0  0  0  0  0  0
    5.1433    0.7856    3.5064 C   0  0  0  0  0  0  0  0  0  0  0  0
    5.5337   -0.2462    4.1150 O   0  0  0  0  0  0  0  0  0  0  0  0
    4.2613    1.6263    4.1910 O   0  0  0  0  0  0  0  0  0  0  0  0
    3.4637    0.5256    0.3887 C   0  0  0  0  0  0  0  0  0  0  0  0
    2.6844    1.4089    0.7945 O   0  0  0  0  0  0  0  0  0  0  0  0
    2.9773   -0.3448   -0.6290 N   0  0  0  0  0  0  0  0  0  0  0  0
    2.0257    0.1350   -1.6301 C   0  0  0  0  0  0  0  0  0  0  0  0
    0.7779   -0.6316   -1.3179 C   0  0  0  0  0  0  0  0  0  0  0  0
    0.6002   -1.7059   -1.9681 O   0  0  0  0  0  0  0  0  0  0  0  0
    0.2910   -0.4648    0.0195 N   0  0  0  0  0  0  0  0  0  0  0  0
   -1.0197   -1.3118    0.3053 C   0  0  1  0  0  0  0  0  0  0  0  0
   -1.1970   -0.6041    1.7958 C   0  0  0  0  0  0  0  0  0  0  0  0
   -1.6750   -1.8881    2.9403 S   0  0  0  0  0  0  0  0  0  0  0  0
   -1.9527   -0.2273   -0.4470 C   0  0  0  0  0  0  0  0  0  0  0  0
   -1.9548    0.9283   -0.0585 O   0  0  0  0  0  0  0  0  0  0  0  0
   -3.0396   -0.6507   -1.2206 N   0  0  0  0  0  0  0  0  0  0  0  0
   -4.4098   -0.4947   -0.4308 C   0  0  1  0  0  0  0  0  0  0  0  0
   -4.1545    1.1058   -0.0906 C   0  0  0  0  0  0  0  0  0  0  0  0
   -4.6956    1.3672    1.2507 C   0  0  0  0  0  0  0  0  0  0  0  0
   -5.0167    0.2663    2.1247 C   0  0  0  0  0  0  0  0  0  0  0  0
   -5.3054    0.5765    3.3241 O   0  0  0  0  0  0  0  0  0  0  0  0
   -4.7846   -1.0803    1.9625 O   0  0  0  0  0  0  0  0  0  0  0  0
   -5.2759   -0.2325   -1.7778 C   0  0  0  0  0  0  0  0  0  0  0  0
   -5.5920    0.9135   -2.0805 O   0  0  0  0  0  0  0  0  0  0  0  0
   -6.2670   -1.2068   -1.8564 N   0  0  0  0  0  0  0  0  0  0  0  0
   -7.7134   -0.8514   -2.3847 C   0  0  1  0  0  0  0  0  0  0  0  0
   -8.0067    0.2406   -1.1746 C   0  0  0  0  0  0  0  0  0  0  0  0
   -8.3769   -0.5565    0.0277 C   0  0  0  0  0  0  0  0  0  0  0  0
   -7.8300    0.0917    1.2787 C   0  0  0  0  0  0  0  0  0  0  0  0
   -7.9878   -1.9984   -0.0202 C   0  0  0  0  0  0  0  0  0  0  0  0
   -7.1868    0.3091   -3.3969 C   0  0  0  0  0  0  0  0  0  0  0  0
   -6.8475   -0.2836   -4.4686 O   0  0  0  0  0  0  0  0  0  0  0  0
   -8.1780    1.2752   -3.6254 O   0  0  0  0  0  0  0  0  0  0  0  0
  1  2  1  0
  2  3  1  0
  3  4  1  0
  5  4  1  1
  5  6  1  0
  6  7  1  0
  7  8  2  0
  5  9  1  0
  9 10  2  0
  9 11  1  0
 12 11  1  6
 12 13  1  0
 13 14  1  0
 14 15  2  0
 14 16  1  0
 12 17  1  0
 17 18  2  0
 17 19  1  0
 19 20  1  0
 20 21  1  0
 21 22  2  0
 21 23  1  0
 24 23  1  6
 24 25  1  0
 25 26  1  0
 24 27  1  0
 27 28  2  0
 27 29  1  0
 30 29  1  6
 30 31  1  0
 31 32  1  0
 32 33  1  0
 33 34  2  0
 33 35  1  0
 30 36  1  0
 36 37  2  0
 36 38  1  0
 39 38  1  1
 39 40  1  0
 40 41  1  0
 41 42  1  0
 41 43  1  0
 39 44  1  0
 44 45  2  0
 44 46  1  0
M  END
>  <zinc_id>  (1) 
ZINC000068077856

>  <smiles>  (1) 
CSCC[C@H](NC=O)C(=O)N[C@@H](CC(=O)O)C(=O)NCC(=O)N[C@@H](CS)C(=O)N[C@@H](CCC(=O)O)C(=O)N[C@@H](CC(C)C)C(=O)O

$$$$
