
  Mrv1652306231722422D          

 72 75  0  0  1  0            999 V2000
   -3.7252    7.7913    0.0000 C   0  0  0  0  0  0  0  0  0  0  0  0
   -3.3266    8.5136    0.0000 C   0  0  0  0  0  0  0  0  0  0  0  0
   -2.5018    8.5296    0.0000 C   0  0  0  0  0  0  0  0  0  0  0  0
   -2.0756    7.8232    0.0000 C   0  0  0  0  0  0  0  0  0  0  0  0
   -2.4742    7.1009    0.0000 C   0  0  0  0  0  0  0  0  0  0  0  0
   -3.2990    7.0849    0.0000 C   0  0  0  0  0  0  0  0  0  0  0  0
   -1.2507    7.8391    0.0000 C   0  0  0  0  0  0  0  0  0  0  0  0
   -0.8245    7.1327    0.0000 C   0  0  1  0  0  0  0  0  0  0  0  0
   -0.4259    7.8550    0.0000 C   0  0  0  0  0  0  0  0  0  0  0  0
   -0.8521    8.5614    0.0000 O   0  0  0  0  0  0  0  0  0  0  0  0
    0.3990    7.8710    0.0000 N   0  0  0  0  0  0  0  0  0  0  0  0
    0.8252    7.1646    0.0000 C   0  0  2  0  0  0  0  0  0  0  0  0
    0.4266    6.4423    0.0000 C   0  0  0  0  0  0  0  0  0  0  0  0
   -0.3983    6.4264    0.0000 O   0  0  0  0  0  0  0  0  0  0  0  0
    0.8528    5.7359    0.0000 N   0  0  0  0  0  0  0  0  0  0  0  0
    0.4542    5.0136    0.0000 C   0  0  2  0  0  0  0  0  0  0  0  0
    0.8804    4.3073    0.0000 C   0  0  0  0  0  0  0  0  0  0  0  0
    1.7052    4.3232    0.0000 O   0  0  0  0  0  0  0  0  0  0  0  0
    0.4818    3.5850    0.0000 N   0  0  0  0  0  0  0  0  0  0  0  0
    0.9080    2.8786    0.0000 C   0  0  1  0  0  0  0  0  0  0  0  0
    0.5094    2.1563    0.0000 C   0  0  0  0  0  0  0  0  0  0  0  0
   -0.3155    2.1403    0.0000 S   0  0  0  0  0  0  0  0  0  0  0  0
   -0.7417    2.8467    0.0000 S   0  0  0  0  0  0  0  0  0  0  0  0
   -1.5665    2.8308    0.0000 C   0  0  0  0  0  0  0  0  0  0  0  0
   -1.9928    3.5372    0.0000 C   0  0  1  0  0  0  0  0  0  0  0  0
   -1.5941    4.2595    0.0000 C   0  0  0  0  0  0  0  0  0  0  0  0
   -0.7693    4.2754    0.0000 O   0  0  0  0  0  0  0  0  0  0  0  0
   -2.0204    4.9658    0.0000 N   0  0  0  0  0  0  0  0  0  0  0  0
   -1.6217    5.6881    0.0000 C   0  0  2  0  0  0  0  0  0  0  0  0
   -2.0480    6.3945    0.0000 C   0  0  0  0  0  0  0  0  0  0  0  0
   -2.8728    6.3786    0.0000 O   0  0  0  0  0  0  0  0  0  0  0  0
   -1.6493    7.1168    0.0000 N   0  0  0  0  0  0  0  0  0  0  0  0
   -2.4466    5.6722    0.0000 C   0  0  0  0  0  0  0  0  0  0  0  0
   -2.8452    4.9499    0.0000 C   0  0  0  0  0  0  0  0  0  0  0  0
   -2.4190    4.2435    0.0000 C   0  0  0  0  0  0  0  0  0  0  0  0
   -2.8176    3.5212    0.0000 C   0  0  0  0  0  0  0  0  0  0  0  0
   -3.6425    3.5053    0.0000 C   0  0  0  0  0  0  0  0  0  0  0  0
   -4.0687    4.2117    0.0000 C   0  0  0  0  0  0  0  0  0  0  0  0
   -3.6701    4.9340    0.0000 C   0  0  0  0  0  0  0  0  0  0  0  0
   -4.0411    2.7830    0.0000 O   0  0  0  0  0  0  0  0  0  0  0  0
   -2.6507    3.0394    0.0000 N   0  0  0  0  0  0  0  0  0  0  0  0
    1.7328    2.8945    0.0000 C   0  0  0  0  0  0  0  0  0  0  0  0
    2.1315    3.6168    0.0000 O   0  0  0  0  0  0  0  0  0  0  0  0
    2.1591    2.1881    0.0000 N   0  0  0  0  0  0  0  0  0  0  0  0
    1.8381    1.4281    0.0000 C   0  0  0  0  0  0  0  0  0  0  0  0
    2.4618    0.8880    0.0000 C   0  0  0  0  0  0  0  0  0  0  0  0
    3.1681    1.3143    0.0000 C   0  0  0  0  0  0  0  0  0  0  0  0
    2.9811    2.1178    0.0000 C   0  0  1  0  0  0  0  0  0  0  0  0
    3.5211    2.7414    0.0000 C   0  0  0  0  0  0  0  0  0  0  0  0
    3.2511    3.5210    0.0000 O   0  0  0  0  0  0  0  0  0  0  0  0
    4.3313    2.5855    0.0000 N   0  0  0  0  0  0  0  0  0  0  0  0
    4.8714    3.2091    0.0000 C   0  0  1  0  0  0  0  0  0  0  0  0
    4.6013    3.9887    0.0000 C   0  0  0  0  0  0  0  0  0  0  0  0
    3.7912    4.1446    0.0000 C   0  0  0  0  0  0  0  0  0  0  0  0
    3.5211    4.9242    0.0000 C   0  0  0  0  0  0  0  0  0  0  0  0
    2.7110    5.0801    0.0000 N   0  0  0  0  0  0  0  0  0  0  0  0
    5.6815    3.0532    0.0000 C   0  0  0  0  0  0  0  0  0  0  0  0
    5.9516    2.2737    0.0000 O   0  0  0  0  0  0  0  0  0  0  0  0
    6.2216    3.6769    0.0000 N   0  0  0  0  0  0  0  0  0  0  0  0
    7.0317    3.5210    0.0000 C   0  0  0  0  0  0  0  0  0  0  0  0
    7.5718    4.1446    0.0000 C   0  0  0  0  0  0  0  0  0  0  0  0
    8.3820    3.9887    0.0000 O   0  0  0  0  0  0  0  0  0  0  0  0
    7.3018    4.9242    0.0000 N   0  0  0  0  0  0  0  0  0  0  0  0
    1.2790    5.0296    0.0000 C   0  0  0  0  0  0  0  0  0  0  0  0
    1.6777    5.7519    0.0000 C   0  0  0  0  0  0  0  0  0  0  0  0
    1.2514    6.4582    0.0000 O   0  0  0  0  0  0  0  0  0  0  0  0
    2.5025    5.7678    0.0000 N   0  0  0  0  0  0  0  0  0  0  0  0
    1.6501    7.1805    0.0000 C   0  0  0  0  0  0  0  0  0  0  0  0
    2.0487    7.9028    0.0000 C   0  0  0  0  0  0  0  0  0  0  0  0
    2.8735    7.9188    0.0000 C   0  0  0  0  0  0  0  0  0  0  0  0
    3.2997    7.2124    0.0000 O   0  0  0  0  0  0  0  0  0  0  0  0
    3.2722    8.6411    0.0000 N   0  0  0  0  0  0  0  0  0  0  0  0
  1  2  2  0  0  0  0
  2  3  1  0  0  0  0
  3  4  2  0  0  0  0
  4  5  1  0  0  0  0
  5  6  2  0  0  0  0
  1  6  1  0  0  0  0
  4  7  1  0  0  0  0
  8  7  1  6  0  0  0
  8  9  1  0  0  0  0
  9 10  2  0  0  0  0
  9 11  1  0  0  0  0
 11 12  1  0  0  0  0
 12 13  1  0  0  0  0
 13 14  2  0  0  0  0
 13 15  1  0  0  0  0
 15 16  1  0  0  0  0
 16 17  1  0  0  0  0
 17 18  2  0  0  0  0
 17 19  1  0  0  0  0
 19 20  1  0  0  0  0
 20 21  1  0  0  0  0
 21 22  1  0  0  0  0
 22 23  1  0  0  0  0
 23 24  1  0  0  0  0
 24 25  1  0  0  0  0
 25 26  1  0  0  0  0
 26 27  2  0  0  0  0
 26 28  1  0  0  0  0
 28 29  1  0  0  0  0
 29 30  1  0  0  0  0
 30 31  2  0  0  0  0
 30 32  1  0  0  0  0
  8 32  1  0  0  0  0
 29 33  1  6  0  0  0
 33 34  1  0  0  0  0
 34 35  2  0  0  0  0
 35 36  1  0  0  0  0
 36 37  2  0  0  0  0
 37 38  1  0  0  0  0
 38 39  2  0  0  0  0
 34 39  1  0  0  0  0
 37 40  1  0  0  0  0
 25 41  1  6  0  0  0
 20 42  1  6  0  0  0
 42 43  2  0  0  0  0
 42 44  1  0  0  0  0
 44 45  1  0  0  0  0
 45 46  1  0  0  0  0
 46 47  1  0  0  0  0
 47 48  1  0  0  0  0
 44 48  1  0  0  0  0
 48 49  1  6  0  0  0
 49 50  2  0  0  0  0
 49 51  1  0  0  0  0
 52 51  1  1  0  0  0
 52 53  1  0  0  0  0
 53 54  1  0  0  0  0
 54 55  1  0  0  0  0
 55 56  1  0  0  0  0
 52 57  1  0  0  0  0
 57 58  2  0  0  0  0
 57 59  1  0  0  0  0
 59 60  1  0  0  0  0
 60 61  1  0  0  0  0
 61 62  2  0  0  0  0
 61 63  1  0  0  0  0
 16 64  1  6  0  0  0
 64 65  1  0  0  0  0
 65 66  2  0  0  0  0
 65 67  1  0  0  0  0
 12 68  1  1  0  0  0
 68 69  1  0  0  0  0
 69 70  1  0  0  0  0
 70 71  2  0  0  0  0
 70 72  1  0  0  0  0
M  END
> <DATABASE_ID>
DB13464

> <DATABASE_NAME>
drugbank

> <SMILES>
NCCC[C@H](NC(=O)[C@@H]1CCCN1C(=O)[C@@H]1CSSC[C@H](N)C(=O)N[C@@H](CC2=CC=C(O)C=C2)C(=O)N[C@@H](CC2=CC=CC=C2)C(=O)N[C@@H](CCC(N)=O)C(=O)N[C@@H](CC(N)=O)C(=O)N1)C(=O)NCC(N)=O

> <INCHI_IDENTIFIER>
InChI=1S/C45H63N13O12S2/c46-16-4-8-28(39(64)51-21-37(50)62)53-44(69)34-9-5-17-58(34)45(70)33-23-72-71-22-27(47)38(63)54-30(19-25-10-12-26(59)13-11-25)42(67)55-31(18-24-6-2-1-3-7-24)41(66)52-29(14-15-35(48)60)40(65)56-32(20-36(49)61)43(68)57-33/h1-3,6-7,10-13,27-34,59H,4-5,8-9,14-23,46-47H2,(H2,48,60)(H2,49,61)(H2,50,62)(H,51,64)(H,52,66)(H,53,69)(H,54,63)(H,55,67)(H,56,65)(H,57,68)/t27-,28-,29-,30-,31-,32-,33-,34-/m0/s1

> <INCHI_KEY>
MUNMIGOEDGHVLE-LGYYRGKSSA-N

> <FORMULA>
C45H63N13O12S2

> <MOLECULAR_WEIGHT>
1042.2

> <EXACT_MASS>
1041.416056869

> <JCHEM_ACCEPTOR_COUNT>
14

> <JCHEM_ATOM_COUNT>
135

> <JCHEM_AVERAGE_POLARIZABILITY>
103.78239886378618

> <JCHEM_BIOAVAILABILITY>
0

> <JCHEM_DONOR_COUNT>
13

> <JCHEM_FORMAL_CHARGE>
0

> <JCHEM_GHOSE_FILTER>
0

> <JCHEM_IUPAC>
(2S)-5-amino-2-{[(2S)-1-[(4R,7S,10S,13S,16S,19R)-19-amino-13-benzyl-10-(2-carbamoylethyl)-7-(carbamoylmethyl)-16-[(4-hydroxyphenyl)methyl]-6,9,12,15,18-pentaoxo-1,2-dithia-5,8,11,14,17-pentaazacycloicosane-4-carbonyl]pyrrolidin-2-yl]formamido}-N-(carbamoylmethyl)pentanamide

> <ALOGPS_LOGP>
-1.33

> <JCHEM_LOGP>
-7.081350268598366

> <ALOGPS_LOGS>
-4.21

> <JCHEM_MDDR_LIKE_RULE>
1

> <JCHEM_NUMBER_OF_RINGS>
4

> <JCHEM_PHYSIOLOGICAL_CHARGE>
2

> <JCHEM_PKA>
11.446366507567785

> <JCHEM_PKA_STRONGEST_ACIDIC>
9.254840774845357

> <JCHEM_PKA_STRONGEST_BASIC>
9.851431824019174

> <JCHEM_POLAR_SURFACE_AREA>
425.5499999999999

> <JCHEM_REFRACTIVITY>
262.1714000000001

> <JCHEM_ROTATABLE_BOND_COUNT>
18

> <JCHEM_RULE_OF_FIVE>
0

> <ALOGPS_SOLUBILITY>
6.40e-02 g/l

> <JCHEM_TRADITIONAL_IUPAC>
ornipressin

> <JCHEM_VEBER_RULE>
0

> <DRUGBANK_ID>
DB13464

> <DRUG_GROUPS>
experimental

> <GENERIC_NAME>
Ornipressin

> <SYNONYMS>
Ornipressin

$$$$
