
     RDKit          3D

 48 48  0  0  0  0  0  0  0  0999 V2000
   -7.5863    3.9648    0.9801 O   0  0  0  0  0  0  0  0  0  0  0  0
   -7.5246    4.0901    0.1397 C   0  0  0  0  0  0  0  0  0  0  0  0
   -6.6430    5.0176   -0.4296 O   0  0  0  0  0  0  0  0  0  0  0  0
   -8.3993    3.3488   -0.8269 C   0  0  0  0  0  0  0  0  0  0  0  0
   -8.1355    1.8875   -0.5944 C   0  0  0  0  0  0  0  0  0  0  0  0
   -9.1200    1.4393    0.6456 C   0  0  2  0  0  0  0  0  0  0  0  0
   -7.9709    0.6976    1.4213 N   0  0  0  0  0  0  0  0  0  0  0  0
   -6.8555   -0.0015    0.3941 P   0  0  1  0  0  0  0  0  0  0  0  0
   -7.3008   -0.4547   -0.9647 O   0  0  0  0  0  0  0  0  0  0  0  0
   -5.5004    1.0272    0.2719 O   0  0  0  0  0  0  0  0  0  0  0  0
   -6.2456   -1.4476    1.0803 O   0  0  0  0  0  0  0  0  0  0  0  0
   -5.1852   -1.6851    0.2368 C   0  0  0  0  0  0  0  0  0  0  0  0
   -4.8213   -3.0403   -0.1089 C   0  0  0  0  0  0  0  0  0  0  0  0
   -4.0937   -3.8772    0.8707 C   0  0  0  0  0  0  0  0  0  0  0  0
   -2.5481   -4.0558    0.3353 C   0  0  2  0  0  0  0  0  0  0  0  0
   -2.3658   -2.4954    0.2000 N   0  0  0  0  0  0  0  0  0  0  0  0
   -1.1715   -2.0169    0.8206 C   0  0  0  0  0  0  0  0  0  0  0  0
   -0.6540   -2.6295    1.8048 O   0  0  0  0  0  0  0  0  0  0  0  0
   -0.2720   -1.0533    0.1114 C   0  0  0  0  0  0  0  0  0  0  0  0
    0.4731   -1.7629   -0.9171 C   0  0  0  0  0  0  0  0  0  0  0  0
    2.0556   -1.3336   -0.9099 C   0  0  2  0  0  0  0  0  0  0  0  0
    2.0520   -0.7972    0.5760 N   0  0  0  0  0  0  0  0  0  0  0  0
    3.0601    0.1471    0.8626 C   0  0  0  0  0  0  0  0  0  0  0  0
    3.0627    1.1487    0.0974 O   0  0  0  0  0  0  0  0  0  0  0  0
    4.0435    0.0723    1.9557 C   0  0  0  0  0  0  0  0  0  0  0  0
    5.2014    1.0137    1.6406 C   0  0  0  0  0  0  0  0  0  0  0  0
    5.5890    0.8132    0.1784 C   0  0  0  0  0  0  0  0  0  0  0  0
    5.5543   -0.6581   -0.0739 C   0  0  0  0  0  0  0  0  0  0  0  0
    6.8782   -1.3392   -0.0457 C   0  0  0  0  0  0  0  0  0  0  0  0
    7.8086   -0.2794   -0.4334 N   0  0  0  0  0  0  0  0  0  0  0  0
    9.0824   -0.3291    0.1930 C   0  0  0  0  0  0  0  0  0  0  0  0
    9.6893   -1.4297    0.0378 O   0  0  0  0  0  0  0  0  0  0  0  0
    9.7924    0.9485    0.2932 C   0  0  0  0  0  0  0  0  0  0  0  0
    9.1858    2.0358    0.8693 C   0  0  0  0  0  0  0  0  0  0  0  0
    9.5239    3.3337    0.5865 C   0  0  0  0  0  0  0  0  0  0  0  0
   10.6041    3.5359   -0.2604 C   0  0  0  0  0  0  0  0  0  0  0  0
   10.7644    4.7198   -0.9140 F   0  0  0  0  0  0  0  0  0  0  0  0
   11.3630    2.4446   -0.6542 C   0  0  0  0  0  0  0  0  0  0  0  0
   10.8782    1.1665   -0.5098 C   0  0  0  0  0  0  0  0  0  0  0  0
    1.8223    0.1305   -1.5414 C   0  0  0  0  0  0  0  0  0  0  0  0
    0.7395    0.6663   -1.4845 O   0  0  0  0  0  0  0  0  0  0  0  0
    2.5061    0.1526   -2.7648 O   0  0  0  0  0  0  0  0  0  0  0  0
   -3.0077   -4.2531   -1.1964 C   0  0  0  0  0  0  0  0  0  0  0  0
   -3.8032   -5.2052   -1.3828 O   0  0  0  0  0  0  0  0  0  0  0  0
   -2.4264   -3.5241   -2.1693 O   0  0  0  0  0  0  0  0  0  0  0  0
   -9.5922    0.0795   -0.0883 C   0  0  0  0  0  0  0  0  0  0  0  0
  -10.3683   -0.5143    0.7263 O   0  0  0  0  0  0  0  0  0  0  0  0
  -10.1385    0.3017   -1.3433 O   0  0  0  0  0  0  0  0  0  0  0  0
  1  2  2  0
  2  3  1  0
  2  4  1  0
  4  5  1  0
  6  5  1  6
  6  7  1  0
  8  7  1  1
  8  9  2  0
  8 10  1  0
  8 11  1  0
 11 12  1  0
 12 13  1  0
 13 14  1  0
 15 14  1  1
 15 16  1  0
 16 17  1  0
 17 18  2  0
 17 19  1  0
 19 20  1  0
 21 20  1  1
 21 22  1  0
 22 23  1  0
 23 24  2  0
 23 25  1  0
 25 26  1  0
 26 27  1  0
 27 28  1  0
 28 29  1  0
 29 30  1  0
 30 31  1  0
 31 32  2  0
 31 33  1  0
 33 34  2  0
 34 35  1  0
 35 36  2  0
 36 37  1  0
 36 38  1  0
 38 39  2  0
 21 40  1  0
 40 41  2  0
 40 42  1  0
 15 43  1  0
 43 44  2  0
 43 45  1  0
  6 46  1  0
 46 47  2  0
 46 48  1  0
 39 33  1  0
M  END
>  <zinc_id>  (1) 
ZINC000098209433

>  <smiles>  (1) 
O=C(O)CC[C@H](N[P@@](=O)(O)OCCC[C@H](NC(=O)CC[C@H](NC(=O)CCCCCNC(=O)c1ccc(F)cc1)C(=O)O)C(=O)O)C(=O)O

$$$$
