6479523
  -OEChem-10051719293D

 55 58  0     1  0  0  0  0  0999 V2000
   -2.5235   -0.6206   -1.1440 S   0  0  0  0  0  0  0  0  0  0  0  0
   -3.1353    2.3591    2.0433 O   0  0  0  0  0  0  0  0  0  0  0  0
   -6.7926    0.1641    1.1672 O   0  0  0  0  0  0  0  0  0  0  0  0
   -6.4209    1.6974   -0.4780 O   0  0  0  0  0  0  0  0  0  0  0  0
    0.6661    1.1109   -1.4367 O   0  0  0  0  0  0  0  0  0  0  0  0
    3.8777    0.0221    2.1175 O   0  0  0  0  0  0  0  0  0  0  0  0
    4.6190    1.1245   -1.9994 O   0  0  0  0  0  0  0  0  0  0  0  0
   -3.7378    1.3741   -0.0151 N   0  0  0  0  0  0  0  0  0  0  0  0
   -0.6079    1.1434    0.5019 N   0  0  0  0  0  0  0  0  0  0  0  0
    2.8468    0.3202    0.0723 N   0  0  0  0  0  0  0  0  0  0  0  0
    5.1547    0.6935    0.2910 N   0  0  0  0  0  0  0  0  0  0  0  0
    6.7867    1.3663   -1.1582 N   0  0  0  0  0  0  0  0  0  0  0  0
   -2.6802    1.1981   -1.0146 C   0  0  1  0  0  0  0  0  0  0  0  0
   -4.3333   -0.8422   -0.7632 C   0  0  0  0  0  0  0  0  0  0  0  0
   -4.6266    0.2661    0.2709 C   0  0  2  0  0  0  0  0  0  0  0  0
   -1.7299    1.9062   -0.0393 C   0  0  1  0  0  0  0  0  0  0  0  0
   -2.9475    2.0055    0.9013 C   0  0  0  0  0  0  0  0  0  0  0  0
   -5.1124   -0.7083   -2.0787 C   0  0  0  0  0  0  0  0  0  0  0  0
   -4.5490   -2.2338   -0.1655 C   0  0  0  0  0  0  0  0  0  0  0  0
   -6.0221    0.8036    0.2536 C   0  0  0  0  0  0  0  0  0  0  0  0
    0.5154    0.8040   -0.2556 C   0  0  0  0  0  0  0  0  0  0  0  0
    1.5214   -0.0352    0.5217 C   0  0  1  0  0  0  0  0  0  0  0  0
    1.2531   -1.5145    0.3722 C   0  0  0  0  0  0  0  0  0  0  0  0
    3.9461    0.3214    0.9230 C   0  0  0  0  0  0  0  0  0  0  0  0
    0.4078   -2.1644    1.2716 C   0  0  0  0  0  0  0  0  0  0  0  0
    1.8503   -2.2305   -0.6654 C   0  0  0  0  0  0  0  0  0  0  0  0
    6.4084    0.6582    1.0286 C   0  0  0  0  0  0  0  0  0  0  0  0
    7.4304    1.3143    0.1236 C   0  0  0  0  0  0  0  0  0  0  0  0
    5.4165    1.0687   -1.0723 C   0  0  0  0  0  0  0  0  0  0  0  0
    0.1598   -3.5301    1.1336 C   0  0  0  0  0  0  0  0  0  0  0  0
    1.6022   -3.5962   -0.8034 C   0  0  0  0  0  0  0  0  0  0  0  0
    0.7570   -4.2460    0.0961 C   0  0  0  0  0  0  0  0  0  0  0  0
   -2.8876    1.7256   -1.9500 H   0  0  0  0  0  0  0  0  0  0  0  0
   -4.3919   -0.0683    1.2909 H   0  0  0  0  0  0  0  0  0  0  0  0
   -1.4042    2.8950   -0.3852 H   0  0  0  0  0  0  0  0  0  0  0  0
   -4.7859   -1.4527   -2.8148 H   0  0  0  0  0  0  0  0  0  0  0  0
   -6.1840   -0.8730   -1.9178 H   0  0  0  0  0  0  0  0  0  0  0  0
   -4.9973    0.2822   -2.5328 H   0  0  0  0  0  0  0  0  0  0  0  0
   -4.2745   -3.0246   -0.8732 H   0  0  0  0  0  0  0  0  0  0  0  0
   -3.9604   -2.3818    0.7474 H   0  0  0  0  0  0  0  0  0  0  0  0
   -5.6024   -2.3821    0.0981 H   0  0  0  0  0  0  0  0  0  0  0  0
   -0.6378    0.8311    1.4696 H   0  0  0  0  0  0  0  0  0  0  0  0
    1.4591    0.2316    1.5846 H   0  0  0  0  0  0  0  0  0  0  0  0
   -7.7132    0.5028    1.1714 H   0  0  0  0  0  0  0  0  0  0  0  0
    2.9787    0.5592   -0.9052 H   0  0  0  0  0  0  0  0  0  0  0  0
   -0.0649   -1.6185    2.0836 H   0  0  0  0  0  0  0  0  0  0  0  0
    2.5008   -1.7509   -1.3913 H   0  0  0  0  0  0  0  0  0  0  0  0
    6.6543   -0.3929    1.2183 H   0  0  0  0  0  0  0  0  0  0  0  0
    6.3069    1.1636    1.9942 H   0  0  0  0  0  0  0  0  0  0  0  0
    7.6466    2.3412    0.4334 H   0  0  0  0  0  0  0  0  0  0  0  0
    8.3645    0.7513    0.0539 H   0  0  0  0  0  0  0  0  0  0  0  0
    7.2405    1.6743   -2.0124 H   0  0  0  0  0  0  0  0  0  0  0  0
   -0.4994   -4.0357    1.8332 H   0  0  0  0  0  0  0  0  0  0  0  0
    2.0639   -4.1532   -1.6135 H   0  0  0  0  0  0  0  0  0  0  0  0
    0.5627   -5.3090   -0.0123 H   0  0  0  0  0  0  0  0  0  0  0  0
  1 13  1  0  0  0  0
  1 14  1  0  0  0  0
  2 17  2  0  0  0  0
  3 20  1  0  0  0  0
  3 44  1  0  0  0  0
  4 20  2  0  0  0  0
  5 21  2  0  0  0  0
  6 24  2  0  0  0  0
  7 29  2  0  0  0  0
  8 13  1  0  0  0  0
  8 15  1  0  0  0  0
  8 17  1  0  0  0  0
  9 16  1  0  0  0  0
  9 21  1  0  0  0  0
  9 42  1  0  0  0  0
 10 22  1  0  0  0  0
 10 24  1  0  0  0  0
 10 45  1  0  0  0  0
 11 24  1  0  0  0  0
 11 27  1  0  0  0  0
 11 29  1  0  0  0  0
 12 28  1  0  0  0  0
 12 29  1  0  0  0  0
 12 52  1  0  0  0  0
 13 16  1  0  0  0  0
 13 33  1  0  0  0  0
 14 15  1  0  0  0  0
 14 18  1  0  0  0  0
 14 19  1  0  0  0  0
 15 20  1  0  0  0  0
 15 34  1  0  0  0  0
 16 17  1  0  0  0  0
 16 35  1  0  0  0  0
 18 36  1  0  0  0  0
 18 37  1  0  0  0  0
 18 38  1  0  0  0  0
 19 39  1  0  0  0  0
 19 40  1  0  0  0  0
 19 41  1  0  0  0  0
 21 22  1  0  0  0  0
 22 23  1  0  0  0  0
 22 43  1  0  0  0  0
 23 25  2  0  0  0  0
 23 26  1  0  0  0  0
 25 30  1  0  0  0  0
 25 46  1  0  0  0  0
 26 31  2  0  0  0  0
 26 47  1  0  0  0  0
 27 28  1  0  0  0  0
 27 48  1  0  0  0  0
 27 49  1  0  0  0  0
 28 50  1  0  0  0  0
 28 51  1  0  0  0  0
 30 32  2  0  0  0  0
 30 53  1  0  0  0  0
 31 32  1  0  0  0  0
 31 54  1  0  0  0  0
 32 55  1  0  0  0  0
M  END
> <DATABASE_ID>
DB01061

> <DATABASE_NAME>
drugbank

> <ORIGINAL_SOURCE>
PUBCHEM

> <ORIGINAL_SOURCE_URL>
https://pubchem.ncbi.nlm.nih.gov/rest/pug/compound/inchikey/JTWOMNBEOCYFNV-NFFDBFGFSA-N/SDF?record_type=3d

> <SMILES>
[H][C@](NC(=O)N1CCNC1=O)(C(=O)N[C@@H]1C(=O)N2[C@@H](C(O)=O)C(C)(C)S[C@]12[H])C1=CC=CC=C1

> <INCHI_IDENTIFIER>
InChI=1S/C20H23N5O6S/c1-20(2)13(17(28)29)25-15(27)12(16(25)32-20)22-14(26)11(10-6-4-3-5-7-10)23-19(31)24-9-8-21-18(24)30/h3-7,11-13,16H,8-9H2,1-2H3,(H,21,30)(H,22,26)(H,23,31)(H,28,29)/t11-,12-,13+,16-/m1/s1

> <INCHI_KEY>
JTWOMNBEOCYFNV-NFFDBFGFSA-N

> <FORMULA>
C20H23N5O6S

> <MOLECULAR_WEIGHT>
461.492

> <EXACT_MASS>
461.136904183

> <JCHEM_ACCEPTOR_COUNT>
6

> <JCHEM_ATOM_COUNT>
55

> <JCHEM_AVERAGE_NEUTRAL_MICROSPECIES_CHARGE>
-0.999723240357643

> <JCHEM_AVERAGE_POLARIZABILITY>
44.96659909165919

> <JCHEM_BIOAVAILABILITY>
1

> <JCHEM_DONOR_COUNT>
4

> <JCHEM_FORMAL_CHARGE>
0

> <JCHEM_GHOSE_FILTER>
1

> <JCHEM_IUPAC>
(2S,5R,6R)-3,3-dimethyl-7-oxo-6-[(2R)-2-[(2-oxoimidazolidine-1-carbonyl)amino]-2-phenylacetamido]-4-thia-1-azabicyclo[3.2.0]heptane-2-carboxylic acid

> <ALOGPS_LOGP>
0.20

> <JCHEM_LOGP>
-0.3251712750000002

> <ALOGPS_LOGS>
-3.30

> <JCHEM_MDDR_LIKE_RULE>
0

> <JCHEM_NEUTRAL_CHARGE>
-1

> <JCHEM_NUMBER_OF_RINGS>
4

> <JCHEM_PHYSIOLOGICAL_CHARGE>
-1

> <JCHEM_PKA>
11.613684897295446

> <JCHEM_PKA_STRONGEST_ACIDIC>
3.4850654853394207

> <JCHEM_PKA_STRONGEST_BASIC>
-5.940777343638934

> <JCHEM_POLAR_SURFACE_AREA>
148.15

> <JCHEM_REFRACTIVITY>
111.71099999999996

> <JCHEM_ROTATABLE_BOND_COUNT>
5

> <JCHEM_RULE_OF_FIVE>
1

> <ALOGPS_SOLUBILITY>
2.33e-01 g/l

> <JCHEM_TRADITIONAL_IUPAC>
biotin

> <JCHEM_VEBER_RULE>
0

$$$$
