17754156
  -OEChem-10191719373D

 66 66  0     1  0  0  0  0  0999 V2000
    0.3938   -0.0956    2.0010 O   0  0  0  0  0  0  0  0  0  0  0  0
   -2.4744   -0.2555   -1.7779 O   0  0  0  0  0  0  0  0  0  0  0  0
    3.6611    0.4802    1.9161 O   0  0  0  0  0  0  0  0  0  0  0  0
    6.6510    0.9643   -3.2917 O   0  0  0  0  0  0  0  0  0  0  0  0
   -4.8916   -1.8664   -1.2114 O   0  0  0  0  0  0  0  0  0  0  0  0
    3.0502    3.1086    1.8930 O   0  0  0  0  0  0  0  0  0  0  0  0
   -0.4738    0.1605   -0.1362 N   0  0  0  0  0  0  0  0  0  0  0  0
   -4.0765    0.7932   -0.4750 N   0  0  0  0  0  0  0  0  0  0  0  0
    2.7484    2.2829    0.8019 N   0  0  0  0  0  0  0  0  0  0  0  0
    1.6740   -0.9456    0.1198 C   0  0  1  0  0  0  0  0  0  0  0  0
    2.7261    0.1295   -0.2981 C   0  0  2  0  0  0  0  0  0  0  0  0
    2.2609   -2.0554    1.0197 C   0  0  0  0  0  0  0  0  0  0  0  0
   -1.7037    0.8211    0.2366 C   0  0  1  0  0  0  0  0  0  0  0  0
    1.5083   -3.4036    0.9551 C   0  0  0  0  0  0  0  0  0  0  0  0
   -1.5071    2.3376    0.2340 C   0  0  0  0  0  0  0  0  0  0  0  0
    3.9675   -0.4650   -0.9946 C   0  0  0  0  0  0  0  0  0  0  0  0
    0.4812   -0.2466    0.7841 C   0  0  0  0  0  0  0  0  0  0  0  0
   -2.4832    3.0781    1.1465 C   0  0  0  0  0  0  0  0  0  0  0  0
   -3.9513    2.9485    0.7477 C   0  0  0  0  0  0  0  0  0  0  0  0
   -4.4509    1.5081    0.7466 C   0  0  0  0  0  0  0  0  0  0  0  0
   -2.7723    0.3878   -0.7680 C   0  0  0  0  0  0  0  0  0  0  0  0
    4.7517    0.5325   -1.8636 C   0  0  0  0  0  0  0  0  0  0  0  0
    3.1077    0.9621    0.9299 C   0  0  0  0  0  0  0  0  0  0  0  0
    2.2143   -4.4284    1.8484 C   0  0  0  0  0  0  0  0  0  0  0  0
    0.0443   -3.2783    1.3818 C   0  0  0  0  0  0  0  0  0  0  0  0
   -5.1540    0.5102   -1.4148 C   0  0  0  0  0  0  0  0  0  0  0  0
    6.0190   -0.0293   -2.4989 C   0  0  0  0  0  0  0  0  0  0  0  0
   -5.8356   -0.8090   -1.1009 C   0  0  0  0  0  0  0  0  0  0  0  0
   -5.4853   -3.1266   -0.9312 C   0  0  0  0  0  0  0  0  0  0  0  0
    1.3226   -1.4239   -0.8051 H   0  0  0  0  0  0  0  0  0  0  0  0
    2.2278    0.7889   -1.0229 H   0  0  0  0  0  0  0  0  0  0  0  0
    3.2962   -2.2649    0.7330 H   0  0  0  0  0  0  0  0  0  0  0  0
    2.2989   -1.7237    2.0648 H   0  0  0  0  0  0  0  0  0  0  0  0
   -1.9723    0.4578    1.2341 H   0  0  0  0  0  0  0  0  0  0  0  0
    1.5376   -3.7756   -0.0767 H   0  0  0  0  0  0  0  0  0  0  0  0
   -0.4933    2.5805    0.5786 H   0  0  0  0  0  0  0  0  0  0  0  0
   -1.5861    2.7332   -0.7868 H   0  0  0  0  0  0  0  0  0  0  0  0
    4.6603   -0.8723   -0.2484 H   0  0  0  0  0  0  0  0  0  0  0  0
    3.6585   -1.2990   -1.6370 H   0  0  0  0  0  0  0  0  0  0  0  0
   -2.3530    2.7275    2.1782 H   0  0  0  0  0  0  0  0  0  0  0  0
   -2.2185    4.1426    1.1480 H   0  0  0  0  0  0  0  0  0  0  0  0
   -0.2932    0.0168   -1.1259 H   0  0  0  0  0  0  0  0  0  0  0  0
   -4.1148    3.4116   -0.2330 H   0  0  0  0  0  0  0  0  0  0  0  0
   -4.5433    3.5207    1.4725 H   0  0  0  0  0  0  0  0  0  0  0  0
   -5.5438    1.5049    0.8329 H   0  0  0  0  0  0  0  0  0  0  0  0
   -4.0702    0.9578    1.6137 H   0  0  0  0  0  0  0  0  0  0  0  0
    5.0235    1.4092   -1.2621 H   0  0  0  0  0  0  0  0  0  0  0  0
    4.0973    0.9169   -2.6564 H   0  0  0  0  0  0  0  0  0  0  0  0
    1.7230   -5.4051    1.7837 H   0  0  0  0  0  0  0  0  0  0  0  0
    3.2569   -4.5607    1.5405 H   0  0  0  0  0  0  0  0  0  0  0  0
    2.2070   -4.1141    2.8977 H   0  0  0  0  0  0  0  0  0  0  0  0
   -0.0489   -2.8122    2.3680 H   0  0  0  0  0  0  0  0  0  0  0  0
   -0.4250   -4.2671    1.4373 H   0  0  0  0  0  0  0  0  0  0  0  0
   -0.5361   -2.6991    0.6588 H   0  0  0  0  0  0  0  0  0  0  0  0
   -5.8707    1.3387   -1.4037 H   0  0  0  0  0  0  0  0  0  0  0  0
   -4.7279    0.4608   -2.4237 H   0  0  0  0  0  0  0  0  0  0  0  0
    5.7787   -0.8834   -3.1401 H   0  0  0  0  0  0  0  0  0  0  0  0
    6.7219   -0.3566   -1.7261 H   0  0  0  0  0  0  0  0  0  0  0  0
   -6.6536   -0.9742   -1.8113 H   0  0  0  0  0  0  0  0  0  0  0  0
   -6.2493   -0.7937   -0.0858 H   0  0  0  0  0  0  0  0  0  0  0  0
    2.4031    2.7376   -0.0354 H   0  0  0  0  0  0  0  0  0  0  0  0
    7.4490    0.5604   -3.6733 H   0  0  0  0  0  0  0  0  0  0  0  0
    2.1988    3.0909    2.3620 H   0  0  0  0  0  0  0  0  0  0  0  0
   -5.8710   -3.1497    0.0926 H   0  0  0  0  0  0  0  0  0  0  0  0
   -6.2892   -3.3390   -1.6425 H   0  0  0  0  0  0  0  0  0  0  0  0
   -4.7174   -3.8984   -1.0317 H   0  0  0  0  0  0  0  0  0  0  0  0
  1 17  2  0  0  0  0
  2 21  2  0  0  0  0
  3 23  2  0  0  0  0
  4 27  1  0  0  0  0
  4 62  1  0  0  0  0
  5 28  1  0  0  0  0
  5 29  1  0  0  0  0
  6  9  1  0  0  0  0
  6 63  1  0  0  0  0
  7 13  1  0  0  0  0
  7 17  1  0  0  0  0
  7 42  1  0  0  0  0
  8 20  1  0  0  0  0
  8 21  1  0  0  0  0
  8 26  1  0  0  0  0
  9 23  1  0  0  0  0
  9 61  1  0  0  0  0
 10 11  1  0  0  0  0
 10 12  1  0  0  0  0
 10 17  1  0  0  0  0
 10 30  1  0  0  0  0
 11 16  1  0  0  0  0
 11 23  1  0  0  0  0
 11 31  1  0  0  0  0
 12 14  1  0  0  0  0
 12 32  1  0  0  0  0
 12 33  1  0  0  0  0
 13 15  1  0  0  0  0
 13 21  1  0  0  0  0
 13 34  1  0  0  0  0
 14 24  1  0  0  0  0
 14 25  1  0  0  0  0
 14 35  1  0  0  0  0
 15 18  1  0  0  0  0
 15 36  1  0  0  0  0
 15 37  1  0  0  0  0
 16 22  1  0  0  0  0
 16 38  1  0  0  0  0
 16 39  1  0  0  0  0
 18 19  1  0  0  0  0
 18 40  1  0  0  0  0
 18 41  1  0  0  0  0
 19 20  1  0  0  0  0
 19 43  1  0  0  0  0
 19 44  1  0  0  0  0
 20 45  1  0  0  0  0
 20 46  1  0  0  0  0
 22 27  1  0  0  0  0
 22 47  1  0  0  0  0
 22 48  1  0  0  0  0
 24 49  1  0  0  0  0
 24 50  1  0  0  0  0
 24 51  1  0  0  0  0
 25 52  1  0  0  0  0
 25 53  1  0  0  0  0
 25 54  1  0  0  0  0
 26 28  1  0  0  0  0
 26 55  1  0  0  0  0
 26 56  1  0  0  0  0
 27 57  1  0  0  0  0
 27 58  1  0  0  0  0
 28 59  1  0  0  0  0
 28 60  1  0  0  0  0
 29 64  1  0  0  0  0
 29 65  1  0  0  0  0
 29 66  1  0  0  0  0
M  END
> <DATABASE_ID>
DB02090

> <DATABASE_NAME>
drugbank

> <ORIGINAL_SOURCE>
PUBCHEM

> <ORIGINAL_SOURCE_URL>
https://pubchem.ncbi.nlm.nih.gov/rest/pug/compound/inchikey/JLEGVELHGVWFGG-BBWFWOEESA-N/SDF?record_type=3d

> <SMILES>
[H][C@@](CCCO)(C(=O)NO)[C@@]([H])(CC(C)C)C(=O)N[C@@]1([H])CCCCN(CCOC)C1=O

> <INCHI_IDENTIFIER>
InChI=1S/C20H37N3O6/c1-14(2)13-16(15(7-6-11-24)19(26)22-28)18(25)21-17-8-4-5-9-23(20(17)27)10-12-29-3/h14-17,24,28H,4-13H2,1-3H3,(H,21,25)(H,22,26)/t15-,16+,17-/m0/s1

> <INCHI_KEY>
JLEGVELHGVWFGG-BBWFWOEESA-N

> <FORMULA>
C20H37N3O6

> <MOLECULAR_WEIGHT>
415.5243

> <EXACT_MASS>
415.268235931

> <JCHEM_ACCEPTOR_COUNT>
6

> <JCHEM_ATOM_COUNT>
66

> <JCHEM_AVERAGE_NEUTRAL_MICROSPECIES_CHARGE>
-0.01347299303548097

> <JCHEM_AVERAGE_POLARIZABILITY>
44.53057508050691

> <JCHEM_BIOAVAILABILITY>
1

> <JCHEM_DONOR_COUNT>
4

> <JCHEM_FORMAL_CHARGE>
0

> <JCHEM_GHOSE_FILTER>
1

> <JCHEM_IUPAC>
(2S,3R)-N-hydroxy-2-(3-hydroxypropyl)-N'-[(3S)-1-(2-methoxyethyl)-2-oxoazepan-3-yl]-3-(2-methylpropyl)butanediamide

> <ALOGPS_LOGP>
0.76

> <JCHEM_LOGP>
0.05645357699999912

> <ALOGPS_LOGS>
-1.96

> <JCHEM_MDDR_LIKE_RULE>
0

> <JCHEM_NEUTRAL_CHARGE>
0

> <JCHEM_NUMBER_OF_RINGS>
1

> <JCHEM_PHYSIOLOGICAL_CHARGE>
0

> <JCHEM_PKA>
12.874352500123862

> <JCHEM_PKA_STRONGEST_ACIDIC>
8.864687150952049

> <JCHEM_PKA_STRONGEST_BASIC>
-0.38970036650734274

> <JCHEM_POLAR_SURFACE_AREA>
128.2

> <JCHEM_REFRACTIVITY>
108.50399999999999

> <JCHEM_ROTATABLE_BOND_COUNT>
12

> <JCHEM_RULE_OF_FIVE>
1

> <ALOGPS_SOLUBILITY>
4.58e+00 g/l

> <JCHEM_TRADITIONAL_IUPAC>
biotin

> <JCHEM_VEBER_RULE>
0

$$$$
