
     RDKit          3D

 29 28  0  0  0  0  0  0  0  0999 V2000
   -8.1335    2.8208    0.4673 N   0  0  0  0  0  0  0  0  0  0  0  0
   -7.6050    1.5643    0.8601 C   0  0  0  0  0  0  0  0  0  0  0  0
   -8.0403    0.4921   -0.0989 C   0  0  0  0  0  0  0  0  0  0  0  0
   -8.0783   -0.8122    0.6438 C   0  0  0  0  0  0  0  0  0  0  0  0
   -6.8126   -1.6114    0.5221 C   0  0  0  0  0  0  0  0  0  0  0  0
   -6.2651   -1.6133   -0.8100 N   0  0  0  0  0  0  0  0  0  0  0  0
   -5.1044   -0.7535   -0.9368 C   0  0  0  0  0  0  0  0  0  0  0  0
   -4.3662   -0.6162    0.3838 C   0  0  0  0  0  0  0  0  0  0  0  0
   -4.1362   -1.9721    1.0311 C   0  0  0  0  0  0  0  0  0  0  0  0
   -2.9414   -2.5225    0.4406 N   0  0  0  0  0  0  0  0  0  0  0  0
   -1.8236   -1.6587    0.3004 C   0  0  0  0  0  0  0  0  0  0  0  0
   -2.0342   -0.4313    0.0992 O   0  0  0  0  0  0  0  0  0  0  0  0
   -0.5487   -2.2437   -0.1825 C   0  0  0  0  0  0  0  0  0  0  0  0
    0.5995   -1.4289    0.1533 N   0  0  0  0  0  0  0  0  0  0  0  0
    1.3005   -0.6389   -0.8287 C   0  0  0  0  0  0  0  0  0  0  0  0
    0.5006   -0.2192   -1.6981 O   0  0  0  0  0  0  0  0  0  0  0  0
    2.0333    0.5532    0.0351 C   0  0  2  0  0  0  0  0  0  0  0  0
    2.2486    1.5421   -1.3018 C   0  0  0  0  0  0  0  0  0  0  0  0
    1.5352    3.1285   -0.7466 S   0  0  0  0  0  0  0  0  0  0  0  0
    3.4796   -0.1062   -0.1864 N   0  0  0  0  0  0  0  0  0  0  0  0
    3.9096   -0.5850    1.0933 C   0  0  0  0  0  0  0  0  0  0  0  0
    3.2252   -1.5566    1.5370 O   0  0  0  0  0  0  0  0  0  0  0  0
    5.2830   -0.4921    1.6102 C   0  0  0  0  0  0  0  0  0  0  0  0
    5.8473    0.9002    1.5889 C   0  0  0  0  0  0  0  0  0  0  0  0
    6.0741    1.2234   -0.0385 C   0  0  2  0  0  0  0  0  0  0  0  0
    6.8765   -0.1515   -0.2437 N   0  0  0  0  0  0  0  0  0  0  0  0
    7.4678    2.0340    0.2799 C   0  0  0  0  0  0  0  0  0  0  0  0
    7.1530    3.1771    0.7330 O   0  0  0  0  0  0  0  0  0  0  0  0
    8.3558    1.9776   -0.7922 O   0  0  0  0  0  0  0  0  0  0  0  0
  1  2  1  0
  2  3  1  0
  3  4  1  0
  4  5  1  0
  5  6  1  0
  6  7  1  0
  7  8  1  0
  8  9  1  0
  9 10  1  0
 10 11  1  0
 11 12  2  0
 11 13  1  0
 13 14  1  0
 14 15  1  0
 15 16  2  0
 17 15  1  6
 17 18  1  0
 18 19  1  0
 17 20  1  0
 20 21  1  0
 21 22  2  0
 21 23  1  0
 23 24  1  0
 25 24  1  1
 25 26  1  0
 25 27  1  0
 27 28  2  0
 27 29  1  0
M  END
>  <zinc_id>  (1) 
ZINC000003869959

>  <smiles>  (1) 
NCCCCNCCCNC(=O)CNC(=O)[C@H](CS)NC(=O)CC[C@H](N)C(=O)O

$$$$
