
     RDKit          3D

 41 41  0  0  0  0  0  0  0  0999 V2000
   -6.4567   -2.5380   -0.3965 C   0  0  0  0  0  0  0  0  0  0  0  0
   -5.8361   -1.3653    0.0480 O   0  0  0  0  0  0  0  0  0  0  0  0
   -6.5980   -0.4477    0.7020 C   0  0  0  0  0  0  0  0  0  0  0  0
   -7.2714   -0.8950    1.6825 O   0  0  0  0  0  0  0  0  0  0  0  0
   -5.8891    0.9282    1.1602 C   0  0  1  0  0  0  0  0  0  0  0  0
   -5.1906    1.1696   -0.2246 N   0  0  0  0  0  0  0  0  0  0  0  0
   -4.0422    1.9362   -0.2002 C   0  0  0  0  0  0  0  0  0  0  0  0
   -3.7118    2.5999    0.8216 O   0  0  0  0  0  0  0  0  0  0  0  0
   -2.9082    1.7941   -1.3324 C   0  0  1  0  0  0  0  0  0  0  0  0
   -2.2654    0.5578   -0.5958 N   0  0  0  0  0  0  0  0  0  0  0  0
   -1.0343    0.0959   -1.0537 C   0  0  0  0  0  0  0  0  0  0  0  0
   -1.3171   -0.5244   -2.1273 O   0  0  0  0  0  0  0  0  0  0  0  0
    0.3129    0.5946   -1.0987 C   0  0  0  0  0  0  0  0  0  0  0  0
    1.0400    0.9476    0.1224 C   0  0  0  0  0  0  0  0  0  0  0  0
    0.9551   -0.3184    1.1521 C   0  0  2  0  0  0  0  0  0  0  0  0
    1.8071    0.3814    2.1825 O   0  0  0  0  0  0  0  0  0  0  0  0
    2.2485   -1.1539    0.3827 C   0  0  2  0  0  0  0  0  0  0  0  0
    2.6687   -1.8582    1.7915 C   0  0  0  0  0  0  0  0  0  0  0  0
    2.8084   -3.2811    1.3559 C   0  0  0  0  0  0  0  0  0  0  0  0
    3.2072   -3.6421    0.0842 C   0  0  0  0  0  0  0  0  0  0  0  0
    3.8031   -4.8597   -0.1438 C   0  0  0  0  0  0  0  0  0  0  0  0
    3.6684   -5.8168    0.8464 C   0  0  0  0  0  0  0  0  0  0  0  0
    2.8749   -5.5719    1.9545 C   0  0  0  0  0  0  0  0  0  0  0  0
    2.4431   -4.2858    2.2374 C   0  0  0  0  0  0  0  0  0  0  0  0
    3.2891    0.0040    0.4233 N   0  0  0  0  0  0  0  0  0  0  0  0
    4.4714   -0.0747    1.0972 C   0  0  0  0  0  0  0  0  0  0  0  0
    4.4806   -0.8080    2.1288 O   0  0  0  0  0  0  0  0  0  0  0  0
    5.8747   -0.2451    0.3173 C   0  0  2  0  0  0  0  0  0  0  0  0
    6.6594    0.7443    1.3725 C   0  0  0  0  0  0  0  0  0  0  0  0
    5.5182    0.8561   -0.7349 N   0  0  0  0  0  0  0  0  0  0  0  0
    5.9346    2.1437   -0.6525 C   0  0  0  0  0  0  0  0  0  0  0  0
    6.1772    2.5971    0.5088 O   0  0  0  0  0  0  0  0  0  0  0  0
    4.8939    3.1690   -1.3393 C   0  0  2  0  0  0  0  0  0  0  0  0
    4.9576    2.4196   -2.8016 C   0  0  0  0  0  0  0  0  0  0  0  0
    6.0399    4.1758   -1.7344 N   0  0  0  0  0  0  0  0  0  0  0  0
   -3.8926    0.9830   -2.3744 C   0  0  0  0  0  0  0  0  0  0  0  0
   -4.8705    2.1471   -2.6203 C   0  0  0  0  0  0  0  0  0  0  0  0
   -3.2203    1.0160   -3.7279 C   0  0  0  0  0  0  0  0  0  0  0  0
   -7.2013    1.8294    0.7502 C   0  0  0  0  0  0  0  0  0  0  0  0
   -6.7086    3.2441    0.6042 C   0  0  0  0  0  0  0  0  0  0  0  0
   -7.7195    1.3519   -0.5679 C   0  0  0  0  0  0  0  0  0  0  0  0
  1  2  1  0
  2  3  1  0
  3  4  2  0
  5  3  1  6
  5  6  1  0
  6  7  1  0
  7  8  2  0
  9  7  1  1
  9 10  1  0
 10 11  1  0
 11 12  2  0
 11 13  1  0
 13 14  1  0
 15 14  1  6
 15 16  1  0
 15 17  1  0
 17 18  1  1
 18 19  1  0
 19 20  2  0
 20 21  1  0
 21 22  2  0
 22 23  1  0
 23 24  2  0
 17 25  1  0
 25 26  1  0
 26 27  2  0
 28 26  1  1
 28 29  1  0
 28 30  1  0
 30 31  1  0
 31 32  2  0
 33 31  1  1
 33 34  1  0
 33 35  1  0
  9 36  1  0
 36 37  1  0
 36 38  1  0
  5 39  1  0
 39 40  1  0
 39 41  1  0
 24 19  1  0
M  END
>  <zinc_id>  (1) 
ZINC000003935186

>  <smiles>  (1) 
COC(=O)[C@@H](NC(=O)[C@@H](NC(=O)CC[C@H](O)[C@H](Cc1ccccc1)NC(=O)[C@H](C)NC(=O)[C@H](C)N)C(C)C)C(C)C

$$$$
