
     RDKit          3D

 45 47  0  0  0  0  0  0  0  0999 V2000
    1.2082   -4.7244   -2.3775 C   0  0  0  0  0  0  0  0  0  0  0  0
    1.8768   -3.8224   -2.4655 C   0  0  0  0  0  0  0  0  0  0  0  0
    1.0824   -2.4271   -2.6320 C   0  0  1  0  0  0  0  0  0  0  0  0
   -0.3519   -3.1168   -2.9208 C   0  0  0  0  0  0  0  0  0  0  0  0
    0.7736   -2.3611   -0.9493 C   0  0  1  0  0  0  0  0  0  0  0  0
    2.2360   -1.9075   -0.6925 N   0  0  0  0  0  0  0  0  0  0  0  0
    2.6288   -0.6743   -0.2605 C   0  0  0  0  0  0  0  0  0  0  0  0
    2.2276    0.1771   -1.1120 O   0  0  0  0  0  0  0  0  0  0  0  0
    4.2552   -0.6434   -0.4167 C   0  0  2  0  0  0  0  0  0  0  0  0
    4.4355   -1.6930    0.6743 O   0  0  0  0  0  0  0  0  0  0  0  0
    4.4397    0.5782    0.6807 C   0  0  0  0  0  0  0  0  0  0  0  0
    5.5943    1.3829    0.1669 C   0  0  0  0  0  0  0  0  0  0  0  0
    5.4160    2.7597    0.2822 C   0  0  0  0  0  0  0  0  0  0  0  0
    6.4156    3.6377   -0.1155 C   0  0  0  0  0  0  0  0  0  0  0  0
    7.6838    3.1642   -0.2979 C   0  0  0  0  0  0  0  0  0  0  0  0
    8.7706    3.9557   -0.5684 O   0  0  0  0  0  0  0  0  0  0  0  0
    7.8946    1.7999   -0.1669 C   0  0  0  0  0  0  0  0  0  0  0  0
    6.9123    1.0320    0.4474 C   0  0  0  0  0  0  0  0  0  0  0  0
   -0.0036   -0.9423   -0.9659 C   0  0  0  0  0  0  0  0  0  0  0  0
   -0.2060   -0.4626   -2.1288 O   0  0  0  0  0  0  0  0  0  0  0  0
   -1.2417   -0.9625   -0.2095 N   0  0  0  0  0  0  0  0  0  0  0  0
   -2.5949   -0.6485   -0.9833 C   0  0  2  0  0  0  0  0  0  0  0  0
   -2.4703    0.9664   -0.9059 C   0  0  0  0  0  0  0  0  0  0  0  0
   -3.5382    1.5497   -0.5008 O   0  0  0  0  0  0  0  0  0  0  0  0
   -2.2112    1.6279   -2.1567 N   0  0  0  0  0  0  0  0  0  0  0  0
   -1.9522    3.0603   -2.0042 C   0  0  0  0  0  0  0  0  0  0  0  0
   -2.1895    3.4656   -0.5955 C   0  0  0  0  0  0  0  0  0  0  0  0
   -2.1451    4.8974   -0.2716 C   0  0  0  0  0  0  0  0  0  0  0  0
   -3.3643    5.0738    0.6418 C   0  0  0  0  0  0  0  0  0  0  0  0
   -4.2929    5.7611   -0.2244 N   0  0  0  0  0  0  0  0  0  0  0  0
   -5.5406    5.5144   -0.2062 C   0  0  0  0  0  0  0  0  0  0  0  0
   -6.3942    6.5403   -0.6999 N   0  0  0  0  0  0  0  0  0  0  0  0
   -6.0759    4.2229    0.0304 N   0  0  0  0  0  0  0  0  0  0  0  0
   -3.5436   -0.6049    0.3290 C   0  0  0  0  0  0  0  0  0  0  0  0
   -2.8881   -1.6121    1.3416 C   0  0  2  0  0  0  0  0  0  0  0  0
   -1.7410   -0.6275    1.9567 C   0  0  0  0  0  0  0  0  0  0  0  0
   -1.6661   -1.5083    3.1637 C   0  0  0  0  0  0  0  0  0  0  0  0
   -1.3361   -3.0742    2.7368 C   0  0  1  0  0  0  0  0  0  0  0  0
   -2.7406   -3.3926    2.2805 O   0  0  0  0  0  0  0  0  0  0  0  0
   -3.0778   -4.8753    1.9408 S   0  0  0  0  0  0  0  0  0  0  0  0
   -3.3753   -5.5889    3.2098 O   0  0  0  0  0  0  0  0  0  0  0  0
   -4.3825   -4.8345    1.1588 O   0  0  0  0  0  0  0  0  0  0  0  0
   -2.0309   -5.6472    0.9192 O   0  0  0  0  0  0  0  0  0  0  0  0
   -0.6619   -2.6577    1.2975 C   0  0  0  0  0  0  0  0  0  0  0  0
   -1.8346   -2.3578    0.2283 C   0  0  2  0  0  0  0  0  0  0  0  0
  1  2  1  0
  3  2  1  1
  3  4  1  0
  3  5  1  0
  5  6  1  1
  6  7  1  0
  7  8  2  0
  9  7  1  1
  9 10  1  0
  9 11  1  0
 11 12  1  0
 12 13  2  0
 13 14  1  0
 14 15  2  0
 15 16  1  0
 15 17  1  0
 17 18  2  0
  5 19  1  0
 19 20  2  0
 19 21  1  0
 21 22  1  0
 22 23  1  1
 23 24  2  0
 23 25  1  0
 25 26  1  0
 26 27  1  0
 27 28  1  0
 28 29  1  0
 29 30  1  0
 30 31  2  3
 31 32  1  0
 31 33  1  0
 22 34  1  0
 35 34  1  6
 35 36  1  0
 36 37  1  0
 37 38  1  0
 38 39  1  6
 39 40  1  0
 40 41  2  0
 40 42  2  0
 40 43  1  0
 38 44  1  0
 45 44  1  1
 18 12  1  0
 45 21  1  0
 45 35  1  0
M  END
>  <zinc_id>  (1) 
ZINC000024420133

>  <smiles>  (1) 
CC[C@@H](C)[C@@H](NC(=O)[C@H](O)Cc1ccc(O)cc1)C(=O)N1[C@H](C(=O)NCCCCN=C(N)N)C[C@@H]2CC[C@@H](OS(=O)(=O)O)C[C@@H]21

$$$$
