
     RDKit          3D

 41 46  0  0  0  0  0  0  0  0999 V2000
   -4.1527   -5.6291    0.0553 C   0  0  0  0  0  0  0  0  0  0  0  0
   -4.4889   -4.3093   -0.3067 N   0  0  0  0  0  0  0  0  0  0  0  0
   -3.9644   -3.1405    0.1103 C   0  0  0  0  0  0  0  0  0  0  0  0
   -4.5817   -2.1201   -0.6020 C   0  0  0  0  0  0  0  0  0  0  0  0
   -4.4948   -0.4469   -0.0699 S   0  0  0  0  0  0  0  0  0  0  0  0
   -4.6984   -0.3376    1.4195 O   0  0  0  0  0  0  0  0  0  0  0  0
   -5.5727    0.3564   -0.7204 O   0  0  0  0  0  0  0  0  0  0  0  0
   -2.9673    0.2560   -0.5062 N   0  0  0  0  0  0  0  0  0  0  0  0
   -2.3660   -0.4396   -1.5979 C   0  0  0  0  0  0  0  0  0  0  0  0
   -1.0631    0.2842   -1.9207 C   0  0  0  0  0  0  0  0  0  0  0  0
   -0.1781   -0.0131   -0.7516 C   0  0  0  0  0  0  0  0  0  0  0  0
    1.0746   -0.4052   -0.8745 C   0  0  0  0  0  0  0  0  0  0  0  0
    1.5480   -1.4597    0.0322 C   0  0  0  0  0  0  0  0  0  0  0  0
    0.5600   -2.0609    0.8029 C   0  0  0  0  0  0  0  0  0  0  0  0
    1.1300   -3.1958    1.3143 C   0  0  0  0  0  0  0  0  0  0  0  0
    2.3678   -3.3114    0.7787 N   0  0  0  0  0  0  0  0  0  0  0  0
    2.6428   -2.2480    0.0304 N   0  0  0  0  0  0  0  0  0  0  0  0
    3.9467   -1.7171   -0.2335 C   0  0  0  0  0  0  0  0  0  0  0  0
    4.7806   -2.3055   -1.1756 C   0  0  0  0  0  0  0  0  0  0  0  0
    6.1484   -2.4274   -0.9638 C   0  0  0  0  0  0  0  0  0  0  0  0
    6.7105   -2.0277    0.2419 C   0  0  0  0  0  0  0  0  0  0  0  0
    7.7017   -2.7680    0.8171 F   0  0  0  0  0  0  0  0  0  0  0  0
    5.9557   -1.1503    1.0013 C   0  0  0  0  0  0  0  0  0  0  0  0
    4.5898   -1.0264    0.7852 C   0  0  0  0  0  0  0  0  0  0  0  0
   -0.5737   -1.2667    1.3617 C   0  0  0  0  0  0  0  0  0  0  0  0
   -0.7571    0.0396    0.5977 C   0  0  1  0  0  0  0  0  0  0  0  0
   -0.0059    1.1093    1.3300 C   0  0  0  0  0  0  0  0  0  0  0  0
    0.3939    0.9067    2.5024 O   0  0  0  0  0  0  0  0  0  0  0  0
   -0.2448    2.4999    0.9224 C   0  0  0  0  0  0  0  0  0  0  0  0
    0.7270    3.4721    1.1267 C   0  0  0  0  0  0  0  0  0  0  0  0
    0.5381    4.7155    0.5832 C   0  0  0  0  0  0  0  0  0  0  0  0
    1.4078    5.8888    0.8738 C   0  0  0  0  0  0  0  0  0  0  0  0
    2.3626    5.9619   -0.1091 F   0  0  0  0  0  0  0  0  0  0  0  0
    1.9411    5.7317    2.1352 F   0  0  0  0  0  0  0  0  0  0  0  0
    0.6782    7.0678    0.8773 F   0  0  0  0  0  0  0  0  0  0  0  0
   -0.5427    4.8781   -0.2604 C   0  0  0  0  0  0  0  0  0  0  0  0
   -1.6148    4.0043   -0.2053 C   0  0  0  0  0  0  0  0  0  0  0  0
   -1.4908    2.9556    0.6441 N   0  0  0  0  0  0  0  0  0  0  0  0
   -2.1927    0.3936    0.6673 C   0  0  0  0  0  0  0  0  0  0  0  0
   -5.7434   -2.6959   -1.1003 C   0  0  0  0  0  0  0  0  0  0  0  0
   -5.5109   -4.0190   -1.1104 N   0  0  0  0  0  0  0  0  0  0  0  0
  1  2  1  0
  2  3  1  0
  3  4  2  0
  4  5  1  0
  5  6  2  0
  5  7  2  0
  5  8  1  0
  8  9  1  0
  9 10  1  0
 10 11  1  0
 11 12  2  0
 12 13  1  0
 13 14  2  0
 14 15  1  0
 15 16  2  0
 16 17  1  0
 17 18  1  0
 18 19  2  0
 19 20  1  0
 20 21  2  0
 21 22  1  0
 21 23  1  0
 23 24  2  0
 14 25  1  0
 25 26  1  0
 26 27  1  1
 27 28  2  0
 27 29  1  0
 29 30  2  0
 30 31  1  0
 31 32  1  0
 32 33  1  0
 32 34  1  0
 32 35  1  0
 31 36  2  0
 36 37  1  0
 37 38  2  0
 26 39  1  0
  4 40  1  0
 40 41  2  0
 41  2  1  0
 39  8  1  0
 26 11  1  0
 38 29  1  0
 17 13  1  0
 24 18  1  0
M  END
>  <zinc_id>  (1) 
ZINC000141949519

>  <smiles>  (1) 
Cn1cc(S(=O)(=O)N2CCC3=Cc4c(cnn4-c4ccc(F)cc4)C[C@]3(C(=O)c3cc(C(F)(F)F)ccn3)C2)cn1

$$$$
