
     RDKit          3D

 31 31  0  0  0  0  0  0  0  0999 V2000
    7.3935    1.4202    0.0545 C   0  0  0  0  0  0  0  0  0  0  0  0
    7.4541    1.7748   -0.1292 C   0  0  0  0  0  0  0  0  0  0  0  0
    6.0994    2.0535    0.4562 C   0  0  0  0  0  0  0  0  0  0  0  0
    5.8087    1.3841    1.7368 C   0  0  0  0  0  0  0  0  0  0  0  0
    4.5116    0.6025    1.5740 C   0  0  0  0  0  0  0  0  0  0  0  0
    3.7064    1.4366    0.4006 C   0  0  1  0  0  0  0  0  0  0  0  0
    4.4034    0.6646   -0.7079 O   0  0  0  0  0  0  0  0  0  0  0  0
    3.3287    1.2934   -1.6116 C   0  0  1  0  0  0  0  0  0  0  0  0
    3.7958    0.4707   -2.8227 O   0  0  0  0  0  0  0  0  0  0  0  0
    2.3005    0.0862   -1.1089 C   0  0  0  0  0  0  0  0  0  0  0  0
    2.4245    0.3611    0.4289 C   0  0  2  0  0  0  0  0  0  0  0  0
    1.1458    1.7301    0.4243 S   0  0  0  0  0  0  0  0  0  0  0  0
   -0.3988    0.9817    0.6566 C   0  0  0  0  0  0  0  0  0  0  0  0
   -0.8354    0.0912   -0.6615 C   0  0  2  0  0  0  0  0  0  0  0  0
   -2.3300    0.1350   -0.1746 N   0  0  0  0  0  0  0  0  0  0  0  0
   -3.2108   -0.8407   -0.6814 C   0  0  0  0  0  0  0  0  0  0  0  0
   -3.1952   -0.8843   -1.9513 O   0  0  0  0  0  0  0  0  0  0  0  0
   -4.5613   -0.6077   -0.0517 C   0  0  0  0  0  0  0  0  0  0  0  0
   -4.8925    0.7987   -0.4689 C   0  0  0  0  0  0  0  0  0  0  0  0
   -5.0595    1.6772    0.9143 C   0  0  2  0  0  0  0  0  0  0  0  0
   -6.0318    0.6142    1.5636 N   0  0  0  0  0  0  0  0  0  0  0  0
   -6.2715    2.5609    0.3126 C   0  0  0  0  0  0  0  0  0  0  0  0
   -7.1491    1.9806   -0.3078 O   0  0  0  0  0  0  0  0  0  0  0  0
   -6.0019    3.9051    0.2410 O   0  0  0  0  0  0  0  0  0  0  0  0
   -0.5615   -1.3379    0.0351 C   0  0  0  0  0  0  0  0  0  0  0  0
   -0.4071   -1.4418    1.2161 O   0  0  0  0  0  0  0  0  0  0  0  0
   -0.8012   -2.4670   -0.7950 N   0  0  0  0  0  0  0  0  0  0  0  0
   -1.2339   -3.6836   -0.1553 C   0  0  0  0  0  0  0  0  0  0  0  0
   -0.1421   -4.6392    0.0940 C   0  0  0  0  0  0  0  0  0  0  0  0
   -0.4179   -5.8415   -0.2046 O   0  0  0  0  0  0  0  0  0  0  0  0
    1.1290   -4.2787    0.5121 O   0  0  0  0  0  0  0  0  0  0  0  0
  1  2  1  0
  2  3  1  0
  3  4  1  0
  4  5  1  0
  6  5  1  1
  6  7  1  0
  7  8  1  0
  8  9  1  6
  8 10  1  0
 10 11  1  0
 11 12  1  6
 12 13  1  0
 14 13  1  1
 14 15  1  0
 15 16  1  0
 16 17  2  0
 16 18  1  0
 18 19  1  0
 20 19  1  6
 20 21  1  0
 20 22  1  0
 22 23  2  0
 22 24  1  0
 14 25  1  0
 25 26  2  0
 25 27  1  0
 27 28  1  0
 28 29  1  0
 29 30  2  0
 29 31  1  0
 11  6  1  0
M  END
>  <zinc_id>  (1) 
ZINC000031976570

>  <smiles>  (1) 
CCCCC[C@H]1O[C@@H](O)C[C@@H]1SC[C@H](NC(=O)CC[C@H](N)C(=O)O)C(=O)NCC(=O)O

$$$$
