
     RDKit          3D

 44 45  0  0  0  0  0  0  0  0999 V2000
    7.8161    4.6301   -0.0261 C   0  0  0  0  0  0  0  0  0  0  0  0
    7.4974    4.5207    0.2800 C   0  0  0  0  0  0  0  0  0  0  0  0
    6.2190    4.0275    0.6533 O   0  0  0  0  0  0  0  0  0  0  0  0
    6.0652    3.0669    1.6493 C   0  0  0  0  0  0  0  0  0  0  0  0
    7.1006    2.7908    2.3286 O   0  0  0  0  0  0  0  0  0  0  0  0
    5.1081    1.9617    1.5037 C   0  0  0  0  0  0  0  0  0  0  0  0
    4.4437    1.7252    0.3837 C   0  0  0  0  0  0  0  0  0  0  0  0
    4.3577    0.1229    0.0450 C   0  0  2  0  0  0  0  0  0  0  0  0
    3.8217    0.4245   -1.4994 C   0  0  0  0  0  0  0  0  0  0  0  0
    5.1092   -0.1420   -2.3756 C   0  0  2  0  0  0  0  0  0  0  0  0
    5.2463   -1.5503   -1.5164 C   0  0  0  0  0  0  0  0  0  0  0  0
    6.7194   -1.7070   -1.7386 C   0  0  0  0  0  0  0  0  0  0  0  0
    7.2093   -0.4428   -1.2674 N   0  0  0  0  0  0  0  0  0  0  0  0
    6.2212    0.5861   -1.4410 C   0  0  0  0  0  0  0  0  0  0  0  0
    6.6600    1.7207   -1.8088 O   0  0  0  0  0  0  0  0  0  0  0  0
    2.8827    0.0312    0.6531 N   0  0  0  0  0  0  0  0  0  0  0  0
    1.9918   -0.7927   -0.0256 C   0  0  0  0  0  0  0  0  0  0  0  0
    1.9107   -0.7313   -1.2190 O   0  0  0  0  0  0  0  0  0  0  0  0
    1.2010   -1.9384    0.8161 C   0  0  2  0  0  0  0  0  0  0  0  0
    2.1978   -3.1473    0.2434 C   0  0  0  0  0  0  0  0  0  0  0  0
    1.3625   -4.3163   -0.0290 C   0  0  0  0  0  0  0  0  0  0  0  0
    0.8358   -5.0911    1.1144 C   0  0  0  0  0  0  0  0  0  0  0  0
    2.0447   -5.1479   -1.0880 C   0  0  0  0  0  0  0  0  0  0  0  0
    0.1080   -2.2043   -0.3270 N   0  0  0  0  0  0  0  0  0  0  0  0
   -1.1021   -1.4708   -0.1800 C   0  0  0  0  0  0  0  0  0  0  0  0
   -1.0244   -0.3098    0.3284 O   0  0  0  0  0  0  0  0  0  0  0  0
   -2.3169   -2.3062    0.5397 C   0  0  1  0  0  0  0  0  0  0  0  0
   -3.4349   -1.4040   -0.1606 N   0  0  0  0  0  0  0  0  0  0  0  0
   -3.5806   -0.1980    0.5870 C   0  0  0  0  0  0  0  0  0  0  0  0
   -3.7362   -0.1858    1.8019 O   0  0  0  0  0  0  0  0  0  0  0  0
   -4.5125    0.8116   -0.2971 C   0  0  2  0  0  0  0  0  0  0  0  0
   -4.1334    2.1204    0.6674 C   0  0  0  0  0  0  0  0  0  0  0  0
   -5.8324    0.5007    0.5523 N   0  0  0  0  0  0  0  0  0  0  0  0
   -6.9839    0.2706   -0.2683 C   0  0  0  0  0  0  0  0  0  0  0  0
   -6.8404   -0.5703   -1.1953 O   0  0  0  0  0  0  0  0  0  0  0  0
   -8.1594    1.1529   -0.2664 C   0  0  0  0  0  0  0  0  0  0  0  0
   -8.5509    2.0686   -1.2401 C   0  0  0  0  0  0  0  0  0  0  0  0
   -8.9446    3.2277   -0.5816 C   0  0  0  0  0  0  0  0  0  0  0  0
   -8.8532    4.6458   -1.0322 C   0  0  0  0  0  0  0  0  0  0  0  0
   -9.2744    2.7994    0.6246 O   0  0  0  0  0  0  0  0  0  0  0  0
   -8.7655    1.6260    0.8507 N   0  0  0  0  0  0  0  0  0  0  0  0
   -2.3078   -3.4705   -0.6493 C   0  0  0  0  0  0  0  0  0  0  0  0
   -2.7896   -4.6993    0.0335 C   0  0  0  0  0  0  0  0  0  0  0  0
   -2.9868   -3.0058   -1.8300 C   0  0  0  0  0  0  0  0  0  0  0  0
  1  2  1  0
  2  3  1  0
  3  4  1  0
  4  5  2  0
  4  6  1  0
  6  7  2  0
  8  7  1  1
  8  9  1  0
 10  9  1  1
 10 11  1  0
 11 12  1  0
 12 13  1  0
 13 14  1  0
 14 15  2  0
  8 16  1  0
 16 17  1  0
 17 18  2  0
 19 17  1  6
 19 20  1  0
 20 21  1  0
 21 22  1  0
 21 23  1  0
 19 24  1  0
 24 25  1  0
 25 26  2  0
 27 25  1  6
 27 28  1  0
 28 29  1  0
 29 30  2  0
 31 29  1  1
 31 32  1  0
 31 33  1  0
 33 34  1  0
 34 35  2  0
 34 36  1  0
 36 37  1  0
 37 38  2  0
 38 39  1  0
 38 40  1  0
 40 41  1  0
 27 42  1  0
 42 43  1  0
 42 44  1  0
 14 10  1  0
 41 36  2  0
M  END
>  <zinc_id>  (1) 
ZINC000014881295

>  <smiles>  (1) 
CCOC(=O)/C=C/[C@H](C[C@@H]1CCNC1=O)NC(=O)[C@H](CC(C)C)NC(=O)[C@@H](NC(=O)[C@H](C)NC(=O)c1cc(C)on1)C(C)C

$$$$
