
     RDKit          3D

 51 51  0  0  0  0  0  0  0  0999 V2000
    1.3662   -3.5799    0.2921 C   0  0  0  0  0  0  0  0  0  0  0  0
    1.2478   -3.5656    0.0304 C   0  0  0  0  0  0  0  0  0  0  0  0
    1.7577   -4.7878   -0.6927 C   0  0  0  0  0  0  0  0  0  0  0  0
    2.2763   -2.6074    0.4902 C   0  0  0  0  0  0  0  0  0  0  0  0
    2.5531   -1.5365   -0.7292 C   0  0  2  0  0  0  0  0  0  0  0  0
    4.0663   -1.5717   -0.3409 N   0  0  0  0  0  0  0  0  0  0  0  0
    4.8684   -0.4763   -0.3556 C   0  0  0  0  0  0  0  0  0  0  0  0
    4.5495    0.3767   -1.2498 O   0  0  0  0  0  0  0  0  0  0  0  0
    6.4480   -0.7616   -0.5679 C   0  0  1  0  0  0  0  0  0  0  0  0
    6.8710   -0.2888    0.8729 N   0  0  0  0  0  0  0  0  0  0  0  0
    6.4000    1.0012    1.1678 C   0  0  0  0  0  0  0  0  0  0  0  0
    5.1836    0.9034    1.4473 O   0  0  0  0  0  0  0  0  0  0  0  0
    7.1477    2.0771    1.8386 C   0  0  0  0  0  0  0  0  0  0  0  0
    8.3749    2.4198    1.1868 N   0  0  0  0  0  0  0  0  0  0  0  0
    8.4155    3.3280    0.0878 C   0  0  0  0  0  0  0  0  0  0  0  0
    7.3237    3.7198   -0.4164 O   0  0  0  0  0  0  0  0  0  0  0  0
    9.7033    3.5398   -0.6086 C   0  0  0  0  0  0  0  0  0  0  0  0
   10.4042    2.2686   -0.7426 N   0  0  0  0  0  0  0  0  0  0  0  0
    6.3972   -2.3389   -0.0936 C   0  0  0  0  0  0  0  0  0  0  0  0
    7.5719   -2.6439    0.7238 C   0  0  0  0  0  0  0  0  0  0  0  0
    6.2585   -3.1401   -1.3631 C   0  0  0  0  0  0  0  0  0  0  0  0
    2.1708   -0.2889    0.2304 C   0  0  0  0  0  0  0  0  0  0  0  0
    2.7405   -0.2144    1.3173 O   0  0  0  0  0  0  0  0  0  0  0  0
    0.7863   -0.1928    0.1977 N   0  0  0  0  0  0  0  0  0  0  0  0
    0.0269    0.4757    1.4046 C   0  0  2  0  0  0  0  0  0  0  0  0
   -1.4069   -0.1061    0.9386 C   0  0  0  0  0  0  0  0  0  0  0  0
   -1.7639   -1.1201    1.5725 O   0  0  0  0  0  0  0  0  0  0  0  0
   -1.6293   -0.1380   -0.4056 N   0  0  0  0  0  0  0  0  0  0  0  0
   -2.9360   -0.7266   -1.0277 C   0  0  1  0  0  0  0  0  0  0  0  0
   -3.3484   -1.6620    0.2658 C   0  0  0  0  0  0  0  0  0  0  0  0
   -3.0692   -3.0140   -0.3944 C   0  0  0  0  0  0  0  0  0  0  0  0
   -4.2211   -3.9204   -0.3850 C   0  0  0  0  0  0  0  0  0  0  0  0
   -5.3011   -3.6076    0.5023 N   0  0  0  0  0  0  0  0  0  0  0  0
   -4.4379   -4.6696   -1.3748 O   0  0  0  0  0  0  0  0  0  0  0  0
   -3.8022    0.5493   -0.5318 C   0  0  0  0  0  0  0  0  0  0  0  0
   -3.4429    1.4693   -1.3364 O   0  0  0  0  0  0  0  0  0  0  0  0
   -5.1785    0.3224   -0.3533 N   0  0  0  0  0  0  0  0  0  0  0  0
   -5.8866   -0.6149    0.4416 C   0  0  0  0  0  0  0  0  0  0  0  0
   -6.9567   -1.1364   -0.4831 C   0  0  0  0  0  0  0  0  0  0  0  0
   -6.8627   -0.3660   -1.7592 C   0  0  0  0  0  0  0  0  0  0  0  0
   -6.2589    1.0679   -1.2262 C   0  0  1  0  0  0  0  0  0  0  0  0
   -7.3272    1.1636   -0.0162 C   0  0  0  0  0  0  0  0  0  0  0  0
   -6.8922    1.7597    0.9970 O   0  0  0  0  0  0  0  0  0  0  0  0
   -8.6644    1.3560   -0.4712 N   0  0  0  0  0  0  0  0  0  0  0  0
   -9.5655    2.2564    0.2046 C   0  0  0  0  0  0  0  0  0  0  0  0
   -8.9815    3.6136    0.3929 C   0  0  0  0  0  0  0  0  0  0  0  0
   -9.6623    4.4058    1.1114 O   0  0  0  0  0  0  0  0  0  0  0  0
   -7.9508    4.1051   -0.4086 O   0  0  0  0  0  0  0  0  0  0  0  0
   -0.2237    1.9038    0.6293 C   0  0  0  0  0  0  0  0  0  0  0  0
    0.8549    2.1464   -0.3360 C   0  0  0  0  0  0  0  0  0  0  0  0
    0.0058    2.8469    1.8097 C   0  0  0  0  0  0  0  0  0  0  0  0
  1  2  1  0
  2  3  1  0
  2  4  1  0
  5  4  1  1
  5  6  1  0
  6  7  1  0
  7  8  2  0
  9  7  1  1
  9 10  1  0
 10 11  1  0
 11 12  2  0
 11 13  1  0
 13 14  1  0
 14 15  1  0
 15 16  2  0
 15 17  1  0
 17 18  1  0
  9 19  1  0
 19 20  1  0
 19 21  1  0
  5 22  1  0
 22 23  2  0
 22 24  1  0
 25 24  1  6
 25 26  1  0
 26 27  2  0
 26 28  1  0
 29 28  1  1
 29 30  1  0
 30 31  1  0
 31 32  1  0
 32 33  1  0
 32 34  2  0
 29 35  1  0
 35 36  2  0
 35 37  1  0
 37 38  1  0
 38 39  1  0
 39 40  1  0
 40 41  1  0
 41 42  1  1
 42 43  2  0
 42 44  1  0
 44 45  1  0
 45 46  1  0
 46 47  2  0
 46 48  1  0
 25 49  1  0
 49 50  1  0
 49 51  1  0
 41 37  1  0
M  END
>  <zinc_id>  (1) 
ZINC000068009799

>  <smiles>  (1) 
CC(C)C[C@H](NC(=O)[C@@H](NC(=O)CNC(=O)CN)C(C)C)C(=O)N[C@H](C(=O)N[C@@H](CCC(N)=O)C(=O)N1CCC[C@H]1C(=O)NCC(=O)O)C(C)C

$$$$
