
     RDKit          3D

 15 15  0  0  0  0  0  0  0  0999 V2000
    2.5517    1.5770    0.6019 C   0  0  0  0  0  0  0  0  0  0  0  0
    2.8249    0.9311    0.1293 C   0  0  0  0  0  0  0  0  0  0  0  0
    4.1396    0.5905   -0.5341 C   0  0  0  0  0  0  0  0  0  0  0  0
    2.1024   -0.5463    0.3878 C   0  0  2  0  0  0  0  0  0  0  0  0
    1.6272   -0.6334   -1.1330 N   0  0  0  0  0  0  0  0  0  0  0  0
    0.7044    0.1647    0.8507 C   0  0  0  0  0  0  0  0  0  0  0  0
    0.8616    0.4525    2.0793 O   0  0  0  0  0  0  0  0  0  0  0  0
   -0.4591   -0.5361    0.4553 N   0  0  0  0  0  0  0  0  0  0  0  0
   -1.5416   -1.1326    1.1431 C   0  0  0  0  0  0  0  0  0  0  0  0
   -2.0393   -2.0811    0.1041 C   0  0  0  0  0  0  0  0  0  0  0  0
   -1.6415   -1.6197   -1.2373 C   0  0  0  0  0  0  0  0  0  0  0  0
   -1.0173   -0.1254   -0.9604 C   0  0  1  0  0  0  0  0  0  0  0  0
   -2.5087    0.4757   -0.3288 B   0  0  0  0  0  0  0  0  0  0  0  0
   -3.2792    0.9992   -1.4693 O   0  0  0  0  0  0  0  0  0  0  0  0
   -2.3252    1.4839    0.7306 O   0  0  0  0  0  0  0  0  0  0  0  0
  1  2  1  0
  2  3  1  0
  4  2  1  6
  4  5  1  0
  4  6  1  0
  6  7  2  0
  6  8  1  0
  8  9  1  0
  9 10  1  0
 10 11  1  0
 11 12  1  0
 12 13  1  1
 13 14  1  0
 13 15  1  0
 12  8  1  0
M  END
>  <zinc_id>  (1) 
ZINC000169746694

>  <smiles>  (1) 
CC(C)[C@H](N)C(=O)N1CCC[C@H]1B(O)O

$$$$
