24963035
  -OEChem-10051720563D

 55 57  0     1  0  0  0  0  0999 V2000
   -5.0049    0.3595   -0.3680 O   0  0  0  0  0  0  0  0  0  0  0  0
   -2.7724    0.9611    0.7050 O   0  0  0  0  0  0  0  0  0  0  0  0
    0.2728    0.1516   -1.0069 O   0  0  0  0  0  0  0  0  0  0  0  0
   -1.7453   -1.0638    0.2568 N   0  0  0  0  0  0  0  0  0  0  0  0
    1.1089    0.9338    1.0200 N   0  0  0  0  0  0  0  0  0  0  0  0
    8.1151   -0.5863    0.5883 N   0  0  0  0  0  0  0  0  0  0  0  0
    7.6217   -0.5911   -1.6959 N   0  0  0  0  0  0  0  0  0  0  0  0
   -0.5333   -0.8093    1.0242 C   0  0  1  0  0  0  0  0  0  0  0  0
   -6.2347    0.0106   -0.9910 C   0  0  0  0  0  0  0  0  0  0  0  0
    0.1288   -2.1748    1.1669 C   0  0  0  0  0  0  0  0  0  0  0  0
   -7.0279    1.2740   -1.2871 C   0  0  0  0  0  0  0  0  0  0  0  0
   -7.1306   -0.7358   -0.0141 C   0  0  0  0  0  0  0  0  0  0  0  0
   -0.3239   -2.9213   -0.0856 C   0  0  0  0  0  0  0  0  0  0  0  0
   -1.7414   -2.4135   -0.3020 C   0  0  0  0  0  0  0  0  0  0  0  0
   -7.6703    1.6450    0.0487 C   0  0  0  0  0  0  0  0  0  0  0  0
   -7.7080    0.3607    0.8774 C   0  0  0  0  0  0  0  0  0  0  0  0
   -2.8058   -0.1719    0.2219 C   0  0  0  0  0  0  0  0  0  0  0  0
   -4.0489   -0.6675   -0.4728 C   0  0  0  0  0  0  0  0  0  0  0  0
    0.3082    0.1361    0.2207 C   0  0  0  0  0  0  0  0  0  0  0  0
    2.0298    1.9129    0.4893 C   0  0  0  0  0  0  0  0  0  0  0  0
    3.3904    1.3284    0.2418 C   0  0  0  0  0  0  0  0  0  0  0  0
    4.2466    1.0742    1.3132 C   0  0  0  0  0  0  0  0  0  0  0  0
    3.7981    1.0397   -1.0606 C   0  0  0  0  0  0  0  0  0  0  0  0
    5.5104    0.5311    1.0824 C   0  0  0  0  0  0  0  0  0  0  0  0
    5.0620    0.4966   -1.2915 C   0  0  0  0  0  0  0  0  0  0  0  0
    5.9181    0.2423   -0.2200 C   0  0  0  0  0  0  0  0  0  0  0  0
    7.2364   -0.3224   -0.4610 C   0  0  0  0  0  0  0  0  0  0  0  0
   -0.7938   -0.3680    1.9925 H   0  0  0  0  0  0  0  0  0  0  0  0
   -6.0548   -0.5553   -1.9124 H   0  0  0  0  0  0  0  0  0  0  0  0
   -0.2636   -2.6866    2.0541 H   0  0  0  0  0  0  0  0  0  0  0  0
    1.2191   -2.1306    1.2503 H   0  0  0  0  0  0  0  0  0  0  0  0
   -7.8140    1.0623   -2.0217 H   0  0  0  0  0  0  0  0  0  0  0  0
   -6.4057    2.0902   -1.6669 H   0  0  0  0  0  0  0  0  0  0  0  0
   -6.6103   -1.4899    0.5824 H   0  0  0  0  0  0  0  0  0  0  0  0
   -7.9460   -1.2284   -0.5572 H   0  0  0  0  0  0  0  0  0  0  0  0
    0.3106   -2.6445   -0.9359 H   0  0  0  0  0  0  0  0  0  0  0  0
   -0.2804   -4.0081    0.0280 H   0  0  0  0  0  0  0  0  0  0  0  0
   -2.0281   -2.3987   -1.3570 H   0  0  0  0  0  0  0  0  0  0  0  0
   -2.4665   -3.0137    0.2581 H   0  0  0  0  0  0  0  0  0  0  0  0
   -8.6714    2.0636   -0.0973 H   0  0  0  0  0  0  0  0  0  0  0  0
   -7.0710    2.4036    0.5654 H   0  0  0  0  0  0  0  0  0  0  0  0
   -7.0930    0.4830    1.7767 H   0  0  0  0  0  0  0  0  0  0  0  0
   -8.7231    0.1160    1.2057 H   0  0  0  0  0  0  0  0  0  0  0  0
   -4.3999   -1.5800    0.0176 H   0  0  0  0  0  0  0  0  0  0  0  0
   -3.8162   -0.8608   -1.5252 H   0  0  0  0  0  0  0  0  0  0  0  0
    1.0797    0.8163    2.0286 H   0  0  0  0  0  0  0  0  0  0  0  0
    2.0996    2.7313    1.2149 H   0  0  0  0  0  0  0  0  0  0  0  0
    1.6123    2.3357   -0.4320 H   0  0  0  0  0  0  0  0  0  0  0  0
    3.9389    1.2955    2.3319 H   0  0  0  0  0  0  0  0  0  0  0  0
    3.1404    1.2312   -1.9043 H   0  0  0  0  0  0  0  0  0  0  0  0
    6.1357    0.3535    1.9504 H   0  0  0  0  0  0  0  0  0  0  0  0
    5.3478    0.2832   -2.3179 H   0  0  0  0  0  0  0  0  0  0  0  0
    7.9009   -0.4108    1.5620 H   0  0  0  0  0  0  0  0  0  0  0  0
    9.0315   -0.9793    0.3997 H   0  0  0  0  0  0  0  0  0  0  0  0
    8.5715   -0.9775   -1.6601 H   0  0  0  0  0  0  0  0  0  0  0  0
  1  9  1  0  0  0  0
  1 18  1  0  0  0  0
  2 17  2  0  0  0  0
  3 19  2  0  0  0  0
  4  8  1  0  0  0  0
  4 14  1  0  0  0  0
  4 17  1  0  0  0  0
  5 19  1  0  0  0  0
  5 20  1  0  0  0  0
  5 46  1  0  0  0  0
  6 27  1  0  0  0  0
  6 53  1  0  0  0  0
  6 54  1  0  0  0  0
  7 27  2  0  0  0  0
  7 55  1  0  0  0  0
  8 10  1  0  0  0  0
  8 19  1  0  0  0  0
  8 28  1  0  0  0  0
  9 11  1  0  0  0  0
  9 12  1  0  0  0  0
  9 29  1  0  0  0  0
 10 13  1  0  0  0  0
 10 30  1  0  0  0  0
 10 31  1  0  0  0  0
 11 15  1  0  0  0  0
 11 32  1  0  0  0  0
 11 33  1  0  0  0  0
 12 16  1  0  0  0  0
 12 34  1  0  0  0  0
 12 35  1  0  0  0  0
 13 14  1  0  0  0  0
 13 36  1  0  0  0  0
 13 37  1  0  0  0  0
 14 38  1  0  0  0  0
 14 39  1  0  0  0  0
 15 16  1  0  0  0  0
 15 40  1  0  0  0  0
 15 41  1  0  0  0  0
 16 42  1  0  0  0  0
 16 43  1  0  0  0  0
 17 18  1  0  0  0  0
 18 44  1  0  0  0  0
 18 45  1  0  0  0  0
 20 21  1  0  0  0  0
 20 47  1  0  0  0  0
 20 48  1  0  0  0  0
 21 22  2  0  0  0  0
 21 23  1  0  0  0  0
 22 24  1  0  0  0  0
 22 49  1  0  0  0  0
 23 25  2  0  0  0  0
 23 50  1  0  0  0  0
 24 26  2  0  0  0  0
 24 51  1  0  0  0  0
 25 26  1  0  0  0  0
 25 52  1  0  0  0  0
 26 27  1  0  0  0  0
M  END
> <DATABASE_ID>
DB07088

> <DATABASE_NAME>
drugbank

> <ORIGINAL_SOURCE>
PUBCHEM

> <ORIGINAL_SOURCE_URL>
https://pubchem.ncbi.nlm.nih.gov/rest/pug/compound/inchikey/ZWXWAYUCJVQHOR-KRWDZBQOSA-N/SDF?record_type=3d

> <SMILES>
[H][C@]1(CCCN1C(=O)COC1CCCC1)C(=O)NCC1=CC=C(C=C1)C(N)=N

> <INCHI_IDENTIFIER>
InChI=1S/C20H28N4O3/c21-19(22)15-9-7-14(8-10-15)12-23-20(26)17-6-3-11-24(17)18(25)13-27-16-4-1-2-5-16/h7-10,16-17H,1-6,11-13H2,(H3,21,22)(H,23,26)/t17-/m0/s1

> <INCHI_KEY>
ZWXWAYUCJVQHOR-KRWDZBQOSA-N

> <FORMULA>
C20H28N4O3

> <MOLECULAR_WEIGHT>
372.4613

> <EXACT_MASS>
372.216140782

> <JCHEM_ACCEPTOR_COUNT>
5

> <JCHEM_ATOM_COUNT>
55

> <JCHEM_AVERAGE_NEUTRAL_MICROSPECIES_CHARGE>
0.9999671201377875

> <JCHEM_AVERAGE_POLARIZABILITY>
40.35878050902611

> <JCHEM_BIOAVAILABILITY>
1

> <JCHEM_DONOR_COUNT>
3

> <JCHEM_FORMAL_CHARGE>
0

> <JCHEM_GHOSE_FILTER>
1

> <JCHEM_IUPAC>
(2S)-N-[(4-carbamimidoylphenyl)methyl]-1-[2-(cyclopentyloxy)acetyl]pyrrolidine-2-carboxamide

> <ALOGPS_LOGP>
1.02

> <JCHEM_LOGP>
0.7550562339999995

> <ALOGPS_LOGS>
-3.32

> <JCHEM_MDDR_LIKE_RULE>
1

> <JCHEM_NEUTRAL_CHARGE>
1

> <JCHEM_NUMBER_OF_RINGS>
3

> <JCHEM_PHYSIOLOGICAL_CHARGE>
1

> <JCHEM_PKA>
19.771752416586448

> <JCHEM_PKA_STRONGEST_ACIDIC>
14.364907140569247

> <JCHEM_PKA_STRONGEST_BASIC>
11.483626367772013

> <JCHEM_POLAR_SURFACE_AREA>
108.50999999999999

> <JCHEM_REFRACTIVITY>
113.5008

> <JCHEM_ROTATABLE_BOND_COUNT>
7

> <JCHEM_RULE_OF_FIVE>
1

> <ALOGPS_SOLUBILITY>
1.80e-01 g/l

> <JCHEM_TRADITIONAL_IUPAC>
biotin

> <JCHEM_VEBER_RULE>
0

$$$$
