
     RDKit          3D

 15 16  0  0  0  0  0  0  0  0999 V2000
    0.8735   -0.6248    1.4731 O   0  0  0  0  0  0  0  0  0  0  0  0
    0.6670   -0.4711    0.6249 C   0  0  0  0  0  0  0  0  0  0  0  0
    1.7462   -0.8148   -0.5660 C   0  0  2  0  0  0  0  0  0  0  0  0
    3.0429   -0.7635    0.4793 C   0  0  0  0  0  0  0  0  0  0  0  0
    3.8055    0.3930   -0.0399 C   0  0  0  0  0  0  0  0  0  0  0  0
    2.5860    1.3160    0.0358 C   0  0  0  0  0  0  0  0  0  0  0  0
    1.8499    0.7186   -0.9845 N   0  0  0  0  0  0  0  0  0  0  0  0
   -0.6494   -0.7293    0.1009 N   0  0  0  0  0  0  0  0  0  0  0  0
   -0.9819   -1.9778   -0.5882 C   0  0  0  0  0  0  0  0  0  0  0  0
   -2.4592   -1.7845   -0.6482 C   0  0  0  0  0  0  0  0  0  0  0  0
   -2.7338   -0.3806   -0.9546 C   0  0  0  0  0  0  0  0  0  0  0  0
   -1.2652    0.3550   -0.8706 C   0  0  1  0  0  0  0  0  0  0  0  0
   -1.7550    1.3616    0.4427 B   0  0  0  0  0  0  0  0  0  0  0  0
   -2.2484    2.6661   -0.0185 O   0  0  0  0  0  0  0  0  0  0  0  0
   -2.4780    0.7362    1.5138 O   0  0  0  0  0  0  0  0  0  0  0  0
  1  2  2  0
  3  2  1  1
  3  4  1  0
  4  5  1  0
  5  6  1  0
  6  7  1  0
  2  8  1  0
  8  9  1  0
  9 10  1  0
 10 11  1  0
 11 12  1  0
 12 13  1  1
 13 14  1  0
 13 15  1  0
  7  3  1  0
 12  8  1  0
M  END
>  <zinc_id>  (1) 
ZINC000169748497

>  <smiles>  (1) 
O=C([C@@H]1CCCN1)N1CCC[C@H]1B(O)O

$$$$
