
     RDKit          3D

 31 32  0  0  0  0  0  0  0  0999 V2000
    4.1582    3.5465    0.7469 C   0  0  0  0  0  0  0  0  0  0  0  0
    2.9783    2.6615    0.8012 C   0  0  0  0  0  0  0  0  0  0  0  0
    2.1065    2.9565    1.6686 O   0  0  0  0  0  0  0  0  0  0  0  0
    2.7833    1.6039   -0.1459 N   0  0  0  0  0  0  0  0  0  0  0  0
    2.2015    0.3245    0.5843 C   0  0  2  0  0  0  0  0  0  0  0  0
    3.2536   -0.6853   -0.1901 C   0  0  0  0  0  0  0  0  0  0  0  0
    4.5706   -0.0345   -0.1637 C   0  0  0  0  0  0  0  0  0  0  0  0
    5.2534   -0.1273   -1.3744 C   0  0  0  0  0  0  0  0  0  0  0  0
    6.5761    0.2619   -1.4899 C   0  0  0  0  0  0  0  0  0  0  0  0
    7.2189    0.5685   -0.2966 C   0  0  0  0  0  0  0  0  0  0  0  0
    6.7195    0.0382    0.8711 C   0  0  0  0  0  0  0  0  0  0  0  0
    5.3744   -0.2896    0.9412 C   0  0  0  0  0  0  0  0  0  0  0  0
    1.0611    0.0973   -0.5548 C   0  0  0  0  0  0  0  0  0  0  0  0
    0.3773    1.1022   -0.7956 O   0  0  0  0  0  0  0  0  0  0  0  0
    0.6102   -1.1763   -0.4557 N   0  0  0  0  0  0  0  0  0  0  0  0
    1.2536   -2.4440   -0.1287 C   0  0  0  0  0  0  0  0  0  0  0  0
    0.4886   -2.6606    1.1668 C   0  0  0  0  0  0  0  0  0  0  0  0
   -0.9194   -2.4312    0.7801 C   0  0  0  0  0  0  0  0  0  0  0  0
   -0.7936   -1.8189   -0.7549 C   0  0  1  0  0  0  0  0  0  0  0  0
   -1.6405   -0.4746   -0.4125 C   0  0  0  0  0  0  0  0  0  0  0  0
   -1.6371   -0.0821    0.7595 O   0  0  0  0  0  0  0  0  0  0  0  0
   -2.9341   -0.6374   -1.0182 N   0  0  0  0  0  0  0  0  0  0  0  0
   -4.1417   -0.0430   -0.2142 C   0  0  1  0  0  0  0  0  0  0  0  0
   -5.1628   -0.1450   -1.4923 C   0  0  0  0  0  0  0  0  0  0  0  0
   -6.5449   -0.3007   -0.8635 C   0  0  0  0  0  0  0  0  0  0  0  0
   -6.7361    0.8309    0.1139 C   0  0  0  0  0  0  0  0  0  0  0  0
   -6.0684    2.0535   -0.4479 C   0  0  0  0  0  0  0  0  0  0  0  0
   -6.6745    3.2158    0.1787 N   0  0  0  0  0  0  0  0  0  0  0  0
   -4.6275   -1.5622    0.4097 B   0  0  0  0  0  0  0  0  0  0  0  0
   -4.6922   -2.6736   -0.4992 O   0  0  0  0  0  0  0  0  0  0  0  0
   -4.4126   -1.6750    1.8538 O   0  0  0  0  0  0  0  0  0  0  0  0
  1  2  1  0
  2  3  2  0
  2  4  1  0
  5  4  1  6
  5  6  1  0
  6  7  1  0
  7  8  2  0
  8  9  1  0
  9 10  2  0
 10 11  1  0
 11 12  2  0
  5 13  1  0
 13 14  2  0
 13 15  1  0
 15 16  1  0
 16 17  1  0
 17 18  1  0
 18 19  1  0
 19 20  1  1
 20 21  2  0
 20 22  1  0
 23 22  1  6
 23 24  1  0
 24 25  1  0
 25 26  1  0
 26 27  1  0
 27 28  1  0
 23 29  1  0
 29 30  1  0
 29 31  1  0
 12  7  1  0
 19 15  1  0
M  END
>  <zinc_id>  (1) 
ZINC000169748501

>  <smiles>  (1) 
CC(=O)N[C@H](Cc1ccccc1)C(=O)N1CCC[C@H]1C(=O)N[C@@H](CCCCN)B(O)O

$$$$
