
     RDKit          3D

 30 31  0  0  0  0  0  0  0  0999 V2000
   -5.3931   -2.6439   -0.8708 C   0  0  0  0  0  0  0  0  0  0  0  0
   -4.1514   -1.9725   -0.5942 C   0  0  0  0  0  0  0  0  0  0  0  0
   -3.3759   -1.6731   -1.5450 O   0  0  0  0  0  0  0  0  0  0  0  0
   -3.9888   -0.8455    0.2537 N   0  0  0  0  0  0  0  0  0  0  0  0
   -2.7534   -0.9236    1.2297 C   0  0  2  0  0  0  0  0  0  0  0  0
   -2.3075    0.6393    1.0357 C   0  0  0  0  0  0  0  0  0  0  0  0
   -3.2851    1.4390    0.4017 C   0  0  0  0  0  0  0  0  0  0  0  0
   -4.6259    1.6386    0.7085 C   0  0  0  0  0  0  0  0  0  0  0  0
   -5.3827    2.2137   -0.3097 C   0  0  0  0  0  0  0  0  0  0  0  0
   -4.8594    3.3369   -0.9396 C   0  0  0  0  0  0  0  0  0  0  0  0
   -3.4951    3.5331   -0.8242 C   0  0  0  0  0  0  0  0  0  0  0  0
   -2.7622    2.5171   -0.3128 C   0  0  0  0  0  0  0  0  0  0  0  0
   -1.6855   -1.5119    0.1580 C   0  0  0  0  0  0  0  0  0  0  0  0
   -1.7974   -2.7627    0.4320 O   0  0  0  0  0  0  0  0  0  0  0  0
   -0.3161   -1.0943    0.3804 N   0  0  0  0  0  0  0  0  0  0  0  0
    0.1333    0.2548    0.1832 C   0  0  0  0  0  0  0  0  0  0  0  0
    0.1551    0.3320   -1.3423 C   0  0  0  0  0  0  0  0  0  0  0  0
    0.0769   -1.0753   -1.8671 C   0  0  0  0  0  0  0  0  0  0  0  0
    0.6388   -1.9269   -0.5725 C   0  0  1  0  0  0  0  0  0  0  0  0
    1.9438   -0.9889   -0.4405 C   0  0  0  0  0  0  0  0  0  0  0  0
    2.6090   -1.0507   -1.5263 O   0  0  0  0  0  0  0  0  0  0  0  0
    2.8948   -1.3402    0.5380 N   0  0  0  0  0  0  0  0  0  0  0  0
    3.9247   -0.2181    0.9014 C   0  0  1  0  0  0  0  0  0  0  0  0
    5.2414   -1.1205    0.5291 C   0  0  0  0  0  0  0  0  0  0  0  0
    6.2866   -0.2884    1.1245 C   0  0  0  0  0  0  0  0  0  0  0  0
    7.1693    0.5777    0.4242 C   0  0  0  0  0  0  0  0  0  0  0  0
    7.0874    1.9986    0.5872 N   0  0  0  0  0  0  0  0  0  0  0  0
    3.9427    0.6195   -0.5826 B   0  0  0  0  0  0  0  0  0  0  0  0
    4.9039    0.4849   -1.5772 O   0  0  0  0  0  0  0  0  0  0  0  0
    3.1718    1.8513   -0.3515 O   0  0  0  0  0  0  0  0  0  0  0  0
  1  2  1  0
  2  3  2  0
  2  4  1  0
  5  4  1  6
  5  6  1  0
  6  7  1  0
  7  8  2  0
  8  9  1  0
  9 10  2  0
 10 11  1  0
 11 12  2  0
  5 13  1  0
 13 14  2  0
 13 15  1  0
 15 16  1  0
 16 17  1  0
 17 18  1  0
 18 19  1  0
 19 20  1  1
 20 21  2  0
 20 22  1  0
 23 22  1  6
 23 24  1  0
 24 25  1  0
 25 26  1  0
 26 27  1  0
 23 28  1  0
 28 29  1  0
 28 30  1  0
 12  7  1  0
 19 15  1  0
M  END
>  <zinc_id>  (1) 
ZINC000169748503

>  <smiles>  (1) 
CC(=O)N[C@H](Cc1ccccc1)C(=O)N1CCC[C@H]1C(=O)N[C@@H](CCCN)B(O)O

$$$$
