
     RDKit          3D

 32 32  0  0  0  0  0  0  0  0999 V2000
    1.7008    1.3326    0.2383 C   0  0  0  0  0  0  0  0  0  0  0  0
    2.0131    1.0200   -0.6237 C   0  0  0  0  0  0  0  0  0  0  0  0
    1.2292    1.6241   -1.7095 C   0  0  0  0  0  0  0  0  0  0  0  0
    1.6799   -0.6137   -0.5686 C   0  0  2  0  0  0  0  0  0  0  0  0
    2.4544   -0.8770   -1.9498 N   0  0  0  0  0  0  0  0  0  0  0  0
    3.8552   -0.5969   -1.8501 C   0  0  0  0  0  0  0  0  0  0  0  0
    4.0829    0.5935   -1.5105 O   0  0  0  0  0  0  0  0  0  0  0  0
    4.8759   -1.5204   -1.8803 O   0  0  0  0  0  0  0  0  0  0  0  0
    6.2256   -1.1565   -1.5868 C   0  0  0  0  0  0  0  0  0  0  0  0
    6.3528   -0.8404   -0.1297 C   0  0  0  0  0  0  0  0  0  0  0  0
    7.5994   -0.8174    0.4789 C   0  0  0  0  0  0  0  0  0  0  0  0
    7.6837   -0.7079    1.8638 C   0  0  0  0  0  0  0  0  0  0  0  0
    6.5393   -0.5338    2.6342 C   0  0  0  0  0  0  0  0  0  0  0  0
    5.3140   -0.5467    1.9905 C   0  0  0  0  0  0  0  0  0  0  0  0
    5.2984   -1.1271    0.7293 C   0  0  0  0  0  0  0  0  0  0  0  0
    0.2018   -0.4655   -1.2381 C   0  0  0  0  0  0  0  0  0  0  0  0
    0.0468   -0.4999   -2.4250 O   0  0  0  0  0  0  0  0  0  0  0  0
   -0.8660   -0.3696   -0.3320 N   0  0  0  0  0  0  0  0  0  0  0  0
   -1.9220    0.7490   -0.7722 C   0  0  1  0  0  0  0  0  0  0  0  0
   -2.2660   -0.0488   -2.2013 C   0  0  0  0  0  0  0  0  0  0  0  0
   -3.1025    0.0131    0.0663 C   0  0  0  0  0  0  0  0  0  0  0  0
   -3.5870   -1.0192   -0.3393 O   0  0  0  0  0  0  0  0  0  0  0  0
   -3.6219    0.5890    1.1869 N   0  0  0  0  0  0  0  0  0  0  0  0
   -5.2083    0.6576    1.3596 C   0  0  1  0  0  0  0  0  0  0  0  0
   -5.5809   -0.4329    0.1471 C   0  0  0  0  0  0  0  0  0  0  0  0
   -6.1472    0.4966   -0.8908 C   0  0  0  0  0  0  0  0  0  0  0  0
   -5.8132    1.7219   -0.9264 O   0  0  0  0  0  0  0  0  0  0  0  0
   -6.2842   -0.0699   -2.1633 O   0  0  0  0  0  0  0  0  0  0  0  0
   -5.2127   -0.5007    2.5183 C   0  0  0  0  0  0  0  0  0  0  0  0
   -4.5816   -1.4810    2.2798 O   0  0  0  0  0  0  0  0  0  0  0  0
   -6.5674   -0.6550    3.1442 C   0  0  0  0  0  0  0  0  0  0  0  0
   -6.3924   -1.0584    4.4604 F   0  0  0  0  0  0  0  0  0  0  0  0
  1  2  1  0
  2  3  1  0
  4  2  1  6
  4  5  1  0
  5  6  1  0
  6  7  2  0
  6  8  1  0
  8  9  1  0
  9 10  1  0
 10 11  2  0
 11 12  1  0
 12 13  2  0
 13 14  1  0
 14 15  2  0
  4 16  1  0
 16 17  2  0
 16 18  1  0
 19 18  1  1
 19 20  1  0
 19 21  1  0
 21 22  2  0
 21 23  1  0
 24 23  1  6
 24 25  1  0
 25 26  1  0
 26 27  2  0
 26 28  1  0
 24 29  1  0
 29 30  2  0
 29 31  1  0
 31 32  1  0
 15 10  1  0
M  END
>  <zinc_id>  (1) 
ZINC000025668028

>  <smiles>  (1) 
CC(C)[C@H](NC(=O)OCc1ccccc1)C(=O)N[C@@H](C)C(=O)N[C@@H](CC(=O)O)C(=O)CF

$$$$
