448763
  -OEChem-06112217073D

 62 64  0     1  0  0  0  0  0999 V2000
    1.1900    1.9159    1.2257 O   0  0  0  0  0  0  0  0  0  0  0  0
   -0.2946   -1.1673    0.1542 O   0  0  0  0  0  0  0  0  0  0  0  0
   -1.1468    0.9774    0.3282 N   0  0  0  0  0  0  0  0  0  0  0  0
    2.1383    1.6993   -0.8913 N   0  0  0  0  0  0  0  0  0  0  0  0
    6.7762   -2.9046   -0.2988 N   0  0  0  0  0  0  0  0  0  0  0  0
   -1.5681   -1.3724    2.6907 N   0  0  0  0  0  0  0  0  0  0  0  0
    4.1357    0.4912   -0.1837 C   0  0  0  0  0  0  0  0  0  0  0  0
    5.5838    0.6645    0.2933 C   0  0  0  0  0  0  0  0  0  0  0  0
    4.0676   -0.4483   -1.3950 C   0  0  0  0  0  0  0  0  0  0  0  0
    6.1784   -1.6120   -0.6313 C   0  0  0  0  0  0  0  0  0  0  0  0
    6.2473   -0.6814    0.5839 C   0  0  0  0  0  0  0  0  0  0  0  0
    4.7318   -1.7937   -1.1043 C   0  0  0  0  0  0  0  0  0  0  0  0
   -0.2545    1.5908   -0.6469 C   0  0  1  0  0  0  0  0  0  0  0  0
    3.5116    1.8454   -0.5157 C   0  0  0  0  0  0  0  0  0  0  0  0
   -0.8916    2.9397   -0.9602 C   0  0  0  0  0  0  0  0  0  0  0  0
   -1.6300    3.2914    0.3290 C   0  0  0  0  0  0  0  0  0  0  0  0
   -2.1229    1.9418    0.8288 C   0  0  0  0  0  0  0  0  0  0  0  0
    1.0820    1.7465    0.0140 C   0  0  0  0  0  0  0  0  0  0  0  0
   -1.1361   -0.3827    0.5953 C   0  0  0  0  0  0  0  0  0  0  0  0
   -2.2396   -0.8765    1.4963 C   0  0  1  0  0  0  0  0  0  0  0  0
   -3.0534   -1.9791    0.8190 C   0  0  0  0  0  0  0  0  0  0  0  0
   -4.0746   -1.4365   -0.1535 C   0  0  0  0  0  0  0  0  0  0  0  0
   -1.2003   -0.2748    3.5745 C   0  0  0  0  0  0  0  0  0  0  0  0
   -5.3621   -1.1291    0.2866 C   0  0  0  0  0  0  0  0  0  0  0  0
   -3.7300   -1.2424   -1.4911 C   0  0  0  0  0  0  0  0  0  0  0  0
   -6.3050   -0.6280   -0.6109 C   0  0  0  0  0  0  0  0  0  0  0  0
   -4.6728   -0.7412   -2.3886 C   0  0  0  0  0  0  0  0  0  0  0  0
   -5.9603   -0.4339   -1.9484 C   0  0  0  0  0  0  0  0  0  0  0  0
    3.5608    0.0317    0.6328 H   0  0  0  0  0  0  0  0  0  0  0  0
    6.1671    1.1977   -0.4683 H   0  0  0  0  0  0  0  0  0  0  0  0
    5.6070    1.2807    1.2001 H   0  0  0  0  0  0  0  0  0  0  0  0
    3.0267   -0.6348   -1.6838 H   0  0  0  0  0  0  0  0  0  0  0  0
    4.5593    0.0174   -2.2588 H   0  0  0  0  0  0  0  0  0  0  0  0
    6.7618   -1.1682   -1.4481 H   0  0  0  0  0  0  0  0  0  0  0  0
    7.2920   -0.5114    0.8723 H   0  0  0  0  0  0  0  0  0  0  0  0
    5.7515   -1.1469    1.4461 H   0  0  0  0  0  0  0  0  0  0  0  0
    4.1483   -2.3248   -0.3406 H   0  0  0  0  0  0  0  0  0  0  0  0
    4.7057   -2.4117   -2.0102 H   0  0  0  0  0  0  0  0  0  0  0  0
   -0.1747    0.9498   -1.5316 H   0  0  0  0  0  0  0  0  0  0  0  0
    3.5745    2.5155    0.3492 H   0  0  0  0  0  0  0  0  0  0  0  0
    4.0323    2.3254   -1.3517 H   0  0  0  0  0  0  0  0  0  0  0  0
   -0.1721    3.7119   -1.2486 H   0  0  0  0  0  0  0  0  0  0  0  0
   -1.6190    2.8260   -1.7733 H   0  0  0  0  0  0  0  0  0  0  0  0
   -2.4447    4.0035    0.1714 H   0  0  0  0  0  0  0  0  0  0  0  0
   -0.9321    3.7305    1.0517 H   0  0  0  0  0  0  0  0  0  0  0  0
   -2.1874    1.9160    1.9191 H   0  0  0  0  0  0  0  0  0  0  0  0
   -3.0990    1.6975    0.3959 H   0  0  0  0  0  0  0  0  0  0  0  0
    1.9334    1.5679   -1.8776 H   0  0  0  0  0  0  0  0  0  0  0  0
    6.7738   -3.5053   -1.1221 H   0  0  0  0  0  0  0  0  0  0  0  0
    7.7531   -2.7746   -0.0393 H   0  0  0  0  0  0  0  0  0  0  0  0
   -2.9499   -0.1013    1.7910 H   0  0  0  0  0  0  0  0  0  0  0  0
   -3.5939   -2.5702    1.5717 H   0  0  0  0  0  0  0  0  0  0  0  0
   -2.4063   -2.6999    0.3013 H   0  0  0  0  0  0  0  0  0  0  0  0
   -2.1917   -1.9974    3.2014 H   0  0  0  0  0  0  0  0  0  0  0  0
   -2.0743    0.3008    3.8968 H   0  0  0  0  0  0  0  0  0  0  0  0
   -0.7304   -0.6853    4.4743 H   0  0  0  0  0  0  0  0  0  0  0  0
   -0.4695    0.3986    3.1173 H   0  0  0  0  0  0  0  0  0  0  0  0
   -5.6420   -1.2731    1.3268 H   0  0  0  0  0  0  0  0  0  0  0  0
   -2.7307   -1.4782   -1.8473 H   0  0  0  0  0  0  0  0  0  0  0  0
   -7.3072   -0.3878   -0.2681 H   0  0  0  0  0  0  0  0  0  0  0  0
   -4.4044   -0.5898   -3.4300 H   0  0  0  0  0  0  0  0  0  0  0  0
   -6.6942   -0.0433   -2.6472 H   0  0  0  0  0  0  0  0  0  0  0  0
  1 18  2  0  0  0  0
  2 19  2  0  0  0  0
  3 13  1  0  0  0  0
  3 17  1  0  0  0  0
  3 19  1  0  0  0  0
  4 14  1  0  0  0  0
  4 18  1  0  0  0  0
  4 48  1  0  0  0  0
  5 10  1  0  0  0  0
  5 49  1  0  0  0  0
  5 50  1  0  0  0  0
  6 20  1  0  0  0  0
  6 23  1  0  0  0  0
  6 54  1  0  0  0  0
  7  8  1  0  0  0  0
  7  9  1  0  0  0  0
  7 14  1  0  0  0  0
  7 29  1  0  0  0  0
  8 11  1  0  0  0  0
  8 30  1  0  0  0  0
  8 31  1  0  0  0  0
  9 12  1  0  0  0  0
  9 32  1  0  0  0  0
  9 33  1  0  0  0  0
 10 11  1  0  0  0  0
 10 12  1  0  0  0  0
 10 34  1  0  0  0  0
 11 35  1  0  0  0  0
 11 36  1  0  0  0  0
 12 37  1  0  0  0  0
 12 38  1  0  0  0  0
 13 15  1  0  0  0  0
 13 18  1  0  0  0  0
 13 39  1  0  0  0  0
 14 40  1  0  0  0  0
 14 41  1  0  0  0  0
 15 16  1  0  0  0  0
 15 42  1  0  0  0  0
 15 43  1  0  0  0  0
 16 17  1  0  0  0  0
 16 44  1  0  0  0  0
 16 45  1  0  0  0  0
 17 46  1  0  0  0  0
 17 47  1  0  0  0  0
 19 20  1  0  0  0  0
 20 21  1  0  0  0  0
 20 51  1  0  0  0  0
 21 22  1  0  0  0  0
 21 52  1  0  0  0  0
 21 53  1  0  0  0  0
 22 24  2  0  0  0  0
 22 25  1  0  0  0  0
 23 55  1  0  0  0  0
 23 56  1  0  0  0  0
 23 57  1  0  0  0  0
 24 26  1  0  0  0  0
 24 58  1  0  0  0  0
 25 27  2  0  0  0  0
 25 59  1  0  0  0  0
 26 28  2  0  0  0  0
 26 60  1  0  0  0  0
 27 28  1  0  0  0  0
 27 61  1  0  0  0  0
 28 62  1  0  0  0  0
M  END
> <PUBCHEM_COMPOUND_CID>
448763

> <PUBCHEM_CONFORMER_RMSD>
1

> <PUBCHEM_CONFORMER_DIVERSEORDER>
1
146
168
90
74
38
15
66
24
79
136
166
75
96
72
171
132
60
76
158
127
139
155
48
95
161
120
145
80
64
159
125
10
104
117
112
99
169
123
55
89
121
26
77
33
118
18
30
69
83
119
3
88
128
91
151
8
16
53
82
93
27
122
45
170
85
153
63
138
126
173
142
162
32
102
34
6
92
113
160
41
164
46
62
130
81
19
172
131
73
115
17
106
50
124
2
49
111
150
21
103
148
42
44
7
94
107
68
57
25
141
137
108
147
59
134
129
36
11
105
101
116
35
100
31
152
58
133
4
61
12
9
51
47
84
109
98
22
78
39
97
156
29
144
149
71
135
13
14
165
40
140
65
70
110
56
5
86
163
37
157
43
167
87
114
20
52
54
28
67
143
23
154

> <PUBCHEM_MMFF94_PARTIAL_CHARGES>
30
1 -0.57
10 0.27
13 0.36
14 0.3
17 0.3
18 0.57
19 0.57
2 -0.57
20 0.33
21 0.14
22 -0.14
23 0.27
24 -0.15
25 -0.15
26 -0.15
27 -0.15
28 -0.15
3 -0.66
4 -0.73
48 0.37
49 0.36
5 -0.99
50 0.36
54 0.36
58 0.15
59 0.15
6 -0.9
60 0.15
61 0.15
62 0.15

> <PUBCHEM_EFFECTIVE_ROTOR_COUNT>
11.2

> <PUBCHEM_PHARMACOPHORE_FEATURES>
10
1 1 acceptor
1 2 acceptor
1 4 donor
1 5 cation
1 5 donor
1 6 cation
1 6 donor
5 3 13 15 16 17 rings
6 22 24 25 26 27 28 rings
6 7 8 9 10 11 12 rings

> <PUBCHEM_HEAVY_ATOM_COUNT>
28

> <PUBCHEM_ATOM_DEF_STEREO_COUNT>
2

> <PUBCHEM_ATOM_UDEF_STEREO_COUNT>
0

> <PUBCHEM_BOND_DEF_STEREO_COUNT>
0

> <PUBCHEM_BOND_UDEF_STEREO_COUNT>
0

> <PUBCHEM_ISOTOPIC_ATOM_COUNT>
0

> <PUBCHEM_COMPONENT_COUNT>
1

> <PUBCHEM_CACTVS_TAUTO_COUNT>
2

> <PUBCHEM_CONFORMER_ID>
0006D8FB00000001

> <PUBCHEM_MMFF94_ENERGY>
49.0985

> <PUBCHEM_FEATURE_SELFOVERLAP>
50.746

> <PUBCHEM_SHAPE_FINGERPRINT>
10 15 12175617382968339070
10483366 6 18336539426995659103
11796584 16 17458343100264196042
1200032 147 16155093999692389437
12596602 18 16272214093909393618
12760667 363 18341894090907917405
12788726 201 18040984121037814305
13533116 47 18271804666192901196
14068700 675 17203607112000148579
14251740 79 17821725044439798957
14840074 17 17988926690658800815
14950920 106 15481284699425695694
15052358 14 17967805059852201391
15183329 4 17603859001085737493
15361156 5 18264510411686436772
15420108 30 17832143819083275153
15510800 12 18335989692841879802
15629462 23 18336555984479577563
17857418 61 17917993901352797782
19315092 285 17345750935746252344
19958102 18 17749382650708737510
21279426 13 17967528008470304487
21315764 119 16153704302546131058
21458453 9 13541890395545085998
23536364 44 18188196638064989781
23559900 14 18189612928768087288
23569943 247 18342174441158065227
3004659 81 17822288024510608948
3027735 51 18339647732918412531
3459 83 18410015455400203805
3729539 64 17313653859227877283
38570 142 12540694799721996166
4015057 19 18335144240586505984
4058900 60 15647602364450494513
437795 139 16772373240513412215
444769 64 18338243661439580185
463206 1 18201435947284121926
469060 322 13470680426193063905
508706 21 18263663779064188054
563151 40 17677891224299216397
5924683 9 18272935990258329780
8988823 20 17703226334134176240

> <PUBCHEM_SHAPE_MULTIPOLES>
544.56
15.77
3.04
2.18
13.4
1.67
1.55
-12.02
-6.68
1.36
-0.22
-2.57
-0.67
0.29

> <PUBCHEM_SHAPE_SELFOVERLAP>
1127.291

> <PUBCHEM_SHAPE_VOLUME>
309.8

> <PUBCHEM_COORDINATE_TYPE>
2
5
10

$$$$
