91617630
  -OEChem-10051722323D

 55 57  0     0  0  0  0  0  0999 V2000
    2.0384   -2.3995   -0.5345 O   0  0  0  0  0  0  0  0  0  0  0  0
   -2.1471   -0.6125    0.4066 O   0  0  0  0  0  0  0  0  0  0  0  0
    1.5293    2.1328    0.3639 O   0  0  0  0  0  0  0  0  0  0  0  0
   -1.3232    2.1280    1.5446 O   0  0  0  0  0  0  0  0  0  0  0  0
   -4.3698    2.1475   -0.3560 O   0  0  0  0  0  0  0  0  0  0  0  0
   -5.0503    4.2659    0.0876 O   0  0  0  0  0  0  0  0  0  0  0  0
   -0.0880   -1.5408   -0.1668 N   0  0  0  0  0  0  0  0  0  0  0  0
    1.8253   -0.1142   -0.1794 N   0  0  0  0  0  0  0  0  0  0  0  0
   -1.8454    2.7595   -0.6344 N   0  0  0  0  0  0  0  0  0  0  0  0
   -0.6201   -2.8816   -0.1292 C   0  0  0  0  0  0  0  0  0  0  0  0
    3.2626    0.0113   -0.1545 C   0  0  0  0  0  0  0  0  0  0  0  0
    3.7446    0.9427   -1.2699 C   0  0  0  0  0  0  0  0  0  0  0  0
   -1.6614   -3.0768   -1.2338 C   0  0  0  0  0  0  0  0  0  0  0  0
   -1.2062   -3.1934    1.2504 C   0  0  0  0  0  0  0  0  0  0  0  0
    3.7353    0.4953    1.2184 C   0  0  0  0  0  0  0  0  0  0  0  0
    5.2491    0.6875    1.2568 C   0  0  0  0  0  0  0  0  0  0  0  0
    5.2586    1.1328   -1.2284 C   0  0  0  0  0  0  0  0  0  0  0  0
   -1.8236   -4.5887    1.2964 C   0  0  0  0  0  0  0  0  0  0  0  0
   -2.2797   -4.4716   -1.1841 C   0  0  0  0  0  0  0  0  0  0  0  0
    5.7278    1.6132    0.1419 C   0  0  0  0  0  0  0  0  0  0  0  0
   -2.8598   -4.7818    0.1929 C   0  0  0  0  0  0  0  0  0  0  0  0
    1.3107   -1.4219   -0.3278 C   0  0  0  0  0  0  0  0  0  0  0  0
   -0.4045    0.8782   -0.2733 C   0  0  0  0  0  0  0  0  0  0  0  0
   -0.9766   -0.4806    0.0459 C   0  0  0  0  0  0  0  0  0  0  0  0
    1.0649    1.0429    0.0258 C   0  0  0  0  0  0  0  0  0  0  0  0
   -1.2257    1.9820    0.3290 C   0  0  0  0  0  0  0  0  0  0  0  0
   -2.7100    3.8728   -0.3160 C   0  0  0  0  0  0  0  0  0  0  0  0
   -4.1553    3.4708   -0.1719 C   0  0  0  0  0  0  0  0  0  0  0  0
    3.7366   -0.9622   -0.3286 H   0  0  0  0  0  0  0  0  0  0  0  0
    0.1747   -3.6152   -0.3100 H   0  0  0  0  0  0  0  0  0  0  0  0
    3.2814    1.9332   -1.2167 H   0  0  0  0  0  0  0  0  0  0  0  0
    3.4596    0.5282   -2.2451 H   0  0  0  0  0  0  0  0  0  0  0  0
    3.2873    1.4418    1.5289 H   0  0  0  0  0  0  0  0  0  0  0  0
   -2.4760   -2.3478   -1.1741 H   0  0  0  0  0  0  0  0  0  0  0  0
   -0.4148   -3.1262    2.0078 H   0  0  0  0  0  0  0  0  0  0  0  0
   -1.9816   -2.4928    1.5675 H   0  0  0  0  0  0  0  0  0  0  0  0
    3.4474   -0.2367    1.9839 H   0  0  0  0  0  0  0  0  0  0  0  0
   -1.1920   -2.9253   -2.2141 H   0  0  0  0  0  0  0  0  0  0  0  0
   -1.5157   -5.2181   -1.4341 H   0  0  0  0  0  0  0  0  0  0  0  0
    5.5618    1.8535   -1.9962 H   0  0  0  0  0  0  0  0  0  0  0  0
    5.7521    0.1834   -1.4706 H   0  0  0  0  0  0  0  0  0  0  0  0
   -2.2893   -4.7556    2.2743 H   0  0  0  0  0  0  0  0  0  0  0  0
   -1.0324   -5.3411    1.1889 H   0  0  0  0  0  0  0  0  0  0  0  0
   -3.0656   -4.5548   -1.9433 H   0  0  0  0  0  0  0  0  0  0  0  0
    5.7427   -0.2872    1.1577 H   0  0  0  0  0  0  0  0  0  0  0  0
    5.5461    1.0959    2.2295 H   0  0  0  0  0  0  0  0  0  0  0  0
    6.8218    1.6737    0.1569 H   0  0  0  0  0  0  0  0  0  0  0  0
    5.3487    2.6267    0.3221 H   0  0  0  0  0  0  0  0  0  0  0  0
   -3.2321   -5.8122    0.2127 H   0  0  0  0  0  0  0  0  0  0  0  0
   -3.7195   -4.1271    0.3819 H   0  0  0  0  0  0  0  0  0  0  0  0
   -0.4637    0.9442   -1.3703 H   0  0  0  0  0  0  0  0  0  0  0  0
   -1.7192    2.5414   -1.6180 H   0  0  0  0  0  0  0  0  0  0  0  0
   -2.6267    4.5926   -1.1349 H   0  0  0  0  0  0  0  0  0  0  0  0
   -2.3797    4.3267    0.6230 H   0  0  0  0  0  0  0  0  0  0  0  0
   -5.3167    1.9114   -0.2566 H   0  0  0  0  0  0  0  0  0  0  0  0
  1 22  2  0  0  0  0
  2 24  2  0  0  0  0
  3 25  2  0  0  0  0
  4 26  2  0  0  0  0
  5 28  1  0  0  0  0
  5 55  1  0  0  0  0
  6 28  2  0  0  0  0
  7 10  1  0  0  0  0
  7 22  1  0  0  0  0
  7 24  1  0  0  0  0
  8 11  1  0  0  0  0
  8 22  1  0  0  0  0
  8 25  1  0  0  0  0
  9 26  1  0  0  0  0
  9 27  1  0  0  0  0
  9 52  1  0  0  0  0
 10 13  1  0  0  0  0
 10 14  1  0  0  0  0
 10 30  1  0  0  0  0
 11 12  1  0  0  0  0
 11 15  1  0  0  0  0
 11 29  1  0  0  0  0
 12 17  1  0  0  0  0
 12 31  1  0  0  0  0
 12 32  1  0  0  0  0
 13 19  1  0  0  0  0
 13 34  1  0  0  0  0
 13 38  1  0  0  0  0
 14 18  1  0  0  0  0
 14 35  1  0  0  0  0
 14 36  1  0  0  0  0
 15 16  1  0  0  0  0
 15 33  1  0  0  0  0
 15 37  1  0  0  0  0
 16 20  1  0  0  0  0
 16 45  1  0  0  0  0
 16 46  1  0  0  0  0
 17 20  1  0  0  0  0
 17 40  1  0  0  0  0
 17 41  1  0  0  0  0
 18 21  1  0  0  0  0
 18 42  1  0  0  0  0
 18 43  1  0  0  0  0
 19 21  1  0  0  0  0
 19 39  1  0  0  0  0
 19 44  1  0  0  0  0
 20 47  1  0  0  0  0
 20 48  1  0  0  0  0
 21 49  1  0  0  0  0
 21 50  1  0  0  0  0
 23 24  1  0  0  0  0
 23 25  1  0  0  0  0
 23 26  1  0  0  0  0
 23 51  1  0  0  0  0
 27 28  1  0  0  0  0
 27 53  1  0  0  0  0
 27 54  1  0  0  0  0
M  END
> <DATABASE_ID>
DB11682

> <DATABASE_NAME>
drugbank

> <ORIGINAL_SOURCE>
PUBCHEM

> <ORIGINAL_SOURCE_URL>
https://pubchem.ncbi.nlm.nih.gov/rest/pug/compound/inchikey/RUEYEZADQJCKGV-UHFFFAOYSA-N/SDF?record_type=3d

> <SMILES>
OC(=O)CNC(=O)C1C(=O)N(C2CCCCC2)C(=O)N(C2CCCCC2)C1=O

> <INCHI_IDENTIFIER>
InChI=1S/C19H27N3O6/c23-14(24)11-20-16(25)15-17(26)21(12-7-3-1-4-8-12)19(28)22(18(15)27)13-9-5-2-6-10-13/h12-13,15H,1-11H2,(H,20,25)(H,23,24)

> <INCHI_KEY>
RUEYEZADQJCKGV-UHFFFAOYSA-N

> <FORMULA>
C19H27N3O6

> <MOLECULAR_WEIGHT>
393.44

> <EXACT_MASS>
393.189985601

> <JCHEM_ACCEPTOR_COUNT>
6

> <JCHEM_ATOM_COUNT>
55

> <JCHEM_AVERAGE_POLARIZABILITY>
40.179528700788325

> <JCHEM_BIOAVAILABILITY>
1

> <JCHEM_DONOR_COUNT>
2

> <JCHEM_FORMAL_CHARGE>
0

> <JCHEM_GHOSE_FILTER>
1

> <JCHEM_IUPAC>
2-[(1,3-dicyclohexyl-2,4,6-trioxo-1,3-diazinan-5-yl)formamido]acetic acid

> <ALOGPS_LOGP>
1.48

> <JCHEM_LOGP>
1.404245742333333

> <ALOGPS_LOGS>
-3.06

> <JCHEM_MDDR_LIKE_RULE>
0

> <JCHEM_NUMBER_OF_RINGS>
3

> <JCHEM_PHYSIOLOGICAL_CHARGE>
-2

> <JCHEM_PKA>
3.3918761592024618

> <JCHEM_PKA_STRONGEST_ACIDIC>
0.35371730264769097

> <JCHEM_PKA_STRONGEST_BASIC>
-9.093415739566518

> <JCHEM_POLAR_SURFACE_AREA>
124.09000000000002

> <JCHEM_REFRACTIVITY>
96.89179999999998

> <JCHEM_ROTATABLE_BOND_COUNT>
5

> <JCHEM_RULE_OF_FIVE>
1

> <ALOGPS_SOLUBILITY>
3.45e-01 g/l

> <JCHEM_TRADITIONAL_IUPAC>
[(1,3-dicyclohexyl-2,4,6-trioxo-1,3-diazinan-5-yl)formamido]acetic acid

> <JCHEM_VEBER_RULE>
0

$$$$
