49802864
  -OEChem-10051722533D

 52 52  0     1  0  0  0  0  0999 V2000
   -6.0167   -0.8064   -1.3262 S   0  0  0  0  0  0  0  0  0  0  0  0
   -6.1496   -2.4984   -0.1753 S   0  0  0  0  0  0  0  0  0  0  0  0
   -0.3052    2.8430    2.0355 O   0  0  0  0  0  0  0  0  0  0  0  0
    2.5865    1.4213   -1.4038 O   0  0  0  0  0  0  0  0  0  0  0  0
   -1.0447   -2.8893   -0.9990 O   0  0  0  0  0  0  0  0  0  0  0  0
   -0.5297   -2.8458    1.2111 O   0  0  0  0  0  0  0  0  0  0  0  0
    4.7764   -2.1495    0.7846 O   0  0  0  0  0  0  0  0  0  0  0  0
    6.4212   -1.9603   -0.7558 O   0  0  0  0  0  0  0  0  0  0  0  0
    0.5013    1.9034    0.0736 N   0  0  0  0  0  0  0  0  0  0  0  0
    3.6688    0.1613    0.2188 N   0  0  0  0  0  0  0  0  0  0  0  0
   -4.8972    0.1227   -0.2336 C   0  0  2  0  0  0  0  0  0  0  0  0
   -3.9867    1.0322   -1.0443 C   0  0  0  0  0  0  0  0  0  0  0  0
   -3.0407    1.8258   -0.1427 C   0  0  0  0  0  0  0  0  0  0  0  0
   -4.1108   -0.9202    0.5645 C   0  0  0  0  0  0  0  0  0  0  0  0
   -2.1468    2.7606   -0.9633 C   0  0  0  0  0  0  0  0  0  0  0  0
   -1.2094    3.5885   -0.0855 C   0  0  0  0  0  0  0  0  0  0  0  0
   -5.0713   -1.9391    1.1661 C   0  0  0  0  0  0  0  0  0  0  0  0
    1.4600    1.0245    0.6996 C   0  0  1  0  0  0  0  0  0  0  0  0
    0.8305   -0.3426    0.9926 C   0  0  0  0  0  0  0  0  0  0  0  0
   -0.3125    2.7514    0.8109 C   0  0  0  0  0  0  0  0  0  0  0  0
    2.6183    0.9140   -0.2840 C   0  0  0  0  0  0  0  0  0  0  0  0
    0.2018   -1.0214   -0.2268 C   0  0  0  0  0  0  0  0  0  0  0  0
    4.8715   -0.1189   -0.5316 C   0  0  1  0  0  0  0  0  0  0  0  0
   -0.4706   -2.3357    0.1010 C   0  0  0  0  0  0  0  0  0  0  0  0
    5.9135    0.9640   -0.2959 C   0  0  0  0  0  0  0  0  0  0  0  0
    5.4421   -1.4853   -0.1903 C   0  0  0  0  0  0  0  0  0  0  0  0
   -5.5156    0.7232    0.4442 H   0  0  0  0  0  0  0  0  0  0  0  0
   -4.5914    1.7354   -1.6316 H   0  0  0  0  0  0  0  0  0  0  0  0
   -3.3928    0.4468   -1.7587 H   0  0  0  0  0  0  0  0  0  0  0  0
   -2.4063    1.1414    0.4281 H   0  0  0  0  0  0  0  0  0  0  0  0
   -3.6217    2.4130    0.5788 H   0  0  0  0  0  0  0  0  0  0  0  0
   -3.3716   -1.4258   -0.0706 H   0  0  0  0  0  0  0  0  0  0  0  0
   -3.5527   -0.4511    1.3822 H   0  0  0  0  0  0  0  0  0  0  0  0
   -2.7739    3.4471   -1.5452 H   0  0  0  0  0  0  0  0  0  0  0  0
   -1.5737    2.1726   -1.6893 H   0  0  0  0  0  0  0  0  0  0  0  0
   -1.7961    4.2574    0.5552 H   0  0  0  0  0  0  0  0  0  0  0  0
   -0.5724    4.2207   -0.7151 H   0  0  0  0  0  0  0  0  0  0  0  0
   -5.6829   -1.4861    1.9532 H   0  0  0  0  0  0  0  0  0  0  0  0
   -4.5316   -2.7878    1.5960 H   0  0  0  0  0  0  0  0  0  0  0  0
    1.8265    1.4796    1.6270 H   0  0  0  0  0  0  0  0  0  0  0  0
    0.0495   -0.2097    1.7535 H   0  0  0  0  0  0  0  0  0  0  0  0
    1.5691   -1.0184    1.4403 H   0  0  0  0  0  0  0  0  0  0  0  0
    0.4380    1.9063   -0.9404 H   0  0  0  0  0  0  0  0  0  0  0  0
   -0.5625   -0.3741   -0.6700 H   0  0  0  0  0  0  0  0  0  0  0  0
    0.9717   -1.2244   -0.9791 H   0  0  0  0  0  0  0  0  0  0  0  0
    3.6183   -0.1821    1.1735 H   0  0  0  0  0  0  0  0  0  0  0  0
    4.6027   -0.1460   -1.5943 H   0  0  0  0  0  0  0  0  0  0  0  0
    6.2067    1.0061    0.7594 H   0  0  0  0  0  0  0  0  0  0  0  0
    6.8185    0.7763   -0.8835 H   0  0  0  0  0  0  0  0  0  0  0  0
    5.5270    1.9505   -0.5735 H   0  0  0  0  0  0  0  0  0  0  0  0
   -1.4969   -3.7342   -0.7890 H   0  0  0  0  0  0  0  0  0  0  0  0
    5.1746   -3.0269    0.9686 H   0  0  0  0  0  0  0  0  0  0  0  0
  1  2  1  0  0  0  0
  1 11  1  0  0  0  0
  2 17  1  0  0  0  0
  3 20  2  0  0  0  0
  4 21  2  0  0  0  0
  5 24  1  0  0  0  0
  5 51  1  0  0  0  0
  6 24  2  0  0  0  0
  7 26  1  0  0  0  0
  7 52  1  0  0  0  0
  8 26  2  0  0  0  0
  9 18  1  0  0  0  0
  9 20  1  0  0  0  0
  9 43  1  0  0  0  0
 10 21  1  0  0  0  0
 10 23  1  0  0  0  0
 10 46  1  0  0  0  0
 11 12  1  0  0  0  0
 11 14  1  0  0  0  0
 11 27  1  0  0  0  0
 12 13  1  0  0  0  0
 12 28  1  0  0  0  0
 12 29  1  0  0  0  0
 13 15  1  0  0  0  0
 13 30  1  0  0  0  0
 13 31  1  0  0  0  0
 14 17  1  0  0  0  0
 14 32  1  0  0  0  0
 14 33  1  0  0  0  0
 15 16  1  0  0  0  0
 15 34  1  0  0  0  0
 15 35  1  0  0  0  0
 16 20  1  0  0  0  0
 16 36  1  0  0  0  0
 16 37  1  0  0  0  0
 17 38  1  0  0  0  0
 17 39  1  0  0  0  0
 18 19  1  0  0  0  0
 18 21  1  0  0  0  0
 18 40  1  0  0  0  0
 19 22  1  0  0  0  0
 19 41  1  0  0  0  0
 19 42  1  0  0  0  0
 22 24  1  0  0  0  0
 22 44  1  0  0  0  0
 22 45  1  0  0  0  0
 23 25  1  0  0  0  0
 23 26  1  0  0  0  0
 23 47  1  0  0  0  0
 25 48  1  0  0  0  0
 25 49  1  0  0  0  0
 25 50  1  0  0  0  0
M  END
> <DATABASE_ID>
DB12795

> <DATABASE_NAME>
drugbank

> <ORIGINAL_SOURCE>
PUBCHEM

> <ORIGINAL_SOURCE_URL>
https://pubchem.ncbi.nlm.nih.gov/rest/pug/compound/inchikey/MQXRTCVZPIHBLD-TUAOUCFPSA-N/SDF?record_type=3d

> <SMILES>
C[C@H](NC(=O)[C@H](CCC(O)=O)NC(=O)CCCC[C@@H]1CCSS1)C(O)=O

> <INCHI_IDENTIFIER>
InChI=1S/C16H26N2O6S2/c1-10(16(23)24)17-15(22)12(6-7-14(20)21)18-13(19)5-3-2-4-11-8-9-25-26-11/h10-12H,2-9H2,1H3,(H,17,22)(H,18,19)(H,20,21)(H,23,24)/t10-,11+,12-/m0/s1

> <INCHI_KEY>
MQXRTCVZPIHBLD-TUAOUCFPSA-N

> <FORMULA>
C16H26N2O6S2

> <MOLECULAR_WEIGHT>
406.51

> <EXACT_MASS>
406.123228913

> <JCHEM_ACCEPTOR_COUNT>
6

> <JCHEM_ATOM_COUNT>
52

> <JCHEM_AVERAGE_POLARIZABILITY>
41.75267344217181

> <JCHEM_BIOAVAILABILITY>
1

> <JCHEM_DONOR_COUNT>
4

> <JCHEM_FORMAL_CHARGE>
0

> <JCHEM_GHOSE_FILTER>
1

> <JCHEM_IUPAC>
(4S)-4-{[(1S)-1-carboxyethyl]carbamoyl}-4-{5-[(3R)-1,2-dithiolan-3-yl]pentanamido}butanoic acid

> <ALOGPS_LOGP>
1.24

> <JCHEM_LOGP>
0.687590707999999

> <ALOGPS_LOGS>
-3.68

> <JCHEM_MDDR_LIKE_RULE>
0

> <JCHEM_NUMBER_OF_RINGS>
1

> <JCHEM_PHYSIOLOGICAL_CHARGE>
-2

> <JCHEM_PKA>
4.338749726687411

> <JCHEM_PKA_STRONGEST_ACIDIC>
3.498137933595597

> <JCHEM_PKA_STRONGEST_BASIC>
-1.3121114455181413

> <JCHEM_POLAR_SURFACE_AREA>
132.8

> <JCHEM_REFRACTIVITY>
99.75659999999999

> <JCHEM_ROTATABLE_BOND_COUNT>
12

> <JCHEM_RULE_OF_FIVE>
1

> <ALOGPS_SOLUBILITY>
8.52e-02 g/l

> <JCHEM_TRADITIONAL_IUPAC>
(4S)-4-{[(1S)-1-carboxyethyl]carbamoyl}-4-{5-[(3R)-1,2-dithiolan-3-yl]pentanamido}butanoic acid

> <JCHEM_VEBER_RULE>
0

$$$$
