
     RDKit          3D

 44 46  0  0  0  0  0  0  0  0999 V2000
   -6.8219   -1.0377   -3.0433 C   0  0  0  0  0  0  0  0  0  0  0  0
   -5.9015   -1.5565   -2.2203 C   0  0  0  0  0  0  0  0  0  0  0  0
   -5.1346   -2.4921   -2.6004 O   0  0  0  0  0  0  0  0  0  0  0  0
   -5.4779   -0.8671   -1.0675 N   0  0  0  0  0  0  0  0  0  0  0  0
   -5.0502   -1.7554    0.1583 C   0  0  2  0  0  0  0  0  0  0  0  0
   -5.1594   -0.4938    1.2092 C   0  0  0  0  0  0  0  0  0  0  0  0
   -6.6289   -0.2031    1.2761 C   0  0  0  0  0  0  0  0  0  0  0  0
   -7.4583   -0.7897    2.2244 C   0  0  0  0  0  0  0  0  0  0  0  0
   -8.8211   -0.5089    2.2480 C   0  0  0  0  0  0  0  0  0  0  0  0
   -9.3915    0.3012    1.2761 C   0  0  0  0  0  0  0  0  0  0  0  0
  -10.6919    0.1683    0.8397 O   0  0  0  0  0  0  0  0  0  0  0  0
   -8.5468    1.0833    0.5280 C   0  0  0  0  0  0  0  0  0  0  0  0
   -7.1884    0.9098    0.6565 C   0  0  0  0  0  0  0  0  0  0  0  0
   -3.4679   -1.5706   -0.0704 C   0  0  0  0  0  0  0  0  0  0  0  0
   -3.1194   -2.6844   -0.5789 O   0  0  0  0  0  0  0  0  0  0  0  0
   -2.9134   -0.4039   -0.5366 N   0  0  0  0  0  0  0  0  0  0  0  0
   -3.6468    0.8435   -0.7933 C   0  0  0  0  0  0  0  0  0  0  0  0
   -2.7319    1.7688   -1.5254 C   0  0  0  0  0  0  0  0  0  0  0  0
   -1.4181    1.1164   -1.2790 C   0  0  0  0  0  0  0  0  0  0  0  0
   -1.7126    0.3545    0.1494 C   0  0  2  0  0  0  0  0  0  0  0  0
   -0.5725   -0.7459   -0.1664 C   0  0  0  0  0  0  0  0  0  0  0  0
   -0.6873   -1.8094    0.5169 O   0  0  0  0  0  0  0  0  0  0  0  0
    0.7183   -0.1102   -0.0378 N   0  0  0  0  0  0  0  0  0  0  0  0
    1.2018    0.8944   -0.8416 C   0  0  0  0  0  0  0  0  0  0  0  0
    2.0905    1.8910    0.1038 C   0  0  1  0  0  0  0  0  0  0  0  0
    1.3201    3.1289   -0.3232 O   0  0  0  0  0  0  0  0  0  0  0  0
    1.1008    1.6323    1.3855 C   0  0  0  0  0  0  0  0  0  0  0  0
    1.2789    0.0003    1.4223 C   0  0  2  0  0  0  0  0  0  0  0  0
    2.8310   -0.0047    0.9806 C   0  0  0  0  0  0  0  0  0  0  0  0
    3.5459    0.2334    1.9809 O   0  0  0  0  0  0  0  0  0  0  0  0
    3.2310   -0.9783    0.0377 N   0  0  0  0  0  0  0  0  0  0  0  0
    4.6188   -1.2271   -0.1977 C   0  0  0  0  0  0  0  0  0  0  0  0
    5.3499   -0.0164   -0.7035 C   0  0  0  0  0  0  0  0  0  0  0  0
    4.8593    0.5464   -1.7059 O   0  0  0  0  0  0  0  0  0  0  0  0
    5.9206    0.7780    0.2611 N   0  0  0  0  0  0  0  0  0  0  0  0
    6.5747    2.1646   -0.0661 C   0  0  2  0  0  0  0  0  0  0  0  0
    5.7790    2.4145   -1.4848 C   0  0  0  0  0  0  0  0  0  0  0  0
    7.8533    1.4920   -0.7823 C   0  0  0  0  0  0  0  0  0  0  0  0
    7.6683    0.6355   -1.6403 O   0  0  0  0  0  0  0  0  0  0  0  0
    8.8486    1.2060    0.2097 N   0  0  0  0  0  0  0  0  0  0  0  0
    9.9176    0.3007   -0.1406 C   0  0  0  0  0  0  0  0  0  0  0  0
    9.4121   -1.1002   -0.2730 C   0  0  0  0  0  0  0  0  0  0  0  0
    8.8213   -1.7826    0.8111 N   0  0  0  0  0  0  0  0  0  0  0  0
    9.6005   -1.7256   -1.3440 O   0  0  0  0  0  0  0  0  0  0  0  0
  1  2  1  0
  2  3  2  0
  2  4  1  0
  5  4  1  6
  5  6  1  0
  6  7  1  0
  7  8  2  0
  8  9  1  0
  9 10  2  0
 10 11  1  0
 10 12  1  0
 12 13  2  0
  5 14  1  0
 14 15  2  0
 14 16  1  0
 16 17  1  0
 17 18  1  0
 18 19  1  0
 19 20  1  0
 20 21  1  6
 21 22  2  0
 21 23  1  0
 23 24  1  0
 24 25  1  0
 25 26  1  6
 25 27  1  0
 27 28  1  0
 28 29  1  6
 29 30  2  0
 29 31  1  0
 31 32  1  0
 32 33  1  0
 33 34  2  0
 33 35  1  0
 36 35  1  1
 36 37  1  0
 36 38  1  0
 38 39  2  0
 38 40  1  0
 40 41  1  0
 41 42  1  0
 42 43  1  0
 42 44  2  0
 13  7  1  0
 20 16  1  0
 28 23  1  0
M  END
>  <zinc_id>  (1) 
ZINC000014175498

>  <smiles>  (1) 
CC(=O)N[C@H](Cc1ccc(O)cc1)C(=O)N1CCC[C@@H]1C(=O)N1C[C@@H](O)C[C@@H]1C(=O)NCC(=O)N[C@H](C)C(=O)NCC(N)=O

$$$$
