51712
  -OEChem-10061700183D

 46 46  0     0  0  0  0  0  0999 V2000
   -3.6496   -1.8868   -1.0451 O   0  0  0  0  0  0  0  0  0  0  0  0
   -1.3401    0.2095    1.0978 O   0  0  0  0  0  0  0  0  0  0  0  0
    3.2675   -0.0419    0.5813 N   0  0  0  0  0  0  0  0  0  0  0  0
   -3.6077    0.3602   -0.3445 N   0  0  0  0  0  0  0  0  0  0  0  0
   -0.0560    1.1686   -0.5854 N   0  0  0  0  0  0  0  0  0  0  0  0
    4.0017   -1.2970    0.4080 C   0  0  0  0  0  0  0  0  0  0  0  0
    4.0703    1.0851    0.1024 C   0  0  0  0  0  0  0  0  0  0  0  0
    1.9886   -0.0945   -0.1151 C   0  0  0  0  0  0  0  0  0  0  0  0
   -4.3612    1.1913    0.5642 C   0  0  0  0  0  0  0  0  0  0  0  0
   -5.6789    0.4536    0.6928 C   0  0  0  0  0  0  0  0  0  0  0  0
    1.2051    1.1885    0.1203 C   0  0  0  0  0  0  0  0  0  0  0  0
   -5.2994   -1.0097    0.4996 C   0  0  0  0  0  0  0  0  0  0  0  0
   -2.3989    0.8361   -0.9814 C   0  0  0  0  0  0  0  0  0  0  0  0
   -4.0993   -0.9410   -0.4156 C   0  0  0  0  0  0  0  0  0  0  0  0
    4.2678   -1.5543   -1.0724 C   0  0  0  0  0  0  0  0  0  0  0  0
    3.2056   -2.4407    1.0286 C   0  0  0  0  0  0  0  0  0  0  0  0
    4.3398    0.9450   -1.3931 C   0  0  0  0  0  0  0  0  0  0  0  0
    5.3747    1.1506    0.8905 C   0  0  0  0  0  0  0  0  0  0  0  0
   -1.2299    0.6772   -0.0327 C   0  0  0  0  0  0  0  0  0  0  0  0
    4.9480   -1.2944    0.9582 H   0  0  0  0  0  0  0  0  0  0  0  0
    3.5756    2.0376    0.3124 H   0  0  0  0  0  0  0  0  0  0  0  0
    1.9985   -0.2948   -1.1874 H   0  0  0  0  0  0  0  0  0  0  0  0
    1.3646   -0.8893    0.3108 H   0  0  0  0  0  0  0  0  0  0  0  0
   -3.8312    1.2430    1.5203 H   0  0  0  0  0  0  0  0  0  0  0  0
   -4.4917    2.1968    0.1543 H   0  0  0  0  0  0  0  0  0  0  0  0
   -6.1813    0.6425    1.6455 H   0  0  0  0  0  0  0  0  0  0  0  0
   -6.3571    0.7628   -0.1125 H   0  0  0  0  0  0  0  0  0  0  0  0
    1.7017    2.0768   -0.2757 H   0  0  0  0  0  0  0  0  0  0  0  0
    1.0143    1.3434    1.1885 H   0  0  0  0  0  0  0  0  0  0  0  0
   -4.9954   -1.4723    1.4437 H   0  0  0  0  0  0  0  0  0  0  0  0
   -6.1094   -1.5834    0.0429 H   0  0  0  0  0  0  0  0  0  0  0  0
   -2.2042    0.2301   -1.8726 H   0  0  0  0  0  0  0  0  0  0  0  0
   -2.5252    1.8840   -1.2695 H   0  0  0  0  0  0  0  0  0  0  0  0
    4.3687   -2.6490   -1.1711 H   0  0  0  0  0  0  0  0  0  0  0  0
    3.4895   -1.3657   -1.8098 H   0  0  0  0  0  0  0  0  0  0  0  0
    5.2668   -1.2575   -1.3947 H   0  0  0  0  0  0  0  0  0  0  0  0
    2.8539   -2.1879    2.0353 H   0  0  0  0  0  0  0  0  0  0  0  0
    3.8462   -3.3254    1.1303 H   0  0  0  0  0  0  0  0  0  0  0  0
    2.3481   -2.7515    0.4227 H   0  0  0  0  0  0  0  0  0  0  0  0
    4.4558    1.9884   -1.7364 H   0  0  0  0  0  0  0  0  0  0  0  0
    5.3247    0.5600   -1.6650 H   0  0  0  0  0  0  0  0  0  0  0  0
    3.5371    0.6227   -2.0554 H   0  0  0  0  0  0  0  0  0  0  0  0
    5.1993    1.0742    1.9697 H   0  0  0  0  0  0  0  0  0  0  0  0
    5.8563    2.1208    0.7162 H   0  0  0  0  0  0  0  0  0  0  0  0
    6.1097    0.3942    0.5974 H   0  0  0  0  0  0  0  0  0  0  0  0
   -0.0716    1.5306   -1.5348 H   0  0  0  0  0  0  0  0  0  0  0  0
  1 14  2  0  0  0  0
  2 19  2  0  0  0  0
  3  6  1  0  0  0  0
  3  7  1  0  0  0  0
  3  8  1  0  0  0  0
  4  9  1  0  0  0  0
  4 13  1  0  0  0  0
  4 14  1  0  0  0  0
  5 11  1  0  0  0  0
  5 19  1  0  0  0  0
  5 46  1  0  0  0  0
  6 15  1  0  0  0  0
  6 16  1  0  0  0  0
  6 20  1  0  0  0  0
  7 17  1  0  0  0  0
  7 18  1  0  0  0  0
  7 21  1  0  0  0  0
  8 11  1  0  0  0  0
  8 22  1  0  0  0  0
  8 23  1  0  0  0  0
  9 10  1  0  0  0  0
  9 24  1  0  0  0  0
  9 25  1  0  0  0  0
 10 12  1  0  0  0  0
 10 26  1  0  0  0  0
 10 27  1  0  0  0  0
 11 28  1  0  0  0  0
 11 29  1  0  0  0  0
 12 14  1  0  0  0  0
 12 30  1  0  0  0  0
 12 31  1  0  0  0  0
 13 19  1  0  0  0  0
 13 32  1  0  0  0  0
 13 33  1  0  0  0  0
 15 34  1  0  0  0  0
 15 35  1  0  0  0  0
 15 36  1  0  0  0  0
 16 37  1  0  0  0  0
 16 38  1  0  0  0  0
 16 39  1  0  0  0  0
 17 40  1  0  0  0  0
 17 41  1  0  0  0  0
 17 42  1  0  0  0  0
 18 43  1  0  0  0  0
 18 44  1  0  0  0  0
 18 45  1  0  0  0  0
M  END
> <DATABASE_ID>
DB13247

> <DATABASE_NAME>
drugbank

> <ORIGINAL_SOURCE>
PUBCHEM

> <ORIGINAL_SOURCE_URL>
https://pubchem.ncbi.nlm.nih.gov/rest/pug/compound/inchikey/ZULJGOSFKWFVRX-UHFFFAOYSA-N/SDF?record_type=3d

> <SMILES>
CC(C)N(CCNC(=O)CN1CCCC1=O)C(C)C

> <INCHI_IDENTIFIER>
InChI=1S/C14H27N3O2/c1-11(2)17(12(3)4)9-7-15-13(18)10-16-8-5-6-14(16)19/h11-12H,5-10H2,1-4H3,(H,15,18)

> <INCHI_KEY>
ZULJGOSFKWFVRX-UHFFFAOYSA-N

> <FORMULA>
C14H27N3O2

> <MOLECULAR_WEIGHT>
269.389

> <EXACT_MASS>
269.210327121

> <JCHEM_ACCEPTOR_COUNT>
3

> <JCHEM_ATOM_COUNT>
46

> <JCHEM_AVERAGE_POLARIZABILITY>
30.803684490124745

> <JCHEM_BIOAVAILABILITY>
1

> <JCHEM_DONOR_COUNT>
1

> <JCHEM_FORMAL_CHARGE>
0

> <JCHEM_GHOSE_FILTER>
1

> <JCHEM_IUPAC>
N-{2-[bis(propan-2-yl)amino]ethyl}-2-(2-oxopyrrolidin-1-yl)acetamide

> <ALOGPS_LOGP>
1.17

> <JCHEM_LOGP>
0.10419400866666628

> <ALOGPS_LOGS>
-1.70

> <JCHEM_MDDR_LIKE_RULE>
0

> <JCHEM_NUMBER_OF_RINGS>
1

> <JCHEM_PHYSIOLOGICAL_CHARGE>
1

> <JCHEM_PKA_STRONGEST_ACIDIC>
15.849032630218588

> <JCHEM_PKA_STRONGEST_BASIC>
9.605961268594719

> <JCHEM_POLAR_SURFACE_AREA>
52.650000000000006

> <JCHEM_REFRACTIVITY>
76.31200000000001

> <JCHEM_ROTATABLE_BOND_COUNT>
7

> <JCHEM_RULE_OF_FIVE>
1

> <ALOGPS_SOLUBILITY>
5.31e+00 g/l

> <JCHEM_TRADITIONAL_IUPAC>
pramiracetam

> <JCHEM_VEBER_RULE>
0

$$$$
