
     RDKit          3D

 49 49  0  0  0  0  0  0  0  0999 V2000
   15.3163    0.2285    3.0862 C   0  0  0  0  0  0  0  0  0  0  0  0
   14.0457    0.2082    3.8547 C   0  0  0  0  0  0  0  0  0  0  0  0
   13.0054   -0.7078    3.2707 C   0  0  0  0  0  0  0  0  0  0  0  0
   12.8189   -0.2883    1.8162 C   0  0  0  0  0  0  0  0  0  0  0  0
   11.3722    0.0860    1.5679 C   0  0  0  0  0  0  0  0  0  0  0  0
   11.0138   -0.3969    0.1740 C   0  0  0  0  0  0  0  0  0  0  0  0
    9.5681   -0.0798   -0.0643 C   0  0  0  0  0  0  0  0  0  0  0  0
    9.2147   -0.2419   -1.5267 C   0  0  0  0  0  0  0  0  0  0  0  0
    7.8325   -0.8170   -1.6820 C   0  0  0  0  0  0  0  0  0  0  0  0
    7.3008   -1.3987   -0.3901 C   0  0  0  0  0  0  0  0  0  0  0  0
    6.9447   -0.2980    0.6030 C   0  0  0  0  0  0  0  0  0  0  0  0
    6.1767    0.7682   -0.1590 C   0  0  0  0  0  0  0  0  0  0  0  0
    4.8093    0.8118    0.4956 C   0  0  0  0  0  0  0  0  0  0  0  0
    4.3992   -0.5229    1.0664 C   0  0  0  0  0  0  0  0  0  0  0  0
    3.7283   -1.4213    0.0734 C   0  0  0  0  0  0  0  0  0  0  0  0
    2.4689   -0.8003   -0.4446 C   0  0  0  0  0  0  0  0  0  0  0  0
    1.6959   -1.4126   -1.2047 O   0  0  0  0  0  0  0  0  0  0  0  0
    2.4093    0.6051   -0.5350 N   0  0  0  0  0  0  0  0  0  0  0  0
    1.3576    1.4122   -0.9703 C   0  0  0  0  0  0  0  0  0  0  0  0
    0.9027    1.2968   -2.3570 C   0  0  0  0  0  0  0  0  0  0  0  0
    0.8484    2.3798   -3.0215 O   0  0  0  0  0  0  0  0  0  0  0  0
   -0.0706    0.3696   -2.8632 N   0  0  0  0  0  0  0  0  0  0  0  0
   -1.5738    0.8938   -2.6857 C   0  0  1  0  0  0  0  0  0  0  0  0
   -1.9140    0.6736   -4.3015 C   0  0  0  0  0  0  0  0  0  0  0  0
   -1.4711   -0.7113   -4.6261 C   0  0  0  0  0  0  0  0  0  0  0  0
   -2.6677   -1.4640   -5.1183 C   0  0  0  0  0  0  0  0  0  0  0  0
   -3.9168   -0.8024   -5.3609 N   0  0  0  0  0  0  0  0  0  0  0  0
   -2.7594   -2.6835   -4.8277 O   0  0  0  0  0  0  0  0  0  0  0  0
   -2.1566   -0.5826   -2.2775 C   0  0  0  0  0  0  0  0  0  0  0  0
   -1.3881   -1.2506   -1.5289 O   0  0  0  0  0  0  0  0  0  0  0  0
   -3.4214   -0.3080   -1.6463 N   0  0  0  0  0  0  0  0  0  0  0  0
   -4.6663    0.1107   -2.1820 C   0  0  0  0  0  0  0  0  0  0  0  0
   -4.9397    1.4918   -1.6895 C   0  0  0  0  0  0  0  0  0  0  0  0
   -3.7481    1.8883   -0.9020 C   0  0  0  0  0  0  0  0  0  0  0  0
   -3.3227    0.4234   -0.2281 C   0  0  1  0  0  0  0  0  0  0  0  0
   -4.8753    0.0668    0.1527 C   0  0  0  0  0  0  0  0  0  0  0  0
   -5.1207   -1.1659    0.0899 O   0  0  0  0  0  0  0  0  0  0  0  0
   -5.1893    0.6112    1.4475 N   0  0  0  0  0  0  0  0  0  0  0  0
   -6.7896    0.6675    1.4974 C   0  0  1  0  0  0  0  0  0  0  0  0
   -6.8845   -0.9980    1.4786 C   0  0  0  0  0  0  0  0  0  0  0  0
   -7.9161   -1.3870    2.4493 C   0  0  0  0  0  0  0  0  0  0  0  0
   -9.2694   -0.7597    2.2675 C   0  0  0  0  0  0  0  0  0  0  0  0
   -9.9510   -1.0683    3.5253 N   0  0  0  0  0  0  0  0  0  0  0  0
  -10.6629   -0.0712    4.2407 C   0  0  0  0  0  0  0  0  0  0  0  0
  -11.4150    0.6902    3.5055 N   0  0  0  0  0  0  0  0  0  0  0  0
  -10.5472    0.1564    5.6319 N   0  0  0  0  0  0  0  0  0  0  0  0
   -6.8918    0.7471    3.1282 C   0  0  0  0  0  0  0  0  0  0  0  0
   -5.8586    0.8089    3.7785 O   0  0  0  0  0  0  0  0  0  0  0  0
   -7.8415    1.7484    3.3920 O   0  0  0  0  0  0  0  0  0  0  0  0
  1  2  1  0
  2  3  1  0
  3  4  1  0
  4  5  1  0
  5  6  1  0
  6  7  1  0
  7  8  1  0
  8  9  1  0
  9 10  1  0
 10 11  1  0
 11 12  1  0
 12 13  1  0
 13 14  1  0
 14 15  1  0
 15 16  1  0
 16 17  2  0
 16 18  1  0
 18 19  1  0
 19 20  1  0
 20 21  2  0
 20 22  1  0
 23 22  1  6
 23 24  1  0
 24 25  1  0
 25 26  1  0
 26 27  1  0
 26 28  2  0
 23 29  1  0
 29 30  2  0
 29 31  1  0
 31 32  1  0
 32 33  1  0
 33 34  1  0
 34 35  1  0
 35 36  1  1
 36 37  2  0
 36 38  1  0
 39 38  1  1
 39 40  1  0
 40 41  1  0
 41 42  1  0
 42 43  1  0
 43 44  1  0
 44 45  2  0
 44 46  1  0
 39 47  1  0
 47 48  2  0
 47 49  1  0
 35 31  1  0
M  END
>  <zinc_id>  (1) 
ZINC000163851498

>  <smiles>  (1) 
CCCCCCCCCCCCCCCC(=O)NCC(=O)N[C@@H](CCC(N)=O)C(=O)N1CCC[C@H]1C(=O)N[C@@H](CCCNC(=N)N)C(=O)O

$$$$
