
     RDKit          3D

 54 56  0  0  0  0  0  0  0  0999 V2000
   -0.5190    0.3881   -2.6708 C   0  0  0  0  0  0  0  0  0  0  0  0
   -0.6121    0.2829   -2.5991 S   0  0  0  0  0  0  0  0  0  0  0  0
   -0.6747    1.8536   -1.8761 C   0  0  0  0  0  0  0  0  0  0  0  0
   -0.4987    2.2882   -0.5788 C   0  0  0  0  0  0  0  0  0  0  0  0
   -0.3052    1.1436    0.5757 C   0  0  2  0  0  0  0  0  0  0  0  0
    0.7242    0.3488   -0.3046 N   0  0  0  0  0  0  0  0  0  0  0  0
    2.0676    0.7127   -0.1892 C   0  0  0  0  0  0  0  0  0  0  0  0
    2.2194    1.9740   -0.3019 O   0  0  0  0  0  0  0  0  0  0  0  0
    3.0933    0.0676   -1.2604 C   0  0  2  0  0  0  0  0  0  0  0  0
    2.1664   -1.2446   -1.6138 C   0  0  0  0  0  0  0  0  0  0  0  0
    2.2296   -2.2350   -0.5729 C   0  0  0  0  0  0  0  0  0  0  0  0
    1.2641   -2.7416    0.2927 C   0  0  0  0  0  0  0  0  0  0  0  0
    1.8615   -3.6769    1.0674 N   0  0  0  0  0  0  0  0  0  0  0  0
    2.9490   -4.1359    0.4047 C   0  0  0  0  0  0  0  0  0  0  0  0
    3.5133   -5.3984    0.4521 C   0  0  0  0  0  0  0  0  0  0  0  0
    4.4480   -5.7262   -0.5170 C   0  0  0  0  0  0  0  0  0  0  0  0
    4.6584   -4.9199   -1.6233 C   0  0  0  0  0  0  0  0  0  0  0  0
    4.0427   -3.6938   -1.6291 C   0  0  0  0  0  0  0  0  0  0  0  0
    3.1599   -3.2734   -0.6389 C   0  0  0  0  0  0  0  0  0  0  0  0
    3.9270   -0.6527   -0.1260 N   0  0  0  0  0  0  0  0  0  0  0  0
    4.5610    0.1855    0.8030 C   0  0  0  0  0  0  0  0  0  0  0  0
    4.9029    1.3355    0.3831 O   0  0  0  0  0  0  0  0  0  0  0  0
    5.6094   -0.4845    1.6416 C   0  0  0  0  0  0  0  0  0  0  0  0
    6.5003   -1.2063    0.6349 C   0  0  0  0  0  0  0  0  0  0  0  0
    6.8664   -0.1911   -0.3501 N   0  0  0  0  0  0  0  0  0  0  0  0
    8.0135    0.6024   -0.1453 C   0  0  0  0  0  0  0  0  0  0  0  0
    9.0035    0.0548    0.4058 O   0  0  0  0  0  0  0  0  0  0  0  0
    8.1106    1.9486   -0.4139 O   0  0  0  0  0  0  0  0  0  0  0  0
    9.0279    2.8233    0.2326 C   0  0  0  0  0  0  0  0  0  0  0  0
    8.3672    3.2863    1.5214 C   0  0  0  0  0  0  0  0  0  0  0  0
    9.3278    4.0170   -0.6272 C   0  0  0  0  0  0  0  0  0  0  0  0
   10.2937    2.0507    0.5483 C   0  0  0  0  0  0  0  0  0  0  0  0
   -1.5194    0.2458   -0.0046 C   0  0  0  0  0  0  0  0  0  0  0  0
   -1.3727   -0.9114    0.5019 O   0  0  0  0  0  0  0  0  0  0  0  0
   -2.7704    0.8309    0.2444 N   0  0  0  0  0  0  0  0  0  0  0  0
   -3.9815   -0.1024   -0.1483 C   0  0  1  0  0  0  0  0  0  0  0  0
   -3.4439   -1.3580    0.7769 C   0  0  0  0  0  0  0  0  0  0  0  0
   -4.6217   -1.9692    1.3771 C   0  0  0  0  0  0  0  0  0  0  0  0
   -4.5357   -2.3556    2.5801 O   0  0  0  0  0  0  0  0  0  0  0  0
   -5.4892   -2.6787    0.5497 O   0  0  0  0  0  0  0  0  0  0  0  0
   -4.9232    0.4886    1.0247 C   0  0  0  0  0  0  0  0  0  0  0  0
   -4.4596    0.5701    2.1509 O   0  0  0  0  0  0  0  0  0  0  0  0
   -6.2645    0.6851    0.6464 N   0  0  0  0  0  0  0  0  0  0  0  0
   -7.1415    0.9092    1.9392 C   0  0  1  0  0  0  0  0  0  0  0  0
   -7.6600    2.4081    1.5131 C   0  0  0  0  0  0  0  0  0  0  0  0
   -7.5745    2.5981    0.0984 C   0  0  0  0  0  0  0  0  0  0  0  0
   -7.3219    3.9047   -0.3098 C   0  0  0  0  0  0  0  0  0  0  0  0
   -7.4977    4.2990   -1.6182 C   0  0  0  0  0  0  0  0  0  0  0  0
   -7.6915    3.3365   -2.5990 C   0  0  0  0  0  0  0  0  0  0  0  0
   -7.6632    2.0101   -2.1807 C   0  0  0  0  0  0  0  0  0  0  0  0
   -8.1222    1.7899   -0.8888 C   0  0  0  0  0  0  0  0  0  0  0  0
   -8.4363    0.1816    1.2858 C   0  0  0  0  0  0  0  0  0  0  0  0
   -8.2924   -1.2481    1.4038 N   0  0  0  0  0  0  0  0  0  0  0  0
   -9.5162    0.5822    1.8329 O   0  0  0  0  0  0  0  0  0  0  0  0
  1  2  1  0
  2  3  1  0
  3  4  1  0
  5  4  1  6
  5  6  1  0
  6  7  1  0
  7  8  2  0
  9  7  1  1
  9 10  1  0
 10 11  1  0
 11 12  2  0
 12 13  1  0
 13 14  1  0
 14 15  2  0
 15 16  1  0
 16 17  2  0
 17 18  1  0
 18 19  2  0
  9 20  1  0
 20 21  1  0
 21 22  2  0
 21 23  1  0
 23 24  1  0
 24 25  1  0
 25 26  1  0
 26 27  2  0
 26 28  1  0
 28 29  1  0
 29 30  1  0
 29 31  1  0
 29 32  1  0
  5 33  1  0
 33 34  2  0
 33 35  1  0
 36 35  1  1
 36 37  1  0
 37 38  1  0
 38 39  2  0
 38 40  1  0
 36 41  1  0
 41 42  2  0
 41 43  1  0
 44 43  1  6
 44 45  1  0
 45 46  1  0
 46 47  2  0
 47 48  1  0
 48 49  2  0
 49 50  1  0
 50 51  2  0
 44 52  1  0
 52 53  1  0
 52 54  2  0
 19 11  1  0
 51 46  1  0
 19 14  1  0
M  END
>  <zinc_id>  (1) 
ZINC000008214644

>  <smiles>  (1) 
CSCC[C@H](NC(=O)[C@H](Cc1c[nH]c2ccccc12)NC(=O)CCNC(=O)OC(C)(C)C)C(=O)N[C@@H](CC(=O)O)C(=O)N[C@@H](Cc1ccccc1)C(N)=O

$$$$
