
     RDKit          3D

 52 53  0  0  0  0  0  0  0  0999 V2000
   -7.5773    6.0042   -1.2800 C   0  0  0  0  0  0  0  0  0  0  0  0
   -6.8316    5.8420   -0.7073 C   0  0  0  0  0  0  0  0  0  0  0  0
   -6.4587    6.7839    0.0585 O   0  0  0  0  0  0  0  0  0  0  0  0
   -6.1979    4.5835   -0.5509 N   0  0  0  0  0  0  0  0  0  0  0  0
   -5.0109    4.4960    0.4779 C   0  0  2  0  0  0  0  0  0  0  0  0
   -4.0436    3.6968   -0.5869 C   0  0  0  0  0  0  0  0  0  0  0  0
   -2.9913    3.0153    0.2516 C   0  0  0  0  0  0  0  0  0  0  0  0
   -2.6497    1.6752   -0.3158 C   0  0  0  0  0  0  0  0  0  0  0  0
   -3.0531    1.3719   -1.4779 O   0  0  0  0  0  0  0  0  0  0  0  0
   -1.7021    0.8537    0.3207 N   0  0  0  0  0  0  0  0  0  0  0  0
   -1.1749   -0.3521   -0.5502 C   0  0  1  0  0  0  0  0  0  0  0  0
   -0.7455   -1.2253    0.7776 C   0  0  0  0  0  0  0  0  0  0  0  0
    0.7517   -1.3654    0.6726 C   0  0  0  0  0  0  0  0  0  0  0  0
    1.3889   -0.1289    0.1219 C   0  0  0  0  0  0  0  0  0  0  0  0
    1.9968    0.6949    0.9447 C   0  0  0  0  0  0  0  0  0  0  0  0
    1.4999    0.7813    2.3292 C   0  0  0  0  0  0  0  0  0  0  0  0
    0.9120    1.7790    2.7835 O   0  0  0  0  0  0  0  0  0  0  0  0
    1.5771   -0.3814    3.0840 O   0  0  0  0  0  0  0  0  0  0  0  0
    2.8297    1.6863    0.4378 N   0  0  0  0  0  0  0  0  0  0  0  0
    3.8509    1.4563   -0.6503 C   0  0  1  0  0  0  0  0  0  0  0  0
    4.1453   -0.1652   -0.3194 C   0  0  2  0  0  0  0  0  0  0  0  0
    5.1097    0.1802    0.8648 N   0  0  0  0  0  0  0  0  0  0  0  0
    6.0740    1.1724    0.7040 C   0  0  0  0  0  0  0  0  0  0  0  0
    5.8553    2.0486   -0.1744 O   0  0  0  0  0  0  0  0  0  0  0  0
    7.0915    1.4437    1.7544 C   0  0  0  0  0  0  0  0  0  0  0  0
    8.3618    0.8252    1.2602 C   0  0  0  0  0  0  0  0  0  0  0  0
    8.8990    1.1046    0.0267 C   0  0  0  0  0  0  0  0  0  0  0  0
    9.8043    0.2182   -0.5390 C   0  0  0  0  0  0  0  0  0  0  0  0
   10.2156   -0.9339    0.0904 C   0  0  0  0  0  0  0  0  0  0  0  0
    9.5900   -1.2557    1.2844 C   0  0  0  0  0  0  0  0  0  0  0  0
    8.7524   -0.3437    1.8968 C   0  0  0  0  0  0  0  0  0  0  0  0
    5.3437   -0.2483   -1.3896 C   0  0  0  0  0  0  0  0  0  0  0  0
    5.0497    0.1456   -2.5526 O   0  0  0  0  0  0  0  0  0  0  0  0
    5.8339   -1.5606   -1.3420 O   0  0  0  0  0  0  0  0  0  0  0  0
    2.6012    1.0895   -2.0247 S   0  0  0  0  0  0  0  0  0  0  0  0
    1.3966   -0.0434   -1.3470 C   0  0  0  0  0  0  0  0  0  0  0  0
   -2.6069   -1.0716   -0.6258 C   0  0  0  0  0  0  0  0  0  0  0  0
   -3.4183   -0.9357    0.2657 O   0  0  0  0  0  0  0  0  0  0  0  0
   -2.5951   -2.1693   -1.4476 N   0  0  0  0  0  0  0  0  0  0  0  0
   -3.8712   -3.0695   -1.6021 C   0  0  2  0  0  0  0  0  0  0  0  0
   -4.9066   -1.8016   -1.4238 C   0  0  0  0  0  0  0  0  0  0  0  0
   -3.8841   -3.5139   -0.0499 C   0  0  0  0  0  0  0  0  0  0  0  0
   -4.8954   -3.2041    0.6320 O   0  0  0  0  0  0  0  0  0  0  0  0
   -3.6348   -4.9318    0.0118 N   0  0  0  0  0  0  0  0  0  0  0  0
   -4.6777   -5.7542    0.8644 C   0  0  2  0  0  0  0  0  0  0  0  0
   -3.5156   -6.7204    1.5087 C   0  0  0  0  0  0  0  0  0  0  0  0
   -4.9843   -6.7748   -0.3417 C   0  0  0  0  0  0  0  0  0  0  0  0
   -5.9265   -6.2942   -1.0366 O   0  0  0  0  0  0  0  0  0  0  0  0
   -3.9410   -7.3291   -1.0200 O   0  0  0  0  0  0  0  0  0  0  0  0
   -5.5627    3.1244    1.1175 C   0  0  0  0  0  0  0  0  0  0  0  0
   -6.1010    3.3790    2.2287 O   0  0  0  0  0  0  0  0  0  0  0  0
   -5.9730    2.1223    0.2919 O   0  0  0  0  0  0  0  0  0  0  0  0
  1  2  1  0
  2  3  2  0
  2  4  1  0
  5  4  1  6
  5  6  1  0
  6  7  1  0
  7  8  1  0
  8  9  2  0
  8 10  1  0
 11 10  1  1
 11 12  1  0
 12 13  1  0
 13 14  1  0
 14 15  2  0
 15 16  1  0
 16 17  2  0
 16 18  1  0
 15 19  1  0
 20 19  1  1
 20 21  1  0
 21 22  1  1
 22 23  1  0
 23 24  2  0
 23 25  1  0
 25 26  1  0
 26 27  2  0
 27 28  1  0
 28 29  2  0
 29 30  1  0
 30 31  2  0
 21 32  1  0
 32 33  2  0
 32 34  1  0
 20 35  1  0
 35 36  1  0
 11 37  1  0
 37 38  2  0
 37 39  1  0
 40 39  1  1
 40 41  1  0
 40 42  1  0
 42 43  2  0
 42 44  1  0
 45 44  1  6
 45 46  1  0
 45 47  1  0
 47 48  2  0
 47 49  1  0
  5 50  1  0
 50 51  2  0
 50 52  1  0
 36 14  1  0
 31 26  1  0
M  END
>  <zinc_id>  (1) 
ZINC000150342633

>  <smiles>  (1) 
CC(=O)N[C@H](CCC(=O)N[C@@H](CCC1=C(C(=O)O)N[C@@H]([C@H](NC(=O)Cc2ccccc2)C(=O)O)SC1)C(=O)N[C@H](C)C(=O)N[C@H](C)C(=O)O)C(=O)O

$$$$
