
     RDKit          3D

 52 53  0  0  0  0  0  0  0  0999 V2000
    0.8298    1.0152   -3.2499 C   0  0  0  0  0  0  0  0  0  0  0  0
    1.4091    1.1669   -2.3762 C   0  0  0  0  0  0  0  0  0  0  0  0
    2.6852    0.3736   -2.2149 C   0  0  0  0  0  0  0  0  0  0  0  0
    0.5842    1.1735   -1.0901 C   0  0  0  0  0  0  0  0  0  0  0  0
    0.0715   -0.3845   -1.0843 C   0  0  2  0  0  0  0  0  0  0  0  0
   -1.4033    0.0228   -1.4263 N   0  0  0  0  0  0  0  0  0  0  0  0
   -2.1597    0.6756   -0.5083 C   0  0  0  0  0  0  0  0  0  0  0  0
   -1.6649    1.2615    0.4543 O   0  0  0  0  0  0  0  0  0  0  0  0
   -3.7756    0.6942   -0.6350 C   0  0  2  0  0  0  0  0  0  0  0  0
   -3.9573    0.2725    0.9542 C   0  0  0  0  0  0  0  0  0  0  0  0
   -3.9513   -1.1229    1.1638 C   0  0  0  0  0  0  0  0  0  0  0  0
   -3.1644   -2.0217    0.7312 O   0  0  0  0  0  0  0  0  0  0  0  0
   -4.3829   -1.4858    2.4858 N   0  0  0  0  0  0  0  0  0  0  0  0
   -4.5933   -0.5366    3.5532 C   0  0  0  0  0  0  0  0  0  0  0  0
   -5.9404    0.1021    3.2791 C   0  0  0  0  0  0  0  0  0  0  0  0
   -6.7700   -0.7345    2.3103 C   0  0  0  0  0  0  0  0  0  0  0  0
   -7.9910    0.0408    2.0085 C   0  0  0  0  0  0  0  0  0  0  0  0
   -8.4988    0.0631    0.6481 C   0  0  0  0  0  0  0  0  0  0  0  0
   -7.5374    0.1397   -0.4791 C   0  0  0  0  0  0  0  0  0  0  0  0
   -7.9000    1.2624   -1.2819 O   0  0  0  0  0  0  0  0  0  0  0  0
   -6.9136    1.9250   -2.0223 C   0  0  0  0  0  0  0  0  0  0  0  0
   -7.0645    3.1468   -2.2460 O   0  0  0  0  0  0  0  0  0  0  0  0
   -5.6884    1.2507   -2.3377 N   0  0  0  0  0  0  0  0  0  0  0  0
   -5.9441   -0.3157   -2.4110 C   0  0  1  0  0  0  0  0  0  0  0  0
   -6.1779   -0.2714   -4.0549 C   0  0  0  0  0  0  0  0  0  0  0  0
   -5.0842    0.5648   -4.6192 C   0  0  0  0  0  0  0  0  0  0  0  0
   -7.5240    0.3276   -4.2784 C   0  0  0  0  0  0  0  0  0  0  0  0
   -4.3526   -0.6393   -2.5636 C   0  0  0  0  0  0  0  0  0  0  0  0
   -4.0942   -1.5908   -3.3410 O   0  0  0  0  0  0  0  0  0  0  0  0
   -3.8776   -0.7894   -1.2133 N   0  0  0  0  0  0  0  0  0  0  0  0
   -0.1314   -0.3723    0.6385 C   0  0  1  0  0  0  0  0  0  0  0  0
   -0.1153   -1.8932    0.6908 O   0  0  0  0  0  0  0  0  0  0  0  0
    1.4939   -0.3061    0.8958 C   0  0  0  0  0  0  0  0  0  0  0  0
    1.4931   -0.9937    2.3969 C   0  0  1  0  0  0  0  0  0  0  0  0
    2.1083   -2.4143    1.8258 C   0  0  0  0  0  0  0  0  0  0  0  0
    2.9510   -0.4403    2.8074 C   0  0  0  0  0  0  0  0  0  0  0  0
    3.0363   -0.0448    3.9917 O   0  0  0  0  0  0  0  0  0  0  0  0
    3.8078    0.0806    1.8577 N   0  0  0  0  0  0  0  0  0  0  0  0
    5.3204   -0.1433    2.2878 C   0  0  2  0  0  0  0  0  0  0  0  0
    5.8333    1.0033    1.2475 C   0  0  0  0  0  0  0  0  0  0  0  0
    5.6608    2.1136    1.8001 O   0  0  0  0  0  0  0  0  0  0  0  0
    7.0941    0.7438    0.6898 N   0  0  0  0  0  0  0  0  0  0  0  0
    8.1608    1.6882    0.5104 C   0  0  0  0  0  0  0  0  0  0  0  0
    9.4354    0.9109    0.3611 C   0  0  0  0  0  0  0  0  0  0  0  0
    9.5275    0.2052   -0.8334 C   0  0  0  0  0  0  0  0  0  0  0  0
   10.3704   -0.8882   -0.9092 C   0  0  0  0  0  0  0  0  0  0  0  0
   10.7073   -1.5574    0.2610 C   0  0  0  0  0  0  0  0  0  0  0  0
   10.5143   -0.9615    1.4795 C   0  0  0  0  0  0  0  0  0  0  0  0
   10.0595    0.3513    1.4693 C   0  0  0  0  0  0  0  0  0  0  0  0
    5.4973   -1.3715    1.1872 C   0  0  0  0  0  0  0  0  0  0  0  0
    5.1067   -0.8506   -0.1334 C   0  0  0  0  0  0  0  0  0  0  0  0
    6.9001   -1.8538    1.3226 C   0  0  0  0  0  0  0  0  0  0  0  0
  1  2  1  0
  2  3  1  0
  2  4  1  0
  5  4  1  1
  5  6  1  0
  6  7  1  0
  7  8  2  0
  9  7  1  1
  9 10  1  0
 10 11  1  0
 11 12  2  0
 11 13  1  0
 13 14  1  0
 14 15  1  0
 15 16  1  0
 16 17  1  0
 17 18  1  0
 18 19  1  0
 19 20  1  0
 20 21  1  0
 21 22  2  0
 21 23  1  0
 23 24  1  0
 24 25  1  6
 25 26  1  0
 25 27  1  0
 24 28  1  0
 28 29  2  0
 28 30  1  0
  5 31  1  0
 31 32  1  1
 31 33  1  0
 34 33  1  6
 34 35  1  0
 34 36  1  0
 36 37  2  0
 36 38  1  0
 39 38  1  6
 39 40  1  0
 40 41  2  0
 40 42  1  0
 42 43  1  0
 43 44  1  0
 44 45  2  0
 45 46  1  0
 46 47  2  0
 47 48  1  0
 48 49  2  0
 39 50  1  0
 50 51  1  0
 50 52  1  0
 30  9  1  0
 49 44  1  0
M  END
>  <zinc_id>  (1) 
ZINC000028353688

>  <smiles>  (1) 
CC(C)C[C@H](NC(=O)[C@@H]1CC(=O)NCCCCCCOC(=O)N[C@@H](C(C)C)C(=O)N1)[C@@H](O)C[C@@H](C)C(=O)N[C@H](C(=O)NCc1ccccc1)C(C)C

$$$$
