
     RDKit          3D

 39 40  0  0  0  0  0  0  0  0999 V2000
   -0.3225    8.9705   -0.3015 C   0  0  0  0  0  0  0  0  0  0  0  0
   -0.3455    7.5886   -0.6496 C   0  0  0  0  0  0  0  0  0  0  0  0
    0.9310    6.9001   -0.2117 C   0  0  0  0  0  0  0  0  0  0  0  0
    0.7689    5.4011   -0.1990 C   0  0  0  0  0  0  0  0  0  0  0  0
   -0.3809    4.9562    0.6759 C   0  0  0  0  0  0  0  0  0  0  0  0
   -0.8070    3.6424    0.1994 N   0  0  0  0  0  0  0  0  0  0  0  0
    0.2631    2.7549   -0.1115 C   0  0  0  0  0  0  0  0  0  0  0  0
    1.1295    2.5637    0.7469 O   0  0  0  0  0  0  0  0  0  0  0  0
   -0.2291    1.4226   -0.9362 C   0  0  2  0  0  0  0  0  0  0  0  0
   -0.3506    0.5102    0.4701 C   0  0  0  0  0  0  0  0  0  0  0  0
   -1.8135    0.1916    0.5075 C   0  0  0  0  0  0  0  0  0  0  0  0
   -2.3180   -1.0500    0.8628 C   0  0  0  0  0  0  0  0  0  0  0  0
   -3.2893   -1.5885    0.0254 C   0  0  0  0  0  0  0  0  0  0  0  0
   -4.2878   -0.7095   -0.3792 C   0  0  0  0  0  0  0  0  0  0  0  0
   -5.3953   -1.2082   -1.0236 O   0  0  0  0  0  0  0  0  0  0  0  0
   -6.0949   -2.3698   -0.6916 C   0  0  0  0  0  0  0  0  0  0  0  0
   -5.2543   -3.4538   -0.1540 C   0  0  0  0  0  0  0  0  0  0  0  0
   -4.6476   -4.1804   -0.9877 O   0  0  0  0  0  0  0  0  0  0  0  0
   -5.5981   -4.0470    1.0618 O   0  0  0  0  0  0  0  0  0  0  0  0
   -7.2877   -2.0829    0.1519 C   0  0  0  0  0  0  0  0  0  0  0  0
   -7.8823   -3.0425    0.7252 O   0  0  0  0  0  0  0  0  0  0  0  0
   -8.0211   -0.9476   -0.1637 O   0  0  0  0  0  0  0  0  0  0  0  0
   -4.0551    0.6547   -0.2523 C   0  0  0  0  0  0  0  0  0  0  0  0
   -2.7596    1.0812    0.0146 C   0  0  0  0  0  0  0  0  0  0  0  0
    1.2872    0.9966   -1.2351 N   0  0  0  0  0  0  0  0  0  0  0  0
    1.5831   -0.3698   -1.0819 C   0  0  0  0  0  0  0  0  0  0  0  0
    1.1297   -0.9043   -0.0443 O   0  0  0  0  0  0  0  0  0  0  0  0
    2.9115   -0.7398   -1.4816 N   0  0  0  0  0  0  0  0  0  0  0  0
    3.4944   -1.9750   -0.6359 C   0  0  1  0  0  0  0  0  0  0  0  0
    4.9735   -1.8395   -1.4120 C   0  0  0  0  0  0  0  0  0  0  0  0
    5.9547   -2.2254   -0.3820 C   0  0  0  0  0  0  0  0  0  0  0  0
    5.9826   -3.4155    0.2859 C   0  0  0  0  0  0  0  0  0  0  0  0
    6.9587   -3.6633    1.2429 C   0  0  0  0  0  0  0  0  0  0  0  0
    7.8263   -2.6439    1.6162 C   0  0  0  0  0  0  0  0  0  0  0  0
    7.6735   -1.3823    1.1051 C   0  0  0  0  0  0  0  0  0  0  0  0
    6.8060   -1.2209    0.0595 C   0  0  0  0  0  0  0  0  0  0  0  0
    4.0180   -1.0628    0.6267 C   0  0  0  0  0  0  0  0  0  0  0  0
    3.7679   -1.7519    1.6661 O   0  0  0  0  0  0  0  0  0  0  0  0
    3.6806    0.2403    0.6774 O   0  0  0  0  0  0  0  0  0  0  0  0
  1  2  1  0
  2  3  1  0
  3  4  1  0
  4  5  1  0
  5  6  1  0
  6  7  1  0
  7  8  2  0
  9  7  1  1
  9 10  1  0
 10 11  1  0
 11 12  2  0
 12 13  1  0
 13 14  2  0
 14 15  1  0
 15 16  1  0
 16 17  1  0
 17 18  2  0
 17 19  1  0
 16 20  1  0
 20 21  2  0
 20 22  1  0
 14 23  1  0
 23 24  2  0
  9 25  1  0
 25 26  1  0
 26 27  2  0
 26 28  1  0
 29 28  1  6
 29 30  1  0
 30 31  1  0
 31 32  2  0
 32 33  1  0
 33 34  2  0
 34 35  1  0
 35 36  2  0
 29 37  1  0
 37 38  2  0
 37 39  1  0
 24 11  1  0
 36 31  1  0
M  END
>  <zinc_id>  (1) 
ZINC000003874712

>  <smiles>  (1) 
CCCCCNC(=O)[C@H](Cc1ccc(OC(C(=O)O)C(=O)O)cc1)NC(=O)N[C@@H](Cc1ccccc1)C(=O)O

$$$$
