
     RDKit          3D

 58 57  0  0  0  0  0  0  0  0999 V2000
   11.5779    7.0910    0.6000 N   0  0  0  0  0  0  0  0  0  0  0  0
   10.7006    6.1334    0.5239 C   0  0  0  0  0  0  0  0  0  0  0  0
   10.5833    5.5401   -0.8754 C   0  0  0  0  0  0  0  0  0  0  0  0
   10.1472    4.0973   -0.8191 C   0  0  0  0  0  0  0  0  0  0  0  0
    8.9438    4.0154    0.1012 C   0  0  0  0  0  0  0  0  0  0  0  0
    8.8814    2.7785    0.8331 N   0  0  0  0  0  0  0  0  0  0  0  0
    9.2399    1.6314    0.0362 C   0  0  0  0  0  0  0  0  0  0  0  0
    8.6711    1.6657   -1.3528 C   0  0  0  0  0  0  0  0  0  0  0  0
    7.1725    1.6180   -1.3957 C   0  0  0  0  0  0  0  0  0  0  0  0
    6.5735    1.5431   -0.0651 N   0  0  0  0  0  0  0  0  0  0  0  0
    5.3127    2.2174    0.0416 C   0  0  0  0  0  0  0  0  0  0  0  0
    5.3426    3.4521   -0.2555 O   0  0  0  0  0  0  0  0  0  0  0  0
    4.2404    1.7982    0.9652 C   0  0  0  0  0  0  0  0  0  0  0  0
    3.2172    1.0199    0.2696 N   0  0  0  0  0  0  0  0  0  0  0  0
    3.5212   -0.3148   -0.1691 C   0  0  0  0  0  0  0  0  0  0  0  0
    4.4642   -0.8652    0.4146 O   0  0  0  0  0  0  0  0  0  0  0  0
    2.1618   -1.2311   -0.3145 C   0  0  2  0  0  0  0  0  0  0  0  0
    2.1751   -1.6174    1.3199 C   0  0  0  0  0  0  0  0  0  0  0  0
    0.4403   -1.2087    1.7243 S   0  0  0  0  0  0  0  0  0  0  0  0
   -0.9135   -2.5288    0.7977 S   0  0  0  0  0  0  0  0  0  0  0  0
   -1.3704   -2.0597   -0.8534 C   0  0  0  0  0  0  0  0  0  0  0  0
   -1.0993   -0.4103   -0.9796 C   0  0  2  0  0  0  0  0  0  0  0  0
   -1.8071   -0.1290    0.4350 N   0  0  0  0  0  0  0  0  0  0  0  0
   -1.7220    1.2582    0.7934 C   0  0  0  0  0  0  0  0  0  0  0  0
   -0.8898    2.0262    0.2204 O   0  0  0  0  0  0  0  0  0  0  0  0
   -2.1651    1.6852    2.1502 C   0  0  0  0  0  0  0  0  0  0  0  0
   -3.6359    2.0075    2.1599 C   0  0  0  0  0  0  0  0  0  0  0  0
   -4.3116    0.5453    1.6873 C   0  0  1  0  0  0  0  0  0  0  0  0
   -5.3420    0.5675    2.9212 N   0  0  0  0  0  0  0  0  0  0  0  0
   -5.3794    1.2793    0.6744 C   0  0  0  0  0  0  0  0  0  0  0  0
   -5.9727    2.2514    1.1441 O   0  0  0  0  0  0  0  0  0  0  0  0
   -4.9516    1.1945   -0.6571 O   0  0  0  0  0  0  0  0  0  0  0  0
   -2.5268   -0.2118   -1.7748 C   0  0  0  0  0  0  0  0  0  0  0  0
   -2.5278   -0.8108   -2.8791 O   0  0  0  0  0  0  0  0  0  0  0  0
   -2.9760    1.1300   -1.7691 N   0  0  0  0  0  0  0  0  0  0  0  0
   -4.2831    1.3689   -2.3760 C   0  0  0  0  0  0  0  0  0  0  0  0
   -5.3040    1.1142   -1.3154 C   0  0  0  0  0  0  0  0  0  0  0  0
   -6.0123    2.0580   -0.8511 O   0  0  0  0  0  0  0  0  0  0  0  0
   -5.3824   -0.1773   -0.7012 N   0  0  0  0  0  0  0  0  0  0  0  0
   -6.0751   -0.3867    0.5663 C   0  0  0  0  0  0  0  0  0  0  0  0
   -7.4044   -1.0842    0.3015 C   0  0  0  0  0  0  0  0  0  0  0  0
   -8.4311   -0.7334    1.3582 C   0  0  0  0  0  0  0  0  0  0  0  0
   -9.0921    0.4754    0.9186 N   0  0  0  0  0  0  0  0  0  0  0  0
  -10.2771    0.1727    0.1309 C   0  0  0  0  0  0  0  0  0  0  0  0
  -10.5046    1.2846   -0.8688 C   0  0  0  0  0  0  0  0  0  0  0  0
  -11.3665    2.3883   -0.2851 C   0  0  0  0  0  0  0  0  0  0  0  0
  -12.7620    1.8901    0.0147 C   0  0  0  0  0  0  0  0  0  0  0  0
  -13.6743    2.9773   -0.2305 N   0  0  0  0  0  0  0  0  0  0  0  0
    2.9893   -2.5454   -0.7337 N   0  0  0  0  0  0  0  0  0  0  0  0
    2.4393   -3.7288   -0.1897 C   0  0  0  0  0  0  0  0  0  0  0  0
    2.4846   -3.7095    1.0793 O   0  0  0  0  0  0  0  0  0  0  0  0
    2.1622   -4.9836   -0.8914 C   0  0  0  0  0  0  0  0  0  0  0  0
    3.3730   -5.8410   -1.1231 C   0  0  0  0  0  0  0  0  0  0  0  0
    3.6133   -6.6278    0.3380 C   0  0  1  0  0  0  0  0  0  0  0  0
    2.3974   -7.6355    0.0435 N   0  0  0  0  0  0  0  0  0  0  0  0
    4.6882   -7.6662   -0.3512 C   0  0  0  0  0  0  0  0  0  0  0  0
    5.6962   -7.0399   -0.7898 O   0  0  0  0  0  0  0  0  0  0  0  0
    4.9497   -8.7291    0.5059 O   0  0  0  0  0  0  0  0  0  0  0  0
  1  2  1  0
  2  3  1  0
  3  4  1  0
  4  5  1  0
  5  6  1  0
  6  7  1  0
  7  8  1  0
  8  9  1  0
  9 10  1  0
 10 11  1  0
 11 12  2  0
 11 13  1  0
 13 14  1  0
 14 15  1  0
 15 16  2  0
 17 15  1  1
 17 18  1  0
 18 19  1  0
 19 20  1  0
 20 21  1  0
 22 21  1  1
 22 23  1  0
 23 24  1  0
 24 25  2  0
 24 26  1  0
 26 27  1  0
 28 27  1  1
 28 29  1  0
 28 30  1  0
 30 31  2  0
 30 32  1  0
 22 33  1  0
 33 34  2  0
 33 35  1  0
 35 36  1  0
 36 37  1  0
 37 38  2  0
 37 39  1  0
 39 40  1  0
 40 41  1  0
 41 42  1  0
 42 43  1  0
 43 44  1  0
 44 45  1  0
 45 46  1  0
 46 47  1  0
 47 48  1  0
 17 49  1  0
 49 50  1  0
 50 51  2  0
 50 52  1  0
 52 53  1  0
 54 53  1  6
 54 55  1  0
 54 56  1  0
 56 57  2  0
 56 58  1  0
M  END
>  <zinc_id>  (1) 
ZINC000195757935

>  <smiles>  (1) 
NCCCCNCCCNC(=O)CNC(=O)[C@H](CSSC[C@H](NC(=O)CC[C@@H](N)C(=O)O)C(=O)NCC(=O)NCCCNCCCCN)NC(=O)CC[C@@H](N)C(=O)O

$$$$
