
     RDKit          3D

 28 27  0  0  0  0  0  0  0  0999 V2000
    8.8475    0.3546    0.8358 C   0  0  0  0  0  0  0  0  0  0  0  0
    8.6011    0.8207    0.7126 C   0  0  0  0  0  0  0  0  0  0  0  0
    7.2085    1.2780    0.3251 C   0  0  0  0  0  0  0  0  0  0  0  0
    6.2350    0.2897    0.9127 C   0  0  0  0  0  0  0  0  0  0  0  0
    5.0064    0.2520    0.0112 C   0  0  0  0  0  0  0  0  0  0  0  0
    4.1072   -0.9138    0.3630 C   0  0  0  0  0  0  0  0  0  0  0  0
    3.0921   -0.4586    1.3919 C   0  0  0  0  0  0  0  0  0  0  0  0
    2.6602    0.9787    1.1618 C   0  0  0  0  0  0  0  0  0  0  0  0
    0.8506    1.1098    0.9697 S   0  0  0  0  0  0  0  0  0  0  0  0
    0.5223    1.3748   -0.7733 C   0  0  0  0  0  0  0  0  0  0  0  0
   -0.6925    0.2963   -1.1852 C   0  0  2  0  0  0  0  0  0  0  0  0
   -1.6097    0.8088    0.0330 N   0  0  0  0  0  0  0  0  0  0  0  0
   -2.8576    0.1006    0.0335 C   0  0  0  0  0  0  0  0  0  0  0  0
   -3.1814   -0.6885   -0.9058 O   0  0  0  0  0  0  0  0  0  0  0  0
   -3.7857    0.1072    1.1970 C   0  0  0  0  0  0  0  0  0  0  0  0
   -4.5596    1.4184    1.1895 C   0  0  0  0  0  0  0  0  0  0  0  0
   -4.9134    1.5291   -0.4443 C   0  0  2  0  0  0  0  0  0  0  0  0
   -4.0259    2.8586   -0.6007 N   0  0  0  0  0  0  0  0  0  0  0  0
   -6.2924    2.3754   -0.1537 C   0  0  0  0  0  0  0  0  0  0  0  0
   -7.1372    1.5020    0.2234 O   0  0  0  0  0  0  0  0  0  0  0  0
   -6.1602    3.4444    0.6957 O   0  0  0  0  0  0  0  0  0  0  0  0
    0.0189   -0.9182   -0.3384 C   0  0  0  0  0  0  0  0  0  0  0  0
   -0.5044   -1.2543    0.7168 O   0  0  0  0  0  0  0  0  0  0  0  0
    0.5005   -1.9696   -1.1871 N   0  0  0  0  0  0  0  0  0  0  0  0
    0.1875   -3.3687   -0.9383 C   0  0  0  0  0  0  0  0  0  0  0  0
   -0.4726   -3.5614    0.3867 C   0  0  0  0  0  0  0  0  0  0  0  0
    0.2122   -4.0196    1.3477 O   0  0  0  0  0  0  0  0  0  0  0  0
   -1.8574   -3.7465    0.4343 O   0  0  0  0  0  0  0  0  0  0  0  0
  1  2  1  0
  2  3  1  0
  3  4  1  0
  4  5  1  0
  5  6  1  0
  6  7  1  0
  7  8  1  0
  8  9  1  0
  9 10  1  0
 11 10  1  1
 11 12  1  0
 12 13  1  0
 13 14  2  0
 13 15  1  0
 15 16  1  0
 17 16  1  1
 17 18  1  0
 17 19  1  0
 19 20  2  0
 19 21  1  0
 11 22  1  0
 22 23  2  0
 22 24  1  0
 24 25  1  0
 25 26  1  0
 26 27  2  0
 26 28  1  0
M  END
>  <zinc_id>  (1) 
ZINC000008234408

>  <smiles>  (1) 
CCCCCCCCSC[C@H](NC(=O)CC[C@H](N)C(=O)O)C(=O)NCC(=O)O

$$$$
