
     RDKit          3D

 29 28  0  0  0  0  0  0  0  0999 V2000
    8.5253    2.1709    1.1959 N   0  0  0  0  0  0  0  0  0  0  0  0
    8.3010    2.4882    1.2218 C   0  0  0  0  0  0  0  0  0  0  0  0
    6.9685    2.9979    0.6795 C   0  0  0  0  0  0  0  0  0  0  0  0
    6.6328    2.1004   -0.4824 C   0  0  0  0  0  0  0  0  0  0  0  0
    7.1647    0.7046   -0.3314 C   0  0  0  0  0  0  0  0  0  0  0  0
    6.3739   -0.1323    0.5293 N   0  0  0  0  0  0  0  0  0  0  0  0
    5.0036    0.2861    0.6534 C   0  0  0  0  0  0  0  0  0  0  0  0
    4.3740    0.6153   -0.6712 C   0  0  0  0  0  0  0  0  0  0  0  0
    3.2860   -0.3387   -1.0716 C   0  0  0  0  0  0  0  0  0  0  0  0
    2.0198    0.3217   -0.7940 N   0  0  0  0  0  0  0  0  0  0  0  0
    1.4624    0.4043    0.5151 C   0  0  0  0  0  0  0  0  0  0  0  0
    2.0534   -0.2609    1.4190 O   0  0  0  0  0  0  0  0  0  0  0  0
   -0.0322    0.3657    0.5923 C   0  0  0  0  0  0  0  0  0  0  0  0
   -0.3751   -1.0349    0.8220 N   0  0  0  0  0  0  0  0  0  0  0  0
   -1.6289   -1.4736    0.3104 C   0  0  0  0  0  0  0  0  0  0  0  0
   -2.1087   -1.0419   -0.7181 O   0  0  0  0  0  0  0  0  0  0  0  0
   -2.1377   -2.8627    0.9440 C   0  0  2  0  0  0  0  0  0  0  0  0
   -2.5350   -3.5331   -0.5062 C   0  0  0  0  0  0  0  0  0  0  0  0
   -0.8956   -3.6113   -1.3036 S   0  0  0  0  0  0  0  0  0  0  0  0
   -3.5740   -2.3014    1.2446 N   0  0  0  0  0  0  0  0  0  0  0  0
   -4.3510   -1.8123    0.1865 C   0  0  0  0  0  0  0  0  0  0  0  0
   -4.4588   -2.6810   -0.7358 O   0  0  0  0  0  0  0  0  0  0  0  0
   -5.6601   -1.1989    0.5759 C   0  0  0  0  0  0  0  0  0  0  0  0
   -6.1044   -0.0882   -0.2714 C   0  0  0  0  0  0  0  0  0  0  0  0
   -4.9874    1.1132   -0.2470 C   0  0  2  0  0  0  0  0  0  0  0  0
   -4.6050    0.8727    1.2630 N   0  0  0  0  0  0  0  0  0  0  0  0
   -6.0926    2.2172    0.1611 C   0  0  0  0  0  0  0  0  0  0  0  0
   -7.0507    2.3286   -0.6266 O   0  0  0  0  0  0  0  0  0  0  0  0
   -5.5680    3.3844    0.6990 O   0  0  0  0  0  0  0  0  0  0  0  0
  1  2  1  0
  2  3  1  0
  3  4  1  0
  4  5  1  0
  5  6  1  0
  6  7  1  0
  7  8  1  0
  8  9  1  0
  9 10  1  0
 10 11  1  0
 11 12  2  0
 11 13  1  0
 13 14  1  0
 14 15  1  0
 15 16  2  0
 17 15  1  6
 17 18  1  0
 18 19  1  0
 17 20  1  0
 20 21  1  0
 21 22  2  0
 21 23  1  0
 23 24  1  0
 25 24  1  1
 25 26  1  0
 25 27  1  0
 27 28  2  0
 27 29  1  0
M  END
>  <zinc_id>  (1) 
ZINC000003869959

>  <smiles>  (1) 
NCCCCNCCCNC(=O)CNC(=O)[C@H](CS)NC(=O)CC[C@H](N)C(=O)O

$$$$
