
     RDKit          3D

 48 47  0  0  0  0  0  0  0  0999 V2000
   13.1450    0.9819   -2.6518 N   0  0  0  0  0  0  0  0  0  0  0  0
   12.1078    1.0293   -1.4263 C   0  0  1  0  0  0  0  0  0  0  0  0
   10.9100    0.3013   -2.3472 C   0  0  0  0  0  0  0  0  0  0  0  0
    9.7628    1.2419   -1.9870 C   0  0  0  0  0  0  0  0  0  0  0  0
    9.2886    0.8230   -0.6375 C   0  0  0  0  0  0  0  0  0  0  0  0
   10.0691    0.7272    0.3570 O   0  0  0  0  0  0  0  0  0  0  0  0
    7.9162    0.8304   -0.2384 N   0  0  0  0  0  0  0  0  0  0  0  0
    7.5626   -0.6444    0.2861 C   0  0  1  0  0  0  0  0  0  0  0  0
    6.9126   -0.0273    1.7004 C   0  0  0  0  0  0  0  0  0  0  0  0
    8.3317   -0.1216    2.8465 S   0  0  0  0  0  0  0  0  0  0  0  0
    6.0988   -0.5937   -0.4636 C   0  0  0  0  0  0  0  0  0  0  0  0
    5.3829   -1.5855   -0.1234 O   0  0  0  0  0  0  0  0  0  0  0  0
    6.2680   -0.4583   -1.8826 N   0  0  0  0  0  0  0  0  0  0  0  0
    5.0645   -0.4304   -2.7047 C   0  0  0  0  0  0  0  0  0  0  0  0
    3.8860   -0.0860   -1.8910 C   0  0  0  0  0  0  0  0  0  0  0  0
    2.9566   -0.9485   -1.8808 O   0  0  0  0  0  0  0  0  0  0  0  0
    3.8906    0.9259   -0.8840 N   0  0  0  0  0  0  0  0  0  0  0  0
    2.7885    1.0616    0.0466 C   0  0  0  0  0  0  0  0  0  0  0  0
    1.7087    0.0834   -0.3589 C   0  0  0  0  0  0  0  0  0  0  0  0
    0.5392    0.7864   -1.0395 C   0  0  0  0  0  0  0  0  0  0  0  0
   -0.6982    0.1841   -0.3939 C   0  0  0  0  0  0  0  0  0  0  0  0
   -0.5341    0.3423    1.0451 N   0  0  0  0  0  0  0  0  0  0  0  0
   -0.0965   -0.8636    1.6945 C   0  0  0  0  0  0  0  0  0  0  0  0
   -1.0661   -2.0062    1.5291 C   0  0  0  0  0  0  0  0  0  0  0  0
   -2.3673   -1.4223    1.0281 C   0  0  0  0  0  0  0  0  0  0  0  0
   -3.0746   -0.8146    2.1152 N   0  0  0  0  0  0  0  0  0  0  0  0
   -3.9611    0.2918    2.0021 C   0  0  0  0  0  0  0  0  0  0  0  0
   -4.0239    0.8420    0.8605 O   0  0  0  0  0  0  0  0  0  0  0  0
   -5.2552    0.3160    2.7591 C   0  0  0  0  0  0  0  0  0  0  0  0
   -6.1613   -0.5057    1.9567 N   0  0  0  0  0  0  0  0  0  0  0  0
   -6.4773    0.0613    0.6708 C   0  0  0  0  0  0  0  0  0  0  0  0
   -7.0999    1.1044    0.7349 O   0  0  0  0  0  0  0  0  0  0  0  0
   -7.0616   -1.1682   -0.2463 C   0  0  2  0  0  0  0  0  0  0  0  0
   -6.3808   -0.5415   -1.6438 C   0  0  0  0  0  0  0  0  0  0  0  0
   -6.9397    1.1309   -1.8075 S   0  0  0  0  0  0  0  0  0  0  0  0
   -8.4880   -0.4797   -0.5388 N   0  0  0  0  0  0  0  0  0  0  0  0
   -9.4388   -0.9612    0.4005 C   0  0  0  0  0  0  0  0  0  0  0  0
   -9.1167   -0.9471    1.6272 O   0  0  0  0  0  0  0  0  0  0  0  0
  -10.7538   -1.5684    0.0304 C   0  0  0  0  0  0  0  0  0  0  0  0
  -11.7578   -1.0014    1.0331 C   0  0  0  0  0  0  0  0  0  0  0  0
  -11.3908    0.6226    0.8385 C   0  0  2  0  0  0  0  0  0  0  0  0
  -12.0131    0.9948    2.2722 N   0  0  0  0  0  0  0  0  0  0  0  0
  -12.8005    0.8925    0.0357 C   0  0  0  0  0  0  0  0  0  0  0  0
  -13.8194    0.5076    0.6321 O   0  0  0  0  0  0  0  0  0  0  0  0
  -12.5982    0.2939   -1.2187 O   0  0  0  0  0  0  0  0  0  0  0  0
   12.6337   -0.4065   -0.8279 C   0  0  0  0  0  0  0  0  0  0  0  0
   12.8021   -1.3036   -1.6463 O   0  0  0  0  0  0  0  0  0  0  0  0
   13.3487   -0.1937    0.3375 O   0  0  0  0  0  0  0  0  0  0  0  0
  2  1  1  6
  2  3  1  0
  3  4  1  0
  4  5  1  0
  5  6  2  0
  5  7  1  0
  8  7  1  6
  8  9  1  0
  9 10  1  0
  8 11  1  0
 11 12  2  0
 11 13  1  0
 13 14  1  0
 14 15  1  0
 15 16  2  0
 15 17  1  0
 17 18  1  0
 18 19  1  0
 19 20  1  0
 20 21  1  0
 21 22  1  0
 22 23  1  0
 23 24  1  0
 24 25  1  0
 25 26  1  0
 26 27  1  0
 27 28  2  0
 27 29  1  0
 29 30  1  0
 30 31  1  0
 31 32  2  0
 33 31  1  1
 33 34  1  0
 34 35  1  0
 33 36  1  0
 36 37  1  0
 37 38  2  0
 37 39  1  0
 39 40  1  0
 41 40  1  1
 41 42  1  0
 41 43  1  0
 43 44  2  0
 43 45  1  0
  2 46  1  0
 46 47  2  0
 46 48  1  0
M  END
>  <zinc_id>  (1) 
ZINC000008217540

>  <smiles>  (1) 
N[C@@H](CCC(=O)N[C@@H](CS)C(=O)NCC(=O)NCCCCNCCCNC(=O)CNC(=O)[C@H](CS)NC(=O)CC[C@H](N)C(=O)O)C(=O)O

$$$$
