
     RDKit          3D

 34 34  0  0  0  0  0  0  0  0999 V2000
   -3.9209   -3.7859    0.3803 N   0  0  0  0  0  0  0  0  0  0  0  0
   -5.4088   -3.7028    0.9195 C   0  0  1  0  0  0  0  0  0  0  0  0
   -5.2635   -2.0963    1.2815 C   0  0  0  0  0  0  0  0  0  0  0  0
   -4.6595   -1.4028    0.1688 C   0  0  0  0  0  0  0  0  0  0  0  0
   -3.3206   -0.8466    0.2861 C   0  0  0  0  0  0  0  0  0  0  0  0
   -2.4189   -1.3547   -0.4222 O   0  0  0  0  0  0  0  0  0  0  0  0
   -3.0028    0.0526    1.2615 N   0  0  0  0  0  0  0  0  0  0  0  0
   -1.6143    0.8059    1.2945 C   0  0  1  0  0  0  0  0  0  0  0  0
   -0.8398   -0.1880    0.2235 C   0  0  0  0  0  0  0  0  0  0  0  0
    0.3127    0.7177   -0.7073 S   0  0  0  0  0  0  0  0  0  0  0  0
    2.0679    0.6660    0.0179 C   0  0  1  0  0  0  0  0  0  0  0  0
    1.7784    1.7651    1.1295 C   0  0  0  0  0  0  0  0  0  0  0  0
    2.2988    2.9358    0.6065 O   0  0  0  0  0  0  0  0  0  0  0  0
    1.8699   -0.5755    0.9882 C   0  0  0  0  0  0  0  0  0  0  0  0
    2.3716   -1.7272    0.3617 O   0  0  0  0  0  0  0  0  0  0  0  0
    3.6760   -1.7288   -0.0842 C   0  0  0  0  0  0  0  0  0  0  0  0
    4.6607   -2.5336    0.4759 C   0  0  0  0  0  0  0  0  0  0  0  0
    5.9708   -2.0711    0.5137 C   0  0  0  0  0  0  0  0  0  0  0  0
    6.3314   -0.8554   -0.0550 C   0  0  0  0  0  0  0  0  0  0  0  0
    7.4137   -0.1153    0.4931 N   0  0  0  0  0  0  0  0  0  0  0  0
    7.4940    1.1102    0.3473 O   0  0  0  0  0  0  0  0  0  0  0  0
    8.4733   -0.8082    1.0137 O   0  0  0  0  0  0  0  0  0  0  0  0
    5.4353   -0.2890   -0.9451 C   0  0  0  0  0  0  0  0  0  0  0  0
    4.1407   -0.7911   -0.9973 C   0  0  0  0  0  0  0  0  0  0  0  0
   -2.0576    1.8617    0.1468 C   0  0  0  0  0  0  0  0  0  0  0  0
   -2.5648    1.4278   -0.8749 O   0  0  0  0  0  0  0  0  0  0  0  0
   -1.7214    3.2100    0.4095 N   0  0  0  0  0  0  0  0  0  0  0  0
   -1.5557    4.0823   -0.7506 C   0  0  0  0  0  0  0  0  0  0  0  0
   -2.3680    5.3151   -0.5679 C   0  0  0  0  0  0  0  0  0  0  0  0
   -3.6007    5.2294   -0.8533 O   0  0  0  0  0  0  0  0  0  0  0  0
   -1.8078    6.5789   -0.4820 O   0  0  0  0  0  0  0  0  0  0  0  0
   -6.0645   -3.4271   -0.5352 C   0  0  0  0  0  0  0  0  0  0  0  0
   -6.7937   -4.4440   -0.7685 O   0  0  0  0  0  0  0  0  0  0  0  0
   -5.3119   -3.0150   -1.5767 O   0  0  0  0  0  0  0  0  0  0  0  0
  2  1  1  6
  2  3  1  0
  3  4  1  0
  4  5  1  0
  5  6  2  0
  5  7  1  0
  8  7  1  6
  8  9  1  0
  9 10  1  0
 11 10  1  6
 11 12  1  0
 12 13  1  0
 11 14  1  0
 14 15  1  0
 15 16  1  0
 16 17  2  0
 17 18  1  0
 18 19  2  0
 19 20  1  0
 20 21  2  0
 20 22  1  0
 19 23  1  0
 23 24  2  0
  8 25  1  0
 25 26  2  0
 25 27  1  0
 27 28  1  0
 28 29  1  0
 29 30  2  0
 29 31  1  0
  2 32  1  0
 32 33  2  0
 32 34  1  0
 24 16  1  0
M  CHG  2  20   1  22  -1
M  END
>  <zinc_id>  (1) 
ZINC000012503844

>  <smiles>  (1) 
N[C@@H](CCC(=O)N[C@@H](CS[C@@H](CO)COc1ccc([N+](=O)[O-])cc1)C(=O)NCC(=O)O)C(=O)O

$$$$
