
     RDKit          3D

 46 47  0  0  0  0  0  0  0  0999 V2000
   -5.8766   -3.0815    1.9947 C   0  0  0  0  0  0  0  0  0  0  0  0
   -5.7421   -1.7823    2.7819 C   0  0  0  0  0  0  0  0  0  0  0  0
   -4.3685   -1.1665    2.1847 C   0  0  2  0  0  0  0  0  0  0  0  0
   -4.0545   -0.3047    3.5121 C   0  0  0  0  0  0  0  0  0  0  0  0
   -5.2152   -0.0064    1.2574 C   0  0  2  0  0  0  0  0  0  0  0  0
   -3.9358    0.5920    0.5892 N   0  0  0  0  0  0  0  0  0  0  0  0
   -2.7390   -0.0869    0.5350 C   0  0  0  0  0  0  0  0  0  0  0  0
   -2.6893   -1.2583    0.9375 O   0  0  0  0  0  0  0  0  0  0  0  0
   -1.8348    0.2872   -0.7434 C   0  0  2  0  0  0  0  0  0  0  0  0
   -2.6002   -0.6706   -1.6281 O   0  0  0  0  0  0  0  0  0  0  0  0
   -3.5360    0.1716   -2.2515 C   0  0  0  0  0  0  0  0  0  0  0  0
   -2.9524    0.5293   -3.5667 C   0  0  0  0  0  0  0  0  0  0  0  0
   -3.0217    1.8565   -3.9549 C   0  0  0  0  0  0  0  0  0  0  0  0
   -2.5317    2.2420   -5.1799 C   0  0  0  0  0  0  0  0  0  0  0  0
   -1.8607    1.3202   -5.9633 C   0  0  0  0  0  0  0  0  0  0  0  0
   -1.9483   -0.0241   -5.6501 C   0  0  0  0  0  0  0  0  0  0  0  0
   -2.3359   -0.4143   -4.3787 C   0  0  0  0  0  0  0  0  0  0  0  0
   -0.6443   -0.9080   -0.4224 C   0  0  2  0  0  0  0  0  0  0  0  0
   -0.3466   -0.3470    0.9326 O   0  0  0  0  0  0  0  0  0  0  0  0
    0.5734   -0.0705   -1.2721 C   0  0  1  0  0  0  0  0  0  0  0  0
    0.4258    1.2265   -0.5426 O   0  0  0  0  0  0  0  0  0  0  0  0
    1.7932   -0.6590   -0.2186 C   0  0  1  0  0  0  0  0  0  0  0  0
    2.4831   -1.3911   -1.3472 O   0  0  0  0  0  0  0  0  0  0  0  0
    3.6512   -1.9038   -0.7591 C   0  0  0  0  0  0  0  0  0  0  0  0
    3.4974   -3.2879   -0.2883 C   0  0  0  0  0  0  0  0  0  0  0  0
    3.9964   -4.3425   -1.0427 C   0  0  0  0  0  0  0  0  0  0  0  0
    4.1434   -5.5680   -0.4213 C   0  0  0  0  0  0  0  0  0  0  0  0
    3.5426   -5.7837    0.8113 C   0  0  0  0  0  0  0  0  0  0  0  0
    2.7038   -4.8360    1.3847 C   0  0  0  0  0  0  0  0  0  0  0  0
    2.7641   -3.5702    0.8573 C   0  0  0  0  0  0  0  0  0  0  0  0
    2.7554    0.6207   -0.3883 C   0  0  0  0  0  0  0  0  0  0  0  0
    2.7057    1.2635   -1.4338 O   0  0  0  0  0  0  0  0  0  0  0  0
    2.8544    1.2740    0.8332 N   0  0  0  0  0  0  0  0  0  0  0  0
    3.3329    2.7610    0.8560 C   0  0  2  0  0  0  0  0  0  0  0  0
    4.8949    2.4139    0.7670 C   0  0  0  0  0  0  0  0  0  0  0  0
    5.3960    3.5306    0.3947 O   0  0  0  0  0  0  0  0  0  0  0  0
    5.3282    1.3658   -0.0548 N   0  0  0  0  0  0  0  0  0  0  0  0
    6.4686    1.4861   -0.9627 C   0  0  0  0  0  0  0  0  0  0  0  0
    3.2303    2.9343    2.5619 C   0  0  1  0  0  0  0  0  0  0  0  0
    3.5467    1.4049    2.9867 C   0  0  0  0  0  0  0  0  0  0  0  0
    4.7250    3.4941    2.8242 C   0  0  0  0  0  0  0  0  0  0  0  0
    5.6108    2.4664    3.3966 C   0  0  0  0  0  0  0  0  0  0  0  0
   -5.2968    1.1671    2.3463 C   0  0  0  0  0  0  0  0  0  0  0  0
   -6.2526    0.9467    3.1520 O   0  0  0  0  0  0  0  0  0  0  0  0
   -5.2995    2.4966    1.8260 N   0  0  0  0  0  0  0  0  0  0  0  0
   -5.3409    3.6128    2.7474 C   0  0  0  0  0  0  0  0  0  0  0  0
  1  2  1  0
  3  2  1  1
  3  4  1  0
  3  5  1  0
  5  6  1  6
  6  7  1  0
  7  8  2  0
  9  7  1  1
  9 10  1  0
 10 11  1  0
 11 12  1  0
 12 13  2  0
 13 14  1  0
 14 15  2  0
 15 16  1  0
 16 17  2  0
  9 18  1  0
 18 19  1  1
 18 20  1  0
 20 21  1  1
 20 22  1  0
 22 23  1  6
 23 24  1  0
 24 25  1  0
 25 26  2  0
 26 27  1  0
 27 28  2  0
 28 29  1  0
 29 30  2  0
 22 31  1  0
 31 32  2  0
 31 33  1  0
 34 33  1  1
 34 35  1  0
 35 36  2  0
 35 37  1  0
 37 38  1  0
 34 39  1  0
 39 40  1  1
 39 41  1  0
 41 42  1  0
  5 43  1  0
 43 44  2  0
 43 45  1  0
 45 46  1  0
 17 12  1  0
 30 25  1  0
M  END
>  <zinc_id>  (1) 
ZINC000024495494

>  <smiles>  (1) 
CC[C@H](C)[C@H](NC(=O)[C@H](OCc1ccccc1)[C@H](O)[C@@H](O)[C@@H](OCc1ccccc1)C(=O)N[C@H](C(=O)NC)[C@@H](C)CC)C(=O)NC

$$$$
