
     RDKit          3D

 26 25  0  0  0  0  0  0  0  0999 V2000
   -6.8001    3.3791   -0.1721 C   0  0  0  0  0  0  0  0  0  0  0  0
   -6.1640    3.0381    0.1162 C   0  0  0  0  0  0  0  0  0  0  0  0
   -5.6485    1.7922    0.7778 C   0  0  0  0  0  0  0  0  0  0  0  0
   -4.3138    1.4617    0.1586 C   0  0  0  0  0  0  0  0  0  0  0  0
   -4.3896    0.3007   -0.7838 C   0  0  0  0  0  0  0  0  0  0  0  0
   -3.2381    0.1665   -1.6995 C   0  0  0  0  0  0  0  0  0  0  0  0
   -1.6354    0.5142   -1.1460 S   0  0  0  0  0  0  0  0  0  0  0  0
   -1.2145    0.4395    0.5520 C   0  0  0  0  0  0  0  0  0  0  0  0
    0.1640   -0.4754    0.7016 C   0  0  2  0  0  0  0  0  0  0  0  0
    0.8526    0.2258   -0.5471 N   0  0  0  0  0  0  0  0  0  0  0  0
    1.4053    1.4943   -0.2943 C   0  0  0  0  0  0  0  0  0  0  0  0
    0.7893    2.2896    0.4770 O   0  0  0  0  0  0  0  0  0  0  0  0
    2.7097    1.9798   -0.8170 C   0  0  0  0  0  0  0  0  0  0  0  0
    3.6602    0.9159   -1.1991 C   0  0  0  0  0  0  0  0  0  0  0  0
    4.8722    0.8809   -0.0681 C   0  0  2  0  0  0  0  0  0  0  0  0
    3.8710    1.1238    1.1460 N   0  0  0  0  0  0  0  0  0  0  0  0
    5.2200    2.4495   -0.2857 C   0  0  0  0  0  0  0  0  0  0  0  0
    4.5556    3.3083    0.2573 O   0  0  0  0  0  0  0  0  0  0  0  0
    6.1226    2.7129   -1.2913 O   0  0  0  0  0  0  0  0  0  0  0  0
   -0.3999   -1.6976   -0.2131 C   0  0  0  0  0  0  0  0  0  0  0  0
   -1.6318   -1.9495   -0.0435 O   0  0  0  0  0  0  0  0  0  0  0  0
    0.3618   -2.9044   -0.0035 N   0  0  0  0  0  0  0  0  0  0  0  0
   -0.1629   -4.2054   -0.3860 C   0  0  0  0  0  0  0  0  0  0  0  0
    0.2072   -5.2772    0.5906 C   0  0  0  0  0  0  0  0  0  0  0  0
    1.4276   -5.5577    0.7962 O   0  0  0  0  0  0  0  0  0  0  0  0
   -0.6205   -6.4058    0.5190 O   0  0  0  0  0  0  0  0  0  0  0  0
  1  2  1  0
  2  3  1  0
  3  4  1  0
  4  5  1  0
  5  6  1  0
  6  7  1  0
  7  8  1  0
  9  8  1  6
  9 10  1  0
 10 11  1  0
 11 12  2  0
 11 13  1  0
 13 14  1  0
 15 14  1  6
 15 16  1  0
 15 17  1  0
 17 18  2  0
 17 19  1  0
  9 20  1  0
 20 21  2  0
 20 22  1  0
 22 23  1  0
 23 24  1  0
 24 25  2  0
 24 26  1  0
M  END
>  <zinc_id>  (1) 
ZINC000003874923

>  <smiles>  (1) 
CCCCCCSC[C@H](NC(=O)CC[C@H](N)C(=O)O)C(=O)NCC(=O)O

$$$$
