
     RDKit          3D

 41 41  0  0  0  0  0  0  0  0999 V2000
    6.8286    3.9554   -1.2160 C   0  0  0  0  0  0  0  0  0  0  0  0
    6.1502    3.1338   -0.3086 O   0  0  0  0  0  0  0  0  0  0  0  0
    6.6474    1.8354   -0.1485 C   0  0  0  0  0  0  0  0  0  0  0  0
    7.1303    1.2078   -1.0768 O   0  0  0  0  0  0  0  0  0  0  0  0
    5.9185    1.0329    1.0605 C   0  0  1  0  0  0  0  0  0  0  0  0
    5.6874   -0.3027    0.2261 N   0  0  0  0  0  0  0  0  0  0  0  0
    4.3500   -0.7774    0.2955 C   0  0  0  0  0  0  0  0  0  0  0  0
    3.7282   -0.7967    1.3388 O   0  0  0  0  0  0  0  0  0  0  0  0
    3.5370   -0.9139   -1.0993 C   0  0  1  0  0  0  0  0  0  0  0  0
    2.7882   -2.2420   -0.6433 N   0  0  0  0  0  0  0  0  0  0  0  0
    1.4133   -2.2313   -0.4968 C   0  0  0  0  0  0  0  0  0  0  0  0
    1.0859   -1.3149    0.3235 O   0  0  0  0  0  0  0  0  0  0  0  0
    0.3742   -3.0880   -1.1226 C   0  0  0  0  0  0  0  0  0  0  0  0
   -0.9184   -2.2745   -1.0415 C   0  0  0  0  0  0  0  0  0  0  0  0
   -1.3934   -2.7758    0.4535 C   0  0  2  0  0  0  0  0  0  0  0  0
   -1.8440   -4.1135   -0.1149 O   0  0  0  0  0  0  0  0  0  0  0  0
   -3.0156   -2.1710    0.4143 C   0  0  2  0  0  0  0  0  0  0  0  0
   -2.9275   -1.3230   -0.9763 C   0  0  0  0  0  0  0  0  0  0  0  0
   -3.9706   -1.9609   -1.8478 C   0  0  0  0  0  0  0  0  0  0  0  0
   -4.6940   -1.1263   -2.6835 C   0  0  0  0  0  0  0  0  0  0  0  0
   -5.3469   -1.5393   -3.8097 C   0  0  0  0  0  0  0  0  0  0  0  0
   -5.0323   -2.7708   -4.3095 C   0  0  0  0  0  0  0  0  0  0  0  0
   -4.2941   -3.6655   -3.5512 C   0  0  0  0  0  0  0  0  0  0  0  0
   -3.8455   -3.2679   -2.3043 C   0  0  0  0  0  0  0  0  0  0  0  0
   -2.6284   -0.9389    1.3135 N   0  0  0  0  0  0  0  0  0  0  0  0
   -3.7394   -0.0279    1.2952 C   0  0  0  0  0  0  0  0  0  0  0  0
   -3.6748    0.6127    0.2026 O   0  0  0  0  0  0  0  0  0  0  0  0
   -3.8019    0.9974    2.5528 C   0  0  2  0  0  0  0  0  0  0  0  0
   -4.7315   -0.0457    3.4407 C   0  0  0  0  0  0  0  0  0  0  0  0
   -5.0930    1.7259    1.9795 N   0  0  0  0  0  0  0  0  0  0  0  0
   -4.7567    3.1265    2.0311 C   0  0  0  0  0  0  0  0  0  0  0  0
   -4.9148    3.5561    3.1754 O   0  0  0  0  0  0  0  0  0  0  0  0
   -5.4020    3.9612    0.7989 C   0  0  2  0  0  0  0  0  0  0  0  0
   -3.9069    4.2936    0.1623 C   0  0  0  0  0  0  0  0  0  0  0  0
   -5.4319    5.3470    1.5743 N   0  0  0  0  0  0  0  0  0  0  0  0
    2.3232    0.1261   -0.6568 C   0  0  0  0  0  0  0  0  0  0  0  0
    2.8640    1.2122    0.1566 C   0  0  0  0  0  0  0  0  0  0  0  0
    2.0650    0.7310   -2.0392 C   0  0  0  0  0  0  0  0  0  0  0  0
    7.3617    0.5353    1.7078 C   0  0  0  0  0  0  0  0  0  0  0  0
    8.2074    1.8112    1.7725 C   0  0  0  0  0  0  0  0  0  0  0  0
    6.9029    0.4662    3.1713 C   0  0  0  0  0  0  0  0  0  0  0  0
  1  2  1  0
  2  3  1  0
  3  4  2  0
  5  3  1  6
  5  6  1  0
  6  7  1  0
  7  8  2  0
  9  7  1  1
  9 10  1  0
 10 11  1  0
 11 12  2  0
 11 13  1  0
 13 14  1  0
 15 14  1  6
 15 16  1  0
 15 17  1  0
 17 18  1  6
 18 19  1  0
 19 20  2  0
 20 21  1  0
 21 22  2  0
 22 23  1  0
 23 24  2  0
 17 25  1  0
 25 26  1  0
 26 27  2  0
 28 26  1  6
 28 29  1  0
 28 30  1  0
 30 31  1  0
 31 32  2  0
 33 31  1  1
 33 34  1  0
 33 35  1  0
  9 36  1  0
 36 37  1  0
 36 38  1  0
  5 39  1  0
 39 40  1  0
 39 41  1  0
 24 19  1  0
M  END
>  <zinc_id>  (1) 
ZINC000003935186

>  <smiles>  (1) 
COC(=O)[C@@H](NC(=O)[C@@H](NC(=O)CC[C@H](O)[C@H](Cc1ccccc1)NC(=O)[C@H](C)NC(=O)[C@H](C)N)C(C)C)C(C)C

$$$$
