
     RDKit          3D

 31 31  0  0  0  0  0  0  0  0999 V2000
    6.5154    0.9222    1.2006 C   0  0  0  0  0  0  0  0  0  0  0  0
    5.7242    0.6546    2.4267 C   0  0  0  0  0  0  0  0  0  0  0  0
    4.6185    1.6680    2.5305 C   0  0  0  0  0  0  0  0  0  0  0  0
    3.5843    1.5530    1.4561 C   0  0  0  0  0  0  0  0  0  0  0  0
    4.1909    1.7847    0.0982 C   0  0  0  0  0  0  0  0  0  0  0  0
    3.0413    1.1573   -0.9021 C   0  0  1  0  0  0  0  0  0  0  0  0
    4.0719    0.6081   -1.8750 O   0  0  0  0  0  0  0  0  0  0  0  0
    2.8450   -0.0316   -2.5530 C   0  0  1  0  0  0  0  0  0  0  0  0
    3.7297   -0.9357   -3.4282 O   0  0  0  0  0  0  0  0  0  0  0  0
    2.7357   -1.1963   -1.3674 C   0  0  0  0  0  0  0  0  0  0  0  0
    3.0778   -0.3229   -0.1142 C   0  0  2  0  0  0  0  0  0  0  0  0
    1.3762   -0.1688    0.6677 S   0  0  0  0  0  0  0  0  0  0  0  0
    0.4059   -1.6723    0.3148 C   0  0  0  0  0  0  0  0  0  0  0  0
   -0.6189   -1.0155   -0.8013 C   0  0  2  0  0  0  0  0  0  0  0  0
   -1.6767   -0.6400    0.3121 N   0  0  0  0  0  0  0  0  0  0  0  0
   -2.1108    0.7235    0.2866 C   0  0  0  0  0  0  0  0  0  0  0  0
   -1.6408    1.4355   -0.6479 O   0  0  0  0  0  0  0  0  0  0  0  0
   -3.3194    1.1029    1.0483 C   0  0  0  0  0  0  0  0  0  0  0  0
   -4.0784    2.2541    0.4587 C   0  0  0  0  0  0  0  0  0  0  0  0
   -3.7741    3.5459    1.4409 C   0  0  2  0  0  0  0  0  0  0  0  0
   -5.2410    4.1074    1.2642 N   0  0  0  0  0  0  0  0  0  0  0  0
   -3.2047    4.4983    0.2658 C   0  0  0  0  0  0  0  0  0  0  0  0
   -3.4714    4.2079   -0.9017 O   0  0  0  0  0  0  0  0  0  0  0  0
   -3.4114    5.8642    0.5169 O   0  0  0  0  0  0  0  0  0  0  0  0
   -1.2710   -2.4465   -1.1628 C   0  0  0  0  0  0  0  0  0  0  0  0
   -0.3577   -3.1516   -1.6961 O   0  0  0  0  0  0  0  0  0  0  0  0
   -2.0901   -3.0819   -0.2376 N   0  0  0  0  0  0  0  0  0  0  0  0
   -2.6441   -4.3657   -0.6244 C   0  0  0  0  0  0  0  0  0  0  0  0
   -2.3966   -5.3236    0.4599 C   0  0  0  0  0  0  0  0  0  0  0  0
   -3.4123   -5.7185    1.1075 O   0  0  0  0  0  0  0  0  0  0  0  0
   -1.1975   -6.0165    0.4561 O   0  0  0  0  0  0  0  0  0  0  0  0
  1  2  1  0
  2  3  1  0
  3  4  1  0
  4  5  1  0
  6  5  1  1
  6  7  1  0
  7  8  1  0
  8  9  1  6
  8 10  1  0
 10 11  1  0
 11 12  1  1
 12 13  1  0
 14 13  1  1
 14 15  1  0
 15 16  1  0
 16 17  2  0
 16 18  1  0
 18 19  1  0
 20 19  1  6
 20 21  1  0
 20 22  1  0
 22 23  2  0
 22 24  1  0
 14 25  1  0
 25 26  2  0
 25 27  1  0
 27 28  1  0
 28 29  1  0
 29 30  2  0
 29 31  1  0
 11  6  1  0
M  END
>  <zinc_id>  (1) 
ZINC000031976570

>  <smiles>  (1) 
CCCCC[C@H]1O[C@@H](O)C[C@@H]1SC[C@H](NC(=O)CC[C@H](N)C(=O)O)C(=O)NCC(=O)O

$$$$
