2472
  -OEChem-12031917383D

 54 56  0     0  0  0  0  0  0999 V2000
   -3.9586   -2.0042    1.0414 O   0  0  0  0  0  0  0  0  0  0  0  0
    4.5478   -2.2664    1.2746 O   0  0  0  0  0  0  0  0  0  0  0  0
    5.7314   -0.6166   -0.6223 O   0  0  0  0  0  0  0  0  0  0  0  0
   -4.1560    0.2814    0.6778 N   0  0  0  0  0  0  0  0  0  0  0  0
   -1.4957    1.5069    0.8708 N   0  0  0  0  0  0  0  0  0  0  0  0
    0.5170    0.2548    1.0007 N   0  0  0  0  0  0  0  0  0  0  0  0
    0.3421    2.1449   -0.4839 N   0  0  0  0  0  0  0  0  0  0  0  0
    2.1613    2.7854   -1.8317 N   0  0  0  0  0  0  0  0  0  0  0  0
   -3.2505    2.1019   -0.7618 C   0  0  0  0  0  0  0  0  0  0  0  0
   -4.4913    1.4210   -0.1830 C   0  0  0  0  0  0  0  0  0  0  0  0
   -2.2880    2.6090    0.3160 C   0  0  0  0  0  0  0  0  0  0  0  0
   -3.5796    0.6173    1.9811 C   0  0  0  0  0  0  0  0  0  0  0  0
   -2.0505    0.6723    1.9461 C   0  0  0  0  0  0  0  0  0  0  0  0
   -4.2459   -1.0600    0.3009 C   0  0  0  0  0  0  0  0  0  0  0  0
   -0.1769    1.2983    0.4502 C   0  0  0  0  0  0  0  0  0  0  0  0
   -4.7261   -1.3382   -1.1012 C   0  0  0  0  0  0  0  0  0  0  0  0
   -4.7694   -2.8342   -1.3588 C   0  0  0  0  0  0  0  0  0  0  0  0
    1.7845    0.0488    0.6016 C   0  0  0  0  0  0  0  0  0  0  0  0
    2.3950    0.8749   -0.3562 C   0  0  0  0  0  0  0  0  0  0  0  0
    1.6131    1.9101   -0.8611 C   0  0  0  0  0  0  0  0  0  0  0  0
   -5.1869   -3.1776   -2.7819 C   0  0  0  0  0  0  0  0  0  0  0  0
    2.5355   -0.9984    1.1301 C   0  0  0  0  0  0  0  0  0  0  0  0
    3.7208    0.6499   -0.7660 C   0  0  0  0  0  0  0  0  0  0  0  0
    3.8545   -1.2288    0.7278 C   0  0  0  0  0  0  0  0  0  0  0  0
    4.4481   -0.4039   -0.2212 C   0  0  0  0  0  0  0  0  0  0  0  0
    4.4619   -3.5251    0.6096 C   0  0  0  0  0  0  0  0  0  0  0  0
    6.2624    0.2767   -1.5998 C   0  0  0  0  0  0  0  0  0  0  0  0
   -3.5842    2.9558   -1.3636 H   0  0  0  0  0  0  0  0  0  0  0  0
   -2.7293    1.4148   -1.4396 H   0  0  0  0  0  0  0  0  0  0  0  0
   -5.0741    2.1329    0.4139 H   0  0  0  0  0  0  0  0  0  0  0  0
   -5.1395    1.1126   -1.0059 H   0  0  0  0  0  0  0  0  0  0  0  0
   -1.6475    3.3849   -0.1194 H   0  0  0  0  0  0  0  0  0  0  0  0
   -2.8362    3.1227    1.1152 H   0  0  0  0  0  0  0  0  0  0  0  0
   -3.8836   -0.1459    2.7077 H   0  0  0  0  0  0  0  0  0  0  0  0
   -4.0068    1.5636    2.3312 H   0  0  0  0  0  0  0  0  0  0  0  0
   -1.6795    1.0346    2.9121 H   0  0  0  0  0  0  0  0  0  0  0  0
   -1.6986   -0.3610    1.8316 H   0  0  0  0  0  0  0  0  0  0  0  0
   -4.0498   -0.8535   -1.8134 H   0  0  0  0  0  0  0  0  0  0  0  0
   -5.7338   -0.9274   -1.2245 H   0  0  0  0  0  0  0  0  0  0  0  0
   -5.4667   -3.3159   -0.6619 H   0  0  0  0  0  0  0  0  0  0  0  0
   -3.7830   -3.2780   -1.1741 H   0  0  0  0  0  0  0  0  0  0  0  0
   -4.4866   -2.7523   -3.5078 H   0  0  0  0  0  0  0  0  0  0  0  0
   -6.1867   -2.7890   -2.9998 H   0  0  0  0  0  0  0  0  0  0  0  0
   -5.2051   -4.2630   -2.9212 H   0  0  0  0  0  0  0  0  0  0  0  0
    2.0871   -1.6541    1.8751 H   0  0  0  0  0  0  0  0  0  0  0  0
    4.1554    1.3188   -1.4976 H   0  0  0  0  0  0  0  0  0  0  0  0
    2.7746    2.3983   -2.5379 H   0  0  0  0  0  0  0  0  0  0  0  0
    1.5527    3.5378   -2.1337 H   0  0  0  0  0  0  0  0  0  0  0  0
    4.8473   -3.4485   -0.4120 H   0  0  0  0  0  0  0  0  0  0  0  0
    3.4269   -3.8812    0.5953 H   0  0  0  0  0  0  0  0  0  0  0  0
    5.0721   -4.2460    1.1604 H   0  0  0  0  0  0  0  0  0  0  0  0
    5.7181    0.2089   -2.5480 H   0  0  0  0  0  0  0  0  0  0  0  0
    7.2901   -0.0431   -1.8020 H   0  0  0  0  0  0  0  0  0  0  0  0
    6.3194    1.3029   -1.2211 H   0  0  0  0  0  0  0  0  0  0  0  0
  1 14  2  0  0  0  0
  2 24  1  0  0  0  0
  2 26  1  0  0  0  0
  3 25  1  0  0  0  0
  3 27  1  0  0  0  0
  4 10  1  0  0  0  0
  4 12  1  0  0  0  0
  4 14  1  0  0  0  0
  5 11  1  0  0  0  0
  5 13  1  0  0  0  0
  5 15  1  0  0  0  0
  6 15  2  0  0  0  0
  6 18  1  0  0  0  0
  7 15  1  0  0  0  0
  7 20  2  0  0  0  0
  8 20  1  0  0  0  0
  8 47  1  0  0  0  0
  8 48  1  0  0  0  0
  9 10  1  0  0  0  0
  9 11  1  0  0  0  0
  9 28  1  0  0  0  0
  9 29  1  0  0  0  0
 10 30  1  0  0  0  0
 10 31  1  0  0  0  0
 11 32  1  0  0  0  0
 11 33  1  0  0  0  0
 12 13  1  0  0  0  0
 12 34  1  0  0  0  0
 12 35  1  0  0  0  0
 13 36  1  0  0  0  0
 13 37  1  0  0  0  0
 14 16  1  0  0  0  0
 16 17  1  0  0  0  0
 16 38  1  0  0  0  0
 16 39  1  0  0  0  0
 17 21  1  0  0  0  0
 17 40  1  0  0  0  0
 17 41  1  0  0  0  0
 18 19  1  0  0  0  0
 18 22  2  0  0  0  0
 19 20  1  0  0  0  0
 19 23  2  0  0  0  0
 21 42  1  0  0  0  0
 21 43  1  0  0  0  0
 21 44  1  0  0  0  0
 22 24  1  0  0  0  0
 22 45  1  0  0  0  0
 23 25  1  0  0  0  0
 23 46  1  0  0  0  0
 24 25  2  0  0  0  0
 26 49  1  0  0  0  0
 26 50  1  0  0  0  0
 26 51  1  0  0  0  0
 27 52  1  0  0  0  0
 27 53  1  0  0  0  0
 27 54  1  0  0  0  0
M  END
> <DATABASE_ID>
DB12230

> <DATABASE_NAME>
drugbank

> <ORIGINAL_SOURCE>
PUBCHEM

> <ORIGINAL_SOURCE_URL>
https://pubchem.ncbi.nlm.nih.gov/rest/pug/compound/inchikey/RHLJLALHBZGAFM-UHFFFAOYSA-N/SDF?record_type=3d

> <SMILES>
CCCC(=O)N1CCCN(CC1)C1=NC(N)=C2C=C(OC)C(OC)=CC2=N1

> <INCHI_IDENTIFIER>
InChI=1S/C19H27N5O3/c1-4-6-17(25)23-7-5-8-24(10-9-23)19-21-14-12-16(27-3)15(26-2)11-13(14)18(20)22-19/h11-12H,4-10H2,1-3H3,(H2,20,21,22)

> <INCHI_KEY>
RHLJLALHBZGAFM-UHFFFAOYSA-N

> <FORMULA>
C19H27N5O3

> <MOLECULAR_WEIGHT>
373.457

> <EXACT_MASS>
373.211389749

> <JCHEM_ACCEPTOR_COUNT>
7

> <JCHEM_ATOM_COUNT>
54

> <JCHEM_AVERAGE_POLARIZABILITY>
40.07822475628147

> <JCHEM_BIOAVAILABILITY>
1

> <JCHEM_DONOR_COUNT>
1

> <JCHEM_FORMAL_CHARGE>
0

> <JCHEM_GHOSE_FILTER>
1

> <JCHEM_IUPAC>
1-[4-(4-amino-6,7-dimethoxyquinazolin-2-yl)-1,4-diazepan-1-yl]butan-1-one

> <ALOGPS_LOGP>
2.66

> <JCHEM_LOGP>
1.941159631333333

> <ALOGPS_LOGS>
-2.81

> <JCHEM_MDDR_LIKE_RULE>
0

> <JCHEM_NUMBER_OF_RINGS>
3

> <JCHEM_PHYSIOLOGICAL_CHARGE>
1

> <JCHEM_PKA_STRONGEST_BASIC>
7.255618846722244

> <JCHEM_POLAR_SURFACE_AREA>
93.81

> <JCHEM_REFRACTIVITY>
105.52999999999999

> <JCHEM_ROTATABLE_BOND_COUNT>
5

> <JCHEM_RULE_OF_FIVE>
1

> <ALOGPS_SOLUBILITY>
5.84e-01 g/l

> <JCHEM_TRADITIONAL_IUPAC>
(2S)-2-amino-4-[(2-ethanimidamidoethyl)sulfanyl]butanoic acid

> <JCHEM_VEBER_RULE>
0

$$$$
