
     RDKit          3D

 41 42  0  0  0  0  0  0  0  0999 V2000
    1.6702   -3.8922   -0.3406 C   0  0  0  0  0  0  0  0  0  0  0  0
    1.7409   -3.4632   -0.9288 C   0  0  0  0  0  0  0  0  0  0  0  0
    2.9346   -2.3808   -0.7675 C   0  0  1  0  0  0  0  0  0  0  0  0
    2.9042   -1.9294   -2.3178 C   0  0  0  0  0  0  0  0  0  0  0  0
    1.9294   -1.1562   -0.1150 C   0  0  1  0  0  0  0  0  0  0  0  0
    2.6045    0.0218   -0.9059 N   0  0  0  0  0  0  0  0  0  0  0  0
    3.0791    0.9409    0.4966 S   0  0  0  0  0  0  0  0  0  0  0  0
    1.8258    1.1634    1.3037 O   0  0  0  0  0  0  0  0  0  0  0  0
    3.6774    2.2429    0.1719 O   0  0  0  0  0  0  0  0  0  0  0  0
    4.1596   -0.1276    1.4346 C   0  0  0  0  0  0  0  0  0  0  0  0
    5.5779    0.1168    1.0247 C   0  0  0  0  0  0  0  0  0  0  0  0
    6.3078   -0.8130    0.3074 C   0  0  0  0  0  0  0  0  0  0  0  0
    7.0921   -0.4260   -0.7705 C   0  0  0  0  0  0  0  0  0  0  0  0
    7.5152    0.8958   -0.7968 C   0  0  0  0  0  0  0  0  0  0  0  0
    7.0354    1.8312    0.1064 C   0  0  0  0  0  0  0  0  0  0  0  0
    7.1292    3.2323   -0.3220 C   0  0  0  0  0  0  0  0  0  0  0  0
    6.0347    3.8453   -0.5072 O   0  0  0  0  0  0  0  0  0  0  0  0
    8.2916    3.9605   -0.2215 O   0  0  0  0  0  0  0  0  0  0  0  0
    6.0782    1.4093    1.0164 C   0  0  0  0  0  0  0  0  0  0  0  0
    0.6962   -1.2931   -1.1106 C   0  0  0  0  0  0  0  0  0  0  0  0
    0.6436   -1.1607   -2.2802 O   0  0  0  0  0  0  0  0  0  0  0  0
   -0.5614   -0.8883   -0.5443 N   0  0  0  0  0  0  0  0  0  0  0  0
   -1.4904   -2.1562   -0.5947 C   0  0  1  0  0  0  0  0  0  0  0  0
   -1.6730   -2.1485    1.0436 C   0  0  0  0  0  0  0  0  0  0  0  0
   -1.7808   -0.7319    1.4706 C   0  0  0  0  0  0  0  0  0  0  0  0
   -2.8198   -0.3786    2.4034 C   0  0  0  0  0  0  0  0  0  0  0  0
   -3.3224    0.8171    2.3012 N   0  0  0  0  0  0  0  0  0  0  0  0
   -3.3529   -1.2818    3.3370 N   0  0  0  0  0  0  0  0  0  0  0  0
   -2.8356   -1.2824   -0.7852 C   0  0  0  0  0  0  0  0  0  0  0  0
   -2.9563   -0.8497   -1.9628 O   0  0  0  0  0  0  0  0  0  0  0  0
   -3.9167   -2.1084   -0.3400 N   0  0  0  0  0  0  0  0  0  0  0  0
   -5.1731   -2.2806   -0.9692 C   0  0  0  0  0  0  0  0  0  0  0  0
   -6.1098   -1.2584   -0.4071 C   0  0  0  0  0  0  0  0  0  0  0  0
   -6.8754   -0.5863   -1.3376 C   0  0  0  0  0  0  0  0  0  0  0  0
   -7.2045    0.7478   -1.2345 C   0  0  0  0  0  0  0  0  0  0  0  0
   -6.7863    1.4251   -0.0969 C   0  0  0  0  0  0  0  0  0  0  0  0
   -6.6033    2.8694   -0.1999 C   0  0  0  0  0  0  0  0  0  0  0  0
   -5.5829    3.3149   -0.8505 N   0  0  0  0  0  0  0  0  0  0  0  0
   -7.6788    3.6838    0.2151 N   0  0  0  0  0  0  0  0  0  0  0  0
   -6.3305    0.6873    0.9795 C   0  0  0  0  0  0  0  0  0  0  0  0
   -5.8737   -0.6123    0.7925 C   0  0  0  0  0  0  0  0  0  0  0  0
  1  2  1  0
  3  2  1  6
  3  4  1  0
  3  5  1  0
  5  6  1  6
  6  7  1  0
  7  8  2  0
  7  9  2  0
  7 10  1  0
 10 11  1  0
 11 12  2  0
 12 13  1  0
 13 14  2  0
 14 15  1  0
 15 16  1  0
 16 17  2  0
 16 18  1  0
 15 19  2  0
  5 20  1  0
 20 21  2  0
 20 22  1  0
 23 22  1  1
 23 24  1  0
 24 25  1  0
 25 26  1  0
 26 27  2  0
 26 28  1  0
 23 29  1  0
 29 30  2  0
 29 31  1  0
 31 32  1  0
 32 33  1  0
 33 34  2  0
 34 35  1  0
 35 36  2  0
 36 37  1  0
 37 38  2  0
 37 39  1  0
 36 40  1  0
 40 41  2  0
 19 11  1  0
 41 33  1  0
M  END
>  <zinc_id>  (1) 
ZINC000014881275

>  <smiles>  (1) 
CC[C@@H](C)[C@@H](NS(=O)(=O)Cc1cccc(C(=O)O)c1)C(=O)N[C@@H](CCC(=N)N)C(=O)NCc1ccc(C(=N)N)cc1

$$$$
