
     RDKit          3D

 49 51  0  0  0  0  0  0  0  0999 V2000
  -12.6206   -0.2095    0.9235 C   0  0  0  0  0  0  0  0  0  0  0  0
  -11.4337   -0.0897    0.0519 C   0  0  0  0  0  0  0  0  0  0  0  0
  -10.3135   -0.9122    0.0617 C   0  0  0  0  0  0  0  0  0  0  0  0
   -9.2110   -0.1304   -0.2706 C   0  0  0  0  0  0  0  0  0  0  0  0
   -7.8376   -0.4982    0.0467 C   0  0  0  0  0  0  0  0  0  0  0  0
   -7.5361   -1.7296   -0.0199 O   0  0  0  0  0  0  0  0  0  0  0  0
   -6.8688    0.3076    0.6715 N   0  0  0  0  0  0  0  0  0  0  0  0
   -6.3858   -0.2347    2.1054 C   0  0  1  0  0  0  0  0  0  0  0  0
   -6.0749   -1.7681    1.4996 C   0  0  0  0  0  0  0  0  0  0  0  0
   -4.8563    0.2992    1.8430 C   0  0  0  0  0  0  0  0  0  0  0  0
   -4.7254    1.3616    2.5254 O   0  0  0  0  0  0  0  0  0  0  0  0
   -3.8333   -0.6066    1.7709 N   0  0  0  0  0  0  0  0  0  0  0  0
   -2.5619   -0.4036    2.7225 C   0  0  2  0  0  0  0  0  0  0  0  0
   -1.6675    0.1777    1.4690 C   0  0  0  0  0  0  0  0  0  0  0  0
   -2.0891    1.3231    1.1505 O   0  0  0  0  0  0  0  0  0  0  0  0
   -0.2990   -0.1720    1.5446 N   0  0  0  0  0  0  0  0  0  0  0  0
    0.7142    1.0638    1.3968 C   0  0  1  0  0  0  0  0  0  0  0  0
    1.9460    0.2076    2.1423 C   0  0  0  0  0  0  0  0  0  0  0  0
    1.3132   -0.2815    3.4303 C   0  0  0  0  0  0  0  0  0  0  0  0
    2.2521   -1.3178    3.9632 C   0  0  0  0  0  0  0  0  0  0  0  0
    1.1896    0.8332    4.4383 C   0  0  0  0  0  0  0  0  0  0  0  0
    1.2043    0.5493   -0.0844 C   0  0  0  0  0  0  0  0  0  0  0  0
    0.2596    0.3942   -0.8886 O   0  0  0  0  0  0  0  0  0  0  0  0
    2.2405    1.3640   -0.6616 N   0  0  0  0  0  0  0  0  0  0  0  0
    3.0142    0.3701   -1.6571 C   0  0  2  0  0  0  0  0  0  0  0  0
    4.1032    1.5368   -2.0549 C   0  0  0  0  0  0  0  0  0  0  0  0
    4.9511    1.7680   -1.0484 C   0  0  0  0  0  0  0  0  0  0  0  0
    6.3842    1.9988   -1.2759 C   0  0  0  0  0  0  0  0  0  0  0  0
    7.0220    2.7484   -0.4799 O   0  0  0  0  0  0  0  0  0  0  0  0
    7.0282    1.2895   -2.2817 O   0  0  0  0  0  0  0  0  0  0  0  0
    8.4143    1.1803   -2.3239 C   0  0  0  0  0  0  0  0  0  0  0  0
    9.0063    0.5365   -1.1148 C   0  0  0  0  0  0  0  0  0  0  0  0
    8.2606   -0.2061   -0.2328 C   0  0  0  0  0  0  0  0  0  0  0  0
    8.8055   -0.5097    1.0055 C   0  0  0  0  0  0  0  0  0  0  0  0
    9.9488    0.1466    1.4437 C   0  0  0  0  0  0  0  0  0  0  0  0
   10.7240    0.8526    0.5587 C   0  0  0  0  0  0  0  0  0  0  0  0
   10.2756    0.9204   -0.7535 C   0  0  0  0  0  0  0  0  0  0  0  0
    2.0362    0.7714   -2.9576 C   0  0  0  0  0  0  0  0  0  0  0  0
    3.1472    0.1592   -4.0377 C   0  0  2  0  0  0  0  0  0  0  0  0
    2.0050   -0.0333   -5.2265 C   0  0  0  0  0  0  0  0  0  0  0  0
    1.0541   -0.9694   -4.5459 C   0  0  0  0  0  0  0  0  0  0  0  0
    2.0575   -1.9998   -4.2743 N   0  0  0  0  0  0  0  0  0  0  0  0
    2.9660   -1.3523   -3.4585 C   0  0  0  0  0  0  0  0  0  0  0  0
    3.9262   -1.8421   -2.7863 O   0  0  0  0  0  0  0  0  0  0  0  0
   -2.0322   -1.9762    2.4807 C   0  0  0  0  0  0  0  0  0  0  0  0
   -2.2905   -2.2996    1.0641 C   0  0  0  0  0  0  0  0  0  0  0  0
   -2.8221   -2.7642    3.4862 C   0  0  0  0  0  0  0  0  0  0  0  0
   -9.7432    0.9974   -0.7297 N   0  0  0  0  0  0  0  0  0  0  0  0
  -11.0472    0.9761   -0.6318 O   0  0  0  0  0  0  0  0  0  0  0  0
  1  2  1  0
  2  3  2  0
  3  4  1  0
  4  5  1  0
  5  6  2  0
  5  7  1  0
  8  7  1  6
  8  9  1  0
  8 10  1  0
 10 11  2  0
 10 12  1  0
 13 12  1  6
 13 14  1  0
 14 15  2  0
 14 16  1  0
 17 16  1  1
 17 18  1  0
 18 19  1  0
 19 20  1  0
 19 21  1  0
 17 22  1  0
 22 23  2  0
 22 24  1  0
 25 24  1  1
 25 26  1  0
 26 27  2  0
 27 28  1  0
 28 29  2  0
 28 30  1  0
 30 31  1  0
 31 32  1  0
 32 33  2  0
 33 34  1  0
 34 35  2  0
 35 36  1  0
 36 37  2  0
 25 38  1  0
 39 38  1  1
 39 40  1  0
 40 41  1  0
 41 42  1  0
 42 43  1  0
 43 44  2  0
 13 45  1  0
 45 46  1  0
 45 47  1  0
  4 48  2  0
 48 49  1  0
 49  2  1  0
 37 32  1  0
 43 39  1  0
M  END
>  <zinc_id>  (1) 
ZINC000053683585

>  <smiles>  (1) 
Cc1cc(C(=O)N[C@@H](C)C(=O)N[C@H](C(=O)N[C@@H](CC(C)C)C(=O)N[C@H](/C=C/C(=O)OCc2ccccc2)C[C@@H]2CCNC2=O)C(C)C)no1

$$$$
