
     RDKit          3D

 32 32  0  0  0  0  0  0  0  0999 V2000
   -4.6140   -3.9777    0.1359 C   0  0  0  0  0  0  0  0  0  0  0  0
   -3.7328   -4.2055    0.4388 C   0  0  0  0  0  0  0  0  0  0  0  0
   -2.7618   -3.0422    0.2710 C   0  0  0  0  0  0  0  0  0  0  0  0
   -3.5678   -1.7832   -0.7121 S   0  0  0  0  0  0  0  0  0  0  0  0
   -4.6007   -2.5216   -1.5502 O   0  0  0  0  0  0  0  0  0  0  0  0
   -2.6261   -1.2461   -1.7328 O   0  0  0  0  0  0  0  0  0  0  0  0
   -4.4884   -0.7118    0.1450 N   0  0  0  0  0  0  0  0  0  0  0  0
   -3.6051    0.3472    0.9212 C   0  0  1  0  0  0  0  0  0  0  0  0
   -2.8387    0.8874   -0.4045 C   0  0  0  0  0  0  0  0  0  0  0  0
   -3.2640    1.8284   -1.0429 O   0  0  0  0  0  0  0  0  0  0  0  0
   -1.4941    1.1402    0.0603 N   0  0  0  0  0  0  0  0  0  0  0  0
   -0.5203    1.6176   -1.1234 C   0  0  1  0  0  0  0  0  0  0  0  0
   -0.5878    3.2079   -0.6058 C   0  0  0  0  0  0  0  0  0  0  0  0
   -0.3426    3.1651    0.8694 C   0  0  0  0  0  0  0  0  0  0  0  0
    0.5109    4.7259    1.2796 S   0  0  0  0  0  0  0  0  0  0  0  0
    0.2057    5.9381   -0.0488 C   0  0  0  0  0  0  0  0  0  0  0  0
    0.8155    1.3077   -0.2115 C   0  0  0  0  0  0  0  0  0  0  0  0
    0.8699    0.0742    0.0821 O   0  0  0  0  0  0  0  0  0  0  0  0
    2.0138    1.7704   -0.8528 N   0  0  0  0  0  0  0  0  0  0  0  0
    3.1976    1.7158   -0.0393 C   0  0  0  0  0  0  0  0  0  0  0  0
    4.0899    0.5946   -0.3431 C   0  0  0  0  0  0  0  0  0  0  0  0
    3.7006   -0.4804   -1.1139 C   0  0  0  0  0  0  0  0  0  0  0  0
    4.3351   -1.6856   -0.8807 C   0  0  0  0  0  0  0  0  0  0  0  0
    5.6234   -1.7222   -0.3847 C   0  0  0  0  0  0  0  0  0  0  0  0
    6.1189   -2.9981    0.1304 C   0  0  0  0  0  0  0  0  0  0  0  0
    5.6124   -3.4340    1.2281 N   0  0  0  0  0  0  0  0  0  0  0  0
    6.6798   -3.9281   -0.7812 N   0  0  0  0  0  0  0  0  0  0  0  0
    6.1155   -0.5795    0.2019 C   0  0  0  0  0  0  0  0  0  0  0  0
    5.3450    0.5800    0.2212 C   0  0  0  0  0  0  0  0  0  0  0  0
   -4.8492    1.5979    0.8955 C   0  0  2  0  0  0  0  0  0  0  0  0
   -5.9505    0.6055    1.6514 C   0  0  0  0  0  0  0  0  0  0  0  0
   -5.3900    1.2123   -0.4834 O   0  0  0  0  0  0  0  0  0  0  0  0
  1  2  1  0
  2  3  1  0
  3  4  1  0
  4  5  2  0
  4  6  2  0
  4  7  1  0
  8  7  1  6
  8  9  1  0
  9 10  2  0
  9 11  1  0
 12 11  1  1
 12 13  1  0
 13 14  1  0
 14 15  1  0
 15 16  1  0
 12 17  1  0
 17 18  2  0
 17 19  1  0
 19 20  1  0
 20 21  1  0
 21 22  2  0
 22 23  1  0
 23 24  2  0
 24 25  1  0
 25 26  2  0
 25 27  1  0
 24 28  1  0
 28 29  2  0
  8 30  1  0
 30 31  1  1
 30 32  1  0
 29 21  1  0
M  END
>  <zinc_id>  (1) 
ZINC000012504502

>  <smiles>  (1) 
CCCS(=O)(=O)N[C@@H](C(=O)N[C@@H](CCSC)C(=O)NCc1ccc(C(=N)N)cc1)[C@H](C)O

$$$$
