
     RDKit          3D

 30 30  0  0  0  0  0  0  0  0999 V2000
   -5.1298    4.1295   -0.8338 C   0  0  0  0  0  0  0  0  0  0  0  0
   -4.3179    2.9225   -0.9813 C   0  0  0  0  0  0  0  0  0  0  0  0
   -3.3887    3.0064   -2.1726 C   0  0  0  0  0  0  0  0  0  0  0  0
   -2.7782    1.6715   -2.4944 C   0  0  0  0  0  0  0  0  0  0  0  0
   -1.6334    1.3004   -1.6030 C   0  0  0  0  0  0  0  0  0  0  0  0
   -1.8792    0.0349   -0.9618 N   0  0  0  0  0  0  0  0  0  0  0  0
   -2.8211   -0.8783   -1.5852 C   0  0  0  0  0  0  0  0  0  0  0  0
   -3.7708   -1.4793   -0.5552 C   0  0  0  0  0  0  0  0  0  0  0  0
   -3.7765   -2.9854   -0.6320 C   0  0  0  0  0  0  0  0  0  0  0  0
   -4.9271   -3.4523   -0.0063 O   0  0  0  0  0  0  0  0  0  0  0  0
   -5.3185   -4.5929   -0.7252 C   0  0  0  0  0  0  0  0  0  0  0  0
   -1.0836   -0.4468    0.1299 C   0  0  0  0  0  0  0  0  0  0  0  0
   -1.6369   -1.3413    0.8428 O   0  0  0  0  0  0  0  0  0  0  0  0
   -0.5634    0.8084    1.0477 C   0  0  1  0  0  0  0  0  0  0  0  0
    0.3280   -0.1953    2.0420 C   0  0  0  0  0  0  0  0  0  0  0  0
    1.0168    0.7463    3.0013 C   0  0  0  0  0  0  0  0  0  0  0  0
    0.4192    0.5232    4.3363 C   0  0  0  0  0  0  0  0  0  0  0  0
   -0.7533    0.8992    4.5967 O   0  0  0  0  0  0  0  0  0  0  0  0
    1.1286   -0.1323    5.3409 O   0  0  0  0  0  0  0  0  0  0  0  0
    0.6815    1.0993    0.0940 N   0  0  0  0  0  0  0  0  0  0  0  0
    1.4090    0.0130   -0.3718 C   0  0  0  0  0  0  0  0  0  0  0  0
    1.1440   -1.1397    0.0540 O   0  0  0  0  0  0  0  0  0  0  0  0
    2.7722    0.2155   -0.8811 C   0  0  0  0  0  0  0  0  0  0  0  0
    3.0788    0.3456   -2.2030 C   0  0  0  0  0  0  0  0  0  0  0  0
    4.4066    0.2050   -2.5726 C   0  0  0  0  0  0  0  0  0  0  0  0
    5.3623   -0.1188   -1.6171 C   0  0  0  0  0  0  0  0  0  0  0  0
    6.9089   -0.8321   -2.0558 Cl  0  0  0  0  0  0  0  0  0  0  0  0
    5.0894    0.0155   -0.2719 C   0  0  0  0  0  0  0  0  0  0  0  0
    6.2666   -0.4406    0.9554 Cl  0  0  0  0  0  0  0  0  0  0  0  0
    3.7663    0.0990    0.0832 C   0  0  0  0  0  0  0  0  0  0  0  0
  1  2  1  0
  2  3  1  0
  3  4  1  0
  4  5  1  0
  5  6  1  0
  6  7  1  0
  7  8  1  0
  8  9  1  0
  9 10  1  0
 10 11  1  0
  6 12  1  0
 12 13  2  0
 14 12  1  6
 14 15  1  0
 15 16  1  0
 16 17  1  0
 17 18  2  0
 17 19  1  0
 14 20  1  0
 20 21  1  0
 21 22  2  0
 21 23  1  0
 23 24  2  0
 24 25  1  0
 25 26  2  0
 26 27  1  0
 26 28  1  0
 28 29  1  0
 28 30  2  0
 30 23  1  0
M  END
>  <zinc_id>  (1) 
ZINC000003801027

>  <smiles>  (1) 
CCCCCN(CCCOC)C(=O)[C@@H](CCC(=O)O)NC(=O)c1ccc(Cl)c(Cl)c1

$$$$
