
     RDKit          3D

 43 45  0  0  0  0  0  0  0  0999 V2000
   -7.1033    2.7065   -2.0792 C   0  0  0  0  0  0  0  0  0  0  0  0
   -7.1254    2.7287   -0.7942 C   0  0  0  0  0  0  0  0  0  0  0  0
   -8.0844    3.4632   -0.1062 C   0  0  0  0  0  0  0  0  0  0  0  0
   -7.9337    3.7027    1.2526 C   0  0  0  0  0  0  0  0  0  0  0  0
   -6.8788    3.1746    1.9681 C   0  0  0  0  0  0  0  0  0  0  0  0
   -5.9345    2.4147    1.2997 C   0  0  0  0  0  0  0  0  0  0  0  0
   -6.0111    2.3049   -0.0800 C   0  0  0  0  0  0  0  0  0  0  0  0
   -5.3397    1.2184   -0.6520 O   0  0  0  0  0  0  0  0  0  0  0  0
   -6.1460    0.0492   -0.7938 C   0  0  0  0  0  0  0  0  0  0  0  0
   -5.1944   -1.0872   -0.6731 C   0  0  0  0  0  0  0  0  0  0  0  0
   -4.2878   -1.0828   -1.5639 O   0  0  0  0  0  0  0  0  0  0  0  0
   -4.6893   -1.3901    0.5804 N   0  0  0  0  0  0  0  0  0  0  0  0
   -3.8439   -2.7001    0.7845 C   0  0  1  0  0  0  0  0  0  0  0  0
   -3.3560   -2.8588   -0.7787 C   0  0  0  0  0  0  0  0  0  0  0  0
   -3.9339   -4.1181   -1.2991 C   0  0  0  0  0  0  0  0  0  0  0  0
   -5.3718   -4.3776   -1.0450 C   0  0  0  0  0  0  0  0  0  0  0  0
   -3.0874   -5.3354   -1.1899 C   0  0  0  0  0  0  0  0  0  0  0  0
   -2.5220   -1.8796    1.2084 C   0  0  0  0  0  0  0  0  0  0  0  0
   -1.8242   -2.4123    2.0900 O   0  0  0  0  0  0  0  0  0  0  0  0
   -2.1590   -0.7712    0.4701 N   0  0  0  0  0  0  0  0  0  0  0  0
   -0.7142   -0.2300    0.7737 C   0  0  1  0  0  0  0  0  0  0  0  0
   -0.0120   -1.6692    0.4018 C   0  0  0  0  0  0  0  0  0  0  0  0
    1.4119   -1.3792    0.1383 C   0  0  0  0  0  0  0  0  0  0  0  0
    1.7197   -1.3284   -1.2214 C   0  0  0  0  0  0  0  0  0  0  0  0
    3.0365   -1.1884   -1.5917 C   0  0  0  0  0  0  0  0  0  0  0  0
    4.0419   -1.6804   -0.7676 C   0  0  0  0  0  0  0  0  0  0  0  0
    5.2479   -0.9692   -0.7500 O   0  0  0  0  0  0  0  0  0  0  0  0
    5.4013    0.2364   -0.0570 C   0  0  0  0  0  0  0  0  0  0  0  0
    4.3465    0.9349    0.0439 O   0  0  0  0  0  0  0  0  0  0  0  0
    6.3170    0.3435    1.0454 N   0  0  0  0  0  0  0  0  0  0  0  0
    7.6077   -0.2994    0.8212 C   0  0  0  0  0  0  0  0  0  0  0  0
    8.3759    0.5511   -0.1141 C   0  0  0  0  0  0  0  0  0  0  0  0
    8.0761    1.9771   -0.1938 C   0  0  0  0  0  0  0  0  0  0  0  0
    9.2408    2.8789   -0.0264 C   0  0  0  0  0  0  0  0  0  0  0  0
   10.3284    2.4476    0.7953 N   0  0  0  0  0  0  0  0  0  0  0  0
    9.0242    4.1204   -0.1615 O   0  0  0  0  0  0  0  0  0  0  0  0
    6.9427    2.5315    0.5726 C   0  0  0  0  0  0  0  0  0  0  0  0
    6.4430    1.6472    1.6916 C   0  0  0  0  0  0  0  0  0  0  0  0
    3.5852   -2.4230    0.3168 C   0  0  0  0  0  0  0  0  0  0  0  0
    2.3241   -2.1585    0.8499 C   0  0  0  0  0  0  0  0  0  0  0  0
   -0.4924    0.3494   -0.7133 C   0  0  0  0  0  0  0  0  0  0  0  0
   -1.0450   -0.1842   -1.6667 O   0  0  0  0  0  0  0  0  0  0  0  0
   -0.3803    1.7423   -0.7717 O   0  0  0  0  0  0  0  0  0  0  0  0
  1  2  1  0
  2  3  2  0
  3  4  1  0
  4  5  2  0
  5  6  1  0
  6  7  2  0
  7  8  1  0
  8  9  1  0
  9 10  1  0
 10 11  2  0
 10 12  1  0
 13 12  1  6
 13 14  1  0
 14 15  1  0
 15 16  1  0
 15 17  1  0
 13 18  1  0
 18 19  2  0
 18 20  1  0
 21 20  1  6
 21 22  1  0
 22 23  1  0
 23 24  2  0
 24 25  1  0
 25 26  2  0
 26 27  1  0
 27 28  1  0
 28 29  2  0
 28 30  1  0
 30 31  1  0
 31 32  1  0
 32 33  1  0
 33 34  1  0
 34 35  1  0
 34 36  2  0
 33 37  1  0
 37 38  1  0
 26 39  1  0
 39 40  2  0
 21 41  1  0
 41 42  2  0
 41 43  1  0
  7  2  1  0
 40 23  1  0
 38 30  1  0
M  END
>  <zinc_id>  (1) 
ZINC000003976535

>  <smiles>  (1) 
Cc1ccccc1OCC(=O)N[C@@H](CC(C)C)C(=O)N[C@@H](Cc1ccc(OC(=O)N2CCC(C(N)=O)CC2)cc1)C(=O)O

$$$$
