46937062
  -OEChem-10051720583D

 57 57  0     1  0  0  0  0  0999 V2000
   -3.1151    2.4636    0.3415 O   0  0  0  0  0  0  0  0  0  0  0  0
   -0.7779    1.7916    1.8394 O   0  0  0  0  0  0  0  0  0  0  0  0
   -5.1454   -0.1849   -0.5199 O   0  0  0  0  0  0  0  0  0  0  0  0
    0.7436    0.4902   -1.1275 O   0  0  0  0  0  0  0  0  0  0  0  0
   -5.4525    1.9894   -1.2461 O   0  0  0  0  0  0  0  0  0  0  0  0
    4.6765   -1.9412   -0.2349 O   0  0  0  0  0  0  0  0  0  0  0  0
    5.6659   -0.7355   -1.8723 O   0  0  0  0  0  0  0  0  0  0  0  0
   -0.9589   -0.2751    0.7808 N   0  0  0  0  0  0  0  0  0  0  0  0
    2.5950   -0.3577   -0.0129 N   0  0  0  0  0  0  0  0  0  0  0  0
   -2.8720    1.1898    0.9525 C   0  0  1  0  0  0  0  0  0  0  0  0
    0.4032   -0.7129    0.9518 C   0  0  1  0  0  0  0  0  0  0  0  0
    0.5350   -2.2516    1.0556 C   0  0  2  0  0  0  0  0  0  0  0  0
   -3.3429    1.3031   -0.4684 C   0  0  1  0  0  0  0  0  0  0  0  0
   -1.4286    0.9424    1.2418 C   0  0  0  0  0  0  0  0  0  0  0  0
    0.1079   -2.9642   -0.2468 C   0  0  0  0  0  0  0  0  0  0  0  0
    4.1200    1.5343   -0.5767 C   0  0  2  0  0  0  0  0  0  0  0  0
    3.6039    0.1182   -0.9317 C   0  0  1  0  0  0  0  0  0  0  0  0
    1.2375   -0.1304   -0.1883 C   0  0  0  0  0  0  0  0  0  0  0  0
   -0.2514   -2.7687    2.2676 C   0  0  0  0  0  0  0  0  0  0  0  0
   -4.7582    1.0915   -0.7913 C   0  0  0  0  0  0  0  0  0  0  0  0
    4.5010    1.6007    0.9182 C   0  0  0  0  0  0  0  0  0  0  0  0
    3.1219    2.6362   -0.9587 C   0  0  0  0  0  0  0  0  0  0  0  0
    0.2573   -4.4790   -0.1870 C   0  0  0  0  0  0  0  0  0  0  0  0
    4.7505   -0.8757   -1.0684 C   0  0  0  0  0  0  0  0  0  0  0  0
    5.0867    2.9418    1.3393 C   0  0  0  0  0  0  0  0  0  0  0  0
   -6.5154   -0.4845   -0.8053 C   0  0  0  0  0  0  0  0  0  0  0  0
   -6.7877   -1.9312   -0.4523 C   0  0  0  0  0  0  0  0  0  0  0  0
   -3.5688    0.8729    1.7189 H   0  0  0  0  0  0  0  0  0  0  0  0
    0.7836   -0.2621    1.8787 H   0  0  0  0  0  0  0  0  0  0  0  0
    1.5889   -2.5007    1.2344 H   0  0  0  0  0  0  0  0  0  0  0  0
   -2.6389    1.1246   -1.2721 H   0  0  0  0  0  0  0  0  0  0  0  0
   -1.5967   -0.8659    0.2564 H   0  0  0  0  0  0  0  0  0  0  0  0
    0.7172   -2.5995   -1.0819 H   0  0  0  0  0  0  0  0  0  0  0  0
   -0.9349   -2.7352   -0.4926 H   0  0  0  0  0  0  0  0  0  0  0  0
    5.0289    1.7239   -1.1639 H   0  0  0  0  0  0  0  0  0  0  0  0
    3.1416    0.1456   -1.9275 H   0  0  0  0  0  0  0  0  0  0  0  0
   -1.3324   -2.7035    2.1055 H   0  0  0  0  0  0  0  0  0  0  0  0
   -0.0041   -3.8127    2.4841 H   0  0  0  0  0  0  0  0  0  0  0  0
   -0.0062   -2.1905    3.1652 H   0  0  0  0  0  0  0  0  0  0  0  0
    2.9125   -0.8444    0.8200 H   0  0  0  0  0  0  0  0  0  0  0  0
    3.6273    1.4062    1.5514 H   0  0  0  0  0  0  0  0  0  0  0  0
    5.2378    0.8198    1.1420 H   0  0  0  0  0  0  0  0  0  0  0  0
    2.2527    2.6405   -0.2937 H   0  0  0  0  0  0  0  0  0  0  0  0
    3.5891    3.6248   -0.9066 H   0  0  0  0  0  0  0  0  0  0  0  0
    2.7693    2.5026   -1.9868 H   0  0  0  0  0  0  0  0  0  0  0  0
   -0.4528   -4.9273    0.5140 H   0  0  0  0  0  0  0  0  0  0  0  0
    0.0610   -4.9127   -1.1731 H   0  0  0  0  0  0  0  0  0  0  0  0
    1.2713   -4.7632    0.1110 H   0  0  0  0  0  0  0  0  0  0  0  0
    4.3406    3.7404    1.2927 H   0  0  0  0  0  0  0  0  0  0  0  0
    5.4427    2.8861    2.3733 H   0  0  0  0  0  0  0  0  0  0  0  0
    5.9346    3.2175    0.7045 H   0  0  0  0  0  0  0  0  0  0  0  0
   -6.7108   -0.3202   -1.8709 H   0  0  0  0  0  0  0  0  0  0  0  0
   -7.1635    0.1698   -0.2116 H   0  0  0  0  0  0  0  0  0  0  0  0
    5.4301   -2.5568   -0.3588 H   0  0  0  0  0  0  0  0  0  0  0  0
   -7.8288   -2.1949   -0.6583 H   0  0  0  0  0  0  0  0  0  0  0  0
   -6.5792   -2.1151    0.6069 H   0  0  0  0  0  0  0  0  0  0  0  0
   -6.1340   -2.5972   -1.0251 H   0  0  0  0  0  0  0  0  0  0  0  0
  1 10  1  0  0  0  0
  1 13  1  0  0  0  0
  2 14  2  0  0  0  0
  3 20  1  0  0  0  0
  3 26  1  0  0  0  0
  4 18  2  0  0  0  0
  5 20  2  0  0  0  0
  6 24  1  0  0  0  0
  6 54  1  0  0  0  0
  7 24  2  0  0  0  0
  8 11  1  0  0  0  0
  8 14  1  0  0  0  0
  8 32  1  0  0  0  0
  9 17  1  0  0  0  0
  9 18  1  0  0  0  0
  9 40  1  0  0  0  0
 10 13  1  0  0  0  0
 10 14  1  0  0  0  0
 10 28  1  0  0  0  0
 11 12  1  0  0  0  0
 11 18  1  0  0  0  0
 11 29  1  0  0  0  0
 12 15  1  0  0  0  0
 12 19  1  0  0  0  0
 12 30  1  0  0  0  0
 13 20  1  0  0  0  0
 13 31  1  0  0  0  0
 15 23  1  0  0  0  0
 15 33  1  0  0  0  0
 15 34  1  0  0  0  0
 16 17  1  0  0  0  0
 16 21  1  0  0  0  0
 16 22  1  0  0  0  0
 16 35  1  0  0  0  0
 17 24  1  0  0  0  0
 17 36  1  0  0  0  0
 19 37  1  0  0  0  0
 19 38  1  0  0  0  0
 19 39  1  0  0  0  0
 21 25  1  0  0  0  0
 21 41  1  0  0  0  0
 21 42  1  0  0  0  0
 22 43  1  0  0  0  0
 22 44  1  0  0  0  0
 22 45  1  0  0  0  0
 23 46  1  0  0  0  0
 23 47  1  0  0  0  0
 23 48  1  0  0  0  0
 25 49  1  0  0  0  0
 25 50  1  0  0  0  0
 25 51  1  0  0  0  0
 26 27  1  0  0  0  0
 26 52  1  0  0  0  0
 26 53  1  0  0  0  0
 27 55  1  0  0  0  0
 27 56  1  0  0  0  0
 27 57  1  0  0  0  0
M  END
> <DATABASE_ID>
DB07225

> <DATABASE_NAME>
drugbank

> <ORIGINAL_SOURCE>
PUBCHEM

> <ORIGINAL_SOURCE_URL>
https://pubchem.ncbi.nlm.nih.gov/rest/pug/compound/inchikey/CFABOFMUPCWOPC-LHEWDLALSA-N/SDF?record_type=3d

> <SMILES>
[H][C@](C)(CC)[C@]([H])(NC(=O)[C@@]([H])(NC(=O)[C@@]1([H])O[C@]1([H])C(=O)OCC)[C@@]([H])(C)CC)C(O)=O

> <INCHI_IDENTIFIER>
InChI=1S/C18H30N2O7/c1-6-9(4)11(15(21)20-12(17(23)24)10(5)7-2)19-16(22)13-14(27-13)18(25)26-8-3/h9-14H,6-8H2,1-5H3,(H,19,22)(H,20,21)(H,23,24)/t9-,10-,11-,12-,13-,14-/m0/s1

> <INCHI_KEY>
CFABOFMUPCWOPC-LHEWDLALSA-N

> <FORMULA>
C18H30N2O7

> <MOLECULAR_WEIGHT>
386.44

> <EXACT_MASS>
386.205301324

> <JCHEM_ACCEPTOR_COUNT>
6

> <JCHEM_ATOM_COUNT>
57

> <JCHEM_AVERAGE_NEUTRAL_MICROSPECIES_CHARGE>
-0.9990843517008573

> <JCHEM_AVERAGE_POLARIZABILITY>
40.17422108563666

> <JCHEM_BIOAVAILABILITY>
1

> <JCHEM_DONOR_COUNT>
3

> <JCHEM_FORMAL_CHARGE>
0

> <JCHEM_GHOSE_FILTER>
1

> <JCHEM_IUPAC>
(2S,3S)-2-[(2S,3S)-2-{[(2S,3S)-3-(ethoxycarbonyl)oxiran-2-yl]formamido}-3-methylpentanamido]-3-methylpentanoic acid

> <ALOGPS_LOGP>
1.65

> <JCHEM_LOGP>
1.4266954723333325

> <ALOGPS_LOGS>
-2.33

> <JCHEM_MDDR_LIKE_RULE>
0

> <JCHEM_NEUTRAL_CHARGE>
-1

> <JCHEM_NUMBER_OF_RINGS>
1

> <JCHEM_PHYSIOLOGICAL_CHARGE>
-1

> <JCHEM_PKA>
12.16860945002478

> <JCHEM_PKA_STRONGEST_ACIDIC>
3.9655568309740556

> <JCHEM_PKA_STRONGEST_BASIC>
-3.1055950675031876

> <JCHEM_POLAR_SURFACE_AREA>
134.33

> <JCHEM_REFRACTIVITY>
94.009

> <JCHEM_ROTATABLE_BOND_COUNT>
12

> <JCHEM_RULE_OF_FIVE>
1

> <ALOGPS_SOLUBILITY>
1.83e+00 g/l

> <JCHEM_TRADITIONAL_IUPAC>
biotin

> <JCHEM_VEBER_RULE>
0

$$$$
