
     RDKit          3D

 51 56  0  0  0  0  0  0  0  0999 V2000
   -4.9651    5.2668   -0.3252 C   0  0  0  0  0  0  0  0  0  0  0  0
   -4.9089    3.7761   -0.3900 C   0  0  0  0  0  0  0  0  0  0  0  0
   -5.5460    3.1222    0.7521 N   0  0  0  0  0  0  0  0  0  0  0  0
   -6.2055    4.2215    1.4556 C   0  0  0  0  0  0  0  0  0  0  0  0
   -7.5383    4.5596    0.8738 C   0  0  0  0  0  0  0  0  0  0  0  0
   -4.5677    2.5257    1.6121 C   0  0  0  0  0  0  0  0  0  0  0  0
   -4.5752    1.0442    1.7593 C   0  0  0  0  0  0  0  0  0  0  0  0
   -4.5952    0.3018    0.5218 N   0  0  0  0  0  0  0  0  0  0  0  0
   -5.6783   -0.3063   -0.0554 C   0  0  0  0  0  0  0  0  0  0  0  0
   -6.4391   -1.2733    0.5949 C   0  0  0  0  0  0  0  0  0  0  0  0
   -6.7673   -2.4767   -0.0048 C   0  0  0  0  0  0  0  0  0  0  0  0
   -7.4676   -3.4874    0.6624 O   0  0  0  0  0  0  0  0  0  0  0  0
   -7.8939   -4.6516   -0.0131 C   0  0  0  0  0  0  0  0  0  0  0  0
   -6.0662   -2.9246   -1.1058 C   0  0  0  0  0  0  0  0  0  0  0  0
   -5.4615   -1.9581   -1.8436 C   0  0  0  0  0  0  0  0  0  0  0  0
   -5.1455   -0.7216   -1.2772 C   0  0  0  0  0  0  0  0  0  0  0  0
   -4.1257    0.1764   -1.5861 C   0  0  0  0  0  0  0  0  0  0  0  0
   -3.6677    0.6255   -0.3477 C   0  0  0  0  0  0  0  0  0  0  0  0
   -2.0625    0.5029   -0.3774 C   0  0  1  0  0  0  0  0  0  0  0  0
   -1.8330    0.4888    1.2350 C   0  0  0  0  0  0  0  0  0  0  0  0
   -0.2204    0.2985    1.3323 C   0  0  1  0  0  0  0  0  0  0  0  0
   -0.1470   -1.3736    1.1673 C   0  0  2  0  0  0  0  0  0  0  0  0
    1.4410   -1.2238    0.8408 C   0  0  0  0  0  0  0  0  0  0  0  0
    1.8937    0.0637    1.7533 C   0  0  1  0  0  0  0  0  0  0  0  0
    3.3584   -0.0452    1.3118 O   0  0  0  0  0  0  0  0  0  0  0  0
    3.9295   -1.2814    1.1636 C   0  0  0  0  0  0  0  0  0  0  0  0
    3.4081   -2.2618    1.7571 O   0  0  0  0  0  0  0  0  0  0  0  0
    5.2590   -1.3372    0.5379 C   0  0  0  0  0  0  0  0  0  0  0  0
    6.3101   -1.2458    1.4522 C   0  0  0  0  0  0  0  0  0  0  0  0
    7.4170   -0.4498    1.1519 C   0  0  0  0  0  0  0  0  0  0  0  0
    8.5811   -0.4763    1.9328 O   0  0  0  0  0  0  0  0  0  0  0  0
    9.0244   -1.7372    2.3548 C   0  0  0  0  0  0  0  0  0  0  0  0
    7.6577   -0.0347   -0.1567 C   0  0  0  0  0  0  0  0  0  0  0  0
    8.5831    0.9495   -0.4716 O   0  0  0  0  0  0  0  0  0  0  0  0
    8.2069    2.3003   -0.2765 C   0  0  0  0  0  0  0  0  0  0  0  0
    6.7273   -0.3760   -1.1284 C   0  0  0  0  0  0  0  0  0  0  0  0
    7.1515   -0.4768   -2.4572 O   0  0  0  0  0  0  0  0  0  0  0  0
    8.4644   -0.9656   -2.7126 C   0  0  0  0  0  0  0  0  0  0  0  0
    5.4777   -0.8384   -0.7379 C   0  0  0  0  0  0  0  0  0  0  0  0
    1.7219    1.3757    0.6559 C   0  0  2  0  0  0  0  0  0  0  0  0
    1.0578    2.2165    1.7013 O   0  0  0  0  0  0  0  0  0  0  0  0
    2.2294    2.6977    2.3087 C   0  0  0  0  0  0  0  0  0  0  0  0
    0.2786    0.9088   -0.1504 C   0  0  1  0  0  0  0  0  0  0  0  0
    1.1593   -0.1226   -0.9607 C   0  0  0  0  0  0  0  0  0  0  0  0
    2.2057    0.5322   -1.3911 O   0  0  0  0  0  0  0  0  0  0  0  0
    0.7795   -0.5509   -2.2577 O   0  0  0  0  0  0  0  0  0  0  0  0
    1.7363   -1.4120   -2.9057 C   0  0  0  0  0  0  0  0  0  0  0  0
   -0.8040   -1.5533   -0.2860 C   0  0  0  0  0  0  0  0  0  0  0  0
   -2.0882   -1.0856   -0.4157 N   0  0  0  0  0  0  0  0  0  0  0  0
   -2.3263   -1.2622   -1.8510 C   0  0  0  0  0  0  0  0  0  0  0  0
   -2.9631   -0.0444   -2.5121 C   0  0  0  0  0  0  0  0  0  0  0  0
  1  2  1  0
  2  3  1  0
  3  4  1  0
  4  5  1  0
  3  6  1  0
  6  7  1  0
  7  8  1  0
  8  9  1  0
  9 10  2  0
 10 11  1  0
 11 12  1  0
 12 13  1  0
 11 14  2  0
 14 15  1  0
 15 16  2  0
 16 17  1  0
 17 18  2  0
 19 18  1  1
 19 20  1  0
 21 20  1  6
 21 22  1  0
 22 23  1  6
 23 24  1  0
 24 25  1  6
 25 26  1  0
 26 27  2  0
 26 28  1  0
 28 29  2  0
 29 30  1  0
 30 31  1  0
 31 32  1  0
 30 33  2  0
 33 34  1  0
 34 35  1  0
 33 36  1  0
 36 37  1  0
 37 38  1  0
 36 39  2  0
 24 40  1  0
 40 41  1  1
 41 42  1  0
 40 43  1  0
 43 44  1  6
 44 45  2  0
 44 46  1  0
 46 47  1  0
 22 48  1  0
 48 49  1  0
 49 50  1  0
 50 51  1  0
 18  8  1  0
 49 19  1  0
 16  9  1  0
 51 17  1  0
 43 21  1  0
 39 28  1  0
M  END
>  <zinc_id>  (1) 
ZINC000095628218

>  <smiles>  (1) 
CCN(CC)CCn1c2c(c3ccc(OC)cc31)CCN1C[C@H]3C[C@@H](OC(=O)c4cc(OC)c(OC)c(OC)c4)[C@H](OC)[C@@H](C(=O)OC)[C@H]3C[C@H]21

$$$$
