
     RDKit          3D

 27 27  0  0  0  0  0  0  0  0999 V2000
   -6.8084   -2.4673   -2.0423 C   0  0  0  0  0  0  0  0  0  0  0  0
   -6.0196   -1.8656   -1.0163 C   0  0  0  0  0  0  0  0  0  0  0  0
   -5.3994   -2.8536   -0.0660 C   0  0  0  0  0  0  0  0  0  0  0  0
   -6.7232   -0.7644   -0.2628 C   0  0  0  0  0  0  0  0  0  0  0  0
   -5.6952    0.5081   -0.4158 C   0  0  2  0  0  0  0  0  0  0  0  0
   -4.6622   -0.1333    0.5832 N   0  0  0  0  0  0  0  0  0  0  0  0
   -3.3186    0.1964    0.3043 C   0  0  0  0  0  0  0  0  0  0  0  0
   -3.0830    1.3491   -0.1419 O   0  0  0  0  0  0  0  0  0  0  0  0
   -2.1786   -0.7315    0.4325 C   0  0  0  0  0  0  0  0  0  0  0  0
   -1.0814   -0.1949    1.3095 C   0  0  0  0  0  0  0  0  0  0  0  0
   -0.5700    1.1482    0.8640 C   0  0  0  0  0  0  0  0  0  0  0  0
    0.1099    1.1012   -0.4802 C   0  0  0  0  0  0  0  0  0  0  0  0
    1.3976    0.3306   -0.3120 C   0  0  0  0  0  0  0  0  0  0  0  0
    2.1032    0.3422   -1.6583 C   0  0  0  0  0  0  0  0  0  0  0  0
    3.5766    0.6087   -1.4683 C   0  0  0  0  0  0  0  0  0  0  0  0
    3.8240    1.9072   -0.7204 C   0  0  0  0  0  0  0  0  0  0  0  0
    4.1390    1.5810    0.7332 C   0  0  0  0  0  0  0  0  0  0  0  0
    5.6316    1.2871    0.7896 C   0  0  0  0  0  0  0  0  0  0  0  0
    5.9053   -0.1467    1.1543 C   0  0  0  0  0  0  0  0  0  0  0  0
    6.9213   -0.6874    0.2885 N   0  0  0  0  0  0  0  0  0  0  0  0
    8.2554   -0.6173    0.5158 C   0  0  0  0  0  0  0  0  0  0  0  0
    8.8767   -1.4909   -0.3681 C   0  0  0  0  0  0  0  0  0  0  0  0
    7.8842   -1.8595   -1.2143 N   0  0  0  0  0  0  0  0  0  0  0  0
    6.7698   -1.8173   -0.4442 C   0  0  0  0  0  0  0  0  0  0  0  0
   -6.4278    1.3184    0.7705 C   0  0  0  0  0  0  0  0  0  0  0  0
   -5.7032    2.2836    1.1591 O   0  0  0  0  0  0  0  0  0  0  0  0
   -7.7241    1.6677    0.3803 O   0  0  0  0  0  0  0  0  0  0  0  0
  1  2  1  0
  2  3  1  0
  2  4  1  0
  5  4  1  1
  5  6  1  0
  6  7  1  0
  7  8  2  0
  7  9  1  0
  9 10  1  0
 10 11  1  0
 11 12  1  0
 12 13  1  0
 13 14  1  0
 14 15  1  0
 15 16  1  0
 16 17  1  0
 17 18  1  0
 18 19  1  0
 19 20  1  0
 20 21  1  0
 21 22  2  0
 22 23  1  0
 23 24  2  0
  5 25  1  0
 25 26  2  0
 25 27  1  0
 24 20  1  0
M  END
>  <zinc_id>  (1) 
ZINC000053683360

>  <smiles>  (1) 
CC(C)C[C@H](NC(=O)CCCCCCCCCCCn1ccnc1)C(=O)O

$$$$
