
     RDKit          3D

 28 27  0  0  0  0  0  0  0  0999 V2000
    7.2288   -1.7670    0.7631 C   0  0  0  0  0  0  0  0  0  0  0  0
    7.2227   -0.9813   -0.5017 C   0  0  0  0  0  0  0  0  0  0  0  0
    6.0281   -0.9604   -1.2089 O   0  0  0  0  0  0  0  0  0  0  0  0
    4.8194   -1.5945   -0.8805 C   0  0  0  0  0  0  0  0  0  0  0  0
    4.9905   -2.5951   -0.1528 O   0  0  0  0  0  0  0  0  0  0  0  0
    3.7090   -0.4915   -0.4794 C   0  0  2  0  0  0  0  0  0  0  0  0
    3.3611   -1.1667    0.9837 C   0  0  0  0  0  0  0  0  0  0  0  0
    2.5086   -1.1218   -1.2954 N   0  0  0  0  0  0  0  0  0  0  0  0
    1.1818   -1.0686   -0.7273 C   0  0  0  0  0  0  0  0  0  0  0  0
    1.3701   -1.6375    0.3435 O   0  0  0  0  0  0  0  0  0  0  0  0
    0.3656    0.3145   -0.8456 C   0  0  2  0  0  0  0  0  0  0  0  0
    0.0232    0.5268    0.7327 C   0  0  0  0  0  0  0  0  0  0  0  0
   -0.3931   -0.6010    1.4964 C   0  0  0  0  0  0  0  0  0  0  0  0
   -1.3937   -1.5739    1.1860 C   0  0  0  0  0  0  0  0  0  0  0  0
   -0.1746   -0.1506    2.9266 C   0  0  0  0  0  0  0  0  0  0  0  0
   -1.0931   -0.2615   -1.1036 N   0  0  0  0  0  0  0  0  0  0  0  0
   -1.7473    1.0120   -1.3088 C   0  0  0  0  0  0  0  0  0  0  0  0
   -1.4059    1.3877   -2.4860 O   0  0  0  0  0  0  0  0  0  0  0  0
   -3.3376    1.1326   -1.3161 C   0  0  1  0  0  0  0  0  0  0  0  0
   -3.5267    1.1354    0.3005 C   0  0  0  0  0  0  0  0  0  0  0  0
   -4.0962   -0.1335    0.7227 C   0  0  0  0  0  0  0  0  0  0  0  0
   -3.6428   -0.5769    1.8239 O   0  0  0  0  0  0  0  0  0  0  0  0
   -5.0177   -0.8879   -0.0326 N   0  0  0  0  0  0  0  0  0  0  0  0
   -5.3657   -2.0950    0.4365 O   0  0  0  0  0  0  0  0  0  0  0  0
   -3.3105    2.7714   -1.3686 C   0  0  0  0  0  0  0  0  0  0  0  0
   -2.7936    3.3316   -0.1176 C   0  0  0  0  0  0  0  0  0  0  0  0
   -1.6889    4.2846   -0.1744 C   0  0  0  0  0  0  0  0  0  0  0  0
   -3.8216    3.7680    0.8943 C   0  0  0  0  0  0  0  0  0  0  0  0
  1  2  1  0
  2  3  1  0
  3  4  1  0
  4  5  2  0
  6  4  1  6
  6  7  1  0
  6  8  1  0
  8  9  1  0
  9 10  2  0
 11  9  1  1
 11 12  1  0
 12 13  1  0
 13 14  1  0
 13 15  1  0
 11 16  1  0
 16 17  1  0
 17 18  2  0
 19 17  1  1
 19 20  1  0
 20 21  1  0
 21 22  2  0
 21 23  1  0
 23 24  1  0
 19 25  1  0
 25 26  1  0
 26 27  1  0
 26 28  1  0
M  END
>  <zinc_id>  (1) 
ZINC000003801503

>  <smiles>  (1) 
CCOC(=O)[C@H](C)NC(=O)[C@H](CC(C)C)NC(=O)[C@@H](CC(=O)NO)CC(C)C

$$$$
