443380
  -OEChem-06112215553D

 61 62  0     1  0  0  0  0  0999 V2000
    2.5087    0.5234    1.8478 O   0  0  0  0  0  0  0  0  0  0  0  0
   -1.2576   -2.5346   -0.3722 O   0  0  0  0  0  0  0  0  0  0  0  0
    1.5898   -2.2036    1.8052 O   0  0  0  0  0  0  0  0  0  0  0  0
    2.4640   -3.3457    0.0517 O   0  0  0  0  0  0  0  0  0  0  0  0
   -4.4845    3.1686   -0.8828 O   0  0  0  0  0  0  0  0  0  0  0  0
   -3.4619    1.3117   -1.7207 O   0  0  0  0  0  0  0  0  0  0  0  0
   -3.9253   -2.2357    0.3522 O   0  0  0  0  0  0  0  0  0  0  0  0
    1.0438    1.5666    0.3697 N   0  0  0  0  0  0  0  0  0  0  0  0
    2.8415    0.2362   -0.5067 C   0  0  0  0  0  0  0  0  0  0  0  0
    4.0939   -0.5419   -0.0715 C   0  0  0  0  0  0  0  0  0  0  0  0
    3.3600    1.4106   -1.3603 C   0  0  0  0  0  0  0  0  0  0  0  0
    1.8630   -0.6520   -1.2720 C   0  0  0  0  0  0  0  0  0  0  0  0
    5.2147    0.4867   -0.1281 C   0  0  0  0  0  0  0  0  0  0  0  0
    4.8822    1.2817   -1.3775 C   0  0  0  0  0  0  0  0  0  0  0  0
    2.1347    0.7845    0.7073 C   0  0  0  0  0  0  0  0  0  0  0  0
    0.1848    2.1908    1.3502 C   0  0  0  0  0  0  0  0  0  0  0  0
    0.9345   -1.4932   -0.3851 C   0  0  1  0  0  0  0  0  0  0  0  0
   -0.9404    1.2427    1.7744 C   0  0  0  0  0  0  0  0  0  0  0  0
   -0.3640    3.5266    0.8387 C   0  0  0  0  0  0  0  0  0  0  0  0
   -2.5550    2.4189    0.2265 C   0  0  0  0  0  0  0  0  0  0  0  0
   -2.0031    1.0708    0.6893 C   0  0  0  0  0  0  0  0  0  0  0  0
   -1.4387    3.3556   -0.2354 C   0  0  0  0  0  0  0  0  0  0  0  0
   -0.1297   -2.2454   -1.1924 C   0  0  0  0  0  0  0  0  0  0  0  0
    1.7452   -2.4515    0.4783 C   0  0  0  0  0  0  0  0  0  0  0  0
   -3.5235    2.2129   -0.8976 C   0  0  0  0  0  0  0  0  0  0  0  0
   -2.2833   -3.1824   -1.1103 C   0  0  0  0  0  0  0  0  0  0  0  0
   -3.4540   -3.4642   -0.1882 C   0  0  0  0  0  0  0  0  0  0  0  0
   -5.0399   -2.4379    1.2097 C   0  0  0  0  0  0  0  0  0  0  0  0
    4.0483   -1.0048    0.9183 H   0  0  0  0  0  0  0  0  0  0  0  0
    4.3268   -1.3401   -0.7882 H   0  0  0  0  0  0  0  0  0  0  0  0
    2.9760    1.3966   -2.3865 H   0  0  0  0  0  0  0  0  0  0  0  0
    3.1014    2.3888   -0.9372 H   0  0  0  0  0  0  0  0  0  0  0  0
    2.4077   -1.3054   -1.9666 H   0  0  0  0  0  0  0  0  0  0  0  0
    1.2269   -0.0255   -1.9127 H   0  0  0  0  0  0  0  0  0  0  0  0
    5.1884    1.1343    0.7560 H   0  0  0  0  0  0  0  0  0  0  0  0
    6.2029    0.0213   -0.1839 H   0  0  0  0  0  0  0  0  0  0  0  0
    5.1962    0.7256   -2.2691 H   0  0  0  0  0  0  0  0  0  0  0  0
    5.3808    2.2553   -1.3965 H   0  0  0  0  0  0  0  0  0  0  0  0
    0.8038    2.3955    2.2329 H   0  0  0  0  0  0  0  0  0  0  0  0
    0.3706   -0.8563    0.2971 H   0  0  0  0  0  0  0  0  0  0  0  0
    0.7969    1.6809   -0.6081 H   0  0  0  0  0  0  0  0  0  0  0  0
   -0.5420    0.2634    2.0621 H   0  0  0  0  0  0  0  0  0  0  0  0
   -1.4247    1.6527    2.6704 H   0  0  0  0  0  0  0  0  0  0  0  0
   -0.7999    4.0761    1.6830 H   0  0  0  0  0  0  0  0  0  0  0  0
    0.4497    4.1467    0.4435 H   0  0  0  0  0  0  0  0  0  0  0  0
   -3.0929    2.8707    1.0707 H   0  0  0  0  0  0  0  0  0  0  0  0
   -2.8179    0.4455    1.0744 H   0  0  0  0  0  0  0  0  0  0  0  0
   -1.5714    0.5236   -0.1578 H   0  0  0  0  0  0  0  0  0  0  0  0
   -0.9836    2.9748   -1.1588 H   0  0  0  0  0  0  0  0  0  0  0  0
   -1.8552    4.3387   -0.4880 H   0  0  0  0  0  0  0  0  0  0  0  0
    0.2766   -3.1798   -1.5977 H   0  0  0  0  0  0  0  0  0  0  0  0
   -0.4664   -1.6222   -2.0296 H   0  0  0  0  0  0  0  0  0  0  0  0
    2.1181   -2.8197    2.3561 H   0  0  0  0  0  0  0  0  0  0  0  0
   -1.9070   -4.1202   -1.5334 H   0  0  0  0  0  0  0  0  0  0  0  0
   -2.6076   -2.5218   -1.9229 H   0  0  0  0  0  0  0  0  0  0  0  0
   -5.1287    3.0517   -1.6134 H   0  0  0  0  0  0  0  0  0  0  0  0
   -3.1288   -4.1097    0.6359 H   0  0  0  0  0  0  0  0  0  0  0  0
   -4.2563   -3.9618   -0.7442 H   0  0  0  0  0  0  0  0  0  0  0  0
   -5.3568   -1.4655    1.5961 H   0  0  0  0  0  0  0  0  0  0  0  0
   -4.7635   -3.0759    2.0547 H   0  0  0  0  0  0  0  0  0  0  0  0
   -5.8734   -2.8825    0.6575 H   0  0  0  0  0  0  0  0  0  0  0  0
  1 15  2  0  0  0  0
  2 23  1  0  0  0  0
  2 26  1  0  0  0  0
  3 24  1  0  0  0  0
  3 53  1  0  0  0  0
  4 24  2  0  0  0  0
  5 25  1  0  0  0  0
  5 56  1  0  0  0  0
  6 25  2  0  0  0  0
  7 27  1  0  0  0  0
  7 28  1  0  0  0  0
  8 15  1  0  0  0  0
  8 16  1  0  0  0  0
  8 41  1  0  0  0  0
  9 10  1  0  0  0  0
  9 11  1  0  0  0  0
  9 12  1  0  0  0  0
  9 15  1  0  0  0  0
 10 13  1  0  0  0  0
 10 29  1  0  0  0  0
 10 30  1  0  0  0  0
 11 14  1  0  0  0  0
 11 31  1  0  0  0  0
 11 32  1  0  0  0  0
 12 17  1  0  0  0  0
 12 33  1  0  0  0  0
 12 34  1  0  0  0  0
 13 14  1  0  0  0  0
 13 35  1  0  0  0  0
 13 36  1  0  0  0  0
 14 37  1  0  0  0  0
 14 38  1  0  0  0  0
 16 18  1  0  0  0  0
 16 19  1  0  0  0  0
 16 39  1  0  0  0  0
 17 23  1  0  0  0  0
 17 24  1  0  0  0  0
 17 40  1  0  0  0  0
 18 21  1  0  0  0  0
 18 42  1  0  0  0  0
 18 43  1  0  0  0  0
 19 22  1  0  0  0  0
 19 44  1  0  0  0  0
 19 45  1  0  0  0  0
 20 21  1  0  0  0  0
 20 22  1  0  0  0  0
 20 25  1  0  0  0  0
 20 46  1  0  0  0  0
 21 47  1  0  0  0  0
 21 48  1  0  0  0  0
 22 49  1  0  0  0  0
 22 50  1  0  0  0  0
 23 51  1  0  0  0  0
 23 52  1  0  0  0  0
 26 27  1  0  0  0  0
 26 54  1  0  0  0  0
 26 55  1  0  0  0  0
 27 57  1  0  0  0  0
 27 58  1  0  0  0  0
 28 59  1  0  0  0  0
 28 60  1  0  0  0  0
 28 61  1  0  0  0  0
M  END
> <PUBCHEM_COMPOUND_CID>
443380

> <PUBCHEM_CONFORMER_RMSD>
1.2

> <PUBCHEM_CONFORMER_DIVERSEORDER>
1
54
26
67
49
30
25
60
53
9
63
12
55
66
38
14
22
24
56
19
32
31
11
13
18
15
52
51
57
65
8
47
4
37
64
58
61
20
43
16
36
23
62
27
21
41
46
10
44
34
48
42
6
59
17
5
40
50
39
2
45
35
33
29
28
3
7

> <PUBCHEM_MMFF94_PARTIAL_CHARGES>
22
1 -0.57
15 0.57
16 0.3
17 0.06
2 -0.56
20 0.06
23 0.28
24 0.66
25 0.66
26 0.28
27 0.28
28 0.28
3 -0.65
4 -0.57
41 0.37
5 -0.65
53 0.5
56 0.5
6 -0.57
7 -0.56
8 -0.73
9 0.06

> <PUBCHEM_EFFECTIVE_ROTOR_COUNT>
14.2

> <PUBCHEM_PHARMACOPHORE_FEATURES>
12
1 1 acceptor
1 2 acceptor
1 3 acceptor
1 4 acceptor
1 5 acceptor
1 6 acceptor
1 7 acceptor
1 8 donor
3 3 4 24 anion
3 5 6 25 anion
5 9 10 11 13 14 rings
6 16 18 19 20 21 22 rings

> <PUBCHEM_HEAVY_ATOM_COUNT>
28

> <PUBCHEM_ATOM_DEF_STEREO_COUNT>
1

> <PUBCHEM_ATOM_UDEF_STEREO_COUNT>
0

> <PUBCHEM_BOND_DEF_STEREO_COUNT>
0

> <PUBCHEM_BOND_UDEF_STEREO_COUNT>
0

> <PUBCHEM_ISOTOPIC_ATOM_COUNT>
0

> <PUBCHEM_COMPONENT_COUNT>
1

> <PUBCHEM_CACTVS_TAUTO_COUNT>
2

> <PUBCHEM_CONFORMER_ID>
0006C3F400000001

> <PUBCHEM_MMFF94_ENERGY>
58.603

> <PUBCHEM_FEATURE_SELFOVERLAP>
61.022

> <PUBCHEM_SHAPE_FINGERPRINT>
10032420 55 18188204424460544833
10688039 33 18191590959097741639
10759866 29 18334012765895963398
11421498 54 18115025336952298923
12156800 1 18195496351263540600
12293681 25 17345774992464629038
12422481 6 17553743454544974488
12553582 1 18267296719889874227
12788726 201 18189333635681807346
13402501 40 18341894121764076559
14251751 93 18335708264560514054
14363568 33 17760942035985657793
15210252 30 17902517317541017028
17138139 8 17914865739517303533
17357779 13 17916583296495588902
20691752 17 17907008835288331059
20764821 26 17907270485233736319
21285901 2 17700441288402938142
22182313 1 17915730075889549424
23419403 2 17059485395938013096
238 59 17977114465363575033
3052486 1 18338505435195406760
463206 1 18268986484161492705
469060 322 18116168816512997099
7164475 11 18340774823132511702

> <PUBCHEM_SHAPE_MULTIPOLES>
530.16
8.92
5.19
1.57
0.21
0.49
-0.19
1.15
1.81
-5.96
0.17
-0.03
-0.24
0.43

> <PUBCHEM_SHAPE_SELFOVERLAP>
1077.251

> <PUBCHEM_SHAPE_VOLUME>
306.9

> <PUBCHEM_COORDINATE_TYPE>
2
5
10

$$$$
