
     RDKit          3D

 27 26  0  0  0  0  0  0  0  0999 V2000
   -6.4358    1.9923    0.3623 N   0  0  0  0  0  0  0  0  0  0  0  0
   -7.5933    1.7644    0.4560 C   0  0  0  0  0  0  0  0  0  0  0  0
   -8.5687    2.6154   -0.1421 N   0  0  0  0  0  0  0  0  0  0  0  0
   -8.0041    0.4447    0.8273 N   0  0  0  0  0  0  0  0  0  0  0  0
   -7.0110   -0.5627    1.1710 C   0  0  0  0  0  0  0  0  0  0  0  0
   -5.8359   -0.3880    0.2226 C   0  0  0  0  0  0  0  0  0  0  0  0
   -5.2803   -1.7532   -0.1648 C   0  0  0  0  0  0  0  0  0  0  0  0
   -3.7819   -1.5930   -0.3108 C   0  0  0  0  0  0  0  0  0  0  0  0
   -3.4305   -0.1451   -0.6300 C   0  0  0  0  0  0  0  0  0  0  0  0
   -2.3930    0.3424    0.3718 C   0  0  0  0  0  0  0  0  0  0  0  0
   -1.5704   -0.8522    0.7180 C   0  0  0  0  0  0  0  0  0  0  0  0
   -1.5934   -1.3105    1.8840 O   0  0  0  0  0  0  0  0  0  0  0  0
   -0.9381   -1.5273   -0.3634 N   0  0  0  0  0  0  0  0  0  0  0  0
    0.1057   -2.6386    0.0913 C   0  0  1  0  0  0  0  0  0  0  0  0
    0.2104   -3.1868   -1.3328 O   0  0  0  0  0  0  0  0  0  0  0  0
    1.3691   -1.6416   -0.1308 C   0  0  0  0  0  0  0  0  0  0  0  0
    1.4196   -0.9766   -1.1607 O   0  0  0  0  0  0  0  0  0  0  0  0
    1.8731   -1.1875    1.1243 N   0  0  0  0  0  0  0  0  0  0  0  0
    2.5414    0.1113    1.0879 C   0  0  0  0  0  0  0  0  0  0  0  0
    3.8104   -0.1386    0.2854 C   0  0  0  0  0  0  0  0  0  0  0  0
    4.9792    0.4367    1.0501 C   0  0  0  0  0  0  0  0  0  0  0  0
    6.1919    0.1589    0.1958 C   0  0  0  0  0  0  0  0  0  0  0  0
    6.1233    1.0461   -0.9637 N   0  0  0  0  0  0  0  0  0  0  0  0
    7.2350    1.9925   -0.9027 C   0  0  0  0  0  0  0  0  0  0  0  0
    7.6671    2.0365    0.5480 C   0  0  0  0  0  0  0  0  0  0  0  0
    8.8974    2.8713    0.7229 C   0  0  0  0  0  0  0  0  0  0  0  0
   10.0127    2.0892    0.2026 N   0  0  0  0  0  0  0  0  0  0  0  0
  1  2  2  0
  2  3  1  0
  2  4  1  0
  4  5  1  0
  5  6  1  0
  6  7  1  0
  7  8  1  0
  8  9  1  0
  9 10  1  0
 10 11  1  0
 11 12  2  0
 11 13  1  0
 14 13  1  6
 14 15  1  0
 14 16  1  0
 16 17  2  0
 16 18  1  0
 18 19  1  0
 19 20  1  0
 20 21  1  0
 21 22  1  0
 22 23  1  0
 23 24  1  0
 24 25  1  0
 25 26  1  0
 26 27  1  0
M  END
>  <zinc_id>  (1) 
ZINC000004215557

>  <smiles>  (1) 
N=C(N)NCCCCCCC(=O)N[C@@H](O)C(=O)NCCCCNCCCN

$$$$
