
     RDKit          3D

 46 45  0  0  0  0  0  0  0  0999 V2000
   10.1152    0.8978   -0.2623 C   0  0  0  0  0  0  0  0  0  0  0  0
    8.5285    0.1989    0.2749 S   0  0  0  0  0  0  0  0  0  0  0  0
    8.5556   -1.6033    0.2183 C   0  0  0  0  0  0  0  0  0  0  0  0
    7.7403   -2.2669    1.2342 C   0  0  0  0  0  0  0  0  0  0  0  0
    6.3259   -2.7979    0.5904 C   0  0  2  0  0  0  0  0  0  0  0  0
    6.9511   -3.0211   -0.8432 N   0  0  0  0  0  0  0  0  0  0  0  0
    7.4900   -4.2874   -1.0970 C   0  0  0  0  0  0  0  0  0  0  0  0
    7.8018   -5.0728   -0.1787 O   0  0  0  0  0  0  0  0  0  0  0  0
    5.8158   -1.3077    0.2575 C   0  0  0  0  0  0  0  0  0  0  0  0
    5.2623   -1.1940   -0.8542 O   0  0  0  0  0  0  0  0  0  0  0  0
    4.7824   -0.7898    1.0655 N   0  0  0  0  0  0  0  0  0  0  0  0
    4.7895    0.7737    1.2983 C   0  0  1  0  0  0  0  0  0  0  0  0
    5.9840    1.1837    0.2511 C   0  0  0  0  0  0  0  0  0  0  0  0
    5.5564    1.7318   -0.9653 C   0  0  0  0  0  0  0  0  0  0  0  0
    4.8447    2.7247   -1.2391 O   0  0  0  0  0  0  0  0  0  0  0  0
    6.4557    1.5224   -2.0300 O   0  0  0  0  0  0  0  0  0  0  0  0
    3.5737    1.1537    0.3090 C   0  0  0  0  0  0  0  0  0  0  0  0
    3.0081    0.3664   -0.3799 O   0  0  0  0  0  0  0  0  0  0  0  0
    2.7865    2.1778    0.9398 N   0  0  0  0  0  0  0  0  0  0  0  0
    1.7137    2.8529    0.2090 C   0  0  0  0  0  0  0  0  0  0  0  0
    0.6419    1.8617   -0.1249 C   0  0  0  0  0  0  0  0  0  0  0  0
    0.2400    1.6310   -1.2785 O   0  0  0  0  0  0  0  0  0  0  0  0
    0.3462    0.9965    0.9107 N   0  0  0  0  0  0  0  0  0  0  0  0
   -0.7985   -0.0669    0.7445 C   0  0  1  0  0  0  0  0  0  0  0  0
   -1.3774    0.1965    2.2615 C   0  0  0  0  0  0  0  0  0  0  0  0
   -0.0923    0.6644    3.3638 S   0  0  0  0  0  0  0  0  0  0  0  0
   -1.8309    0.9751    0.0737 C   0  0  0  0  0  0  0  0  0  0  0  0
   -1.9275    2.0923    0.5616 O   0  0  0  0  0  0  0  0  0  0  0  0
   -2.9233    0.3851   -0.6424 N   0  0  0  0  0  0  0  0  0  0  0  0
   -4.3482    0.8377   -0.1405 C   0  0  1  0  0  0  0  0  0  0  0  0
   -4.3915    2.0815   -1.2154 C   0  0  0  0  0  0  0  0  0  0  0  0
   -4.8659    3.2767   -0.4061 C   0  0  0  0  0  0  0  0  0  0  0  0
   -5.5822    2.8975    0.8204 C   0  0  0  0  0  0  0  0  0  0  0  0
   -6.7580    3.3482    0.9733 O   0  0  0  0  0  0  0  0  0  0  0  0
   -5.0071    2.3031    1.9249 O   0  0  0  0  0  0  0  0  0  0  0  0
   -5.1246   -0.1983   -1.1045 C   0  0  0  0  0  0  0  0  0  0  0  0
   -6.0932    0.2857   -1.7484 O   0  0  0  0  0  0  0  0  0  0  0  0
   -5.3700   -1.4955   -0.6176 N   0  0  0  0  0  0  0  0  0  0  0  0
   -6.7462   -1.7790    0.0956 C   0  0  1  0  0  0  0  0  0  0  0  0
   -7.6279   -1.1340   -1.1333 C   0  0  0  0  0  0  0  0  0  0  0  0
   -8.7131   -0.3513   -0.4024 C   0  0  0  0  0  0  0  0  0  0  0  0
   -8.8192   -0.6970    1.0435 C   0  0  0  0  0  0  0  0  0  0  0  0
   -9.9978   -0.2877   -1.1478 C   0  0  0  0  0  0  0  0  0  0  0  0
   -6.8766   -3.2681   -0.5174 C   0  0  0  0  0  0  0  0  0  0  0  0
   -5.9227   -4.0036   -0.1114 O   0  0  0  0  0  0  0  0  0  0  0  0
   -8.1152   -3.7943   -0.1122 O   0  0  0  0  0  0  0  0  0  0  0  0
  1  2  1  0
  2  3  1  0
  3  4  1  0
  5  4  1  1
  5  6  1  0
  6  7  1  0
  7  8  2  0
  5  9  1  0
  9 10  2  0
  9 11  1  0
 12 11  1  6
 12 13  1  0
 13 14  1  0
 14 15  2  0
 14 16  1  0
 12 17  1  0
 17 18  2  0
 17 19  1  0
 19 20  1  0
 20 21  1  0
 21 22  2  0
 21 23  1  0
 24 23  1  1
 24 25  1  0
 25 26  1  0
 24 27  1  0
 27 28  2  0
 27 29  1  0
 30 29  1  6
 30 31  1  0
 31 32  1  0
 32 33  1  0
 33 34  2  0
 33 35  1  0
 30 36  1  0
 36 37  2  0
 36 38  1  0
 39 38  1  6
 39 40  1  0
 40 41  1  0
 41 42  1  0
 41 43  1  0
 39 44  1  0
 44 45  2  0
 44 46  1  0
M  END
>  <zinc_id>  (1) 
ZINC000068077856

>  <smiles>  (1) 
CSCC[C@H](NC=O)C(=O)N[C@@H](CC(=O)O)C(=O)NCC(=O)N[C@@H](CS)C(=O)N[C@@H](CCC(=O)O)C(=O)N[C@@H](CC(C)C)C(=O)O

$$$$
