
     RDKit          3D

 17 19  0  0  0  0  0  0  0  0999 V2000
   -1.8550    1.4282    1.2180 C   0  0  0  0  0  0  0  0  0  0  0  0
   -2.1722    0.6723    0.9082 C   0  0  0  0  0  0  0  0  0  0  0  0
   -3.3638    0.7161    0.0140 C   0  0  0  0  0  0  0  0  0  0  0  0
   -3.2679   -0.0691   -1.2286 C   0  0  0  0  0  0  0  0  0  0  0  0
   -2.3416   -1.2520   -1.1911 C   0  0  0  0  0  0  0  0  0  0  0  0
   -1.0632   -0.7462   -0.6197 C   0  0  2  0  0  0  0  0  0  0  0  0
   -0.7770    0.6286   -1.0658 C   0  0  0  0  0  0  0  0  0  0  0  0
    0.0896   -1.6893   -0.7876 C   0  0  0  0  0  0  0  0  0  0  0  0
    1.2315   -1.1826   -0.3111 C   0  0  0  0  0  0  0  0  0  0  0  0
    2.5760   -1.1495   -0.6761 O   0  0  0  0  0  0  0  0  0  0  0  0
    3.0583    0.1287   -0.3594 C   0  0  0  0  0  0  0  0  0  0  0  0
    3.8590    0.8484   -1.0343 O   0  0  0  0  0  0  0  0  0  0  0  0
    2.0706    0.7237    0.5527 C   0  0  0  0  0  0  0  0  0  0  0  0
    2.4437    1.7725    1.5553 C   0  0  0  0  0  0  0  0  0  0  0  0
    0.9599    0.0056    0.5128 C   0  0  0  0  0  0  0  0  0  0  0  0
   -0.0368   -0.0841    1.5369 C   0  0  0  0  0  0  0  0  0  0  0  0
   -1.4111   -0.7513    0.9757 C   0  0  1  0  0  0  0  0  0  0  0  0
  1  2  2  0
  2  3  1  0
  3  4  1  0
  4  5  1  0
  5  6  1  0
  6  7  1  6
  6  8  1  0
  8  9  2  0
  9 10  1  0
 10 11  1  0
 11 12  2  0
 11 13  1  0
 13 14  1  0
 13 15  2  0
 15 16  1  0
 17 16  1  1
 17  2  1  0
 17  6  1  0
 15  9  1  0
M  END
>  <zinc_id>  (1) 
ZINC000015207341

>  <smiles>  (1) 
C=C1CCC[C@]2(C)C=C3OC(=O)C(C)=C3C[C@@H]12

$$$$
