
     RDKit          3D

 28 30  0  0  0  0  0  0  0  0999 V2000
    8.2196    0.1926    0.2392 O   0  0  0  0  0  0  0  0  0  0  0  0
    7.2788    0.2751   -0.6019 C   0  0  0  0  0  0  0  0  0  0  0  0
    7.6035    0.4051   -1.9462 O   0  0  0  0  0  0  0  0  0  0  0  0
    5.8961    0.1040   -0.1463 C   0  0  0  0  0  0  0  0  0  0  0  0
    5.5577    0.7589    1.0262 C   0  0  0  0  0  0  0  0  0  0  0  0
    4.3591    0.4641    1.6626 C   0  0  0  0  0  0  0  0  0  0  0  0
    3.4575   -0.4585    1.1475 C   0  0  0  0  0  0  0  0  0  0  0  0
    2.0404   -0.1373    1.3437 C   0  0  0  0  0  0  0  0  0  0  0  0
    1.0861   -0.5108    0.5173 C   0  0  0  0  0  0  0  0  0  0  0  0
    1.3747   -1.7778   -0.7322 S   0  0  0  0  0  0  0  0  0  0  0  0
    0.0038   -1.3053   -1.8019 C   0  0  0  0  0  0  0  0  0  0  0  0
   -0.4029   -2.0557   -3.1790 S   0  0  0  0  0  0  0  0  0  0  0  0
   -0.8049   -0.5005   -0.9312 N   0  0  0  0  0  0  0  0  0  0  0  0
   -2.1496   -0.1195   -1.3618 C   0  0  0  0  0  0  0  0  0  0  0  0
   -3.1183   -0.1502   -0.2432 C   0  0  0  0  0  0  0  0  0  0  0  0
   -2.7849   -0.3928    1.0633 C   0  0  0  0  0  0  0  0  0  0  0  0
   -3.6494   -0.0154    2.0824 C   0  0  0  0  0  0  0  0  0  0  0  0
   -4.8170    0.6728    1.7790 C   0  0  0  0  0  0  0  0  0  0  0  0
   -5.2727    0.7052    0.4845 C   0  0  0  0  0  0  0  0  0  0  0  0
   -6.7233    0.6193    0.1283 C   0  0  0  0  0  0  0  0  0  0  0  0
   -7.5322    1.1412    1.1050 F   0  0  0  0  0  0  0  0  0  0  0  0
   -7.1020   -0.6873   -0.0933 F   0  0  0  0  0  0  0  0  0  0  0  0
   -6.8652    1.3674   -1.0365 F   0  0  0  0  0  0  0  0  0  0  0  0
   -4.3846    0.3190   -0.5017 C   0  0  0  0  0  0  0  0  0  0  0  0
    0.0102    0.2926   -0.0801 C   0  0  0  0  0  0  0  0  0  0  0  0
   -0.3469    1.4202    0.3789 O   0  0  0  0  0  0  0  0  0  0  0  0
    3.9194   -1.2726    0.1485 C   0  0  0  0  0  0  0  0  0  0  0  0
    5.1472   -1.0183   -0.4512 C   0  0  0  0  0  0  0  0  0  0  0  0
  1  2  2  0
  2  3  1  0
  2  4  1  0
  4  5  2  0
  5  6  1  0
  6  7  2  0
  7  8  1  0
  8  9  2  0
  9 10  1  0
 10 11  1  0
 11 12  2  0
 11 13  1  0
 13 14  1  0
 14 15  1  0
 15 16  2  0
 16 17  1  0
 17 18  2  0
 18 19  1  0
 19 20  1  0
 20 21  1  0
 20 22  1  0
 20 23  1  0
 19 24  2  0
 13 25  1  0
 25 26  2  0
  7 27  1  0
 27 28  2  0
 28  4  1  0
 25  9  1  0
 24 15  1  0
M  END
>  <zinc_id>  (1) 
ZINC000040422013

>  <smiles>  (1) 
O=C(O)c1ccc(/C=C2\SC(=S)N(Cc3cccc(C(F)(F)F)c3)C2=O)cc1

$$$$
