
     RDKit          3D

 24 24  0  0  0  0  0  0  0  0999 V2000
   -5.0836    0.7854    0.4390 C   0  0  0  0  0  0  0  0  0  0  0  0
   -5.3453    1.0733   -0.1377 C   0  0  0  0  0  0  0  0  0  0  0  0
   -5.8861    2.4292   -0.4564 C   0  0  0  0  0  0  0  0  0  0  0  0
   -4.4601    0.6590   -1.4713 C   0  0  2  0  0  0  0  0  0  0  0  0
   -5.5691   -0.3457   -1.9908 N   0  0  0  0  0  0  0  0  0  0  0  0
   -3.6581   -0.5152   -0.6883 C   0  0  0  0  0  0  0  0  0  0  0  0
   -4.2904   -1.2860   -0.0039 O   0  0  0  0  0  0  0  0  0  0  0  0
   -2.5714    0.1065   -0.1127 N   0  0  0  0  0  0  0  0  0  0  0  0
   -1.6509   -0.6861    0.9066 C   0  0  1  0  0  0  0  0  0  0  0  0
   -1.5676   -2.0125   -0.0753 C   0  0  0  0  0  0  0  0  0  0  0  0
   -0.3069   -0.0135    0.3364 C   0  0  0  0  0  0  0  0  0  0  0  0
   -0.5507    1.1269   -0.2078 O   0  0  0  0  0  0  0  0  0  0  0  0
    0.9620   -0.2946    0.4835 N   0  0  0  0  0  0  0  0  0  0  0  0
    1.6314   -0.1406   -0.8124 C   0  0  0  0  0  0  0  0  0  0  0  0
    2.0564   -1.4700   -1.2529 C   0  0  0  0  0  0  0  0  0  0  0  0
    1.8889   -2.3723   -0.1001 C   0  0  0  0  0  0  0  0  0  0  0  0
    1.9320   -1.3068    1.1764 C   0  0  1  0  0  0  0  0  0  0  0  0
    3.2918   -0.5399    0.7329 C   0  0  0  0  0  0  0  0  0  0  0  0
    4.2059   -1.2235    0.3089 O   0  0  0  0  0  0  0  0  0  0  0  0
    3.3741    0.8283    0.6937 N   0  0  0  0  0  0  0  0  0  0  0  0
    4.0092    1.5516   -0.4191 C   0  0  0  0  0  0  0  0  0  0  0  0
    5.4516    1.1274   -0.3710 C   0  0  0  0  0  0  0  0  0  0  0  0
    6.0677    1.9053    0.4213 O   0  0  0  0  0  0  0  0  0  0  0  0
    6.0690    0.6138   -1.4680 O   0  0  0  0  0  0  0  0  0  0  0  0
  1  2  1  0
  2  3  1  0
  4  2  1  1
  4  5  1  0
  4  6  1  0
  6  7  2  0
  6  8  1  0
  9  8  1  6
  9 10  1  0
  9 11  1  0
 11 12  2  0
 11 13  1  0
 13 14  1  0
 14 15  1  0
 15 16  1  0
 16 17  1  0
 17 18  1  6
 18 19  2  0
 18 20  1  0
 20 21  1  0
 21 22  1  0
 22 23  2  0
 22 24  1  0
 17 13  1  0
M  END
>  <zinc_id>  (1) 
ZINC000034065149

>  <smiles>  (1) 
CC(C)[C@H](N)C(=O)N[C@@H](C)C(=O)N1CCC[C@H]1C(=O)NCC(=O)O

$$$$
