51352628
  -OEChem-10051722503D

 49 52  0     0  0  0  0  0  0999 V2000
   -6.8671    0.0194    0.3755 O   0  0  0  0  0  0  0  0  0  0  0  0
    6.0562    1.7231   -0.0041 O   0  0  0  0  0  0  0  0  0  0  0  0
   -4.1384    0.4139   -0.1390 N   0  0  0  0  0  0  0  0  0  0  0  0
   -0.4783    0.2274   -0.0946 N   0  0  0  0  0  0  0  0  0  0  0  0
   -1.8589   -1.5165   -0.2242 N   0  0  0  0  0  0  0  0  0  0  0  0
   -0.0312    1.5089   -0.0090 N   0  0  0  0  0  0  0  0  0  0  0  0
    3.8247   -0.1188   -1.1359 N   0  0  0  0  0  0  0  0  0  0  0  0
   -5.1440    1.1696   -0.8861 C   0  0  0  0  0  0  0  0  0  0  0  0
   -4.6084   -0.8639    0.3963 C   0  0  0  0  0  0  0  0  0  0  0  0
   -2.8267    0.7854   -0.0977 C   0  0  0  0  0  0  0  0  0  0  0  0
   -1.7949   -0.2007   -0.1421 C   0  0  0  0  0  0  0  0  0  0  0  0
   -6.4037    1.3069   -0.0393 C   0  0  0  0  0  0  0  0  0  0  0  0
   -5.8911   -0.6377    1.1877 C   0  0  0  0  0  0  0  0  0  0  0  0
    0.3138   -0.8890   -0.1498 C   0  0  0  0  0  0  0  0  0  0  0  0
   -0.5580   -1.9470   -0.2289 C   0  0  0  0  0  0  0  0  0  0  0  0
   -2.4438    2.0723   -0.0128 C   0  0  0  0  0  0  0  0  0  0  0  0
    1.7570   -0.8576   -0.1241 C   0  0  0  0  0  0  0  0  0  0  0  0
   -0.9938    2.3741    0.0284 C   0  0  0  0  0  0  0  0  0  0  0  0
   -0.2557   -3.3857   -0.3105 C   0  0  0  0  0  0  0  0  0  0  0  0
    2.4703   -1.4995    0.8822 C   0  0  0  0  0  0  0  0  0  0  0  0
    2.4749   -0.1870   -1.1013 C   0  0  0  0  0  0  0  0  0  0  0  0
    4.4838   -0.7546   -0.1416 C   0  0  0  0  0  0  0  0  0  0  0  0
    3.8600   -1.4518    0.8806 C   0  0  0  0  0  0  0  0  0  0  0  0
    5.9740   -0.6829   -0.1746 C   0  0  0  0  0  0  0  0  0  0  0  0
    6.5308    0.5216    0.5898 C   0  0  0  0  0  0  0  0  0  0  0  0
    6.5485    2.8700    0.6751 C   0  0  0  0  0  0  0  0  0  0  0  0
   -4.8040    2.1619   -1.1991 H   0  0  0  0  0  0  0  0  0  0  0  0
   -5.3781    0.6098   -1.8003 H   0  0  0  0  0  0  0  0  0  0  0  0
   -4.7934   -1.5531   -0.4361 H   0  0  0  0  0  0  0  0  0  0  0  0
   -3.8924   -1.3279    1.0825 H   0  0  0  0  0  0  0  0  0  0  0  0
   -7.2001    1.7759   -0.6256 H   0  0  0  0  0  0  0  0  0  0  0  0
   -6.2267    1.9313    0.8447 H   0  0  0  0  0  0  0  0  0  0  0  0
   -5.7072   -0.0385    2.0878 H   0  0  0  0  0  0  0  0  0  0  0  0
   -6.3103   -1.5974    1.5058 H   0  0  0  0  0  0  0  0  0  0  0  0
   -3.1260    2.9106    0.0509 H   0  0  0  0  0  0  0  0  0  0  0  0
   -0.7426    3.4450    0.0985 H   0  0  0  0  0  0  0  0  0  0  0  0
    0.0799   -3.7636    0.6602 H   0  0  0  0  0  0  0  0  0  0  0  0
   -1.1424   -3.9560   -0.6057 H   0  0  0  0  0  0  0  0  0  0  0  0
    0.5274   -3.5824   -1.0495 H   0  0  0  0  0  0  0  0  0  0  0  0
    1.9602   -2.0370    1.6776 H   0  0  0  0  0  0  0  0  0  0  0  0
    1.9815    0.3300   -1.9194 H   0  0  0  0  0  0  0  0  0  0  0  0
    4.4251   -1.9470    1.6630 H   0  0  0  0  0  0  0  0  0  0  0  0
    6.4075   -1.6077    0.2247 H   0  0  0  0  0  0  0  0  0  0  0  0
    6.2919   -0.6176   -1.2233 H   0  0  0  0  0  0  0  0  0  0  0  0
    6.2189    0.4824    1.6406 H   0  0  0  0  0  0  0  0  0  0  0  0
    7.6259    0.5012    0.5468 H   0  0  0  0  0  0  0  0  0  0  0  0
    6.2096    2.8745    1.7156 H   0  0  0  0  0  0  0  0  0  0  0  0
    7.6416    2.9008    0.6340 H   0  0  0  0  0  0  0  0  0  0  0  0
    6.1555    3.7602    0.1766 H   0  0  0  0  0  0  0  0  0  0  0  0
  1 12  1  0  0  0  0
  1 13  1  0  0  0  0
  2 25  1  0  0  0  0
  2 26  1  0  0  0  0
  3  8  1  0  0  0  0
  3  9  1  0  0  0  0
  3 10  1  0  0  0  0
  4  6  1  0  0  0  0
  4 11  1  0  0  0  0
  4 14  1  0  0  0  0
  5 11  2  0  0  0  0
  5 15  1  0  0  0  0
  6 18  2  0  0  0  0
  7 21  1  0  0  0  0
  7 22  2  0  0  0  0
  8 12  1  0  0  0  0
  8 27  1  0  0  0  0
  8 28  1  0  0  0  0
  9 13  1  0  0  0  0
  9 29  1  0  0  0  0
  9 30  1  0  0  0  0
 10 11  1  0  0  0  0
 10 16  2  0  0  0  0
 12 31  1  0  0  0  0
 12 32  1  0  0  0  0
 13 33  1  0  0  0  0
 13 34  1  0  0  0  0
 14 15  2  0  0  0  0
 14 17  1  0  0  0  0
 15 19  1  0  0  0  0
 16 18  1  0  0  0  0
 16 35  1  0  0  0  0
 17 20  1  0  0  0  0
 17 21  2  0  0  0  0
 18 36  1  0  0  0  0
 19 37  1  0  0  0  0
 19 38  1  0  0  0  0
 19 39  1  0  0  0  0
 20 23  2  0  0  0  0
 20 40  1  0  0  0  0
 21 41  1  0  0  0  0
 22 23  1  0  0  0  0
 22 24  1  0  0  0  0
 23 42  1  0  0  0  0
 24 25  1  0  0  0  0
 24 43  1  0  0  0  0
 24 44  1  0  0  0  0
 25 45  1  0  0  0  0
 25 46  1  0  0  0  0
 26 47  1  0  0  0  0
 26 48  1  0  0  0  0
 26 49  1  0  0  0  0
M  END
> <DATABASE_ID>
DB12657

> <DATABASE_NAME>
drugbank

> <ORIGINAL_SOURCE>
PUBCHEM

> <ORIGINAL_SOURCE_URL>
https://pubchem.ncbi.nlm.nih.gov/rest/pug/compound/inchikey/BPLVDYJDAVYLRQ-UHFFFAOYSA-N/SDF?record_type=3d

> <SMILES>
COCCC1=CC=C(C=N1)C1=C(C)N=C2N1N=CC=C2N1CCOCC1

> <INCHI_IDENTIFIER>
InChI=1S/C19H23N5O2/c1-14-18(15-3-4-16(20-13-15)6-10-25-2)24-19(22-14)17(5-7-21-24)23-8-11-26-12-9-23/h3-5,7,13H,6,8-12H2,1-2H3

> <INCHI_KEY>
BPLVDYJDAVYLRQ-UHFFFAOYSA-N

> <FORMULA>
C19H23N5O2

> <MOLECULAR_WEIGHT>
353.426

> <EXACT_MASS>
353.185175001

> <JCHEM_ACCEPTOR_COUNT>
6

> <JCHEM_ATOM_COUNT>
49

> <JCHEM_AVERAGE_POLARIZABILITY>
39.6551594423782

> <JCHEM_BIOAVAILABILITY>
1

> <JCHEM_DONOR_COUNT>
0

> <JCHEM_FORMAL_CHARGE>
0

> <JCHEM_GHOSE_FILTER>
1

> <JCHEM_IUPAC>
4-{3-[6-(2-methoxyethyl)pyridin-3-yl]-2-methylimidazo[1,2-b]pyridazin-8-yl}morpholine

> <ALOGPS_LOGP>
2.45

> <JCHEM_LOGP>
1.2177016186666667

> <ALOGPS_LOGS>
-3.50

> <JCHEM_MDDR_LIKE_RULE>
0

> <JCHEM_NUMBER_OF_RINGS>
4

> <JCHEM_PHYSIOLOGICAL_CHARGE>
0

> <JCHEM_PKA_STRONGEST_BASIC>
4.502491332082086

> <JCHEM_POLAR_SURFACE_AREA>
64.78

> <JCHEM_REFRACTIVITY>
110.4693

> <JCHEM_ROTATABLE_BOND_COUNT>
5

> <JCHEM_RULE_OF_FIVE>
1

> <ALOGPS_SOLUBILITY>
1.12e-01 g/l

> <JCHEM_TRADITIONAL_IUPAC>
4-{3-[6-(2-methoxyethyl)pyridin-3-yl]-2-methylimidazo[1,2-b]pyridazin-8-yl}morpholine

> <JCHEM_VEBER_RULE>
0

$$$$
