24743471
  -OEChem-05201910583D

 52 56  0     1  0  0  0  0  0999 V2000
   -5.7264    2.3772   -0.1616 O   0  0  0  0  0  0  0  0  0  0  0  0
    4.3205   -0.7765   -0.1748 N   0  0  3  0  0  0  0  0  0  0  0  0
    6.6570    1.7994    0.1477 N   0  0  1  0  0  0  0  0  0  0  0  0
   -5.4935    0.0410    0.0370 N   0  0  0  0  0  0  0  0  0  0  0  0
   -6.1388   -1.1710    0.1198 N   0  0  0  0  0  0  0  0  0  0  0  0
    6.6310   -0.3851   -0.5853 C   0  0  2  0  0  0  0  0  0  0  0  0
    5.2208    0.1822   -0.8241 C   0  0  2  0  0  0  0  0  0  0  0  0
    6.4202   -1.8377   -0.1968 C   0  0  0  0  0  0  0  0  0  0  0  0
    7.2183    0.4981    0.5080 C   0  0  0  0  0  0  0  0  0  0  0  0
    5.2377    1.5454   -0.1213 C   0  0  0  0  0  0  0  0  0  0  0  0
    5.0555   -1.8525    0.4847 C   0  0  0  0  0  0  0  0  0  0  0  0
    2.9448   -0.6627   -0.1447 C   0  0  0  0  0  0  0  0  0  0  0  0
    6.8562    2.7982    1.1873 C   0  0  0  0  0  0  0  0  0  0  0  0
    2.1810   -1.6063    0.5421 C   0  0  0  0  0  0  0  0  0  0  0  0
    2.3190    0.3968   -0.8016 C   0  0  0  0  0  0  0  0  0  0  0  0
    0.7913   -1.4901    0.5724 C   0  0  0  0  0  0  0  0  0  0  0  0
    0.9292    0.5129   -0.7714 C   0  0  0  0  0  0  0  0  0  0  0  0
    0.1655   -0.4306   -0.0844 C   0  0  0  0  0  0  0  0  0  0  0  0
   -1.2759   -0.3105   -0.0534 C   0  0  0  0  0  0  0  0  0  0  0  0
   -2.0691   -1.4538    0.0418 C   0  0  0  0  0  0  0  0  0  0  0  0
   -1.8723    0.9488   -0.1187 C   0  0  0  0  0  0  0  0  0  0  0  0
   -3.4588   -1.3380    0.0717 C   0  0  0  0  0  0  0  0  0  0  0  0
   -3.2619    1.0646   -0.0889 C   0  0  0  0  0  0  0  0  0  0  0  0
   -4.0553   -0.0788    0.0062 C   0  0  0  0  0  0  0  0  0  0  0  0
   -6.1977    1.2494   -0.0223 C   0  0  0  0  0  0  0  0  0  0  0  0
   -7.6769    1.1638    0.0762 C   0  0  0  0  0  0  0  0  0  0  0  0
   -7.4256   -1.1769    0.1799 C   0  0  0  0  0  0  0  0  0  0  0  0
   -8.2960   -0.0074    0.1745 C   0  0  0  0  0  0  0  0  0  0  0  0
    7.2429   -0.3016   -1.4925 H   0  0  0  0  0  0  0  0  0  0  0  0
    5.0216    0.2579   -1.8997 H   0  0  0  0  0  0  0  0  0  0  0  0
    7.2119   -2.2392    0.4424 H   0  0  0  0  0  0  0  0  0  0  0  0
    6.3769   -2.4517   -1.1052 H   0  0  0  0  0  0  0  0  0  0  0  0
    8.3126    0.4993    0.4733 H   0  0  0  0  0  0  0  0  0  0  0  0
    6.9005    0.1764    1.5078 H   0  0  0  0  0  0  0  0  0  0  0  0
    4.6506    1.5285    0.8060 H   0  0  0  0  0  0  0  0  0  0  0  0
    4.8326    2.3296   -0.7693 H   0  0  0  0  0  0  0  0  0  0  0  0
    4.6050   -2.8402    0.3419 H   0  0  0  0  0  0  0  0  0  0  0  0
    5.1464   -1.6466    1.5570 H   0  0  0  0  0  0  0  0  0  0  0  0
    6.4064    2.5045    2.1425 H   0  0  0  0  0  0  0  0  0  0  0  0
    7.9257    2.9698    1.3508 H   0  0  0  0  0  0  0  0  0  0  0  0
    6.4217    3.7568    0.8835 H   0  0  0  0  0  0  0  0  0  0  0  0
    2.6231   -2.4357    1.0849 H   0  0  0  0  0  0  0  0  0  0  0  0
    2.8678    1.1389   -1.3718 H   0  0  0  0  0  0  0  0  0  0  0  0
    0.2401   -2.2290    1.1478 H   0  0  0  0  0  0  0  0  0  0  0  0
    0.4837    1.3340   -1.3265 H   0  0  0  0  0  0  0  0  0  0  0  0
   -1.6501   -2.4562    0.0643 H   0  0  0  0  0  0  0  0  0  0  0  0
   -1.2934    1.8676   -0.1610 H   0  0  0  0  0  0  0  0  0  0  0  0
   -4.0330   -2.2575    0.1402 H   0  0  0  0  0  0  0  0  0  0  0  0
   -3.6341    2.0767   -0.1307 H   0  0  0  0  0  0  0  0  0  0  0  0
   -8.2394    2.0907    0.0587 H   0  0  0  0  0  0  0  0  0  0  0  0
   -7.9450   -2.1465    0.2454 H   0  0  0  0  0  0  0  0  0  0  0  0
   -9.3686   -0.1176    0.2444 H   0  0  0  0  0  0  0  0  0  0  0  0
  1 25  2  0  0  0  0
  2  7  1  0  0  0  0
  2 11  1  0  0  0  0
  2 12  1  0  0  0  0
  3  9  1  0  0  0  0
  3 10  1  0  0  0  0
  3 13  1  0  0  0  0
  4  5  1  0  0  0  0
  4 24  1  0  0  0  0
  4 25  1  0  0  0  0
  5 27  2  0  0  0  0
  6  7  1  0  0  0  0
  6  8  1  0  0  0  0
  6  9  1  0  0  0  0
  6 29  1  0  0  0  0
  7 10  1  0  0  0  0
  7 30  1  0  0  0  0
  8 11  1  0  0  0  0
  8 31  1  0  0  0  0
  8 32  1  0  0  0  0
  9 33  1  0  0  0  0
  9 34  1  0  0  0  0
 10 35  1  0  0  0  0
 10 36  1  0  0  0  0
 11 37  1  0  0  0  0
 11 38  1  0  0  0  0
 12 14  2  0  0  0  0
 12 15  1  0  0  0  0
 13 39  1  0  0  0  0
 13 40  1  0  0  0  0
 13 41  1  0  0  0  0
 14 16  1  0  0  0  0
 14 42  1  0  0  0  0
 15 17  2  0  0  0  0
 15 43  1  0  0  0  0
 16 18  2  0  0  0  0
 16 44  1  0  0  0  0
 17 18  1  0  0  0  0
 17 45  1  0  0  0  0
 18 19  1  0  0  0  0
 19 20  2  0  0  0  0
 19 21  1  0  0  0  0
 20 22  1  0  0  0  0
 20 46  1  0  0  0  0
 21 23  2  0  0  0  0
 21 47  1  0  0  0  0
 22 24  2  0  0  0  0
 22 48  1  0  0  0  0
 23 24  1  0  0  0  0
 23 49  1  0  0  0  0
 25 26  1  0  0  0  0
 26 28  2  0  0  0  0
 26 50  1  0  0  0  0
 27 28  1  0  0  0  0
 27 51  1  0  0  0  0
 28 52  1  0  0  0  0
M  END
> <DATABASE_ID>
DB15192

> <DATABASE_NAME>
drugbank

> <ORIGINAL_SOURCE>
PUBCHEM

> <ORIGINAL_SOURCE_URL>
https://pubchem.ncbi.nlm.nih.gov/rest/pug/compound/inchikey/GNIRITULTPTAQW-KNQAVFIVSA-N/SDF?record_type=3d

> <SMILES>
CN1C[C@H]2CCN([C@H]2C1)C1=CC=C(C=C1)C1=CC=C(C=C1)N1N=CC=CC1=O

> <INCHI_IDENTIFIER>
InChI=1S/C23H24N4O/c1-25-15-19-12-14-26(22(19)16-25)20-8-4-17(5-9-20)18-6-10-21(11-7-18)27-23(28)3-2-13-24-27/h2-11,13,19,22H,12,14-16H2,1H3/t19-,22+/m1/s1

> <INCHI_KEY>
GNIRITULTPTAQW-KNQAVFIVSA-N

> <FORMULA>
C23H24N4O

> <MOLECULAR_WEIGHT>
372.472

> <EXACT_MASS>
372.195011409

> <JCHEM_ACCEPTOR_COUNT>
4

> <JCHEM_ATOM_COUNT>
52

> <JCHEM_AVERAGE_POLARIZABILITY>
42.52080608852432

> <JCHEM_BIOAVAILABILITY>
1

> <JCHEM_DONOR_COUNT>
0

> <JCHEM_FORMAL_CHARGE>
0

> <JCHEM_GHOSE_FILTER>
1

> <JCHEM_IUPAC>
2-{4'-[(3aR,6aR)-5-methyl-octahydropyrrolo[3,4-b]pyrrol-1-yl]-[1,1'-biphenyl]-4-yl}-2,3-dihydropyridazin-3-one

> <ALOGPS_LOGP>
3.82

> <JCHEM_LOGP>
3.056568074666666

> <ALOGPS_LOGS>
-3.93

> <JCHEM_MDDR_LIKE_RULE>
0

> <JCHEM_NUMBER_OF_RINGS>
5

> <JCHEM_PHYSIOLOGICAL_CHARGE>
1

> <JCHEM_PKA_STRONGEST_BASIC>
9.190965415755741

> <JCHEM_POLAR_SURFACE_AREA>
39.15

> <JCHEM_REFRACTIVITY>
113.4705

> <JCHEM_ROTATABLE_BOND_COUNT>
3

> <JCHEM_RULE_OF_FIVE>
1

> <ALOGPS_SOLUBILITY>
4.38e-02 g/l

> <JCHEM_TRADITIONAL_IUPAC>
(2R)-14-fluoro-2-methyl-6,9,10,19-tetraazapentacyclo[14.2.1.0^{2,6}.0^{8,18}.0^{12,17}]nonadeca-1(18),8,12(17),13,15-pentaen-11-one

> <JCHEM_VEBER_RULE>
1

$$$$
