445154
  -OEChem-10051720003D

 29 30  0     0  0  0  0  0  0999 V2000
   -4.8060   -2.1619   -0.3965 O   0  0  0  0  0  0  0  0  0  0  0  0
   -4.1010    2.4953    0.3775 O   0  0  0  0  0  0  0  0  0  0  0  0
    6.2037   -0.3631    0.0735 O   0  0  0  0  0  0  0  0  0  0  0  0
   -1.7324   -0.2540    0.0441 C   0  0  0  0  0  0  0  0  0  0  0  0
    2.1022    0.2574   -0.0662 C   0  0  0  0  0  0  0  0  0  0  0  0
   -0.2763   -0.4793    0.0741 C   0  0  0  0  0  0  0  0  0  0  0  0
    0.6650    0.4755   -0.1147 C   0  0  0  0  0  0  0  0  0  0  0  0
   -2.2240    1.0281    0.2263 C   0  0  0  0  0  0  0  0  0  0  0  0
   -2.5810   -1.3290   -0.1646 C   0  0  0  0  0  0  0  0  0  0  0  0
   -3.9593   -1.1159   -0.1919 C   0  0  0  0  0  0  0  0  0  0  0  0
   -3.6023    1.2414    0.1990 C   0  0  0  0  0  0  0  0  0  0  0  0
    2.6160   -0.8654    0.5823 C   0  0  0  0  0  0  0  0  0  0  0  0
    2.9667    1.1719   -0.6680 C   0  0  0  0  0  0  0  0  0  0  0  0
   -4.4698    0.1693   -0.0101 C   0  0  0  0  0  0  0  0  0  0  0  0
    3.9944   -1.0739    0.6292 C   0  0  0  0  0  0  0  0  0  0  0  0
    4.3451    0.9632   -0.6213 C   0  0  0  0  0  0  0  0  0  0  0  0
    4.8590   -0.1596    0.0274 C   0  0  0  0  0  0  0  0  0  0  0  0
    0.0093   -1.5130    0.2494 H   0  0  0  0  0  0  0  0  0  0  0  0
    0.3752    1.4977   -0.3420 H   0  0  0  0  0  0  0  0  0  0  0  0
   -1.5829    1.8840    0.4144 H   0  0  0  0  0  0  0  0  0  0  0  0
   -2.1858   -2.3318   -0.3082 H   0  0  0  0  0  0  0  0  0  0  0  0
    1.9849   -1.5927    1.0844 H   0  0  0  0  0  0  0  0  0  0  0  0
    2.5852    2.0524   -1.1795 H   0  0  0  0  0  0  0  0  0  0  0  0
   -5.5451    0.3285   -0.0325 H   0  0  0  0  0  0  0  0  0  0  0  0
    4.3829   -1.9498    1.1419 H   0  0  0  0  0  0  0  0  0  0  0  0
    5.0137    1.6788   -1.0921 H   0  0  0  0  0  0  0  0  0  0  0  0
   -4.2831   -2.9751   -0.5027 H   0  0  0  0  0  0  0  0  0  0  0  0
   -5.0717    2.4585    0.3285 H   0  0  0  0  0  0  0  0  0  0  0  0
    6.3814   -1.1862    0.5602 H   0  0  0  0  0  0  0  0  0  0  0  0
  1 10  1  0  0  0  0
  1 27  1  0  0  0  0
  2 11  1  0  0  0  0
  2 28  1  0  0  0  0
  3 17  1  0  0  0  0
  3 29  1  0  0  0  0
  4  6  1  0  0  0  0
  4  8  2  0  0  0  0
  4  9  1  0  0  0  0
  5  7  1  0  0  0  0
  5 12  2  0  0  0  0
  5 13  1  0  0  0  0
  6  7  2  0  0  0  0
  6 18  1  0  0  0  0
  7 19  1  0  0  0  0
  8 11  1  0  0  0  0
  8 20  1  0  0  0  0
  9 10  2  0  0  0  0
  9 21  1  0  0  0  0
 10 14  1  0  0  0  0
 11 14  2  0  0  0  0
 12 15  1  0  0  0  0
 12 22  1  0  0  0  0
 13 16  2  0  0  0  0
 13 23  1  0  0  0  0
 14 24  1  0  0  0  0
 15 17  2  0  0  0  0
 15 25  1  0  0  0  0
 16 17  1  0  0  0  0
 16 26  1  0  0  0  0
M  END
> <DATABASE_ID>
DB02709

> <DATABASE_NAME>
drugbank

> <ORIGINAL_SOURCE>
PUBCHEM

> <ORIGINAL_SOURCE_URL>
https://pubchem.ncbi.nlm.nih.gov/rest/pug/compound/inchikey/LUKBXSAWLPMMSZ-OWOJBTEDSA-N/SDF?record_type=3d

> <SMILES>
OC1=CC=C(\C=C\C2=CC(O)=CC(O)=C2)C=C1

> <INCHI_IDENTIFIER>
InChI=1S/C14H12O3/c15-12-5-3-10(4-6-12)1-2-11-7-13(16)9-14(17)8-11/h1-9,15-17H/b2-1+

> <INCHI_KEY>
LUKBXSAWLPMMSZ-OWOJBTEDSA-N

> <FORMULA>
C14H12O3

> <MOLECULAR_WEIGHT>
228.247

> <EXACT_MASS>
228.078644246

> <JCHEM_ACCEPTOR_COUNT>
3

> <JCHEM_ATOM_COUNT>
29

> <JCHEM_AVERAGE_POLARIZABILITY>
24.551069139354432

> <JCHEM_BIOAVAILABILITY>
1

> <JCHEM_DONOR_COUNT>
3

> <JCHEM_FORMAL_CHARGE>
0

> <JCHEM_GHOSE_FILTER>
1

> <JCHEM_IUPAC>
5-[(E)-2-(4-hydroxyphenyl)ethenyl]benzene-1,3-diol

> <ALOGPS_LOGP>
2.57

> <JCHEM_LOGP>
3.4023908863333325

> <ALOGPS_LOGS>
-3.52

> <JCHEM_MDDR_LIKE_RULE>
0

> <JCHEM_NUMBER_OF_RINGS>
2

> <JCHEM_PHYSIOLOGICAL_CHARGE>
0

> <JCHEM_PKA>
9.12809455952825

> <JCHEM_PKA_STRONGEST_ACIDIC>
8.493489164415605

> <JCHEM_PKA_STRONGEST_BASIC>
-6.178025720766969

> <JCHEM_POLAR_SURFACE_AREA>
60.69

> <JCHEM_REFRACTIVITY>
67.4555

> <JCHEM_ROTATABLE_BOND_COUNT>
2

> <JCHEM_RULE_OF_FIVE>
1

> <ALOGPS_SOLUBILITY>
6.88e-02 g/l

> <JCHEM_TRADITIONAL_IUPAC>
resveratrol

> <JCHEM_VEBER_RULE>
0

$$$$
