
     RDKit          3D

 26 28  0  0  0  0  0  0  0  0999 V2000
    6.8973    0.3296   -0.1580 C   0  0  0  0  0  0  0  0  0  0  0  0
    6.0040   -0.5519    0.6257 C   0  0  0  0  0  0  0  0  0  0  0  0
    6.1848   -0.6506    1.8578 O   0  0  0  0  0  0  0  0  0  0  0  0
    4.8615   -1.1969   -0.0165 C   0  0  0  0  0  0  0  0  0  0  0  0
    4.5099   -0.9016   -1.3158 C   0  0  0  0  0  0  0  0  0  0  0  0
    3.2149   -1.1332   -1.7605 C   0  0  0  0  0  0  0  0  0  0  0  0
    2.2549   -1.7290   -0.9516 C   0  0  0  0  0  0  0  0  0  0  0  0
    0.9161   -1.2278   -1.0547 N   0  0  0  0  0  0  0  0  0  0  0  0
    0.3880   -0.2819   -0.1176 C   0  0  0  0  0  0  0  0  0  0  0  0
    1.0244   -0.1958    0.9759 O   0  0  0  0  0  0  0  0  0  0  0  0
   -0.2724    0.9540   -0.5565 C   0  0  0  0  0  0  0  0  0  0  0  0
    0.4109    2.1635   -0.5898 C   0  0  0  0  0  0  0  0  0  0  0  0
   -0.4889    3.0520   -1.0316 N   0  0  0  0  0  0  0  0  0  0  0  0
   -1.6605    2.6102   -0.5844 N   0  0  0  0  0  0  0  0  0  0  0  0
   -1.5724    1.2908   -0.2880 C   0  0  0  0  0  0  0  0  0  0  0  0
   -2.7013    0.3615   -0.1526 C   0  0  0  0  0  0  0  0  0  0  0  0
   -3.6832    0.2512   -1.1289 C   0  0  0  0  0  0  0  0  0  0  0  0
   -5.0186    0.0455   -0.8021 C   0  0  0  0  0  0  0  0  0  0  0  0
   -6.2705    0.4387   -1.9773 Cl  0  0  0  0  0  0  0  0  0  0  0  0
   -5.4230    0.0722    0.5274 C   0  0  0  0  0  0  0  0  0  0  0  0
   -6.6094    0.7154    0.8942 O   0  0  0  0  0  0  0  0  0  0  0  0
   -4.4296   -0.2208    1.4523 C   0  0  0  0  0  0  0  0  0  0  0  0
   -3.0937   -0.0344    1.1209 C   0  0  0  0  0  0  0  0  0  0  0  0
   -2.1550   -0.0716    2.1540 O   0  0  0  0  0  0  0  0  0  0  0  0
    2.6839   -2.0571    0.3296 C   0  0  0  0  0  0  0  0  0  0  0  0
    4.0279   -2.0320    0.6808 C   0  0  0  0  0  0  0  0  0  0  0  0
  1  2  1  0
  2  3  2  0
  2  4  1  0
  4  5  2  0
  5  6  1  0
  6  7  2  0
  7  8  1  0
  8  9  1  0
  9 10  2  0
  9 11  1  0
 11 12  1  0
 12 13  2  0
 13 14  1  0
 14 15  1  0
 15 16  1  0
 16 17  2  0
 17 18  1  0
 18 19  1  0
 18 20  2  0
 20 21  1  0
 20 22  1  0
 22 23  2  0
 23 24  1  0
  7 25  1  0
 25 26  2  0
 26  4  1  0
 15 11  2  0
 23 16  1  0
M  END
>  <zinc_id>  (1) 
ZINC000016051845

>  <smiles>  (1) 
CC(=O)c1ccc(NC(=O)c2cn[nH]c2-c2cc(Cl)c(O)cc2O)cc1

$$$$
