3078
  -OEChem-10061700233D

 45 47  0     0  0  0  0  0  0999 V2000
   -0.2449    0.1679   -0.1430 O   0  0  0  0  0  0  0  0  0  0  0  0
    4.4490    0.9402   -0.1893 O   0  0  0  0  0  0  0  0  0  0  0  0
    0.3020   -3.8329    0.3681 O   0  0  0  0  0  0  0  0  0  0  0  0
    0.7786    2.5049    0.5419 N   0  0  0  0  0  0  0  0  0  0  0  0
    2.0835    0.5484   -0.1651 C   0  0  0  0  0  0  0  0  0  0  0  0
    1.0200   -0.3491   -0.0634 C   0  0  0  0  0  0  0  0  0  0  0  0
    1.8260    2.0099   -0.3505 C   0  0  0  0  0  0  0  0  0  0  0  0
    1.2678   -1.7067    0.1104 C   0  0  0  0  0  0  0  0  0  0  0  0
    3.3955    0.0811   -0.0921 C   0  0  0  0  0  0  0  0  0  0  0  0
   -1.2351   -2.0309    0.1287 C   0  0  0  0  0  0  0  0  0  0  0  0
   -1.3216   -0.6970   -0.0493 C   0  0  0  0  0  0  0  0  0  0  0  0
    0.1281   -2.6302    0.2166 C   0  0  0  0  0  0  0  0  0  0  0  0
    2.5810   -2.1793    0.1833 C   0  0  0  0  0  0  0  0  0  0  0  0
    3.6437   -1.2807    0.0816 C   0  0  0  0  0  0  0  0  0  0  0  0
   -2.6056    0.0092   -0.1617 C   0  0  0  0  0  0  0  0  0  0  0  0
   -2.3792   -2.9941    0.2626 C   0  0  0  0  0  0  0  0  0  0  0  0
    0.5588    3.9349    0.3286 C   0  0  0  0  0  0  0  0  0  0  0  0
    1.1306    2.2445    1.9374 C   0  0  0  0  0  0  0  0  0  0  0  0
   -3.2330    0.5032    0.9824 C   0  0  0  0  0  0  0  0  0  0  0  0
   -3.1976    0.1862   -1.4124 C   0  0  0  0  0  0  0  0  0  0  0  0
   -4.4514    1.1738    0.8755 C   0  0  0  0  0  0  0  0  0  0  0  0
   -4.4161    0.8568   -1.5192 C   0  0  0  0  0  0  0  0  0  0  0  0
    4.9630    1.1893   -1.4959 C   0  0  0  0  0  0  0  0  0  0  0  0
   -5.0429    1.3506   -0.3752 C   0  0  0  0  0  0  0  0  0  0  0  0
    2.7362    2.6030   -0.1996 H   0  0  0  0  0  0  0  0  0  0  0  0
    1.5249    2.1601   -1.3958 H   0  0  0  0  0  0  0  0  0  0  0  0
    2.7949   -3.2357    0.3189 H   0  0  0  0  0  0  0  0  0  0  0  0
    4.6642   -1.6497    0.1397 H   0  0  0  0  0  0  0  0  0  0  0  0
   -2.3287   -3.5101    1.2273 H   0  0  0  0  0  0  0  0  0  0  0  0
   -2.3368   -3.7445   -0.5339 H   0  0  0  0  0  0  0  0  0  0  0  0
   -3.3587   -2.5120    0.2032 H   0  0  0  0  0  0  0  0  0  0  0  0
    0.2675    4.1285   -0.7099 H   0  0  0  0  0  0  0  0  0  0  0  0
    1.4501    4.5316    0.5543 H   0  0  0  0  0  0  0  0  0  0  0  0
   -0.2646    4.2947    0.9556 H   0  0  0  0  0  0  0  0  0  0  0  0
    0.3708    2.6750    2.6013 H   0  0  0  0  0  0  0  0  0  0  0  0
    2.0961    2.6880    2.2090 H   0  0  0  0  0  0  0  0  0  0  0  0
    1.1563    1.1799    2.1879 H   0  0  0  0  0  0  0  0  0  0  0  0
   -2.7835    0.3743    1.9641 H   0  0  0  0  0  0  0  0  0  0  0  0
   -2.7208   -0.1925   -2.3133 H   0  0  0  0  0  0  0  0  0  0  0  0
   -4.9394    1.5586    1.7661 H   0  0  0  0  0  0  0  0  0  0  0  0
   -4.8767    0.9946   -2.4931 H   0  0  0  0  0  0  0  0  0  0  0  0
    4.1819    1.5763   -2.1577 H   0  0  0  0  0  0  0  0  0  0  0  0
    5.3901    0.2737   -1.9171 H   0  0  0  0  0  0  0  0  0  0  0  0
    5.7549    1.9389   -1.4149 H   0  0  0  0  0  0  0  0  0  0  0  0
   -5.9916    1.8729   -0.4584 H   0  0  0  0  0  0  0  0  0  0  0  0
  1  6  1  0  0  0  0
  1 11  1  0  0  0  0
  2  9  1  0  0  0  0
  2 23  1  0  0  0  0
  3 12  2  0  0  0  0
  4  7  1  0  0  0  0
  4 17  1  0  0  0  0
  4 18  1  0  0  0  0
  5  6  1  0  0  0  0
  5  7  1  0  0  0  0
  5  9  2  0  0  0  0
  6  8  2  0  0  0  0
  7 25  1  0  0  0  0
  7 26  1  0  0  0  0
  8 12  1  0  0  0  0
  8 13  1  0  0  0  0
  9 14  1  0  0  0  0
 10 11  2  0  0  0  0
 10 12  1  0  0  0  0
 10 16  1  0  0  0  0
 11 15  1  0  0  0  0
 13 14  2  0  0  0  0
 13 27  1  0  0  0  0
 14 28  1  0  0  0  0
 15 19  2  0  0  0  0
 15 20  1  0  0  0  0
 16 29  1  0  0  0  0
 16 30  1  0  0  0  0
 16 31  1  0  0  0  0
 17 32  1  0  0  0  0
 17 33  1  0  0  0  0
 17 34  1  0  0  0  0
 18 35  1  0  0  0  0
 18 36  1  0  0  0  0
 18 37  1  0  0  0  0
 19 21  1  0  0  0  0
 19 38  1  0  0  0  0
 20 22  2  0  0  0  0
 20 39  1  0  0  0  0
 21 24  2  0  0  0  0
 21 40  1  0  0  0  0
 22 24  1  0  0  0  0
 22 41  1  0  0  0  0
 23 42  1  0  0  0  0
 23 43  1  0  0  0  0
 23 44  1  0  0  0  0
 24 45  1  0  0  0  0
M  END
> <DATABASE_ID>
DB13482

> <DATABASE_NAME>
drugbank

> <ORIGINAL_SOURCE>
PUBCHEM

> <ORIGINAL_SOURCE_URL>
https://pubchem.ncbi.nlm.nih.gov/rest/pug/compound/inchikey/ZXFQRFXLFWWKLX-UHFFFAOYSA-N/SDF?record_type=3d

> <SMILES>
COC1=CC=C2C(=O)C(C)=C(OC2=C1CN(C)C)C1=CC=CC=C1

> <INCHI_IDENTIFIER>
InChI=1S/C20H21NO3/c1-13-18(22)15-10-11-17(23-4)16(12-21(2)3)20(15)24-19(13)14-8-6-5-7-9-14/h5-11H,12H2,1-4H3

> <INCHI_KEY>
ZXFQRFXLFWWKLX-UHFFFAOYSA-N

> <FORMULA>
C20H21NO3

> <MOLECULAR_WEIGHT>
323.392

> <EXACT_MASS>
323.15214354

> <JCHEM_ACCEPTOR_COUNT>
4

> <JCHEM_ATOM_COUNT>
45

> <JCHEM_AVERAGE_POLARIZABILITY>
35.85772111826581

> <JCHEM_BIOAVAILABILITY>
1

> <JCHEM_DONOR_COUNT>
0

> <JCHEM_FORMAL_CHARGE>
0

> <JCHEM_GHOSE_FILTER>
1

> <JCHEM_IUPAC>
8-[(dimethylamino)methyl]-7-methoxy-3-methyl-2-phenyl-4H-chromen-4-one

> <ALOGPS_LOGP>
3.51

> <JCHEM_LOGP>
3.1466610893333335

> <ALOGPS_LOGS>
-3.94

> <JCHEM_MDDR_LIKE_RULE>
0

> <JCHEM_NUMBER_OF_RINGS>
3

> <JCHEM_PHYSIOLOGICAL_CHARGE>
0

> <JCHEM_PKA_STRONGEST_BASIC>
6.242239307795368

> <JCHEM_POLAR_SURFACE_AREA>
38.769999999999996

> <JCHEM_REFRACTIVITY>
96.33420000000001

> <JCHEM_ROTATABLE_BOND_COUNT>
4

> <JCHEM_RULE_OF_FIVE>
1

> <ALOGPS_SOLUBILITY>
3.73e-02 g/l

> <JCHEM_TRADITIONAL_IUPAC>
dimefline

> <JCHEM_VEBER_RULE>
1

$$$$
