5289026
  -OEChem-10051720273D

 42 45  0     0  0  0  0  0  0999 V2000
   -0.3189   -3.0599   -0.1519 O   0  0  0  0  0  0  0  0  0  0  0  0
    2.0632   -3.6473   -0.1402 O   0  0  0  0  0  0  0  0  0  0  0  0
   -2.6937   -2.3104   -0.1843 O   0  0  0  0  0  0  0  0  0  0  0  0
   -1.2652    2.8179    0.2566 O   0  0  0  0  0  0  0  0  0  0  0  0
    3.8525    2.1407   -1.0651 O   0  0  0  0  0  0  0  0  0  0  0  0
   -5.1852   -1.7048   -0.2029 O   0  0  0  0  0  0  0  0  0  0  0  0
    3.8337    2.3097    1.2539 O   0  0  0  0  0  0  0  0  0  0  0  0
    1.8059   -0.0560    0.1078 C   0  0  0  0  0  0  0  0  0  0  0  0
    1.4016   -1.3946    0.0104 C   0  0  0  0  0  0  0  0  0  0  0  0
   -0.9400   -0.7557   -0.0137 C   0  0  0  0  0  0  0  0  0  0  0  0
   -0.5655    0.5786    0.1003 C   0  0  0  0  0  0  0  0  0  0  0  0
    3.2425    0.3067    0.1628 C   0  0  0  0  0  0  0  0  0  0  0  0
    0.0434   -1.7461   -0.0558 C   0  0  0  0  0  0  0  0  0  0  0  0
    3.8664   -2.1201    0.1643 C   0  0  0  0  0  0  0  0  0  0  0  0
    4.1948   -0.6508    0.1801 C   0  0  0  0  0  0  0  0  0  0  0  0
    0.7946    0.9223    0.1643 C   0  0  0  0  0  0  0  0  0  0  0  0
    2.4094   -2.4756   -0.0072 C   0  0  0  0  0  0  0  0  0  0  0  0
   -2.3663   -1.1346   -0.0827 C   0  0  0  0  0  0  0  0  0  0  0  0
   -1.5915    1.6416    0.1569 C   0  0  0  0  0  0  0  0  0  0  0  0
   -3.3925   -0.0741   -0.0266 C   0  0  0  0  0  0  0  0  0  0  0  0
   -3.0186    1.2660    0.0894 C   0  0  0  0  0  0  0  0  0  0  0  0
    5.6876   -0.4063    0.1935 C   0  0  0  0  0  0  0  0  0  0  0  0
    3.6795    1.7163    0.2013 C   0  0  0  0  0  0  0  0  0  0  0  0
   -4.7481   -0.4181   -0.0905 C   0  0  0  0  0  0  0  0  0  0  0  0
   -4.0003    2.2628    0.1418 C   0  0  0  0  0  0  0  0  0  0  0  0
   -5.7232    0.5783   -0.0380 C   0  0  0  0  0  0  0  0  0  0  0  0
   -5.3501    1.9159    0.0781 C   0  0  0  0  0  0  0  0  0  0  0  0
    4.2840    3.4976   -1.2025 C   0  0  0  0  0  0  0  0  0  0  0  0
    4.2056   -2.5749    1.1024 H   0  0  0  0  0  0  0  0  0  0  0  0
    4.4020   -2.5931   -0.6682 H   0  0  0  0  0  0  0  0  0  0  0  0
    1.0697    1.9716    0.2522 H   0  0  0  0  0  0  0  0  0  0  0  0
    5.9576    0.6525    0.2207 H   0  0  0  0  0  0  0  0  0  0  0  0
    6.1477   -0.8368   -0.7023 H   0  0  0  0  0  0  0  0  0  0  0  0
    6.1365   -0.8778    1.0743 H   0  0  0  0  0  0  0  0  0  0  0  0
   -3.7354    3.3128    0.2319 H   0  0  0  0  0  0  0  0  0  0  0  0
    0.3800   -3.5693   -0.5905 H   0  0  0  0  0  0  0  0  0  0  0  0
   -6.7778    0.3196   -0.0867 H   0  0  0  0  0  0  0  0  0  0  0  0
   -6.1111    2.6898    0.1190 H   0  0  0  0  0  0  0  0  0  0  0  0
   -4.4378   -2.3205   -0.2308 H   0  0  0  0  0  0  0  0  0  0  0  0
    3.5403    4.1763   -0.7739 H   0  0  0  0  0  0  0  0  0  0  0  0
    4.3864    3.7161   -2.2687 H   0  0  0  0  0  0  0  0  0  0  0  0
    5.2563    3.6361   -0.7199 H   0  0  0  0  0  0  0  0  0  0  0  0
  1 13  1  0  0  0  0
  1 36  1  0  0  0  0
  2 17  2  0  0  0  0
  3 18  2  0  0  0  0
  4 19  2  0  0  0  0
  5 23  1  0  0  0  0
  5 28  1  0  0  0  0
  6 24  1  0  0  0  0
  6 39  1  0  0  0  0
  7 23  2  0  0  0  0
  8  9  2  0  0  0  0
  8 12  1  0  0  0  0
  8 16  1  0  0  0  0
  9 13  1  0  0  0  0
  9 17  1  0  0  0  0
 10 11  1  0  0  0  0
 10 13  2  0  0  0  0
 10 18  1  0  0  0  0
 11 16  2  0  0  0  0
 11 19  1  0  0  0  0
 12 15  2  0  0  0  0
 12 23  1  0  0  0  0
 14 15  1  0  0  0  0
 14 17  1  0  0  0  0
 14 29  1  0  0  0  0
 14 30  1  0  0  0  0
 15 22  1  0  0  0  0
 16 31  1  0  0  0  0
 18 20  1  0  0  0  0
 19 21  1  0  0  0  0
 20 21  2  0  0  0  0
 20 24  1  0  0  0  0
 21 25  1  0  0  0  0
 22 32  1  0  0  0  0
 22 33  1  0  0  0  0
 22 34  1  0  0  0  0
 24 26  2  0  0  0  0
 25 27  2  0  0  0  0
 25 35  1  0  0  0  0
 26 27  1  0  0  0  0
 26 37  1  0  0  0  0
 27 38  1  0  0  0  0
 28 40  1  0  0  0  0
 28 41  1  0  0  0  0
 28 42  1  0  0  0  0
M  END
> <DATABASE_ID>
DB04064

> <DATABASE_NAME>
drugbank

> <ORIGINAL_SOURCE>
PUBCHEM

> <ORIGINAL_SOURCE_URL>
https://pubchem.ncbi.nlm.nih.gov/rest/pug/compound/inchikey/QHNJNOBWURJIEK-UHFFFAOYSA-N/SDF?record_type=3d

> <SMILES>
COC(=O)C1=C(C)CC(=O)C2=C(O)C3=C(C=C12)C(=O)C1=CC=CC(O)=C1C3=O

> <INCHI_IDENTIFIER>
InChI=1S/C21H14O7/c1-8-6-13(23)16-10(14(8)21(27)28-2)7-11-17(20(16)26)19(25)15-9(18(11)24)4-3-5-12(15)22/h3-5,7,22,26H,6H2,1-2H3

> <INCHI_KEY>
QHNJNOBWURJIEK-UHFFFAOYSA-N

> <FORMULA>
C21H14O7

> <MOLECULAR_WEIGHT>
378.3317

> <EXACT_MASS>
378.073952802

> <JCHEM_ACCEPTOR_COUNT>
6

> <JCHEM_ATOM_COUNT>
42

> <JCHEM_AVERAGE_NEUTRAL_MICROSPECIES_CHARGE>
-0.8768733925220225

> <JCHEM_AVERAGE_POLARIZABILITY>
37.73404697609314

> <JCHEM_BIOAVAILABILITY>
1

> <JCHEM_DONOR_COUNT>
2

> <JCHEM_FORMAL_CHARGE>
0

> <JCHEM_GHOSE_FILTER>
1

> <JCHEM_IUPAC>
methyl 5,7-dihydroxy-2-methyl-4,6,11-trioxo-3,4,6,11-tetrahydrotetracene-1-carboxylate

> <ALOGPS_LOGP>
3.26

> <JCHEM_LOGP>
4.403908492

> <ALOGPS_LOGS>
-4.21

> <JCHEM_MDDR_LIKE_RULE>
0

> <JCHEM_NEUTRAL_CHARGE>
-1

> <JCHEM_NUMBER_OF_RINGS>
4

> <JCHEM_PHYSIOLOGICAL_CHARGE>
-1

> <JCHEM_PKA>
7.68519724892124

> <JCHEM_PKA_STRONGEST_ACIDIC>
6.95999814390462

> <JCHEM_PKA_STRONGEST_BASIC>
-5.312463404093523

> <JCHEM_POLAR_SURFACE_AREA>
117.97000000000003

> <JCHEM_REFRACTIVITY>
99.54839999999999

> <JCHEM_ROTATABLE_BOND_COUNT>
2

> <JCHEM_RULE_OF_FIVE>
1

> <ALOGPS_SOLUBILITY>
2.33e-02 g/l

> <JCHEM_TRADITIONAL_IUPAC>
tetrahydrofolic acid

> <JCHEM_VEBER_RULE>
0

$$$$
