
     RDKit          3D

 52 54  0  0  0  0  0  0  0  0999 V2000
   -3.3793   -3.3698   -2.6622 C   0  0  0  0  0  0  0  0  0  0  0  0
   -2.9918   -3.5356   -2.2912 C   0  0  0  0  0  0  0  0  0  0  0  0
   -2.9047   -2.8539   -0.7905 C   0  0  1  0  0  0  0  0  0  0  0  0
   -3.5992   -1.5629   -1.2714 O   0  0  0  0  0  0  0  0  0  0  0  0
   -2.5799   -0.6937   -1.7049 C   0  0  0  0  0  0  0  0  0  0  0  0
   -2.9654    0.1824   -2.5386 O   0  0  0  0  0  0  0  0  0  0  0  0
   -1.7996   -0.1511   -0.4187 C   0  0  2  0  0  0  0  0  0  0  0  0
   -2.9946    0.8643   -0.0635 C   0  0  0  0  0  0  0  0  0  0  0  0
   -0.7568    0.8326   -1.3678 C   0  0  1  0  0  0  0  0  0  0  0  0
   -1.5237    2.1060   -1.4129 O   0  0  0  0  0  0  0  0  0  0  0  0
   -1.4625    2.8935   -0.1208 C   0  0  1  0  0  0  0  0  0  0  0  0
   -0.5202    4.1716   -0.6574 C   0  0  0  0  0  0  0  0  0  0  0  0
   -0.4344    5.0033    0.5904 C   0  0  1  0  0  0  0  0  0  0  0  0
    0.0822    4.3302    1.8141 C   0  0  0  0  0  0  0  0  0  0  0  0
    0.2073    6.1701    0.4097 O   0  0  0  0  0  0  0  0  0  0  0  0
    1.5660    5.8175    0.5205 C   0  0  0  0  0  0  0  0  0  0  0  0
   -2.0023    5.2041    0.9790 C   0  0  1  0  0  0  0  0  0  0  0  0
   -1.9987    6.7104    0.8576 O   0  0  0  0  0  0  0  0  0  0  0  0
   -2.4423    5.0422   -0.6812 C   0  0  2  0  0  0  0  0  0  0  0  0
   -3.9804    5.5082   -0.3474 C   0  0  0  0  0  0  0  0  0  0  0  0
   -2.7764    3.5982   -0.5022 O   0  0  0  0  0  0  0  0  0  0  0  0
    0.2917    1.2396   -0.1067 C   0  0  2  0  0  0  0  0  0  0  0  0
    1.1856    2.0462   -1.1859 C   0  0  0  0  0  0  0  0  0  0  0  0
    1.4388   -0.0039   -0.3087 C   0  0  1  0  0  0  0  0  0  0  0  0
    2.4474    0.7969    0.4780 O   0  0  0  0  0  0  0  0  0  0  0  0
    3.6114    1.1301   -0.4287 C   0  0  2  0  0  0  0  0  0  0  0  0
    3.3756    0.0601   -1.4997 O   0  0  0  0  0  0  0  0  0  0  0  0
    4.4867    0.7178   -2.3189 C   0  0  2  0  0  0  0  0  0  0  0  0
    4.1662   -0.2279   -3.6302 C   0  0  0  0  0  0  0  0  0  0  0  0
    5.6155   -0.3367   -1.7468 C   0  0  0  0  0  0  0  0  0  0  0  0
    6.0512    0.4949   -0.4103 C   0  0  2  0  0  0  0  0  0  0  0  0
    6.8234   -0.7452    0.1483 N   0  0  0  0  0  0  0  0  0  0  0  0
    7.9726   -0.8594   -0.7440 C   0  0  0  0  0  0  0  0  0  0  0  0
    7.1833   -0.4809    1.5011 C   0  0  0  0  0  0  0  0  0  0  0  0
    4.6469    0.0388    0.4270 C   0  0  1  0  0  0  0  0  0  0  0  0
    4.8915    1.0287    1.5167 O   0  0  0  0  0  0  0  0  0  0  0  0
    1.0899   -0.8616    1.0559 C   0  0  2  0  0  0  0  0  0  0  0  0
    0.5956    0.1195    2.0655 C   0  0  0  0  0  0  0  0  0  0  0  0
    2.3614   -1.2744    1.4709 O   0  0  0  0  0  0  0  0  0  0  0  0
    0.3259   -2.0008    0.8828 C   0  0  0  0  0  0  0  0  0  0  0  0
    0.9092   -3.4622    1.2736 C   0  0  1  0  0  0  0  0  0  0  0  0
    1.6583   -3.1104    2.6907 C   0  0  0  0  0  0  0  0  0  0  0  0
   -0.4332   -3.8097    2.1538 C   0  0  0  0  0  0  0  0  0  0  0  0
   -1.4313   -4.1448    1.2298 N   0  0  0  0  0  0  0  0  0  0  0  0
   -1.5455   -5.4460    0.7696 C   0  0  0  0  0  0  0  0  0  0  0  0
   -2.7782   -3.4667    1.6225 C   0  0  2  0  0  0  0  0  0  0  0  0
   -2.8605   -4.2322    3.0687 C   0  0  0  0  0  0  0  0  0  0  0  0
   -3.7155   -4.6560    0.7917 C   0  0  1  0  0  0  0  0  0  0  0  0
   -4.8768   -4.5397    1.7591 O   0  0  0  0  0  0  0  0  0  0  0  0
   -4.3029   -3.5107   -0.2352 C   0  0  1  0  0  0  0  0  0  0  0  0
   -5.0323   -2.4939    0.5106 C   0  0  0  0  0  0  0  0  0  0  0  0
   -4.8957   -4.2773   -1.1418 O   0  0  0  0  0  0  0  0  0  0  0  0
  1  2  1  0
  3  2  1  6
  3  4  1  0
  4  5  1  0
  5  6  2  0
  5  7  1  0
  7  8  1  1
  7  9  1  0
  9 10  1  1
 11 10  1  6
 11 12  1  0
 12 13  1  0
 13 14  1  1
 13 15  1  0
 15 16  1  0
 13 17  1  0
 17 18  1  6
 17 19  1  0
 19 20  1  1
 19 21  1  0
  9 22  1  0
 22 23  1  6
 22 24  1  0
 24 25  1  1
 26 25  1  1
 26 27  1  0
 27 28  1  0
 28 29  1  6
 28 30  1  0
 30 31  1  0
 31 32  1  1
 32 33  1  0
 32 34  1  0
 31 35  1  0
 35 36  1  1
 24 37  1  0
 37 38  1  1
 37 39  1  0
 37 40  1  0
 40 41  1  0
 41 42  1  1
 41 43  1  0
 43 44  1  0
 44 45  1  0
 44 46  1  0
 46 47  1  1
 46 48  1  0
 48 49  1  1
 48 50  1  0
 50 51  1  1
 50 52  1  0
 50  3  1  0
 21 11  1  0
 35 26  1  0
M  END
>  <zinc_id>  (1) 
ZINC000085537026

>  <smiles>  (1) 
CC[C@H]1OC(=O)[C@H](C)[C@@H](O[C@H]2C[C@@](C)(OC)[C@@H](O)[C@H](C)O2)[C@H](C)[C@@H](O[C@@H]2O[C@H](C)C[C@H](N(C)C)[C@H]2O)[C@](C)(O)C[C@@H](C)CN(C)[C@H](C)[C@@H](O)[C@]1(C)O

$$$$
