
     RDKit          3D

 58 60  0  0  0  0  0  0  0  0999 V2000
    0.2129   -4.8748   -1.4810 C   0  0  0  0  0  0  0  0  0  0  0  0
    0.0575   -4.4825   -2.4846 C   0  0  0  0  0  0  0  0  0  0  0  0
    0.4195   -2.8812   -2.6312 C   0  0  1  0  0  0  0  0  0  0  0  0
    0.7155   -2.7486   -1.1252 O   0  0  0  0  0  0  0  0  0  0  0  0
   -0.4755   -2.5598   -0.4106 C   0  0  0  0  0  0  0  0  0  0  0  0
   -0.4668   -2.7818    0.8019 O   0  0  0  0  0  0  0  0  0  0  0  0
   -1.7969   -2.1999   -1.1874 C   0  0  2  0  0  0  0  0  0  0  0  0
   -1.0832   -1.3073   -2.3476 C   0  0  0  0  0  0  0  0  0  0  0  0
   -2.3253   -0.8015   -0.3513 C   0  0  1  0  0  0  0  0  0  0  0  0
   -2.9465   -1.6105    0.7584 O   0  0  0  0  0  0  0  0  0  0  0  0
   -3.5200   -2.8067   -0.0123 C   0  0  1  0  0  0  0  0  0  0  0  0
   -3.7473   -3.7423    1.3298 C   0  0  0  0  0  0  0  0  0  0  0  0
   -4.3717   -3.0776    2.4228 C   0  0  1  0  0  0  0  0  0  0  0  0
   -4.7261   -4.1927    3.4050 C   0  0  0  0  0  0  0  0  0  0  0  0
   -3.7514   -2.1211    3.1321 O   0  0  0  0  0  0  0  0  0  0  0  0
   -2.9186   -2.5325    4.1458 C   0  0  0  0  0  0  0  0  0  0  0  0
   -5.8649   -2.5778    1.9956 C   0  0  1  0  0  0  0  0  0  0  0  0
   -6.0287   -1.6164    3.1465 O   0  0  0  0  0  0  0  0  0  0  0  0
   -5.1427   -1.3644    1.0071 C   0  0  2  0  0  0  0  0  0  0  0  0
   -6.6118   -0.9191    0.4293 C   0  0  0  0  0  0  0  0  0  0  0  0
   -4.9748   -2.3637   -0.0875 O   0  0  0  0  0  0  0  0  0  0  0  0
   -0.8980   -0.4207    0.4582 C   0  0  2  0  0  0  0  0  0  0  0  0
   -1.6588    0.1765    1.7339 C   0  0  0  0  0  0  0  0  0  0  0  0
   -0.5709    1.0372   -0.3728 C   0  0  1  0  0  0  0  0  0  0  0  0
   -1.0196    2.0001    0.6991 O   0  0  0  0  0  0  0  0  0  0  0  0
   -1.7014    3.0970   -0.1004 C   0  0  2  0  0  0  0  0  0  0  0  0
   -0.3890    3.8065   -0.4351 O   0  0  0  0  0  0  0  0  0  0  0  0
   -1.0144    4.8793   -1.3078 C   0  0  2  0  0  0  0  0  0  0  0  0
    0.4549    5.5064   -1.7099 C   0  0  0  0  0  0  0  0  0  0  0  0
   -1.1736    5.9348   -0.0521 C   0  0  0  0  0  0  0  0  0  0  0  0
   -2.5983    5.3316    0.4518 C   0  0  2  0  0  0  0  0  0  0  0  0
   -2.6410    6.2905    1.6854 N   0  0  0  0  0  0  0  0  0  0  0  0
   -2.9161    7.5765    1.0652 C   0  0  0  0  0  0  0  0  0  0  0  0
   -3.8644    5.9065    2.3644 C   0  0  0  0  0  0  0  0  0  0  0  0
   -1.8209    4.0823    1.3131 C   0  0  1  0  0  0  0  0  0  0  0  0
   -3.1380    3.5039    1.7097 O   0  0  0  0  0  0  0  0  0  0  0  0
    1.0022    1.0691    0.0640 C   0  0  2  0  0  0  0  0  0  0  0  0
    1.4799   -0.1147    0.7598 C   0  0  0  0  0  0  0  0  0  0  0  0
    1.1593    2.0202    1.1049 O   0  0  0  0  0  0  0  0  0  0  0  0
    1.8422    1.6430   -0.9801 C   0  0  0  0  0  0  0  0  0  0  0  0
    2.1307    0.6157   -2.2048 C   0  0  1  0  0  0  0  0  0  0  0  0
    3.1822    1.6760   -2.8898 C   0  0  0  0  0  0  0  0  0  0  0  0
    3.2979   -0.2049   -1.4988 C   0  0  0  0  0  0  0  0  0  0  0  0
    4.1988    0.3312   -0.8685 N   0  0  0  0  0  0  0  0  0  0  0  0
    4.3733    1.6842   -0.8788 O   0  0  0  0  0  0  0  0  0  0  0  0
    5.7205    1.9925   -0.4971 C   0  0  0  0  0  0  0  0  0  0  0  0
    5.9360    1.7107    0.8371 O   0  0  0  0  0  0  0  0  0  0  0  0
    5.9412    0.3695    1.1530 C   0  0  0  0  0  0  0  0  0  0  0  0
    7.2852   -0.1226    1.6508 C   0  0  0  0  0  0  0  0  0  0  0  0
    7.4764    0.1408    3.0044 O   0  0  0  0  0  0  0  0  0  0  0  0
    8.5092    1.0709    3.1411 C   0  0  0  0  0  0  0  0  0  0  0  0
    3.1245   -1.7787   -1.5577 C   0  0  2  0  0  0  0  0  0  0  0  0
    4.7160   -2.0573   -1.7326 C   0  0  0  0  0  0  0  0  0  0  0  0
    2.6701   -1.7915   -3.2107 C   0  0  1  0  0  0  0  0  0  0  0  0
    3.9120   -2.4454   -3.7684 O   0  0  0  0  0  0  0  0  0  0  0  0
    1.9481   -3.2392   -3.0639 C   0  0  1  0  0  0  0  0  0  0  0  0
    2.6051   -4.1120   -2.1463 C   0  0  0  0  0  0  0  0  0  0  0  0
    1.7852   -3.6036   -4.3759 O   0  0  0  0  0  0  0  0  0  0  0  0
  1  2  1  0
  3  2  1  1
  3  4  1  0
  4  5  1  0
  5  6  2  0
  5  7  1  0
  7  8  1  6
  7  9  1  0
  9 10  1  1
 11 10  1  1
 11 12  1  0
 12 13  1  0
 13 14  1  1
 13 15  1  0
 15 16  1  0
 13 17  1  0
 17 18  1  1
 17 19  1  0
 19 20  1  6
 19 21  1  0
  9 22  1  0
 22 23  1  1
 22 24  1  0
 24 25  1  1
 26 25  1  1
 26 27  1  0
 27 28  1  0
 28 29  1  6
 28 30  1  0
 30 31  1  0
 31 32  1  1
 32 33  1  0
 32 34  1  0
 31 35  1  0
 35 36  1  1
 24 37  1  0
 37 38  1  1
 37 39  1  0
 37 40  1  0
 40 41  1  0
 41 42  1  6
 41 43  1  0
 43 44  2  0
 44 45  1  0
 45 46  1  0
 46 47  1  0
 47 48  1  0
 48 49  1  0
 49 50  1  0
 50 51  1  0
 43 52  1  0
 52 53  1  6
 52 54  1  0
 54 55  1  6
 54 56  1  0
 56 57  1  1
 56 58  1  0
 56  3  1  0
 21 11  1  0
 35 26  1  0
M  END
>  <zinc_id>  (1) 
ZINC000096006016

>  <smiles>  (1) 
CC[C@H]1OC(=O)[C@H](C)[C@@H](O[C@H]2C[C@@](C)(OC)[C@@H](O)[C@H](C)O2)[C@H](C)[C@@H](O[C@@H]2O[C@H](C)C[C@H](N(C)C)[C@H]2O)[C@](C)(O)C[C@@H](C)/C(=N\OCOCCOC)[C@H](C)[C@@H](O)[C@]1(C)O

$$$$
