
     RDKit          3D

 57 60  0  0  0  0  0  0  0  0999 V2000
    0.0305    4.2715    2.6900 C   0  0  0  0  0  0  0  0  0  0  0  0
   -0.3416    4.5989    2.2476 C   0  0  0  0  0  0  0  0  0  0  0  0
   -1.4062    5.4533    1.7309 C   0  0  0  0  0  0  0  0  0  0  0  0
   -1.1795    5.7772    0.1462 C   0  0  2  0  0  0  0  0  0  0  0  0
   -2.0700    4.5284   -0.3525 C   0  0  0  0  0  0  0  0  0  0  0  0
   -3.2742    4.3833    0.0854 C   0  0  0  0  0  0  0  0  0  0  0  0
   -4.4952    4.6344   -0.7622 C   0  0  0  0  0  0  0  0  0  0  0  0
   -3.5188    3.2869    1.0837 C   0  0  0  0  0  0  0  0  0  0  0  0
   -2.8949    1.9928    0.3021 C   0  0  2  0  0  0  0  0  0  0  0  0
   -4.1299    1.9688   -0.7684 C   0  0  0  0  0  0  0  0  0  0  0  0
   -3.4491    0.9062    1.3780 C   0  0  0  0  0  0  0  0  0  0  0  0
   -4.8551    0.3594    0.7724 C   0  0  2  0  0  0  0  0  0  0  0  0
   -5.0359   -0.6555    1.8734 O   0  0  0  0  0  0  0  0  0  0  0  0
   -4.7174   -0.0391    3.0764 C   0  0  0  0  0  0  0  0  0  0  0  0
   -4.0875   -0.6966   -0.3531 C   0  0  1  0  0  0  0  0  0  0  0  0
   -3.2899   -1.4715    0.6329 O   0  0  0  0  0  0  0  0  0  0  0  0
   -2.2986   -2.0853   -0.1687 C   0  0  1  0  0  0  0  0  0  0  0  0
   -1.9130   -1.1254   -0.8859 O   0  0  0  0  0  0  0  0  0  0  0  0
   -1.8630   -3.0939    0.7011 C   0  0  0  0  0  0  0  0  0  0  0  0
   -2.7110   -3.6891    1.4565 O   0  0  0  0  0  0  0  0  0  0  0  0
   -0.8925   -4.0907    0.2029 C   0  0  0  0  0  0  0  0  0  0  0  0
   -0.9562   -5.3288    0.4999 O   0  0  0  0  0  0  0  0  0  0  0  0
    0.0651   -3.5885   -0.7504 N   0  0  0  0  0  0  0  0  0  0  0  0
    1.1530   -4.5291   -1.0021 C   0  0  0  0  0  0  0  0  0  0  0  0
    1.5369   -5.1804    0.3339 C   0  0  0  0  0  0  0  0  0  0  0  0
    1.5201   -4.0126    1.3227 C   0  0  0  0  0  0  0  0  0  0  0  0
    1.7212   -2.8240    0.6231 C   0  0  0  0  0  0  0  0  0  0  0  0
    0.4639   -2.1747   -0.1919 C   0  0  1  0  0  0  0  0  0  0  0  0
    1.3863   -1.8247   -1.4787 C   0  0  0  0  0  0  0  0  0  0  0  0
    0.8094   -2.0569   -2.5881 O   0  0  0  0  0  0  0  0  0  0  0  0
    1.2179   -0.6516   -0.7244 O   0  0  0  0  0  0  0  0  0  0  0  0
    2.0186    0.5163   -1.1485 C   0  0  2  0  0  0  0  0  0  0  0  0
    2.7771    0.8529    0.2641 C   0  0  0  0  0  0  0  0  0  0  0  0
    3.8483    1.9062    0.1631 C   0  0  0  0  0  0  0  0  0  0  0  0
    3.3244   -0.1687    0.7146 C   0  0  0  0  0  0  0  0  0  0  0  0
    4.7230   -0.4944    1.3713 C   0  0  2  0  0  0  0  0  0  0  0  0
    5.3555    0.9953    1.1414 C   0  0  0  0  0  0  0  0  0  0  0  0
    6.8197    0.7012    1.4872 C   0  0  0  0  0  0  0  0  0  0  0  0
    7.4917    0.0650    0.1396 C   0  0  1  0  0  0  0  0  0  0  0  0
    8.7667   -0.2664    0.8771 O   0  0  0  0  0  0  0  0  0  0  0  0
    6.8525   -1.4929    0.4962 C   0  0  2  0  0  0  0  0  0  0  0  0
    7.2701   -1.9920   -0.8650 O   0  0  0  0  0  0  0  0  0  0  0  0
    7.6358   -3.3205   -0.6998 C   0  0  0  0  0  0  0  0  0  0  0  0
    5.3687   -1.0514   -0.0345 C   0  0  0  0  0  0  0  0  0  0  0  0
    0.6966    1.5673   -0.9102 C   0  0  2  0  0  0  0  0  0  0  0  0
    0.5071    1.7734   -2.4891 C   0  0  0  0  0  0  0  0  0  0  0  0
    1.5670    2.9843   -0.5672 C   0  0  1  0  0  0  0  0  0  0  0  0
    2.2236    3.1854   -1.9186 O   0  0  0  0  0  0  0  0  0  0  0  0
    0.2978    3.9275   -0.9768 C   0  0  0  0  0  0  0  0  0  0  0  0
    0.2439    5.0239    0.0238 C   0  0  0  0  0  0  0  0  0  0  0  0
    1.0087    5.9293   -0.3322 O   0  0  0  0  0  0  0  0  0  0  0  0
   -3.1118   -3.0726   -1.2279 C   0  0  2  0  0  0  0  0  0  0  0  0
   -3.4799   -1.9861   -2.3990 C   0  0  0  0  0  0  0  0  0  0  0  0
   -4.5452   -3.1746   -0.5232 C   0  0  0  0  0  0  0  0  0  0  0  0
   -5.3703   -1.8278   -0.2530 C   0  0  2  0  0  0  0  0  0  0  0  0
   -5.7466   -1.6122   -1.7056 O   0  0  0  0  0  0  0  0  0  0  0  0
   -7.0681   -2.0114   -1.7607 C   0  0  0  0  0  0  0  0  0  0  0  0
  1  2  2  0
  2  3  1  0
  4  3  1  1
  4  5  1  0
  5  6  2  0
  6  7  1  0
  6  8  1  0
  8  9  1  0
  9 10  1  6
  9 11  1  0
 11 12  1  0
 12 13  1  1
 13 14  1  0
 12 15  1  0
 15 16  1  1
 16 17  1  0
 17 18  1  6
 17 19  1  0
 19 20  2  0
 19 21  1  0
 21 22  2  0
 21 23  1  0
 23 24  1  0
 24 25  1  0
 25 26  1  0
 26 27  1  0
 28 27  1  1
 28 29  1  0
 29 30  2  0
 29 31  1  0
 31 32  1  0
 32 33  1  1
 33 34  1  0
 33 35  2  0
 36 35  1  6
 36 37  1  0
 37 38  1  0
 38 39  1  0
 39 40  1  1
 39 41  1  0
 41 42  1  6
 42 43  1  0
 41 44  1  0
 32 45  1  0
 45 46  1  6
 45 47  1  0
 47 48  1  6
 47 49  1  0
 49 50  1  0
 50 51  2  0
 17 52  1  0
 52 53  1  6
 52 54  1  0
 54 55  1  0
 55 56  1  6
 56 57  1  0
 50  4  1  0
 55 15  1  0
 28 23  1  0
 44 36  1  0
M  END
>  <zinc_id>  (1) 
ZINC000169289411

>  <smiles>  (1) 
C=CC[C@@H]1/C=C(\C)C[C@H](C)C[C@H](OC)[C@H]2O[C@@](O)(C(=O)C(=O)N3CCCC[C@H]3C(=O)O[C@H](/C(C)=C/[C@@H]3CC[C@@H](O)[C@H](OC)C3)[C@H](C)[C@@H](O)CC1=O)[C@H](C)C[C@@H]2OC

$$$$
