
     RDKit          2D

 58 63  0  0  0  0  0  0  0  0999 V2000
    1.4725   -3.0929    0.0000 C   0  0  0  0  0  0  0  0  0  0  0  0
    2.9662   -2.9556    0.0000 C   0  0  0  0  0  0  0  0  0  0  0  0
    3.8319   -4.1806    0.0000 O   0  0  0  0  0  0  0  0  0  0  0  0
    3.5942   -1.5934    0.0000 O   0  0  0  0  0  0  0  0  0  0  0  0
    5.0879   -1.4562    0.0000 C   0  0  0  0  0  0  0  0  0  0  0  0
    4.8339   -2.9345    0.0000 C   0  0  0  0  0  0  0  0  0  0  0  0
    6.3122   -3.1885    0.0000 O   0  0  0  0  0  0  0  0  0  0  0  0
    6.5662   -1.7102    0.0000 C   0  0  0  0  0  0  0  0  0  0  0  0
    7.5254   -0.5569    0.0000 C   0  0  0  0  0  0  0  0  0  0  0  0
    7.0062    0.8504    0.0000 C   0  0  0  0  0  0  0  0  0  0  0  0
    7.9653    2.0037    0.0000 O   0  0  0  0  0  0  0  0  0  0  0  0
    5.5279    1.1044    0.0000 C   0  0  0  0  0  0  0  0  0  0  0  0
    6.6293    2.1226    0.0000 C   0  0  0  0  0  0  0  0  0  0  0  0
    5.3906    2.5981    0.0000 C   0  0  0  0  0  0  0  0  0  0  0  0
    6.7181    3.2965    0.0000 O   0  0  0  0  0  0  0  0  0  0  0  0
    4.2373    3.5573    0.0000 C   0  0  0  0  0  0  0  0  0  0  0  0
    4.6821    4.9898    0.0000 O   0  0  0  0  0  0  0  0  0  0  0  0
    2.7436    3.4200    0.0000 C   0  0  0  0  0  0  0  0  0  0  0  0
    1.2596    3.6990    0.0000 C   0  0  0  0  0  0  0  0  0  0  0  0
    0.9285    5.1620    0.0000 C   0  0  0  0  0  0  0  0  0  0  0  0
    0.1581    2.6808    0.0000 C   0  0  0  0  0  0  0  0  0  0  0  0
   -1.2744    3.1256    0.0000 O   0  0  0  0  0  0  0  0  0  0  0  0
   -2.3759    2.1074    0.0000 C   0  0  0  0  0  0  0  0  0  0  0  0
   -2.0448    0.6444    0.0000 O   0  0  0  0  0  0  0  0  0  0  0  0
   -3.8084    2.5522    0.0000 C   0  0  0  0  0  0  0  0  0  0  0  0
   -4.1395    4.0152    0.0000 O   0  0  0  0  0  0  0  0  0  0  0  0
   -4.9099    1.5340    0.0000 C   0  0  0  0  0  0  0  0  0  0  0  0
   -4.5788    0.0710    0.0000 N   0  0  0  0  0  0  0  0  0  0  0  0
   -5.6803   -0.9472    0.0000 C   0  0  0  0  0  0  0  0  0  0  0  0
   -7.1128   -0.5024    0.0000 O   0  0  0  0  0  0  0  0  0  0  0  0
   -5.3492   -2.4103    0.0000 O   0  0  0  0  0  0  0  0  0  0  0  0
   -6.4507   -3.4285    0.0000 C   0  0  0  0  0  0  0  0  0  0  0  0
   -5.4325   -4.5299    0.0000 C   0  0  0  0  0  0  0  0  0  0  0  0
   -7.4689   -2.3270    0.0000 C   0  0  0  0  0  0  0  0  0  0  0  0
   -7.5522   -4.4467    0.0000 C   0  0  0  0  0  0  0  0  0  0  0  0
   -6.3424    1.9788    0.0000 C   0  0  0  0  0  0  0  0  0  0  0  0
   -6.6735    3.4418    0.0000 C   0  0  0  0  0  0  0  0  0  0  0  0
   -8.1060    3.8866    0.0000 C   0  0  0  0  0  0  0  0  0  0  0  0
   -9.2075    2.8684    0.0000 C   0  0  0  0  0  0  0  0  0  0  0  0
   -8.8764    1.4054    0.0000 C   0  0  0  0  0  0  0  0  0  0  0  0
   -7.4439    0.9606    0.0000 C   0  0  0  0  0  0  0  0  0  0  0  0
    0.4892    1.2178    0.0000 C   0  0  0  0  0  0  0  0  0  0  0  0
    1.9217    0.7730    0.0000 C   0  0  0  0  0  0  0  0  0  0  0  0
    0.5943    0.0746    0.0000 O   0  0  0  0  0  0  0  0  0  0  0  0
    3.0750   -0.1861    0.0000 C   0  0  0  0  0  0  0  0  0  0  0  0
    2.6302   -1.6187    0.0000 O   0  0  0  0  0  0  0  0  0  0  0  0
    1.1672   -1.9497    0.0000 C   0  0  0  0  0  0  0  0  0  0  0  0
    0.1490   -0.8483    0.0000 O   0  0  0  0  0  0  0  0  0  0  0  0
    0.7224   -3.3823    0.0000 C   0  0  0  0  0  0  0  0  0  0  0  0
   -0.7406   -3.7133    0.0000 C   0  0  0  0  0  0  0  0  0  0  0  0
   -1.1854   -5.1459    0.0000 C   0  0  0  0  0  0  0  0  0  0  0  0
   -0.1672   -6.2473    0.0000 C   0  0  0  0  0  0  0  0  0  0  0  0
    1.2958   -5.9163    0.0000 C   0  0  0  0  0  0  0  0  0  0  0  0
    1.7406   -4.4837    0.0000 C   0  0  0  0  0  0  0  0  0  0  0  0
    4.5687   -0.0489    0.0000 C   0  0  0  0  0  0  0  0  0  0  0  0
    1.7845    2.2667    0.0000 C   0  0  0  0  0  0  0  0  0  0  0  0
    0.6975    2.1477    0.0000 C   0  0  0  0  0  0  0  0  0  0  0  0
    0.6481    3.2458    0.0000 C   0  0  0  0  0  0  0  0  0  0  0  0
  1  2  1  0
  2  3  2  0
  2  4  1  0
  5  4  1  6
  5  6  1  0
  6  7  1  0
  8  7  1  1
  8  9  1  0
  9 10  1  0
 10 11  1  1
 10 12  1  0
 12 13  1  1
 12 14  1  0
 14 15  2  0
 14 16  1  0
 16 17  1  1
 16 18  1  0
 18 19  2  0
 19 20  1  0
 19 21  1  0
 21 22  1  6
 22 23  1  0
 23 24  2  0
 25 23  1  1
 25 26  1  0
 25 27  1  0
 27 28  1  1
 28 29  1  0
 29 30  2  0
 29 31  1  0
 31 32  1  0
 32 33  1  0
 32 34  1  0
 32 35  1  0
 27 36  1  0
 36 37  2  0
 37 38  1  0
 38 39  2  0
 39 40  1  0
 40 41  2  0
 21 42  1  0
 42 43  1  0
 43 44  1  1
 43 45  1  0
 45 46  1  6
 46 47  1  0
 47 48  2  0
 47 49  1  0
 49 50  2  0
 50 51  1  0
 51 52  2  0
 52 53  1  0
 53 54  2  0
 55 45  1  1
 43 56  1  0
 56 57  1  0
 56 58  1  0
  8  5  1  0
 55 12  1  0
 55  5  1  0
 56 18  1  0
 41 36  1  0
 54 49  1  0
M  END
>  <zinc_id>  (1) 
ZINC000085537053

>  <smiles>  (1) 
CC(=O)O[C@@]12CO[C@@H]1C[C@H](O)[C@@]1(C)C(=O)[C@H](O)C3=C(C)[C@@H](OC(=O)[C@H](O)[C@@H](NC(=O)OC(C)(C)C)c4ccccc4)C[C@@](O)([C@@H](OC(=O)c4ccccc4)[C@@H]12)C3(C)C

$$$$
