
     RDKit          3D

 53 56  0  0  0  0  0  0  0  0999 V2000
   -4.2507   -3.6243   -3.0292 C   0  0  0  0  0  0  0  0  0  0  0  0
   -4.2014   -3.9989   -1.8194 C   0  0  0  0  0  0  0  0  0  0  0  0
   -2.8636   -3.1948   -1.2814 C   0  0  1  0  0  0  0  0  0  0  0  0
   -3.7315   -2.0368   -0.7582 O   0  0  0  0  0  0  0  0  0  0  0  0
   -3.1002   -0.8356   -1.1713 C   0  0  0  0  0  0  0  0  0  0  0  0
   -3.7563    0.1442   -1.5325 O   0  0  0  0  0  0  0  0  0  0  0  0
   -2.0777   -0.6638    0.0375 C   0  0  2  0  0  0  0  0  0  0  0  0
   -3.2177   -0.0911    1.0410 C   0  0  0  0  0  0  0  0  0  0  0  0
   -1.3288    0.7995   -0.4264 C   0  0  1  0  0  0  0  0  0  0  0  0
   -2.2262    1.7281    0.3362 O   0  0  0  0  0  0  0  0  0  0  0  0
   -1.6930    3.0745   -0.1308 C   0  0  1  0  0  0  0  0  0  0  0  0
   -3.1106    3.5664   -0.8460 C   0  0  0  0  0  0  0  0  0  0  0  0
   -3.1403    5.0263   -0.5189 C   0  0  1  0  0  0  0  0  0  0  0  0
   -1.7714    5.6494   -0.3952 C   0  0  0  0  0  0  0  0  0  0  0  0
   -3.8771    5.8056   -1.3697 O   0  0  0  0  0  0  0  0  0  0  0  0
   -3.0534    6.5730   -2.2130 C   0  0  0  0  0  0  0  0  0  0  0  0
   -3.8296    5.1658    0.9599 C   0  0  1  0  0  0  0  0  0  0  0  0
   -5.2019    4.8240    0.4386 O   0  0  0  0  0  0  0  0  0  0  0  0
   -3.5247    3.5129    1.3243 C   0  0  2  0  0  0  0  0  0  0  0  0
   -3.5324    3.8125    2.9352 C   0  0  0  0  0  0  0  0  0  0  0  0
   -2.0446    3.7171    1.2127 O   0  0  0  0  0  0  0  0  0  0  0  0
   -0.1768    0.5656    0.8011 C   0  0  2  0  0  0  0  0  0  0  0  0
    0.4038    2.0541    0.8679 C   0  0  0  0  0  0  0  0  0  0  0  0
    1.0918    0.1302   -0.2517 C   0  0  1  0  0  0  0  0  0  0  0  0
    2.1863    0.4536    0.7435 O   0  0  0  0  0  0  0  0  0  0  0  0
    2.9339    1.3830   -0.2080 C   0  0  2  0  0  0  0  0  0  0  0  0
    3.2230    0.2524   -1.1855 O   0  0  0  0  0  0  0  0  0  0  0  0
    3.9272    1.0603   -2.2602 C   0  0  2  0  0  0  0  0  0  0  0  0
    4.1004   -0.2574   -3.2350 C   0  0  0  0  0  0  0  0  0  0  0  0
    5.3984    0.7998   -1.5617 C   0  0  0  0  0  0  0  0  0  0  0  0
    5.2499    2.0284   -0.4972 C   0  0  2  0  0  0  0  0  0  0  0  0
    6.6554    1.7727    0.1114 N   0  0  0  0  0  0  0  0  0  0  0  0
    7.5919    1.6463   -0.9742 C   0  0  0  0  0  0  0  0  0  0  0  0
    6.6692    0.7434    1.0582 C   0  0  0  0  0  0  0  0  0  0  0  0
    7.8075    1.0033    2.0088 C   0  0  0  0  0  0  0  0  0  0  0  0
    6.6516   -0.6582    0.5454 C   0  0  0  0  0  0  0  0  0  0  0  0
    4.4069    1.0591    0.6186 C   0  0  1  0  0  0  0  0  0  0  0  0
    4.1732    2.2160    1.5310 O   0  0  0  0  0  0  0  0  0  0  0  0
    1.1051   -1.4544    0.0871 C   0  0  1  0  0  0  0  0  0  0  0  0
    1.1237   -1.8820   -1.3372 C   0  0  0  0  0  0  0  0  0  0  0  0
    2.3008   -1.9469    0.7864 C   0  0  0  0  0  0  0  0  0  0  0  0
    1.7264   -3.2646    1.2535 C   0  0  0  0  0  0  0  0  0  0  0  0
    2.1856   -4.5790    0.6830 C   0  0  0  0  0  0  0  0  0  0  0  0
    0.4851   -3.0638    1.4361 C   0  0  0  0  0  0  0  0  0  0  0  0
    0.1501   -1.8364    0.9301 O   0  0  0  0  0  0  0  0  0  0  0  0
   -0.8076   -3.8958    1.8709 C   0  0  2  0  0  0  0  0  0  0  0  0
   -0.0548   -5.3580    1.8717 C   0  0  0  0  0  0  0  0  0  0  0  0
   -1.3436   -4.0119    0.3584 C   0  0  0  0  0  0  0  0  0  0  0  0
   -0.6602   -4.5701   -0.4651 O   0  0  0  0  0  0  0  0  0  0  0  0
   -2.7763   -4.0617    0.1131 C   0  0  1  0  0  0  0  0  0  0  0  0
   -3.7530   -3.7067    1.0633 C   0  0  0  0  0  0  0  0  0  0  0  0
   -2.9929   -5.3998   -0.3027 O   0  0  0  0  0  0  0  0  0  0  0  0
   -3.4486   -6.1754    0.7452 C   0  0  0  0  0  0  0  0  0  0  0  0
  1  2  1  0
  3  2  1  6
  3  4  1  0
  4  5  1  0
  5  6  2  0
  5  7  1  0
  7  8  1  1
  7  9  1  0
  9 10  1  1
 11 10  1  1
 11 12  1  0
 12 13  1  0
 13 14  1  1
 13 15  1  0
 15 16  1  0
 13 17  1  0
 17 18  1  6
 17 19  1  0
 19 20  1  1
 19 21  1  0
  9 22  1  0
 22 23  1  6
 22 24  1  0
 24 25  1  1
 26 25  1  1
 26 27  1  0
 27 28  1  0
 28 29  1  6
 28 30  1  0
 30 31  1  0
 31 32  1  1
 32 33  1  0
 32 34  1  0
 34 35  1  0
 34 36  1  0
 31 37  1  0
 37 38  1  1
 24 39  1  0
 39 40  1  6
 39 41  1  0
 41 42  1  0
 42 43  1  0
 42 44  2  0
 44 45  1  0
 44 46  1  0
 46 47  1  6
 46 48  1  0
 48 49  2  0
 48 50  1  0
 50 51  1  1
 50 52  1  0
 52 53  1  0
 50  3  1  0
 21 11  1  0
 37 26  1  0
 45 39  1  0
M  END
>  <zinc_id>  (1) 
ZINC000085537008

>  <smiles>  (1) 
CC[C@H]1OC(=O)[C@H](C)[C@@H](O[C@H]2C[C@@](C)(OC)[C@@H](O)[C@H](C)O2)[C@H](C)[C@@H](O[C@@H]2O[C@H](C)C[C@H](N(C)C(C)C)[C@H]2O)[C@@]2(C)CC(C)=C(O2)[C@H](C)C(=O)[C@]1(C)OC

$$$$
