
     RDKit          3D

 64 70  0  0  0  0  0  0  0  0999 V2000
    8.2299   -1.1571    2.8780 C   0  0  0  0  0  0  0  0  0  0  0  0
    7.7981   -1.6430    1.6726 O   0  0  0  0  0  0  0  0  0  0  0  0
    8.1135   -0.3928    0.8682 C   0  0  2  0  0  0  0  0  0  0  0  0
    6.6705    0.1970    1.3216 C   0  0  0  0  0  0  0  0  0  0  0  0
    6.4773    1.4988    0.3168 C   0  0  2  0  0  0  0  0  0  0  0  0
    4.9312    1.4122    0.5000 O   0  0  0  0  0  0  0  0  0  0  0  0
    4.8129    0.9616    1.9243 C   0  0  2  0  0  0  0  0  0  0  0  0
    4.0337   -0.5744    1.7550 C   0  0  2  0  0  0  0  0  0  0  0  0
    3.8313   -0.6072    0.1408 C   0  0  0  0  0  0  0  0  0  0  0  0
    2.6472   -0.1134    2.0592 O   0  0  0  0  0  0  0  0  0  0  0  0
    1.9922    0.3368    0.7531 C   0  0  1  0  0  0  0  0  0  0  0  0
    0.8605    1.0366    1.5078 O   0  0  0  0  0  0  0  0  0  0  0  0
   -0.3369    0.8610    0.5765 C   0  0  2  0  0  0  0  0  0  0  0  0
   -0.0685   -0.6964    0.4130 C   0  0  0  0  0  0  0  0  0  0  0  0
    0.5160   -1.5565   -0.4655 C   0  0  0  0  0  0  0  0  0  0  0  0
   -0.3796   -1.0322    1.6849 C   0  0  0  0  0  0  0  0  0  0  0  0
   -1.7048   -0.7223    2.3258 C   0  0  0  0  0  0  0  0  0  0  0  0
   -2.5396   -1.7684    1.3515 C   0  0  2  0  0  0  0  0  0  0  0  0
   -3.1404   -0.4993    0.5105 C   0  0  0  0  0  0  0  0  0  0  0  0
   -3.5223   -1.1800   -0.9169 C   0  0  1  0  0  0  0  0  0  0  0  0
   -3.8881   -2.6190   -0.2386 C   0  0  0  0  0  0  0  0  0  0  0  0
   -4.5049   -2.5257    1.0576 C   0  0  1  0  0  0  0  0  0  0  0  0
   -5.9192   -2.2619    0.8327 C   0  0  0  0  0  0  0  0  0  0  0  0
   -6.4560   -3.0669   -0.1116 C   0  0  0  0  0  0  0  0  0  0  0  0
   -5.4258   -4.2700   -0.2873 C   0  0  2  0  0  0  0  0  0  0  0  0
   -6.5778   -5.3487   -0.6315 C   0  0  0  0  0  0  0  0  0  0  0  0
   -5.5284   -4.5825    1.3825 C   0  0  1  0  0  0  0  0  0  0  0  0
   -4.6857   -5.9819    1.2739 C   0  0  0  0  0  0  0  0  0  0  0  0
   -4.2830   -6.0962    2.7630 C   0  0  0  0  0  0  0  0  0  0  0  0
   -3.4588   -5.7439    0.4772 C   0  0  0  0  0  0  0  0  0  0  0  0
   -4.2732   -3.7927    1.6356 O   0  0  0  0  0  0  0  0  0  0  0  0
   -3.8766   -1.7833    2.0759 O   0  0  0  0  0  0  0  0  0  0  0  0
   -4.9532   -0.5882   -0.8431 O   0  0  0  0  0  0  0  0  0  0  0  0
   -4.7602    0.5905   -1.6204 C   0  0  0  0  0  0  0  0  0  0  0  0
   -5.7003    0.8601   -2.3561 O   0  0  0  0  0  0  0  0  0  0  0  0
   -4.2943    1.6186   -0.4553 C   0  0  2  0  0  0  0  0  0  0  0  0
   -5.5835    2.5392   -0.6426 C   0  0  0  0  0  0  0  0  0  0  0  0
   -5.8508    3.6239   -1.1466 C   0  0  0  0  0  0  0  0  0  0  0  0
   -7.1753    3.9723   -1.6495 C   0  0  0  0  0  0  0  0  0  0  0  0
   -4.7997    3.7280   -2.3582 C   0  0  1  0  0  0  0  0  0  0  0  0
   -4.9749    5.2424   -2.4261 O   0  0  0  0  0  0  0  0  0  0  0  0
   -3.3904    3.9514   -1.3918 C   0  0  1  0  0  0  0  0  0  0  0  0
   -3.9435    3.9866   -0.0075 O   0  0  0  0  0  0  0  0  0  0  0  0
   -3.0717    3.1778    0.7180 C   0  0  0  0  0  0  0  0  0  0  0  0
   -2.0633    2.6361   -0.3083 C   0  0  0  0  0  0  0  0  0  0  0  0
   -1.1910    3.6565   -0.2916 C   0  0  0  0  0  0  0  0  0  0  0  0
   -0.4943    3.5290   -1.5995 C   0  0  0  0  0  0  0  0  0  0  0  0
   -0.6232    2.1884   -1.6960 C   0  0  0  0  0  0  0  0  0  0  0  0
    0.4559    1.5643   -0.7529 C   0  0  2  0  0  0  0  0  0  0  0  0
    0.2798    0.3206   -1.8269 C   0  0  0  0  0  0  0  0  0  0  0  0
   -3.1212    2.3621   -1.3040 C   0  0  1  0  0  0  0  0  0  0  0  0
   -3.0368    2.0590   -2.5645 O   0  0  0  0  0  0  0  0  0  0  0  0
    2.8075    1.7914    0.6232 C   0  0  0  0  0  0  0  0  0  0  0  0
    3.3719    1.8722    2.1920 C   0  0  2  0  0  0  0  0  0  0  0  0
    4.1645    3.1159    2.1502 O   0  0  0  0  0  0  0  0  0  0  0  0
    4.6087    3.7644    1.2175 C   0  0  0  0  0  0  0  0  0  0  0  0
    6.2506    0.8002   -0.9988 O   0  0  0  0  0  0  0  0  0  0  0  0
    7.5478    0.3060   -1.5301 C   0  0  1  0  0  0  0  0  0  0  0  0
    8.5035    1.2524   -0.5946 C   0  0  0  0  0  0  0  0  0  0  0  0
    7.3337   -1.0366   -0.4957 C   0  0  1  0  0  0  0  0  0  0  0  0
    8.5368   -1.8421   -1.0232 N   0  0  0  0  0  0  0  0  0  0  0  0
    8.2264   -2.2860   -2.3534 C   0  0  0  0  0  0  0  0  0  0  0  0
    8.7213   -3.5930   -2.8870 C   0  0  0  0  0  0  0  0  0  0  0  0
    7.8744   -1.4518   -3.1837 O   0  0  0  0  0  0  0  0  0  0  0  0
  1  2  1  0
  3  2  1  1
  3  4  1  0
  4  5  1  0
  5  6  1  1
  7  6  1  6
  7  8  1  0
  8  9  1  6
  8 10  1  0
 10 11  1  0
 11 12  1  1
 13 12  1  1
 13 14  1  0
 14 15  1  0
 14 16  2  0
 16 17  1  0
 18 17  1  1
 18 19  1  0
 19 20  1  0
 20 21  1  1
 22 21  1  6
 22 23  1  0
 23 24  2  0
 24 25  1  0
 25 26  1  6
 25 27  1  0
 27 28  1  6
 28 29  1  0
 28 30  1  0
 27 31  1  0
 22 32  1  0
 20 33  1  0
 33 34  1  0
 34 35  2  0
 36 34  1  6
 36 37  1  0
 37 38  2  0
 38 39  1  0
 38 40  1  0
 40 41  1  6
 40 42  1  0
 42 43  1  1
 43 44  1  0
 44 45  1  0
 45 46  2  0
 46 47  1  0
 47 48  2  0
 48 49  1  0
 49 50  1  6
 45 51  1  0
 51 52  1  6
 11 53  1  0
 53 54  1  0
 54 55  1  6
 55 56  1  0
  5 57  1  0
 57 58  1  0
 58 59  1  1
 58 60  1  0
 60 61  1  6
 61 62  1  0
 62 63  1  0
 62 64  2  0
 60  3  1  0
 54  7  1  0
 49 13  1  0
 32 18  1  0
 51 36  1  0
 31 22  1  0
 51 42  1  0
M  END
>  <zinc_id>  (1) 
ZINC000306122586

>  <smiles>  (1) 
CO[C@H]1C[C@H](O[C@@H]2/C(C)=C\C[C@@H]3C[C@@H](C[C@]4(C=C[C@H](C)[C@@H](C(C)C)O4)O3)OC(=O)[C@@H]3C=C(C)[C@@H](O)[C@H]4OC/C(=C/C=C\[C@@H]2C)[C@@]34O)O[C@@H](C)[C@H]1O[C@H]1C[C@@H](OC)[C@H](NC(C)=O)[C@H](C)O1

$$$$
