
     RDKit          3D

 55 61  0  0  0  0  0  0  0  0999 V2000
    6.4087   -5.6368    0.7375 C   0  0  0  0  0  0  0  0  0  0  0  0
    6.2403   -5.1562    0.4333 O   0  0  0  0  0  0  0  0  0  0  0  0
    6.7954   -3.7560    0.0933 C   0  0  1  0  0  0  0  0  0  0  0  0
    5.4886   -3.5353   -0.8343 C   0  0  0  0  0  0  0  0  0  0  0  0
    4.4414   -2.4726   -0.2382 C   0  0  2  0  0  0  0  0  0  0  0  0
    4.2412   -1.5003   -1.4269 O   0  0  0  0  0  0  0  0  0  0  0  0
    3.4584   -0.8020   -0.2961 C   0  0  2  0  0  0  0  0  0  0  0  0
    2.0200   -0.6286   -0.9930 C   0  0  0  0  0  0  0  0  0  0  0  0
    1.3941    0.1913    0.1327 C   0  0  0  0  0  0  0  0  0  0  0  0
    1.1693   -1.6727   -0.9533 C   0  0  0  0  0  0  0  0  0  0  0  0
    0.1747   -2.3082   -1.6151 C   0  0  0  0  0  0  0  0  0  0  0  0
   -1.3362   -1.6633   -1.6493 C   0  0  2  0  0  0  0  0  0  0  0  0
   -0.7895   -0.1665   -1.9984 C   0  0  0  0  0  0  0  0  0  0  0  0
   -1.9197    0.9151   -1.4946 C   0  0  1  0  0  0  0  0  0  0  0  0
   -3.0688   -0.2486   -1.3459 C   0  0  0  0  0  0  0  0  0  0  0  0
   -2.8054   -1.0870   -0.1518 C   0  0  1  0  0  0  0  0  0  0  0  0
   -3.2705   -0.4376    1.1336 C   0  0  0  0  0  0  0  0  0  0  0  0
   -4.5560    0.2671    0.7120 C   0  0  0  0  0  0  0  0  0  0  0  0
   -5.3553   -0.7491   -0.2643 C   0  0  2  0  0  0  0  0  0  0  0  0
   -6.7147   -0.5981    0.6000 C   0  0  0  0  0  0  0  0  0  0  0  0
   -4.7928   -2.1067    0.6037 C   0  0  1  0  0  0  0  0  0  0  0  0
   -5.5604   -3.1744   -0.3781 C   0  0  0  0  0  0  0  0  0  0  0  0
   -4.8582   -4.4251    0.1428 C   0  0  0  0  0  0  0  0  0  0  0  0
   -5.6258   -5.6724   -0.0508 C   0  0  0  0  0  0  0  0  0  0  0  0
   -7.0728   -5.5822    0.3461 C   0  0  0  0  0  0  0  0  0  0  0  0
   -7.6661   -4.4303   -0.4347 C   0  0  0  0  0  0  0  0  0  0  0  0
   -7.0089   -3.1431   -0.0526 C   0  0  0  0  0  0  0  0  0  0  0  0
   -3.5501   -2.2178   -0.2502 O   0  0  0  0  0  0  0  0  0  0  0  0
   -1.4294   -1.4062   -0.1542 O   0  0  0  0  0  0  0  0  0  0  0  0
   -1.5204    0.8611   -0.0268 O   0  0  0  0  0  0  0  0  0  0  0  0
   -0.4345    1.6472    0.1456 C   0  0  0  0  0  0  0  0  0  0  0  0
    0.0216    1.3026    1.2801 O   0  0  0  0  0  0  0  0  0  0  0  0
   -0.8849    3.1413    0.4680 C   0  0  2  0  0  0  0  0  0  0  0  0
   -1.9616    3.4083   -0.7188 C   0  0  0  0  0  0  0  0  0  0  0  0
   -2.4358    4.6162   -0.3471 C   0  0  0  0  0  0  0  0  0  0  0  0
   -3.8230    5.0475   -0.3171 C   0  0  0  0  0  0  0  0  0  0  0  0
   -1.4689    5.3423    0.4914 C   0  0  0  0  0  0  0  0  0  0  0  0
   -1.7165    6.2888    1.2740 N   0  0  0  0  0  0  0  0  0  0  0  0
   -0.6645    6.6531    2.0987 O   0  0  0  0  0  0  0  0  0  0  0  0
   -0.1092    5.4460   -0.3797 C   0  0  1  0  0  0  0  0  0  0  0  0
    0.7371    5.7760    0.8407 O   0  0  0  0  0  0  0  0  0  0  0  0
    1.8806    5.3995    0.1087 C   0  0  0  0  0  0  0  0  0  0  0  0
    1.6071    3.8993    0.2824 C   0  0  0  0  0  0  0  0  0  0  0  0
    2.2738    3.3990    1.2946 C   0  0  0  0  0  0  0  0  0  0  0  0
    3.4505    2.5071    1.1350 C   0  0  0  0  0  0  0  0  0  0  0  0
    3.2909    1.5020    0.5207 C   0  0  0  0  0  0  0  0  0  0  0  0
    4.0954    0.7628   -0.6267 C   0  0  2  0  0  0  0  0  0  0  0  0
    3.0671    1.2552   -1.7838 C   0  0  0  0  0  0  0  0  0  0  0  0
    0.3377    3.8552   -0.3195 C   0  0  1  0  0  0  0  0  0  0  0  0
    0.2715    3.5586   -1.6517 O   0  0  0  0  0  0  0  0  0  0  0  0
    5.6521   -1.6346    0.1909 O   0  0  0  0  0  0  0  0  0  0  0  0
    5.5167   -1.9751    1.6468 C   0  0  1  0  0  0  0  0  0  0  0  0
    4.2170   -2.9989    1.6382 C   0  0  0  0  0  0  0  0  0  0  0  0
    6.4704   -3.3809    1.7213 C   0  0  2  0  0  0  0  0  0  0  0  0
    7.6784   -2.4761    1.8332 O   0  0  0  0  0  0  0  0  0  0  0  0
  1  2  1  0
  3  2  1  1
  3  4  1  0
  4  5  1  0
  5  6  1  6
  7  6  1  6
  7  8  1  0
  8  9  1  0
  8 10  2  0
 10 11  1  0
 12 11  1  1
 12 13  1  0
 13 14  1  0
 14 15  1  1
 16 15  1  6
 16 17  1  0
 17 18  1  0
 18 19  1  0
 19 20  1  1
 19 21  1  0
 21 22  1  6
 22 23  1  0
 23 24  1  0
 24 25  1  0
 25 26  1  0
 26 27  1  0
 21 28  1  0
 16 29  1  0
 14 30  1  0
 30 31  1  0
 31 32  2  0
 33 31  1  6
 33 34  1  0
 34 35  2  0
 35 36  1  0
 35 37  1  0
 37 38  2  0
 38 39  1  0
 40 37  1  1
 40 41  1  0
 41 42  1  0
 42 43  1  0
 43 44  2  0
 44 45  1  0
 45 46  2  0
 46 47  1  0
 47 48  1  6
 43 49  1  0
 49 50  1  6
  5 51  1  0
 51 52  1  0
 52 53  1  6
 52 54  1  0
 54 55  1  1
 54  3  1  0
 47  7  1  0
 29 12  1  0
 49 33  1  0
 28 16  1  0
 49 40  1  0
 27 22  1  0
M  END
>  <zinc_id>  (1) 
ZINC000169677006

>  <smiles>  (1) 
CO[C@H]1C[C@H](O[C@@H]2/C(C)=C/C[C@@H]3C[C@@H](C[C@]4(CC[C@H](C)[C@@H](C5CCCCC5)O4)O3)OC(=O)[C@@H]3C=C(C)/C(=N/O)[C@H]4OC/C(=C\C=C\[C@@H]2C)[C@@]34O)O[C@@H](C)[C@@H]1O

$$$$
