
     RDKit          3D

 52 55  0  0  0  0  0  0  0  0999 V2000
    4.7466   -0.4671   -3.8671 C   0  0  0  0  0  0  0  0  0  0  0  0
    5.2446   -0.8973   -2.7434 C   0  0  0  0  0  0  0  0  0  0  0  0
    3.9514   -0.8578   -1.6953 C   0  0  1  0  0  0  0  0  0  0  0  0
    3.3588   -2.0851   -2.4423 O   0  0  0  0  0  0  0  0  0  0  0  0
    2.0584   -1.7914   -2.7799 C   0  0  0  0  0  0  0  0  0  0  0  0
    1.6070   -2.1316   -3.9130 O   0  0  0  0  0  0  0  0  0  0  0  0
    1.1760   -1.7857   -1.6383 C   0  0  0  0  0  0  0  0  0  0  0  0
    0.8417   -0.2024   -1.2179 C   0  0  1  0  0  0  0  0  0  0  0  0
    1.0847    0.3121   -2.6495 O   0  0  0  0  0  0  0  0  0  0  0  0
   -0.8627   -0.4676   -1.4008 C   0  0  2  0  0  0  0  0  0  0  0  0
   -1.0961    0.4312   -2.7084 C   0  0  0  0  0  0  0  0  0  0  0  0
   -1.2928    0.7892   -0.3119 C   0  0  1  0  0  0  0  0  0  0  0  0
   -2.6060    1.0173   -1.0461 O   0  0  0  0  0  0  0  0  0  0  0  0
   -3.5365    1.4144    0.1320 C   0  0  2  0  0  0  0  0  0  0  0  0
   -4.7457    0.7150   -0.5762 O   0  0  0  0  0  0  0  0  0  0  0  0
   -5.7449    1.0079    0.5497 C   0  0  2  0  0  0  0  0  0  0  0  0
   -6.9422    0.1591   -0.2392 C   0  0  0  0  0  0  0  0  0  0  0  0
   -6.2440    2.4766   -0.2557 C   0  0  1  0  0  0  0  0  0  0  0  0
   -7.2439    2.7769    0.8390 O   0  0  0  0  0  0  0  0  0  0  0  0
   -5.0120    3.3581    0.5617 C   0  0  2  0  0  0  0  0  0  0  0  0
   -5.4246    4.6717   -0.1774 N   0  0  0  0  0  0  0  0  0  0  0  0
   -4.3166    5.5851   -0.0628 C   0  0  0  0  0  0  0  0  0  0  0  0
   -6.5224    5.2466    0.5978 C   0  0  0  0  0  0  0  0  0  0  0  0
   -3.8914    2.9517   -0.6709 C   0  0  1  0  0  0  0  0  0  0  0  0
   -2.7618    3.6091    0.0782 O   0  0  0  0  0  0  0  0  0  0  0  0
   -2.0816   -0.2443    0.8397 C   0  0  1  0  0  0  0  0  0  0  0  0
   -1.0689   -1.5201    0.7005 C   0  0  0  0  0  0  0  0  0  0  0  0
   -2.0342   -2.5250    0.0764 C   0  0  0  0  0  0  0  0  0  0  0  0
   -2.8791   -3.1827    0.9919 N   0  0  0  0  0  0  0  0  0  0  0  0
   -4.1823   -2.6628    1.1932 C   0  0  0  0  0  0  0  0  0  0  0  0
   -5.1545   -2.8735    0.0718 C   0  0  0  0  0  0  0  0  0  0  0  0
   -4.8374   -4.0446   -0.8090 C   0  0  0  0  0  0  0  0  0  0  0  0
   -4.1486   -5.0715    0.0415 C   0  0  0  0  0  0  0  0  0  0  0  0
   -2.8647   -4.5984    0.6452 C   0  0  0  0  0  0  0  0  0  0  0  0
   -1.3202    0.3358    2.1762 C   0  0  0  0  0  0  0  0  0  0  0  0
    0.0885    0.9537    1.5645 C   0  0  1  0  0  0  0  0  0  0  0  0
   -0.3649    2.5157    1.9526 C   0  0  0  0  0  0  0  0  0  0  0  0
    0.9434    0.6980    2.9308 C   0  0  0  0  0  0  0  0  0  0  0  0
    0.8289    1.5111    3.8483 O   0  0  0  0  0  0  0  0  0  0  0  0
    2.2783    0.3686    2.3663 C   0  0  0  0  0  0  0  0  0  0  0  0
    2.3562   -0.9068    2.0247 C   0  0  0  0  0  0  0  0  0  0  0  0
    3.6247   -1.5948    1.7407 C   0  0  0  0  0  0  0  0  0  0  0  0
    4.2511   -2.3973    2.8470 C   0  0  0  0  0  0  0  0  0  0  0  0
    4.2666   -0.9910    0.7650 C   0  0  0  0  0  0  0  0  0  0  0  0
    4.6745   -1.9142   -0.5051 C   0  0  2  0  0  0  0  0  0  0  0  0
    6.1881   -1.3193   -0.6571 C   0  0  0  0  0  0  0  0  0  0  0  0
    6.4204   -0.1719    0.0949 N   0  0  0  0  0  0  0  0  0  0  0  0
    7.2764    0.6662   -0.7514 C   0  0  0  0  0  0  0  0  0  0  0  0
    7.7990    1.8706   -0.0591 C   0  0  0  0  0  0  0  0  0  0  0  0
    8.8520    1.3343    0.9101 C   0  0  0  0  0  0  0  0  0  0  0  0
    8.0009    0.5173    1.8755 C   0  0  0  0  0  0  0  0  0  0  0  0
    7.2621   -0.5889    1.2179 C   0  0  0  0  0  0  0  0  0  0  0  0
  1  2  1  0
  3  2  1  6
  3  4  1  0
  4  5  1  0
  5  6  2  0
  5  7  1  0
  7  8  1  0
  8  9  1  6
  8 10  1  0
 10 11  1  6
 10 12  1  0
 12 13  1  6
 14 13  1  6
 14 15  1  0
 15 16  1  0
 16 17  1  6
 16 18  1  0
 18 19  1  1
 18 20  1  0
 20 21  1  6
 21 22  1  0
 21 23  1  0
 20 24  1  0
 24 25  1  1
 12 26  1  0
 26 27  1  6
 27 28  1  0
 28 29  1  0
 29 30  1  0
 30 31  1  0
 31 32  1  0
 32 33  1  0
 33 34  1  0
 26 35  1  0
 35 36  1  0
 36 37  1  1
 36 38  1  0
 38 39  2  0
 38 40  1  0
 40 41  2  0
 41 42  1  0
 42 43  1  0
 42 44  2  0
 44 45  1  0
 45 46  1  6
 46 47  1  0
 47 48  1  0
 48 49  1  0
 49 50  1  0
 50 51  1  0
 51 52  1  0
 45  3  1  0
 52 47  1  0
 24 14  1  0
 34 29  1  0
M  END
>  <zinc_id>  (1) 
ZINC000096941865

>  <smiles>  (1) 
CC[C@H]1OC(=O)C[C@@H](O)[C@H](C)[C@@H](O[C@@H]2O[C@H](C)[C@@H](O)[C@H](N(C)C)[C@H]2O)[C@@H](CCN2CCCCC2)C[C@@H](C)C(=O)/C=C/C(C)=C/[C@@H]1CN1CCCCC1

$$$$
