
     RDKit          3D

 64 67  0  0  0  0  0  0  0  0999 V2000
   10.3342    1.2894    3.0951 C   0  0  0  0  0  0  0  0  0  0  0  0
    9.8315    0.0907    3.8842 C   0  0  0  0  0  0  0  0  0  0  0  0
    8.5941   -0.3853    3.1368 C   0  0  0  0  0  0  0  0  0  0  0  0
    7.7289    0.7847    2.8357 C   0  0  0  0  0  0  0  0  0  0  0  0
    7.7404    1.4615    1.7212 C   0  0  0  0  0  0  0  0  0  0  0  0
    6.5900    1.6595    0.8367 C   0  0  0  0  0  0  0  0  0  0  0  0
    5.3973    1.1680    1.0380 C   0  0  0  0  0  0  0  0  0  0  0  0
    4.6931    0.2996    0.1306 C   0  0  0  0  0  0  0  0  0  0  0  0
    4.6412   -0.9545    0.1834 O   0  0  0  0  0  0  0  0  0  0  0  0
    3.5346    0.6435   -0.4513 O   0  0  0  0  0  0  0  0  0  0  0  0
    3.5477    0.4997   -1.9927 C   0  0  1  0  0  0  0  0  0  0  0  0
    3.8275   -1.1028   -2.0114 C   0  0  0  0  0  0  0  0  0  0  0  0
    4.9291   -1.1787   -2.7911 C   0  0  0  0  0  0  0  0  0  0  0  0
    4.9665   -1.9446   -4.0495 C   0  0  0  0  0  0  0  0  0  0  0  0
    5.0620   -1.2778   -5.1483 O   0  0  0  0  0  0  0  0  0  0  0  0
    4.3252   -3.1638   -4.1884 O   0  0  0  0  0  0  0  0  0  0  0  0
    3.5493   -3.5551   -5.2949 C   0  0  0  0  0  0  0  0  0  0  0  0
    2.9168   -2.0602   -2.4355 C   0  0  0  0  0  0  0  0  0  0  0  0
    1.3677   -1.8895   -1.9321 C   0  0  1  0  0  0  0  0  0  0  0  0
    1.6334   -2.9355   -0.6807 C   0  0  0  0  0  0  0  0  0  0  0  0
    0.1561   -2.7949    0.0222 C   0  0  2  0  0  0  0  0  0  0  0  0
    0.5598   -3.6539    1.4671 C   0  0  1  0  0  0  0  0  0  0  0  0
    1.3568   -4.8741    0.7077 C   0  0  0  0  0  0  0  0  0  0  0  0
    1.8376   -2.8788    1.6867 O   0  0  0  0  0  0  0  0  0  0  0  0
   -0.4033   -4.0382   -0.6745 O   0  0  0  0  0  0  0  0  0  0  0  0
   -1.7695   -4.1888   -0.6790 C   0  0  0  0  0  0  0  0  0  0  0  0
   -2.3047   -5.3396   -0.7397 O   0  0  0  0  0  0  0  0  0  0  0  0
   -2.7107   -3.1326   -0.3130 C   0  0  0  0  0  0  0  0  0  0  0  0
   -3.2468   -2.5037   -1.7523 C   0  0  2  0  0  0  0  0  0  0  0  0
   -2.2589   -1.3473   -1.7060 O   0  0  0  0  0  0  0  0  0  0  0  0
   -4.4688   -1.5768   -1.1282 C   0  0  0  0  0  0  0  0  0  0  0  0
   -3.8983   -1.2371    0.3773 C   0  0  2  0  0  0  0  0  0  0  0  0
   -5.3454   -1.6618    1.0601 C   0  0  0  0  0  0  0  0  0  0  0  0
   -4.9758   -1.3867    2.6454 C   0  0  2  0  0  0  0  0  0  0  0  0
   -6.4612   -1.4236    3.0610 O   0  0  0  0  0  0  0  0  0  0  0  0
   -6.8936   -2.5027    3.7553 C   0  0  0  0  0  0  0  0  0  0  0  0
   -8.1107   -2.3307    4.5998 C   0  0  0  0  0  0  0  0  0  0  0  0
   -6.4940   -3.6217    3.3583 O   0  0  0  0  0  0  0  0  0  0  0  0
   -5.0801    0.2454    2.4479 C   0  0  0  0  0  0  0  0  0  0  0  0
   -5.4413    0.8619    3.6761 C   0  0  0  0  0  0  0  0  0  0  0  0
   -6.3166    0.5298    1.5769 C   0  0  0  0  0  0  0  0  0  0  0  0
   -3.9546    0.6348    1.6120 C   0  0  2  0  0  0  0  0  0  0  0  0
   -2.8176   -0.0929    2.0090 O   0  0  0  0  0  0  0  0  0  0  0  0
   -3.7914    2.1430    1.7355 C   0  0  0  0  0  0  0  0  0  0  0  0
   -2.2291    2.3286    2.2868 C   0  0  2  0  0  0  0  0  0  0  0  0
   -2.1086    3.9088    1.8095 C   0  0  0  0  0  0  0  0  0  0  0  0
   -2.8835    4.0965    0.6029 C   0  0  0  0  0  0  0  0  0  0  0  0
   -2.9085    5.3535    0.2026 C   0  0  0  0  0  0  0  0  0  0  0  0
   -2.7049    5.8166   -1.1663 C   0  0  0  0  0  0  0  0  0  0  0  0
   -1.7622    6.6401   -1.3824 O   0  0  0  0  0  0  0  0  0  0  0  0
   -3.8125    6.0637   -1.9827 O   0  0  0  0  0  0  0  0  0  0  0  0
   -3.9718    7.2693   -2.7327 C   0  0  0  0  0  0  0  0  0  0  0  0
   -2.5119    3.1562   -0.5074 C   0  0  0  0  0  0  0  0  0  0  0  0
   -1.0798    2.7311    0.2126 C   0  0  2  0  0  0  0  0  0  0  0  0
   -0.8137    1.5940   -0.9281 C   0  0  0  0  0  0  0  0  0  0  0  0
    0.4536    1.3187   -0.5417 C   0  0  0  0  0  0  0  0  0  0  0  0
    1.4204    1.6333   -1.5815 C   0  0  0  0  0  0  0  0  0  0  0  0
    2.5487    2.6084   -1.2946 C   0  0  0  0  0  0  0  0  0  0  0  0
    0.7965    2.5791   -2.5596 C   0  0  0  0  0  0  0  0  0  0  0  0
    1.9058    0.3348   -2.0430 C   0  0  1  0  0  0  0  0  0  0  0  0
    1.5931    0.0696   -3.3217 O   0  0  0  0  0  0  0  0  0  0  0  0
    1.6694   -0.6558   -1.0961 O   0  0  0  0  0  0  0  0  0  0  0  0
   -1.7045    1.6403    1.0353 O   0  0  0  0  0  0  0  0  0  0  0  0
   -4.2740    0.2353    0.2967 O   0  0  0  0  0  0  0  0  0  0  0  0
  1  2  1  0
  2  3  1  0
  3  4  1  0
  4  5  2  0
  5  6  1  0
  6  7  2  0
  7  8  1  0
  8  9  2  0
  8 10  1  0
 11 10  1  1
 11 12  1  0
 12 13  2  0
 13 14  1  0
 14 15  2  0
 14 16  1  0
 16 17  1  0
 12 18  1  0
 19 18  1  6
 19 20  1  0
 21 20  1  6
 21 22  1  0
 22 23  1  6
 22 24  1  0
 21 25  1  0
 25 26  1  0
 26 27  2  0
 26 28  1  0
 28 29  1  0
 29 30  1  1
 29 31  1  0
 32 31  1  6
 32 33  1  0
 33 34  1  0
 34 35  1  1
 35 36  1  0
 36 37  1  0
 36 38  2  0
 34 39  1  0
 39 40  1  0
 39 41  1  0
 39 42  1  0
 42 43  1  1
 42 44  1  0
 45 44  1  6
 45 46  1  0
 46 47  1  0
 47 48  2  0
 48 49  1  0
 49 50  2  0
 49 51  1  0
 51 52  1  0
 47 53  1  0
 54 53  1  6
 54 55  1  0
 55 56  2  0
 56 57  1  0
 57 58  1  0
 57 59  1  0
 57 60  1  0
 60 61  1  6
 60 62  1  0
 54 63  1  0
 42 64  1  0
 60 11  1  0
 62 19  1  0
 64 32  1  0
 63 45  1  0
M  END
>  <zinc_id>  (1) 
ZINC000169357315

>  <smiles>  (1) 
CCC/C=C/C=C/C(=O)O[C@H]1/C(=C/C(=O)OC)C[C@H]2C[C@H]([C@@H](C)O)OC(=O)C[C@H](O)C[C@@H]3C[C@H](OC(C)=O)C(C)(C)[C@](O)(C[C@@H]4C/C(=C/C(=O)OC)C[C@H](/C=C/C(C)(C)[C@]1(O)O2)O4)O3

$$$$
