
     RDKit          3D

 51 54  0  0  0  0  0  0  0  0999 V2000
    9.4478    4.6173    0.8424 C   0  0  0  0  0  0  0  0  0  0  0  0
    8.3585    4.4184    0.0980 C   0  0  0  0  0  0  0  0  0  0  0  0
    7.3623    3.4130    0.9265 C   0  0  2  0  0  0  0  0  0  0  0  0
    7.5685    4.1636    2.2196 O   0  0  0  0  0  0  0  0  0  0  0  0
    8.6456    2.3570    1.2703 C   0  0  1  0  0  0  0  0  0  0  0  0
    7.7251    1.4040    2.1577 C   0  0  0  0  0  0  0  0  0  0  0  0
    8.4886    1.6594   -0.2820 C   0  0  1  0  0  0  0  0  0  0  0  0
    8.5543    0.0769    0.1891 O   0  0  0  0  0  0  0  0  0  0  0  0
    7.0703    0.7699   -0.0729 C   0  0  2  0  0  0  0  0  0  0  0  0
    7.0412    0.2674   -1.6503 C   0  0  0  0  0  0  0  0  0  0  0  0
    6.6106   -1.1764   -1.5948 C   0  0  1  0  0  0  0  0  0  0  0  0
    6.9775   -1.7687   -2.9400 C   0  0  0  0  0  0  0  0  0  0  0  0
    7.3572   -1.8212   -0.5964 O   0  0  0  0  0  0  0  0  0  0  0  0
    5.1789   -1.3041   -1.2936 C   0  0  0  0  0  0  0  0  0  0  0  0
    4.5827   -2.4267   -0.9500 C   0  0  0  0  0  0  0  0  0  0  0  0
    3.2635   -2.3515   -0.3055 C   0  0  0  0  0  0  0  0  0  0  0  0
    2.2540   -2.9046   -0.9209 C   0  0  0  0  0  0  0  0  0  0  0  0
    2.4880   -4.3426   -1.2822 C   0  0  0  0  0  0  0  0  0  0  0  0
    0.7930   -2.7385   -0.2659 C   0  0  1  0  0  0  0  0  0  0  0  0
    0.9708   -1.2323   -0.0361 O   0  0  0  0  0  0  0  0  0  0  0  0
    1.4600   -1.1329    1.2847 C   0  0  0  0  0  0  0  0  0  0  0  0
    2.1820   -0.1535    1.6397 O   0  0  0  0  0  0  0  0  0  0  0  0
    0.4640   -1.5946    2.3082 C   0  0  0  0  0  0  0  0  0  0  0  0
   -0.4080   -0.2462    2.6800 C   0  0  2  0  0  0  0  0  0  0  0  0
   -0.2881   -0.5130    4.1690 O   0  0  0  0  0  0  0  0  0  0  0  0
   -1.8356   -1.0642    2.5803 C   0  0  0  0  0  0  0  0  0  0  0  0
   -2.7138   -0.0264    1.8854 C   0  0  0  0  0  0  0  0  0  0  0  0
   -2.4793   -0.1358    0.4333 C   0  0  1  0  0  0  0  0  0  0  0  0
   -3.5334    0.3575   -0.4714 C   0  0  0  0  0  0  0  0  0  0  0  0
   -1.3437    0.4620    0.0126 O   0  0  0  0  0  0  0  0  0  0  0  0
   -2.3416   -1.7612    0.2211 C   0  0  1  0  0  0  0  0  0  0  0  0
   -3.8604   -1.9470    0.3036 O   0  0  0  0  0  0  0  0  0  0  0  0
   -4.6541   -2.0997   -0.7501 C   0  0  0  0  0  0  0  0  0  0  0  0
   -4.1613   -2.2761   -1.8691 O   0  0  0  0  0  0  0  0  0  0  0  0
   -6.0169   -1.6817   -0.5884 N   0  0  0  0  0  0  0  0  0  0  0  0
   -6.6119   -1.5179    0.7423 C   0  0  0  0  0  0  0  0  0  0  0  0
   -7.0432   -0.0839    0.9614 C   0  0  0  0  0  0  0  0  0  0  0  0
   -6.7604    0.6750   -0.2551 N   0  0  0  0  0  0  0  0  0  0  0  0
   -7.1399    2.0527   -0.1835 C   0  0  0  0  0  0  0  0  0  0  0  0
   -6.3901    2.8775    0.8035 C   0  0  0  0  0  0  0  0  0  0  0  0
   -5.8834    4.1660    0.1672 C   0  0  0  0  0  0  0  0  0  0  0  0
   -6.9486    4.8988   -0.5872 C   0  0  0  0  0  0  0  0  0  0  0  0
   -8.3368    4.6494   -0.0704 C   0  0  0  0  0  0  0  0  0  0  0  0
   -9.0166    3.5077   -0.8131 C   0  0  0  0  0  0  0  0  0  0  0  0
   -8.6229    2.2351   -0.0731 C   0  0  0  0  0  0  0  0  0  0  0  0
   -7.5350    0.0186   -1.2896 C   0  0  0  0  0  0  0  0  0  0  0  0
   -6.8582   -1.2970   -1.6854 C   0  0  0  0  0  0  0  0  0  0  0  0
   -2.2256   -1.5859   -1.3915 C   0  0  0  0  0  0  0  0  0  0  0  0
   -0.9174   -1.4281   -1.5443 C   0  0  0  0  0  0  0  0  0  0  0  0
    0.0709   -2.6328   -1.8208 C   0  0  2  0  0  0  0  0  0  0  0  0
   -0.9892   -3.8028   -1.4285 C   0  0  0  0  0  0  0  0  0  0  0  0
  1  2  1  0
  3  2  1  6
  3  4  1  0
  3  5  1  0
  5  6  1  1
  5  7  1  0
  7  8  1  1
  8  9  1  0
  9 10  1  6
 11 10  1  6
 11 12  1  0
 11 13  1  0
 11 14  1  0
 14 15  2  0
 15 16  1  0
 16 17  2  0
 17 18  1  0
 19 17  1  6
 19 20  1  0
 20 21  1  0
 21 22  2  0
 21 23  1  0
 23 24  1  0
 24 25  1  1
 24 26  1  0
 26 27  1  0
 27 28  1  0
 28 29  1  6
 28 30  1  0
 28 31  1  0
 31 32  1  6
 32 33  1  0
 33 34  2  0
 33 35  1  0
 35 36  1  0
 36 37  1  0
 37 38  1  0
 38 39  1  0
 39 40  1  0
 40 41  1  0
 41 42  1  0
 42 43  1  0
 43 44  1  0
 44 45  1  0
 38 46  1  0
 46 47  1  0
 31 48  1  0
 48 49  2  0
 49 50  1  0
 50 51  1  1
  9  7  1  0
 50 19  1  0
 47 35  1  0
 45 39  1  0
M  END
>  <zinc_id>  (1) 
ZINC000096179269

>  <smiles>  (1) 
CC[C@H](O)[C@@H](C)[C@H]1O[C@@H]1C[C@@](C)(O)/C=C/C=C(\C)[C@H]1OC(=O)C[C@H](O)CC[C@@](C)(O)[C@@H](OC(=O)N2CCN(C3CCCCCC3)CC2)/C=C/[C@@H]1C

$$$$
