
     RDKit          3D

 57 60  0  0  0  0  0  0  0  0999 V2000
    5.0321   -1.1470   -2.5444 C   0  0  0  0  0  0  0  0  0  0  0  0
    5.4988   -1.6240   -1.7951 O   0  0  0  0  0  0  0  0  0  0  0  0
    5.8731   -0.4286   -0.9067 C   0  0  1  0  0  0  0  0  0  0  0  0
    4.3053    0.1085   -0.9215 C   0  0  0  0  0  0  0  0  0  0  0  0
    3.5683   -1.2568   -0.1921 C   0  0  2  0  0  0  0  0  0  0  0  0
    2.2112   -0.8412   -0.8011 O   0  0  0  0  0  0  0  0  0  0  0  0
    1.1794   -0.7869    0.2983 C   0  0  2  0  0  0  0  0  0  0  0  0
    0.1476   -2.0436   -0.3427 C   0  0  1  0  0  0  0  0  0  0  0  0
    1.2365   -2.6253   -1.4279 C   0  0  0  0  0  0  0  0  0  0  0  0
    0.5135   -3.1077    0.7967 C   0  0  0  0  0  0  0  0  0  0  0  0
    1.6210   -3.0702    1.3348 O   0  0  0  0  0  0  0  0  0  0  0  0
    0.1563   -4.2679    0.1937 O   0  0  0  0  0  0  0  0  0  0  0  0
   -1.3334   -4.6215    0.0569 C   0  0  2  0  0  0  0  0  0  0  0  0
   -1.3487   -4.2781   -1.5830 C   0  0  0  0  0  0  0  0  0  0  0  0
   -1.9660   -3.0672    0.3859 C   0  0  2  0  0  0  0  0  0  0  0  0
   -1.9800   -3.3069    1.9800 C   0  0  0  0  0  0  0  0  0  0  0  0
   -3.6085   -3.5103    0.2354 C   0  0  2  0  0  0  0  0  0  0  0  0
   -3.4409   -4.8454   -0.5078 O   0  0  0  0  0  0  0  0  0  0  0  0
   -4.2176   -5.8957   -0.0602 C   0  0  0  0  0  0  0  0  0  0  0  0
   -3.6912   -7.0960    0.6614 C   0  0  0  0  0  0  0  0  0  0  0  0
   -5.4254   -5.6312    0.1855 O   0  0  0  0  0  0  0  0  0  0  0  0
   -3.7567   -2.6478   -1.2604 C   0  0  1  0  0  0  0  0  0  0  0  0
   -5.2916   -3.1602   -1.4982 C   0  0  0  0  0  0  0  0  0  0  0  0
   -4.2758   -1.2803   -0.5807 C   0  0  0  0  0  0  0  0  0  0  0  0
   -3.9947   -1.1054    0.5872 O   0  0  0  0  0  0  0  0  0  0  0  0
   -3.7328   -0.2016   -1.4798 C   0  0  1  0  0  0  0  0  0  0  0  0
   -4.3078    0.0371   -2.7765 C   0  0  0  0  0  0  0  0  0  0  0  0
   -4.3921    0.9751   -1.6690 O   0  0  0  0  0  0  0  0  0  0  0  0
   -2.2724   -0.2786   -1.1461 C   0  0  0  0  0  0  0  0  0  0  0  0
   -1.8768    1.2818   -0.9565 C   0  0  2  0  0  0  0  0  0  0  0  0
   -0.8249    1.2551   -2.2088 C   0  0  0  0  0  0  0  0  0  0  0  0
   -0.7219    1.0367    0.3331 C   0  0  2  0  0  0  0  0  0  0  0  0
   -0.2703    2.4514    0.0559 O   0  0  0  0  0  0  0  0  0  0  0  0
   -0.9015    3.2798    1.1932 C   0  0  2  0  0  0  0  0  0  0  0  0
   -2.3544    2.7839    0.9047 O   0  0  0  0  0  0  0  0  0  0  0  0
   -2.7128    3.7904    2.0284 C   0  0  2  0  0  0  0  0  0  0  0  0
   -4.2075    3.1007    2.3604 C   0  0  0  0  0  0  0  0  0  0  0  0
   -3.3385    4.8019    0.8446 C   0  0  0  0  0  0  0  0  0  0  0  0
   -1.9269    5.6609    0.9240 C   0  0  2  0  0  0  0  0  0  0  0  0
   -2.2629    6.4509   -0.4103 N   0  0  0  0  0  0  0  0  0  0  0  0
   -2.6326    5.4123   -1.3821 C   0  0  0  0  0  0  0  0  0  0  0  0
   -3.3879    7.2776   -0.1512 C   0  0  0  0  0  0  0  0  0  0  0  0
   -0.9758    4.5683   -0.0020 C   0  0  1  0  0  0  0  0  0  0  0  0
    0.3556    5.0209    0.5811 O   0  0  0  0  0  0  0  0  0  0  0  0
    0.5585    6.3342    0.8224 C   0  0  0  0  0  0  0  0  0  0  0  0
    1.3607    6.9243    1.9499 C   0  0  0  0  0  0  0  0  0  0  0  0
    0.5785    6.9383   -0.3075 O   0  0  0  0  0  0  0  0  0  0  0  0
    0.4747    0.4132   -0.7015 C   0  0  1  0  0  0  0  0  0  0  0  0
    1.6056    1.4520   -0.1879 C   0  0  0  0  0  0  0  0  0  0  0  0
    3.4044   -0.4906    1.1621 O   0  0  0  0  0  0  0  0  0  0  0  0
    4.8320    0.0587    1.2977 C   0  0  1  0  0  0  0  0  0  0  0  0
    5.0321   -0.6576    2.7868 C   0  0  0  0  0  0  0  0  0  0  0  0
    5.6183   -1.3067    0.5673 C   0  0  2  0  0  0  0  0  0  0  0  0
    6.9786   -0.8973    1.1114 O   0  0  0  0  0  0  0  0  0  0  0  0
    7.9990   -1.7560    0.6727 C   0  0  0  0  0  0  0  0  0  0  0  0
    9.4047   -1.2830    0.4142 C   0  0  0  0  0  0  0  0  0  0  0  0
    7.8847   -2.8977    1.0758 O   0  0  0  0  0  0  0  0  0  0  0  0
  1  2  1  0
  3  2  1  6
  3  4  1  0
  4  5  1  0
  5  6  1  6
  7  6  1  6
  7  8  1  0
  8  9  1  6
  8 10  1  0
 10 11  2  0
 10 12  1  0
 12 13  1  0
 13 14  1  6
 13 15  1  0
 15 16  1  1
 15 17  1  0
 17 18  1  6
 18 19  1  0
 19 20  1  0
 19 21  2  0
 17 22  1  0
 22 23  1  6
 22 24  1  0
 24 25  2  0
 26 24  1  1
 26 27  1  0
 27 28  1  0
 26 29  1  0
 29 30  1  0
 30 31  1  6
 30 32  1  0
 32 33  1  6
 34 33  1  6
 34 35  1  0
 35 36  1  0
 36 37  1  1
 36 38  1  0
 38 39  1  0
 39 40  1  6
 40 41  1  0
 40 42  1  0
 39 43  1  0
 43 44  1  1
 44 45  1  0
 45 46  1  0
 45 47  2  0
 32 48  1  0
 48 49  1  1
  5 50  1  0
 50 51  1  0
 51 52  1  1
 51 53  1  0
 53 54  1  1
 54 55  1  0
 55 56  1  0
 55 57  2  0
 53  3  1  0
 48  7  1  0
 28 26  1  0
 43 34  1  0
M  END
>  <zinc_id>  (1) 
ZINC000169307271

>  <smiles>  (1) 
CO[C@H]1C[C@H](O[C@@H]2[C@@H](C)C(=O)O[C@H](C)[C@H](C)[C@H](OC(C)=O)[C@@H](C)C(=O)[C@]3(CO3)C[C@H](C)[C@H](O[C@@H]3O[C@H](C)C[C@H](N(C)C)[C@H]3OC(C)=O)[C@H]2C)O[C@@H](C)[C@@H]1OC(C)=O

$$$$
