
     RDKit          3D

 52 54  0  0  0  0  0  0  0  0999 V2000
    1.0243    5.0231    2.7191 C   0  0  0  0  0  0  0  0  0  0  0  0
    0.8027    4.4993    2.1959 C   0  0  0  0  0  0  0  0  0  0  0  0
    1.9995    3.9768    1.1602 C   0  0  1  0  0  0  0  0  0  0  0  0
    1.1285    2.8868    0.5118 O   0  0  0  0  0  0  0  0  0  0  0  0
    2.0563    1.9735   -0.0194 C   0  0  0  0  0  0  0  0  0  0  0  0
    1.9422    1.6277   -1.2053 O   0  0  0  0  0  0  0  0  0  0  0  0
    1.5128    1.0040    1.1463 C   0  0  2  0  0  0  0  0  0  0  0  0
    3.0242    0.6389    1.6098 C   0  0  0  0  0  0  0  0  0  0  0  0
    1.2068   -0.3147    0.0674 C   0  0  1  0  0  0  0  0  0  0  0  0
    2.0600   -1.3368    0.7972 O   0  0  0  0  0  0  0  0  0  0  0  0
    2.7164   -1.7882   -0.5503 C   0  0  1  0  0  0  0  0  0  0  0  0
    4.2954   -1.4045   -0.0839 C   0  0  0  0  0  0  0  0  0  0  0  0
    5.1211   -2.4425   -0.7173 C   0  0  1  0  0  0  0  0  0  0  0  0
    4.5613   -3.0014   -1.9804 C   0  0  0  0  0  0  0  0  0  0  0  0
    6.4219   -2.0648   -0.8895 O   0  0  0  0  0  0  0  0  0  0  0  0
    6.7589   -0.8864   -0.2041 C   0  0  0  0  0  0  0  0  0  0  0  0
    5.1189   -3.6561    0.3960 C   0  0  1  0  0  0  0  0  0  0  0  0
    5.9715   -2.8447    1.3582 O   0  0  0  0  0  0  0  0  0  0  0  0
    3.6598   -3.0880    1.1623 C   0  0  2  0  0  0  0  0  0  0  0  0
    3.2733   -4.5970    1.7022 C   0  0  0  0  0  0  0  0  0  0  0  0
    2.8554   -3.2700   -0.1074 O   0  0  0  0  0  0  0  0  0  0  0  0
   -0.2762   -0.5763    0.8647 C   0  0  2  0  0  0  0  0  0  0  0  0
   -0.0595   -2.1078    1.2955 C   0  0  0  0  0  0  0  0  0  0  0  0
   -1.1564   -1.0767   -0.5267 C   0  0  1  0  0  0  0  0  0  0  0  0
   -2.4051   -1.3329    0.3120 O   0  0  0  0  0  0  0  0  0  0  0  0
   -2.5541   -2.8510    0.0670 C   0  0  2  0  0  0  0  0  0  0  0  0
   -3.3302   -2.6262   -1.2493 O   0  0  0  0  0  0  0  0  0  0  0  0
   -3.4639   -4.1105   -1.5970 C   0  0  2  0  0  0  0  0  0  0  0  0
   -4.1272   -3.7605   -3.0846 C   0  0  0  0  0  0  0  0  0  0  0  0
   -4.9643   -4.1658   -0.8704 C   0  0  0  0  0  0  0  0  0  0  0  0
   -4.3246   -4.5097    0.6038 C   0  0  2  0  0  0  0  0  0  0  0  0
   -5.7261   -4.4906    1.3142 N   0  0  0  0  0  0  0  0  0  0  0  0
   -6.4131   -3.3130    0.8747 C   0  0  0  0  0  0  0  0  0  0  0  0
   -6.4228   -5.6723    0.8548 C   0  0  0  0  0  0  0  0  0  0  0  0
   -4.0430   -2.8553    0.9683 C   0  0  1  0  0  0  0  0  0  0  0  0
   -3.3463   -3.2479    2.2370 O   0  0  0  0  0  0  0  0  0  0  0  0
   -1.6578    0.4189   -1.0013 C   0  0  2  0  0  0  0  0  0  0  0  0
   -3.1155    0.2795   -1.4002 C   0  0  0  0  0  0  0  0  0  0  0  0
   -1.0001    0.5696   -2.2034 O   0  0  0  0  0  0  0  0  0  0  0  0
   -1.6158    1.4042    0.0034 C   0  0  0  0  0  0  0  0  0  0  0  0
   -2.0013    2.7451   -0.6242 C   0  0  2  0  0  0  0  0  0  0  0  0
   -3.4872    2.8413   -0.8999 C   0  0  0  0  0  0  0  0  0  0  0  0
   -1.3955    2.8788   -1.8511 F   0  0  0  0  0  0  0  0  0  0  0  0
   -1.6989    3.8135    0.3175 C   0  0  0  0  0  0  0  0  0  0  0  0
   -2.5522    4.1381    1.1376 O   0  0  0  0  0  0  0  0  0  0  0  0
   -0.9245    5.1550   -0.0918 C   0  0  2  0  0  0  0  0  0  0  0  0
   -1.8146    5.3312   -1.4489 C   0  0  0  0  0  0  0  0  0  0  0  0
    0.4072    4.3732   -0.8804 C   0  0  1  0  0  0  0  0  0  0  0  0
    0.5353    5.4599   -1.9393 O   0  0  0  0  0  0  0  0  0  0  0  0
    1.5843    5.0968    0.0148 C   0  0  1  0  0  0  0  0  0  0  0  0
    1.1848    6.3227    0.5509 C   0  0  0  0  0  0  0  0  0  0  0  0
    2.6537    4.9334   -0.8164 O   0  0  0  0  0  0  0  0  0  0  0  0
  1  2  1  0
  3  2  1  1
  3  4  1  0
  4  5  1  0
  5  6  2  0
  5  7  1  0
  7  8  1  1
  7  9  1  0
  9 10  1  1
 11 10  1  1
 11 12  1  0
 12 13  1  0
 13 14  1  6
 13 15  1  0
 15 16  1  0
 13 17  1  0
 17 18  1  1
 17 19  1  0
 19 20  1  1
 19 21  1  0
  9 22  1  0
 22 23  1  1
 22 24  1  0
 24 25  1  1
 26 25  1  1
 26 27  1  0
 27 28  1  0
 28 29  1  6
 28 30  1  0
 30 31  1  0
 31 32  1  1
 32 33  1  0
 32 34  1  0
 31 35  1  0
 35 36  1  1
 24 37  1  0
 37 38  1  6
 37 39  1  0
 37 40  1  0
 40 41  1  0
 41 42  1  6
 41 43  1  0
 41 44  1  0
 44 45  2  0
 44 46  1  0
 46 47  1  6
 46 48  1  0
 48 49  1  6
 48 50  1  0
 50 51  1  1
 50 52  1  0
 50  3  1  0
 21 11  1  0
 35 26  1  0
M  END
>  <zinc_id>  (1) 
ZINC000085540108

>  <smiles>  (1) 
CC[C@H]1OC(=O)[C@H](C)[C@@H](O[C@H]2C[C@@](C)(OC)[C@@H](O)[C@H](C)O2)[C@H](C)[C@@H](O[C@@H]2O[C@H](C)C[C@H](N(C)C)[C@H]2O)[C@](C)(O)C[C@](C)(F)C(=O)[C@H](C)[C@@H](O)[C@]1(C)O

$$$$
