9978336
  -OEChem-10061700313D

 57 58  0     1  0  0  0  0  0999 V2000
    5.0865   -1.2857   -1.2199 O   0  0  0  0  0  0  0  0  0  0  0  0
    4.5066    2.3780    1.6425 O   0  0  0  0  0  0  0  0  0  0  0  0
    0.9360   -4.3028   -1.4821 O   0  0  0  0  0  0  0  0  0  0  0  0
   -1.2019   -2.2074    0.6064 O   0  0  0  0  0  0  0  0  0  0  0  0
   -2.6185    2.3479    0.3759 O   0  0  0  0  0  0  0  0  0  0  0  0
   -2.7961    4.1966   -0.9957 O   0  0  0  0  0  0  0  0  0  0  0  0
    3.1817   -0.5016    0.0798 C   0  0  1  0  0  0  0  0  0  0  0  0
    3.0217    0.5023    1.2328 C   0  0  1  0  0  0  0  0  0  0  0  0
    4.6887   -0.7897    0.0487 C   0  0  2  0  0  0  0  0  0  0  0  0
    5.3454    0.5669    0.2936 C   0  0  0  0  0  0  0  0  0  0  0  0
    4.3114    1.2882    1.1187 C   0  0  0  0  0  0  0  0  0  0  0  0
    1.7897    1.3798    1.0993 C   0  0  0  0  0  0  0  0  0  0  0  0
    2.3656   -1.7407    0.2680 C   0  0  0  0  0  0  0  0  0  0  0  0
    1.4428   -2.1671   -0.6067 C   0  0  0  0  0  0  0  0  0  0  0  0
    1.7871    2.1288   -0.1991 C   0  0  0  0  0  0  0  0  0  0  0  0
    0.6229   -3.4121   -0.4146 C   0  0  1  0  0  0  0  0  0  0  0  0
   -0.8731   -3.1095   -0.4398 C   0  0  0  0  0  0  0  0  0  0  0  0
    0.8446    2.0527   -1.0933 C   0  0  0  0  0  0  0  0  0  0  0  0
   -0.0862    1.9920   -2.0012 C   0  0  0  0  0  0  0  0  0  0  0  0
   -1.3256    1.1513   -1.8955 C   0  0  0  0  0  0  0  0  0  0  0  0
   -2.5151   -1.8258    0.7055 C   0  0  0  0  0  0  0  0  0  0  0  0
   -2.6010    1.9873   -1.9530 C   0  0  0  0  0  0  0  0  0  0  0  0
   -3.4459   -2.3244   -0.1982 C   0  0  0  0  0  0  0  0  0  0  0  0
   -2.9007   -0.9443    1.7084 C   0  0  0  0  0  0  0  0  0  0  0  0
   -2.6860    2.9891   -0.8259 C   0  0  0  0  0  0  0  0  0  0  0  0
   -4.7816   -1.9356   -0.0979 C   0  0  0  0  0  0  0  0  0  0  0  0
   -4.2366   -0.5556    1.8088 C   0  0  0  0  0  0  0  0  0  0  0  0
   -5.1770   -1.0513    0.9056 C   0  0  0  0  0  0  0  0  0  0  0  0
   -2.6854    3.1925    1.5291 C   0  0  0  0  0  0  0  0  0  0  0  0
    2.9223   -0.0524   -0.8880 H   0  0  0  0  0  0  0  0  0  0  0  0
    3.0300   -0.0040    2.2062 H   0  0  0  0  0  0  0  0  0  0  0  0
    4.9806   -1.5111    0.8220 H   0  0  0  0  0  0  0  0  0  0  0  0
    5.5229    1.1162   -0.6358 H   0  0  0  0  0  0  0  0  0  0  0  0
    6.2798    0.4604    0.8504 H   0  0  0  0  0  0  0  0  0  0  0  0
    1.7626    2.1112    1.9162 H   0  0  0  0  0  0  0  0  0  0  0  0
    0.8839    0.7679    1.1932 H   0  0  0  0  0  0  0  0  0  0  0  0
    2.5407   -2.3168    1.1738 H   0  0  0  0  0  0  0  0  0  0  0  0
    6.0541   -1.3823   -1.2045 H   0  0  0  0  0  0  0  0  0  0  0  0
    1.2667   -1.5966   -1.5160 H   0  0  0  0  0  0  0  0  0  0  0  0
    2.5767    2.8560   -0.3652 H   0  0  0  0  0  0  0  0  0  0  0  0
    0.8776   -3.9050    0.5311 H   0  0  0  0  0  0  0  0  0  0  0  0
   -1.1230   -2.6821   -1.4211 H   0  0  0  0  0  0  0  0  0  0  0  0
   -1.4087   -4.0605   -0.3185 H   0  0  0  0  0  0  0  0  0  0  0  0
    1.8801   -4.5268   -1.4136 H   0  0  0  0  0  0  0  0  0  0  0  0
    0.0488    2.5630   -2.9156 H   0  0  0  0  0  0  0  0  0  0  0  0
   -1.3310    0.4371   -2.7275 H   0  0  0  0  0  0  0  0  0  0  0  0
   -1.3018    0.5569   -0.9745 H   0  0  0  0  0  0  0  0  0  0  0  0
   -3.4863    1.3432   -1.9051 H   0  0  0  0  0  0  0  0  0  0  0  0
   -2.6535    2.5354   -2.9015 H   0  0  0  0  0  0  0  0  0  0  0  0
   -3.2127   -3.0150   -1.0006 H   0  0  0  0  0  0  0  0  0  0  0  0
   -2.1708   -0.5539    2.4118 H   0  0  0  0  0  0  0  0  0  0  0  0
   -5.5149   -2.3208   -0.8006 H   0  0  0  0  0  0  0  0  0  0  0  0
   -4.5439    0.1348    2.5888 H   0  0  0  0  0  0  0  0  0  0  0  0
   -6.2168   -0.7478    0.9833 H   0  0  0  0  0  0  0  0  0  0  0  0
   -3.6429    3.7213    1.5556 H   0  0  0  0  0  0  0  0  0  0  0  0
   -1.8511    3.9005    1.5289 H   0  0  0  0  0  0  0  0  0  0  0  0
   -2.6082    2.5608    2.4180 H   0  0  0  0  0  0  0  0  0  0  0  0
  1  9  1  0  0  0  0
  1 38  1  0  0  0  0
  2 11  2  0  0  0  0
  3 16  1  0  0  0  0
  3 44  1  0  0  0  0
  4 17  1  0  0  0  0
  4 21  1  0  0  0  0
  5 25  1  0  0  0  0
  5 29  1  0  0  0  0
  6 25  2  0  0  0  0
  7  8  1  0  0  0  0
  7  9  1  0  0  0  0
  7 13  1  0  0  0  0
  7 30  1  0  0  0  0
  8 11  1  0  0  0  0
  8 12  1  0  0  0  0
  8 31  1  0  0  0  0
  9 10  1  0  0  0  0
  9 32  1  0  0  0  0
 10 11  1  0  0  0  0
 10 33  1  0  0  0  0
 10 34  1  0  0  0  0
 12 15  1  0  0  0  0
 12 35  1  0  0  0  0
 12 36  1  0  0  0  0
 13 14  2  0  0  0  0
 13 37  1  0  0  0  0
 14 16  1  0  0  0  0
 14 39  1  0  0  0  0
 15 18  2  0  0  0  0
 15 40  1  0  0  0  0
 16 17  1  0  0  0  0
 16 41  1  0  0  0  0
 17 42  1  0  0  0  0
 17 43  1  0  0  0  0
 18 19  2  0  0  0  0
 19 20  1  0  0  0  0
 19 45  1  0  0  0  0
 20 22  1  0  0  0  0
 20 46  1  0  0  0  0
 20 47  1  0  0  0  0
 21 23  2  0  0  0  0
 21 24  1  0  0  0  0
 22 25  1  0  0  0  0
 22 48  1  0  0  0  0
 22 49  1  0  0  0  0
 23 26  1  0  0  0  0
 23 50  1  0  0  0  0
 24 27  2  0  0  0  0
 24 51  1  0  0  0  0
 26 28  2  0  0  0  0
 26 52  1  0  0  0  0
 27 28  1  0  0  0  0
 27 53  1  0  0  0  0
 28 54  1  0  0  0  0
 29 55  1  0  0  0  0
 29 56  1  0  0  0  0
 29 57  1  0  0  0  0
M  END
> <DATABASE_ID>
DB13824

> <DATABASE_NAME>
drugbank

> <ORIGINAL_SOURCE>
PUBCHEM

> <ORIGINAL_SOURCE_URL>
https://pubchem.ncbi.nlm.nih.gov/rest/pug/compound/inchikey/PTOJVMZPWPAXER-FPXSIRDUSA-N/SDF?record_type=3d

> <SMILES>
COC(=O)CCC=C=CC[C@H]1[C@H](\C=C\[C@H](O)COC2=CC=CC=C2)[C@@H](O)CC1=O

> <INCHI_IDENTIFIER>
InChI=1S/C23H28O6/c1-28-23(27)12-8-3-2-7-11-19-20(22(26)15-21(19)25)14-13-17(24)16-29-18-9-5-4-6-10-18/h3-7,9-10,13-14,17,19-20,22,24,26H,8,11-12,15-16H2,1H3/b14-13+/t2?,17-,19-,20-,22-/m0/s1

> <INCHI_KEY>
PTOJVMZPWPAXER-FPXSIRDUSA-N

> <FORMULA>
C23H28O6

> <MOLECULAR_WEIGHT>
400.471

> <EXACT_MASS>
400.188588622

> <JCHEM_ACCEPTOR_COUNT>
5

> <JCHEM_ATOM_COUNT>
57

> <JCHEM_AVERAGE_POLARIZABILITY>
43.51354187874752

> <JCHEM_BIOAVAILABILITY>
1

> <JCHEM_DONOR_COUNT>
2

> <JCHEM_FORMAL_CHARGE>
0

> <JCHEM_GHOSE_FILTER>
1

> <JCHEM_IUPAC>
methyl 7-[(1S,2S,3S)-3-hydroxy-2-[(1E,3S)-3-hydroxy-4-phenoxybut-1-en-1-yl]-5-oxocyclopentyl]hepta-4,5-dienoate

> <ALOGPS_LOGP>
2.58

> <JCHEM_LOGP>
2.594530787666666

> <ALOGPS_LOGS>
-4.43

> <JCHEM_MDDR_LIKE_RULE>
0

> <JCHEM_NUMBER_OF_RINGS>
2

> <JCHEM_PHYSIOLOGICAL_CHARGE>
0

> <JCHEM_PKA>
14.777345400448802

> <JCHEM_PKA_STRONGEST_ACIDIC>
13.986879708077698

> <JCHEM_PKA_STRONGEST_BASIC>
-2.9349953465852145

> <JCHEM_POLAR_SURFACE_AREA>
93.06000000000002

> <JCHEM_REFRACTIVITY>
111.3615

> <JCHEM_ROTATABLE_BOND_COUNT>
11

> <JCHEM_RULE_OF_FIVE>
1

> <ALOGPS_SOLUBILITY>
1.49e-02 g/l

> <JCHEM_TRADITIONAL_IUPAC>
methyl 7-[(1S,2S,3S)-3-hydroxy-2-[(1E,3S)-3-hydroxy-4-phenoxybut-1-en-1-yl]-5-oxocyclopentyl]hepta-4,5-dienoate

> <JCHEM_VEBER_RULE>
0

$$$$
