46937041
  -OEChem-06112217083D

 41 42  0     1  0  0  0  0  0999 V2000
   -4.6797    0.9494   -0.4200 O   0  0  0  0  0  0  0  0  0  0  0  0
   -0.9473    3.8992   -0.4847 O   0  0  0  0  0  0  0  0  0  0  0  0
   -0.7938   -2.1795   -1.1156 O   0  0  0  0  0  0  0  0  0  0  0  0
   -1.3520   -3.8158    0.3528 O   0  0  0  0  0  0  0  0  0  0  0  0
   -4.0011   -3.2459   -0.0810 N   0  0  0  0  0  0  0  0  0  0  0  0
    0.6515    1.9581    0.7573 N   0  0  0  0  0  0  0  0  0  0  0  0
   -3.1763   -1.1330    0.8519 C   0  0  0  0  0  0  0  0  0  0  0  0
   -2.5891    0.2121    0.4909 C   0  0  0  0  0  0  0  0  0  0  0  0
   -3.0332   -2.1687   -0.2742 C   0  0  1  0  0  0  0  0  0  0  0  0
   -1.2507    0.4732    0.7843 C   0  0  0  0  0  0  0  0  0  0  0  0
   -3.3706    1.1879   -0.1279 C   0  0  0  0  0  0  0  0  0  0  0  0
   -0.6938    1.7100    0.4586 C   0  0  0  0  0  0  0  0  0  0  0  0
   -2.8137    2.4246   -0.4534 C   0  0  0  0  0  0  0  0  0  0  0  0
   -1.4753    2.6857   -0.1601 C   0  0  0  0  0  0  0  0  0  0  0  0
   -1.6590   -2.8160   -0.2839 C   0  0  0  0  0  0  0  0  0  0  0  0
    2.9747    1.8829    0.0335 C   0  0  0  0  0  0  0  0  0  0  0  0
    3.7405    0.5885    0.0022 C   0  0  0  0  0  0  0  0  0  0  0  0
    1.5044    1.6450   -0.1659 C   0  0  0  0  0  0  0  0  0  0  0  0
    3.9524   -0.1254    1.1815 C   0  0  0  0  0  0  0  0  0  0  0  0
    4.2390    0.1025   -1.2064 C   0  0  0  0  0  0  0  0  0  0  0  0
    4.6628   -1.3256    1.1523 C   0  0  0  0  0  0  0  0  0  0  0  0
    4.9492   -1.0977   -1.2358 C   0  0  0  0  0  0  0  0  0  0  0  0
    5.1612   -1.8117   -0.0564 C   0  0  0  0  0  0  0  0  0  0  0  0
   -2.7013   -1.4986    1.7730 H   0  0  0  0  0  0  0  0  0  0  0  0
   -4.2330   -0.9906    1.1156 H   0  0  0  0  0  0  0  0  0  0  0  0
   -3.2238   -1.7222   -1.2573 H   0  0  0  0  0  0  0  0  0  0  0  0
   -0.6386   -0.2836    1.2696 H   0  0  0  0  0  0  0  0  0  0  0  0
   -3.4231    3.1853   -0.9355 H   0  0  0  0  0  0  0  0  0  0  0  0
   -3.9586   -3.8913   -0.8692 H   0  0  0  0  0  0  0  0  0  0  0  0
   -4.9459   -2.8629   -0.0818 H   0  0  0  0  0  0  0  0  0  0  0  0
    3.1459    2.4068    0.9810 H   0  0  0  0  0  0  0  0  0  0  0  0
    3.3217    2.5470   -0.7666 H   0  0  0  0  0  0  0  0  0  0  0  0
    1.1921    1.2064   -1.1324 H   0  0  0  0  0  0  0  0  0  0  0  0
   -5.0593    1.7371   -0.8457 H   0  0  0  0  0  0  0  0  0  0  0  0
    3.5672    0.2422    2.1289 H   0  0  0  0  0  0  0  0  0  0  0  0
    4.0791    0.6485   -2.1324 H   0  0  0  0  0  0  0  0  0  0  0  0
   -1.6351    4.4432   -0.9053 H   0  0  0  0  0  0  0  0  0  0  0  0
    4.8273   -1.8818    2.0705 H   0  0  0  0  0  0  0  0  0  0  0  0
    5.3369   -1.4765   -2.1769 H   0  0  0  0  0  0  0  0  0  0  0  0
    0.0878   -2.6096   -1.1252 H   0  0  0  0  0  0  0  0  0  0  0  0
    5.7141   -2.7462   -0.0792 H   0  0  0  0  0  0  0  0  0  0  0  0
  1 11  1  0  0  0  0
  1 34  1  0  0  0  0
  2 14  1  0  0  0  0
  2 37  1  0  0  0  0
  3 15  1  0  0  0  0
  3 40  1  0  0  0  0
  4 15  2  0  0  0  0
  5  9  1  0  0  0  0
  5 29  1  0  0  0  0
  5 30  1  0  0  0  0
  6 12  1  0  0  0  0
  6 18  2  0  0  0  0
  7  8  1  0  0  0  0
  7  9  1  0  0  0  0
  7 24  1  0  0  0  0
  7 25  1  0  0  0  0
  8 10  2  0  0  0  0
  8 11  1  0  0  0  0
  9 15  1  0  0  0  0
  9 26  1  0  0  0  0
 10 12  1  0  0  0  0
 10 27  1  0  0  0  0
 11 13  2  0  0  0  0
 12 14  2  0  0  0  0
 13 14  1  0  0  0  0
 13 28  1  0  0  0  0
 16 17  1  0  0  0  0
 16 18  1  0  0  0  0
 16 31  1  0  0  0  0
 16 32  1  0  0  0  0
 17 19  2  0  0  0  0
 17 20  1  0  0  0  0
 18 33  1  0  0  0  0
 19 21  1  0  0  0  0
 19 35  1  0  0  0  0
 20 22  2  0  0  0  0
 20 36  1  0  0  0  0
 21 23  2  0  0  0  0
 21 38  1  0  0  0  0
 22 23  1  0  0  0  0
 22 39  1  0  0  0  0
 23 41  1  0  0  0  0
M  END
> <PUBCHEM_COMPOUND_CID>
46937041

> <PUBCHEM_CONFORMER_RMSD>
0.8

> <PUBCHEM_CONFORMER_DIVERSEORDER>
1
44
137
124
32
75
37
45
63
66
53
128
18
96
83
103
134
33
60
90
125
135
109
41
87
64
120
42
131
113
30
54
59
114
129
106
101
56
105
144
139
78
61
67
111
121
17
118
19
72
145
100
123
39
28
98
136
142
85
102
84
8
74
91
97
48
4
36
21
7
99
89
133
31
5
79
107
119
57
12
86
62
81
15
76
20
82
126
93
65
70
38
138
95
2
104
51
117
55
116
127
40
11
143
122
141
3
68
94
92
24
27
43
110
88
130
69
115
108
112
46
52
25
26
9
140
77
73
35
34
58
16
71
6
10
50
14
49
22
23
47
80
132
13
29

> <PUBCHEM_MMFF94_PARTIAL_CHARGES>
36
1 -0.53
10 -0.15
11 0.08
12 0.18
13 -0.15
14 0.08
15 0.66
16 0.2
17 -0.14
18 0.33
19 -0.15
2 -0.53
20 -0.15
21 -0.15
22 -0.15
23 -0.15
27 0.15
28 0.15
29 0.36
3 -0.65
30 0.36
33 0.06
34 0.45
35 0.15
36 0.15
37 0.45
38 0.15
39 0.15
4 -0.57
40 0.5
41 0.15
5 -0.99
6 -0.63
7 0.14
8 -0.14
9 0.33

> <PUBCHEM_EFFECTIVE_ROTOR_COUNT>
6

> <PUBCHEM_PHARMACOPHORE_FEATURES>
10
1 1 donor
1 2 donor
1 3 acceptor
1 4 acceptor
1 5 cation
1 5 donor
1 6 acceptor
3 3 4 15 anion
6 17 19 20 21 22 23 rings
6 8 10 11 12 13 14 rings

> <PUBCHEM_HEAVY_ATOM_COUNT>
23

> <PUBCHEM_ATOM_DEF_STEREO_COUNT>
1

> <PUBCHEM_ATOM_UDEF_STEREO_COUNT>
0

> <PUBCHEM_BOND_DEF_STEREO_COUNT>
0

> <PUBCHEM_BOND_UDEF_STEREO_COUNT>
0

> <PUBCHEM_ISOTOPIC_ATOM_COUNT>
0

> <PUBCHEM_COMPONENT_COUNT>
1

> <PUBCHEM_CACTVS_TAUTO_COUNT>
18

> <PUBCHEM_CONFORMER_ID>
02CC33D100000001

> <PUBCHEM_MMFF94_ENERGY>
52.9323

> <PUBCHEM_FEATURE_SELFOVERLAP>
50.804

> <PUBCHEM_SHAPE_FINGERPRINT>
10693767 8 17769916194384909583
107951 10 17531535265663495793
12422481 6 18129125427444711507
12553582 1 18265336290377675978
12555020 224 18338508660663228525
12633257 1 18200889404089595944
12990986 174 18338229466277124738
13402501 40 18130796603382397718
13726171 33 17982489089134174492
14251751 18 18411412909004035034
14251751 93 18335417928881908930
14251757 5 18337405915057233182
15042514 8 18410013243386311041
15537594 2 18262818348836694272
17492 89 18337673122020646122
17859628 97 18337108956417153611
20403669 9 18342461490453141238
20511986 3 17677041340470542272
20775530 9 18197503041362029086
23559900 14 18412538813074651416
238918 7 17988077765167665854
3027735 51 18054506911521402281
314173 41 17976824507989991562
3298306 158 18124024637809161557
338550 245 18189619346092656322
339767 52 18408878517485289930
44062 13 18408886213338612515
474144 1 17679007219631640754
508706 21 18198069088229555566
5309563 4 17333083629876755006
559249 180 17971467395571815400
574716 61 17313681424654693004
9709674 26 18262523709875249536

> <PUBCHEM_SHAPE_MULTIPOLES>
439.89
10.6
4.36
1.04
10.64
1.37
0
4.49
0.71
-4.36
0.48
0.89
0.17
0.16

> <PUBCHEM_SHAPE_SELFOVERLAP>
933.05

> <PUBCHEM_SHAPE_VOLUME>
244.2

> <PUBCHEM_COORDINATE_TYPE>
2
5
10

$$$$
