
     RDKit          3D

 33 33  0  0  0  0  0  0  0  0999 V2000
   -6.4542    0.8641    2.0939 C   0  0  0  0  0  0  0  0  0  0  0  0
   -6.0311   -0.4683    2.6541 C   0  0  0  0  0  0  0  0  0  0  0  0
   -4.5889   -0.5671    2.5981 N   0  0  0  0  0  0  0  0  0  0  0  0
   -3.9011   -0.3435    1.3668 C   0  0  0  0  0  0  0  0  0  0  0  0
   -4.5034   -0.3464    0.1697 N   0  0  0  0  0  0  0  0  0  0  0  0
   -3.8035   -0.6167   -0.9617 C   0  0  0  0  0  0  0  0  0  0  0  0
   -4.5518   -1.1241   -2.0736 N   0  0  0  0  0  0  0  0  0  0  0  0
   -4.3189   -2.4709   -2.5750 C   0  0  0  0  0  0  0  0  0  0  0  0
   -3.2472   -2.4617   -3.6572 C   0  0  0  0  0  0  0  0  0  0  0  0
   -3.8099   -3.3540   -1.4628 C   0  0  0  0  0  0  0  0  0  0  0  0
   -2.5430   -1.0964   -0.8152 N   0  0  0  0  0  0  0  0  0  0  0  0
   -1.8578   -0.8728    0.3201 C   0  0  0  0  0  0  0  0  0  0  0  0
   -0.1167   -0.7105    0.4597 S   0  0  0  0  0  0  0  0  0  0  0  0
    0.8160   -0.4934   -1.0051 C   0  0  0  0  0  0  0  0  0  0  0  0
    1.9075    0.7567   -0.7524 C   0  0  2  0  0  0  0  0  0  0  0  0
    2.2137    0.2616    0.7431 N   0  0  0  0  0  0  0  0  0  0  0  0
    3.5551    0.4175    1.1402 C   0  0  0  0  0  0  0  0  0  0  0  0
    4.1465    1.4658    0.8053 O   0  0  0  0  0  0  0  0  0  0  0  0
    4.2053   -0.6510    1.9667 C   0  0  0  0  0  0  0  0  0  0  0  0
    4.2417   -1.9654    1.2287 C   0  0  0  0  0  0  0  0  0  0  0  0
    5.4842   -1.6587    0.1459 C   0  0  2  0  0  0  0  0  0  0  0  0
    4.5390   -1.9968   -1.1082 N   0  0  0  0  0  0  0  0  0  0  0  0
    6.0505   -3.1983    0.2434 C   0  0  0  0  0  0  0  0  0  0  0  0
    6.7940   -3.2275    1.2740 O   0  0  0  0  0  0  0  0  0  0  0  0
    5.1067   -4.1841    0.1434 O   0  0  0  0  0  0  0  0  0  0  0  0
    0.7814    1.8316   -0.2163 C   0  0  0  0  0  0  0  0  0  0  0  0
   -0.3668    1.6641   -0.6455 O   0  0  0  0  0  0  0  0  0  0  0  0
    1.2757    3.1551   -0.5011 N   0  0  0  0  0  0  0  0  0  0  0  0
    0.5050    4.1269   -1.2714 C   0  0  0  0  0  0  0  0  0  0  0  0
    0.5255    5.4745   -0.7008 C   0  0  0  0  0  0  0  0  0  0  0  0
    0.6345    6.4685   -1.4794 O   0  0  0  0  0  0  0  0  0  0  0  0
   -0.1202    5.6978    0.5073 O   0  0  0  0  0  0  0  0  0  0  0  0
   -2.5681   -0.3766    1.3651 N   0  0  0  0  0  0  0  0  0  0  0  0
  1  2  1  0
  2  3  1  0
  3  4  1  0
  4  5  2  0
  5  6  1  0
  6  7  1  0
  7  8  1  0
  8  9  1  0
  8 10  1  0
  6 11  2  0
 11 12  1  0
 12 13  1  0
 13 14  1  0
 15 14  1  6
 15 16  1  0
 16 17  1  0
 17 18  2  0
 17 19  1  0
 19 20  1  0
 21 20  1  1
 21 22  1  0
 21 23  1  0
 23 24  2  0
 23 25  1  0
 15 26  1  0
 26 27  2  0
 26 28  1  0
 28 29  1  0
 29 30  1  0
 30 31  2  0
 30 32  1  0
 12 33  2  0
 33  4  1  0
M  END
>  <zinc_id>  (1) 
ZINC000012501645

>  <smiles>  (1) 
CCNc1nc(NC(C)C)nc(SC[C@H](NC(=O)CC[C@H](N)C(=O)O)C(=O)NCC(=O)O)n1

$$$$
