REMARK  Name = 4923
REMARK  5 active torsions:
REMARK  status: ('A' for Active; 'I' for Inactive)
REMARK    1  A    between atoms: N_2  and  C_7
REMARK    2  A    between atoms: N_3  and  C_10
REMARK    3  A    between atoms: N_4  and  C_11
REMARK    4  A    between atoms: C_7  and  C_8
REMARK    5  A    between atoms: C_7  and  C_9
REMARK                            x       y       z     vdW  Elec       q    Type
REMARK                         _______ _______ _______ _____ _____    ______ ____
ROOT
ATOM      1  N   UNL     1      -0.775   1.490   0.446  0.00  0.00    +0.000 N 
ATOM      2  N   UNL     1       0.926   0.074  -0.448  0.00  0.00    +0.000 NA
ATOM      3  N   UNL     1       1.377   2.221   0.498  0.00  0.00    +0.000 N 
ATOM      4  C   UNL     1       0.539   1.188   0.118  0.00  0.00    +0.000 C 
ATOM      5  H   UNL     1      -0.963   2.450   0.723  0.00  0.00    +0.000 HD
ATOM      6  H   UNL     1       1.014   3.056   0.945  0.00  0.00    +0.000 HD
ATOM      7  H   UNL     1       2.380   2.181   0.349  0.00  0.00    +0.000 HD
ENDROOT
BRANCH   1   9
ATOM      8 CL   UNL     1      -5.694  -1.734  -0.235  0.00  0.00    +0.000 Cl
ATOM      9  C   UNL     1      -1.947   0.722   0.283  0.00  0.00    +0.000 A 
ATOM     10  C   UNL     1      -3.175   1.356   0.096  0.00  0.00    +0.000 A 
ATOM     11  C   UNL     1      -1.877  -0.670   0.310  0.00  0.00    +0.000 A 
ATOM     12  C   UNL     1      -4.334   0.596  -0.064  0.00  0.00    +0.000 A 
ATOM     13  C   UNL     1      -3.036  -1.430   0.149  0.00  0.00    +0.000 A 
ATOM     14  C   UNL     1      -4.264  -0.797  -0.038  0.00  0.00    +0.000 A 
ENDBRANCH   1   9
BRANCH   2  17
ATOM     15  N   UNL     1       2.943  -0.646   0.245  0.00  0.00    +0.000 NA
ATOM     16  N   UNL     1       2.748   0.308  -1.942  0.00  0.00    +0.000 N 
ATOM     17  C   UNL     1       2.270  -0.093  -0.714  0.00  0.00    +0.000 C 
ATOM     18  H   UNL     1       2.119   0.719  -2.625  0.00  0.00    +0.000 HD
ATOM     19  H   UNL     1       3.724   0.260  -2.205  0.00  0.00    +0.000 HD
BRANCH  15  20
ATOM     20  C   UNL     1       4.367  -0.860   0.026  0.00  0.00    +0.000 C 
ATOM     21  C   UNL     1       5.128   0.377   0.479  0.00  0.00    +0.000 C 
ATOM     22  C   UNL     1       4.803  -2.102   0.790  0.00  0.00    +0.000 C 
ENDBRANCH  15  20
ENDBRANCH   2  17
TORSDOF 3
