REMARK  Name = 445354
REMARK  11 active torsions:
REMARK  status: ('A' for Active; 'I' for Inactive)
REMARK    1  A    between atoms: O_1  and  C_21
REMARK    2  A    between atoms: C_2  and  C_8
REMARK    3  A    between atoms: C_2  and  C_9
REMARK    4  A    between atoms: C_5  and  C_10
REMARK    5  A    between atoms: C_7  and  C_11
REMARK    6  A    between atoms: C_12  and  C_13
REMARK    7  A    between atoms: C_13  and  C_14
REMARK    8  A    between atoms: C_15  and  C_16
REMARK    9  A    between atoms: C_17  and  C_18
REMARK   10  A    between atoms: C_18  and  C_19
REMARK   11  A    between atoms: C_20  and  C_21
REMARK                            x       y       z     vdW  Elec       q    Type
REMARK                         _______ _______ _______ _____ _____    ______ ____
ROOT
ATOM      1  C   UNL     1      -2.139  -0.707  -0.384  0.00  0.00    +0.000 C 
ATOM      2  C   UNL     1      -0.926  -0.159  -0.212  0.00  0.00    +0.000 C 
ENDROOT
BRANCH   1   6
ATOM      3  C   UNL     1      -4.506  -0.753   0.533  0.00  0.00    +0.000 C 
ATOM      4  C   UNL     1      -5.865  -0.006   0.439  0.00  0.00    +0.000 C 
ATOM      5  C   UNL     1      -5.724   1.480   0.716  0.00  0.00    +0.000 C 
ATOM      6  C   UNL     1      -3.378   0.026  -0.184  0.00  0.00    +0.000 C 
ATOM      7  C   UNL     1      -4.784   2.113  -0.299  0.00  0.00    +0.000 C 
ATOM      8  C   UNL     1      -3.526   1.315  -0.578  0.00  0.00    +0.000 C 
ATOM      9  C   UNL     1      -4.742  -2.147  -0.097  0.00  0.00    +0.000 C 
ATOM     10  C   UNL     1      -4.139  -0.943   2.022  0.00  0.00    +0.000 C 
ATOM     11  C   UNL     1      -2.501   2.133  -1.329  0.00  0.00    +0.000 C 
ENDBRANCH   1   6
BRANCH   2  12
ATOM     12  C   UNL     1       0.370  -0.822  -0.392  0.00  0.00    +0.000 C 
ATOM     13  C   UNL     1       0.349  -2.270  -0.815  0.00  0.00    +0.000 C 
ATOM     14  C   UNL     1       1.492  -0.104  -0.171  0.00  0.00    +0.000 C 
BRANCH  14  15
ATOM     15  C   UNL     1       2.869  -0.548  -0.287  0.00  0.00    +0.000 C 
ATOM     16  C   UNL     1       3.913   0.262  -0.039  0.00  0.00    +0.000 C 
BRANCH  16  17
ATOM     17  C   UNL     1       5.335  -0.087  -0.127  0.00  0.00    +0.000 C 
ATOM     18  C   UNL     1       5.681  -1.494  -0.539  0.00  0.00    +0.000 C 
ATOM     19  C   UNL     1       6.250   0.863   0.160  0.00  0.00    +0.000 C 
BRANCH  19  20
ATOM     20  C   UNL     1       7.742   0.757   0.144  0.00  0.00    +0.000 C 
BRANCH  20  21
ATOM     21  O   UNL     1       8.231   1.090   1.438  0.00  0.00    +0.000 OA
ATOM     22  H   UNL     1       7.910   0.411   2.057  0.00  0.00    +0.000 HD
ENDBRANCH  20  21
ENDBRANCH  19  20
ENDBRANCH  16  17
ENDBRANCH  14  15
ENDBRANCH   2  12
TORSDOF 6
