REMARK  Name = 89508529
REMARK  6 active torsions:
REMARK  status: ('A' for Active; 'I' for Inactive)
REMARK    1  A    between atoms: N_7  and  C_17
REMARK    2  A    between atoms: N_8  and  C_27
REMARK    3  A    between atoms: C_11  and  C_15
REMARK    4  A    between atoms: C_12  and  C_18
REMARK    5  A    between atoms: C_17  and  C_22
REMARK    6  A    between atoms: C_31  and  C_34
REMARK                            x       y       z     vdW  Elec       q    Type
REMARK                         _______ _______ _______ _____ _____    ______ ____
ROOT
ATOM      1  O   UNL     1       3.288   2.302   1.200  0.00  0.00    +0.000 OA
ATOM      2  N   UNL     1       2.000   0.362   1.179  0.00  0.00    +0.000 N 
ATOM      3  C   UNL     1       1.359  -0.715   0.400  0.00  0.00    +0.000 C 
ATOM      4  C   UNL     1       0.781  -0.193  -0.929  0.00  0.00    +0.000 C 
ATOM      5  C   UNL     1       1.758   0.708  -1.633  0.00  0.00    +0.000 A 
ATOM      6  C   UNL     1       2.658   1.494  -0.902  0.00  0.00    +0.000 A 
ATOM      7  C   UNL     1       2.681   1.429   0.582  0.00  0.00    +0.000 C 
ATOM      8  C   UNL     1       1.749   0.801  -3.033  0.00  0.00    +0.000 A 
ATOM      9  C   UNL     1       3.540   2.355  -1.566  0.00  0.00    +0.000 A 
ATOM     10  C   UNL     1       2.632   1.656  -3.692  0.00  0.00    +0.000 A 
ATOM     11  C   UNL     1       3.527   2.431  -2.959  0.00  0.00    +0.000 A 
ENDROOT
BRANCH   3  13
ATOM     12  N   UNL     1       4.468  -2.836  -0.155  0.00  0.00    +0.000 NA
ATOM     13  C   UNL     1       2.251  -1.934   0.189  0.00  0.00    +0.000 A 
ATOM     14  C   UNL     1       1.714  -3.216   0.142  0.00  0.00    +0.000 A 
ATOM     15  C   UNL     1       3.622  -1.799   0.036  0.00  0.00    +0.000 A 
ATOM     16  C   UNL     1       2.553  -4.308  -0.053  0.00  0.00    +0.000 A 
ATOM     17  C   UNL     1       3.910  -4.067  -0.195  0.00  0.00    +0.000 A 
ENDBRANCH   3  13
BRANCH   4  20
ATOM     18  O   UNL     1      -0.509   1.755  -0.487  0.00  0.00    +0.000 OA
ATOM     19  N   UNL     1      -1.591  -0.323  -0.709  0.00  0.00    +0.000 N 
ATOM     20  C   UNL     1      -0.506   0.544  -0.682  0.00  0.00    +0.000 C 
ATOM     21  H   UNL     1      -1.407  -1.309  -0.876  0.00  0.00    +0.000 HD
BRANCH  19  23
ATOM     22  F   UNL     1      -6.935   0.963   0.032  0.00  0.00    +0.000 F 
ATOM     23  C   UNL     1      -2.956   0.001  -0.520  0.00  0.00    +0.000 A 
ATOM     24  C   UNL     1      -3.925  -1.000  -0.580  0.00  0.00    +0.000 A 
ATOM     25  C   UNL     1      -3.332   1.322  -0.275  0.00  0.00    +0.000 A 
ATOM     26  C   UNL     1      -5.270  -0.681  -0.394  0.00  0.00    +0.000 A 
ATOM     27  C   UNL     1      -4.677   1.641  -0.089  0.00  0.00    +0.000 A 
ATOM     28  C   UNL     1      -5.646   0.640  -0.149  0.00  0.00    +0.000 A 
BRANCH  26  30
ATOM     29  N   UNL     1      -7.064  -2.545  -0.508  0.00  0.00    +0.000 NA
ATOM     30  C   UNL     1      -6.260  -1.710  -0.457  0.00  0.00    +0.000 C 
ENDBRANCH  26  30
ENDBRANCH  19  23
ENDBRANCH   4  20
BRANCH   2  31
ATOM     31  C   UNL     1       1.979   0.233   2.631  0.00  0.00    +0.000 C 
BRANCH  31  35
ATOM     32  F   UNL     1       0.904   2.311   2.965  0.00  0.00    +0.000 F 
ATOM     33  F   UNL     1      -0.359   0.536   2.785  0.00  0.00    +0.000 F 
ATOM     34  F   UNL     1       0.829   0.854   4.585  0.00  0.00    +0.000 F 
ATOM     35  C   UNL     1       0.827   0.991   3.241  0.00  0.00    +0.000 C 
ENDBRANCH  31  35
ENDBRANCH   2  31
TORSDOF 6
