REMARK  Name = 5770
REMARK  16 active torsions:
REMARK  status: ('A' for Active; 'I' for Inactive)
REMARK    1  A    between atoms: O_1  and  C_19
REMARK    2  A    between atoms: O_1  and  C_28
REMARK    3  A    between atoms: O_2  and  C_20
REMARK    4  A    between atoms: O_2  and  C_30
REMARK    5  A    between atoms: O_3  and  C_25
REMARK    6  A    between atoms: O_3  and  C_34
REMARK    7  A    between atoms: O_6  and  C_33
REMARK    8  A    between atoms: O_6  and  C_40
REMARK    9  A    between atoms: O_7  and  C_38
REMARK   10  A    between atoms: O_7  and  C_42
REMARK   11  A    between atoms: O_8  and  C_39
REMARK   12  A    between atoms: O_8  and  C_43
REMARK   13  A    between atoms: O_9  and  C_41
REMARK   14  A    between atoms: O_9  and  C_44
REMARK   15  A    between atoms: C_15  and  C_25
REMARK   16  A    between atoms: C_30  and  C_35
REMARK                            x       y       z     vdW  Elec       q    Type
REMARK                         _______ _______ _______ _____ _____    ______ ____
ROOT
ATOM      1  N   UNL     1       1.843  -2.183   0.036  0.00  0.00    +0.000 NA
ATOM      2  N   UNL     1       4.797  -0.024   0.915  0.00  0.00    +0.000 N 
ATOM      3  C   UNL     1       1.474   0.675  -0.642  0.00  0.00    +0.000 C 
ATOM      4  C   UNL     1       0.784  -0.450  -1.438  0.00  0.00    +0.000 C 
ATOM      5  C   UNL     1       1.737   0.206   0.803  0.00  0.00    +0.000 C 
ATOM      6  C   UNL     1       0.645   1.974  -0.736  0.00  0.00    +0.000 C 
ATOM      7  C   UNL     1       2.484  -1.136   0.880  0.00  0.00    +0.000 C 
ATOM      8  C   UNL     1       1.602  -1.746  -1.348  0.00  0.00    +0.000 C 
ATOM      9  C   UNL     1      -0.670  -0.659  -0.988  0.00  0.00    +0.000 C 
ATOM     10  C   UNL     1      -0.817   1.791  -0.310  0.00  0.00    +0.000 C 
ATOM     11  C   UNL     1      -1.480   0.633  -1.062  0.00  0.00    +0.000 C 
ATOM     12  C   UNL     1       3.957  -1.053   0.596  0.00  0.00    +0.000 A 
ATOM     13  C   UNL     1       2.621  -3.446   0.072  0.00  0.00    +0.000 C 
ATOM     14  C   UNL     1       4.706  -2.059   0.020  0.00  0.00    +0.000 A 
ATOM     15  C   UNL     1       4.079  -3.331  -0.439  0.00  0.00    +0.000 C 
ATOM     16  C   UNL     1       6.054  -1.613  -0.043  0.00  0.00    +0.000 A 
ATOM     17  C   UNL     1       6.083  -0.334   0.524  0.00  0.00    +0.000 A 
ATOM     18  C   UNL     1       7.256  -2.167  -0.526  0.00  0.00    +0.000 A 
ATOM     19  C   UNL     1       7.260   0.415   0.631  0.00  0.00    +0.000 A 
ATOM     20  C   UNL     1       8.439  -1.427  -0.426  0.00  0.00    +0.000 A 
ATOM     21  C   UNL     1       8.439  -0.156   0.144  0.00  0.00    +0.000 A 
ATOM     22  H   UNL     1       4.528   0.838   1.367  0.00  0.00    +0.000 HD
ENDROOT
BRANCH  10  23
ATOM     23  O   UNL     1      -1.555   2.975  -0.633  0.00  0.00    +0.000 OA
ATOM     24  C   UNL     1      -2.752   3.053   0.122  0.00  0.00    +0.000 C 
ENDBRANCH  10  23
BRANCH   6  26
ATOM     25  O   UNL     1       0.756   3.688   0.957  0.00  0.00    +0.000 OA
ATOM     26  C   UNL     1       1.305   3.068   0.056  0.00  0.00    +0.000 C 
BRANCH  26  27
ATOM     27  O   UNL     1       2.581   3.246  -0.388  0.00  0.00    +0.000 OA
ATOM     28  C   UNL     1       3.329   4.265   0.283  0.00  0.00    +0.000 C 
ENDBRANCH  26  27
ENDBRANCH   6  26
BRANCH  21  29
ATOM     29  O   UNL     1       9.607   0.542   0.231  0.00  0.00    +0.000 OA
ATOM     30  C   UNL     1       9.544   1.837   0.824  0.00  0.00    +0.000 C 
ENDBRANCH  21  29
BRANCH  11  31
ATOM     31  O   UNL     1      -2.769   0.404  -0.492  0.00  0.00    +0.000 OA
BRANCH  31  33
ATOM     32  O   UNL     1      -3.577  -0.266  -2.541  0.00  0.00    +0.000 OA
ATOM     33  C   UNL     1      -3.724  -0.046  -1.349  0.00  0.00    +0.000 C 
BRANCH  33  34
ATOM     34  C   UNL     1      -5.012  -0.242  -0.637  0.00  0.00    +0.000 A 
ATOM     35  C   UNL     1      -5.016  -0.585   0.715  0.00  0.00    +0.000 A 
ATOM     36  C   UNL     1      -6.217  -0.081  -1.320  0.00  0.00    +0.000 A 
ATOM     37  C   UNL     1      -7.428  -0.263  -0.650  0.00  0.00    +0.000 A 
ATOM     38  C   UNL     1      -6.227  -0.767   1.384  0.00  0.00    +0.000 A 
ATOM     39  C   UNL     1      -7.432  -0.606   0.702  0.00  0.00    +0.000 A 
BRANCH  37  40
ATOM     40  O   UNL     1      -8.598  -0.102  -1.329  0.00  0.00    +0.000 OA
ATOM     41  C   UNL     1      -9.143  -1.257  -1.964  0.00  0.00    +0.000 C 
ENDBRANCH  37  40
BRANCH  38  42
ATOM     42  O   UNL     1      -6.218  -1.101   2.705  0.00  0.00    +0.000 OA
ATOM     43  C   UNL     1      -4.943  -1.247   3.328  0.00  0.00    +0.000 C 
ENDBRANCH  38  42
BRANCH  39  44
ATOM     44  O   UNL     1      -8.615  -0.785   1.355  0.00  0.00    +0.000 OA
ATOM     45  C   UNL     1      -9.191   0.361   1.978  0.00  0.00    +0.000 C 
ENDBRANCH  39  44
ENDBRANCH  33  34
ENDBRANCH  31  33
ENDBRANCH  11  31
TORSDOF 10
