REMARK  Name = 110635
REMARK  2 active torsions:
REMARK  status: ('A' for Active; 'I' for Inactive)
REMARK    1  A    between atoms: N_7  and  C_23
REMARK    2  A    between atoms: C_9  and  C_16
REMARK                            x       y       z     vdW  Elec       q    Type
REMARK                         _______ _______ _______ _____ _____    ______ ____
ROOT
ATOM      1  O   UNL     1      -0.750   3.233   2.149  0.00  0.00    +0.000 OA
ATOM      2  O   UNL     1      -2.022   1.458  -2.693  0.00  0.00    +0.000 OA
ATOM      3  N   UNL     1      -0.547   1.395  -0.873  0.00  0.00    +0.000 N 
ATOM      4  N   UNL     1       2.308  -0.982  -1.269  0.00  0.00    +0.000 N 
ATOM      5  N   UNL     1      -2.018   3.379   0.209  0.00  0.00    +0.000 N 
ATOM      6  C   UNL     1       0.151   2.262   0.120  0.00  0.00    +0.000 C 
ATOM      7  C   UNL     1      -0.002   0.067  -1.287  0.00  0.00    +0.000 C 
ATOM      8  C   UNL     1       1.154   1.544   1.053  0.00  0.00    +0.000 C 
ATOM      9  C   UNL     1       1.377  -0.122  -0.759  0.00  0.00    +0.000 A 
ATOM     10  C   UNL     1       1.939   0.543   0.302  0.00  0.00    +0.000 A 
ATOM     11  C   UNL     1      -0.917   2.967   0.960  0.00  0.00    +0.000 C 
ATOM     12  C   UNL     1       3.266   0.065   0.463  0.00  0.00    +0.000 A 
ATOM     13  C   UNL     1      -1.559   1.961  -1.670  0.00  0.00    +0.000 C 
ATOM     14  C   UNL     1      -1.957   3.352  -1.242  0.00  0.00    +0.000 C 
ATOM     15  C   UNL     1       3.474  -0.891  -0.537  0.00  0.00    +0.000 A 
ATOM     16  C   UNL     1       4.317   0.347   1.359  0.00  0.00    +0.000 A 
ATOM     17  C   UNL     1       4.684  -1.577  -0.685  0.00  0.00    +0.000 A 
ATOM     18  C   UNL     1      -3.225   3.835   0.878  0.00  0.00    +0.000 C 
ATOM     19  C   UNL     1       5.533  -0.333   1.222  0.00  0.00    +0.000 A 
ATOM     20  C   UNL     1       5.712  -1.279   0.215  0.00  0.00    +0.000 A 
ATOM     21  H   UNL     1       2.168  -1.595  -2.060  0.00  0.00    +0.000 HD
ENDROOT
BRANCH   7  24
ATOM     22  O   UNL     1      -3.189  -1.906   1.926  0.00  0.00    +0.000 OA
ATOM     23  O   UNL     1      -3.433  -3.919   0.624  0.00  0.00    +0.000 OA
ATOM     24  C   UNL     1      -0.912  -1.020  -0.806  0.00  0.00    +0.000 A 
ATOM     25  C   UNL     1      -1.608  -0.855   0.391  0.00  0.00    +0.000 A 
ATOM     26  C   UNL     1      -1.051  -2.191  -1.567  0.00  0.00    +0.000 A 
ATOM     27  C   UNL     1      -2.435  -1.884   0.793  0.00  0.00    +0.000 A 
ATOM     28  C   UNL     1      -1.895  -3.218  -1.137  0.00  0.00    +0.000 A 
ATOM     29  C   UNL     1      -2.574  -3.034   0.050  0.00  0.00    +0.000 A 
ATOM     30  C   UNL     1      -3.819  -3.198   1.811  0.00  0.00    +0.000 C 
ENDBRANCH   7  24
TORSDOF 1
