REMARK  Name = 6914626
REMARK  8 active torsions:
REMARK  status: ('A' for Active; 'I' for Inactive)
REMARK    1  A    between atoms: O_1  and  C_20
REMARK    2  A    between atoms: O_1  and  C_28
REMARK    3  A    between atoms: N_2  and  C_11
REMARK    4  A    between atoms: C_11  and  C_13
REMARK    5  A    between atoms: C_13  and  C_20
REMARK    6  A    between atoms: C_14  and  C_19
REMARK    7  A    between atoms: C_23  and  C_25
REMARK    8  A    between atoms: C_25  and  C_26
REMARK                            x       y       z     vdW  Elec       q    Type
REMARK                         _______ _______ _______ _____ _____    ______ ____
ROOT
ATOM      1  N   UNL     1      -2.139   0.002   0.569  0.00  0.00    +0.000 N 
ATOM      2  C   UNL     1      -0.948  -0.603   0.247  0.00  0.00    +0.000 A 
ATOM      3  C   UNL     1      -1.250  -1.865  -0.266  0.00  0.00    +0.000 A 
ATOM      4  C   UNL     1      -3.200  -0.824   0.281  0.00  0.00    +0.000 A 
ATOM      5  C   UNL     1      -2.675  -2.004  -0.244  0.00  0.00    +0.000 A 
ATOM      6  C   UNL     1       0.364  -0.131   0.371  0.00  0.00    +0.000 A 
ATOM      7  C   UNL     1       1.398  -0.975  -0.043  0.00  0.00    +0.000 A 
ATOM      8  C   UNL     1      -0.189  -2.698  -0.677  0.00  0.00    +0.000 A 
ATOM      9  C   UNL     1      -4.574  -0.615   0.447  0.00  0.00    +0.000 A 
ATOM     10  C   UNL     1      -3.566  -3.029  -0.624  0.00  0.00    +0.000 A 
ATOM     11  C   UNL     1       1.128  -2.240  -0.559  0.00  0.00    +0.000 A 
ATOM     12  C   UNL     1      -5.437  -1.645   0.062  0.00  0.00    +0.000 A 
ATOM     13  C   UNL     1      -4.943  -2.835  -0.465  0.00  0.00    +0.000 A 
ENDROOT
BRANCH   7  18
ATOM     14  N   UNL     1       4.674   0.587  -0.895  0.00  0.00    +0.000 NA
ATOM     15  N   UNL     1       4.816  -0.339   1.325  0.00  0.00    +0.000 NA
ATOM     16  N   UNL     1       2.957  -1.437   2.290  0.00  0.00    +0.000 N 
ATOM     17  N   UNL     1       6.652   0.754   0.356  0.00  0.00    +0.000 N 
ATOM     18  C   UNL     1       2.771  -0.527   0.069  0.00  0.00    +0.000 A 
ATOM     19  C   UNL     1       3.399   0.151  -0.956  0.00  0.00    +0.000 A 
ATOM     20  C   UNL     1       3.536  -0.746   1.196  0.00  0.00    +0.000 A 
ATOM     21  C   UNL     1       5.315   0.312   0.257  0.00  0.00    +0.000 A 
ATOM     22  H   UNL     1       1.965  -1.337   2.462  0.00  0.00    +0.000 HD
ATOM     23  H   UNL     1       3.555  -1.585   3.094  0.00  0.00    +0.000 HD
ATOM     24  H   UNL     1       7.175   0.570   1.202  0.00  0.00    +0.000 HD
ATOM     25  H   UNL     1       7.072   1.246  -0.420  0.00  0.00    +0.000 HD
BRANCH  19  26
ATOM     26  C   UNL     1       2.682   0.454  -2.232  0.00  0.00    +0.000 C 
ATOM     27  C   UNL     1       1.961   1.796  -2.186  0.00  0.00    +0.000 C 
ENDBRANCH  19  26
ENDBRANCH   7  18
BRANCH   1  28
ATOM     28  C   UNL     1      -2.261   1.331   1.133  0.00  0.00    +0.000 C 
BRANCH  28  29
ATOM     29  C   UNL     1      -2.385   2.437   0.086  0.00  0.00    +0.000 C 
BRANCH  29  30
ATOM     30  C   UNL     1      -2.574   3.824   0.690  0.00  0.00    +0.000 C 
BRANCH  30  31
ATOM     31  O   UNL     1      -2.655   4.773  -0.365  0.00  0.00    +0.000 OA
ATOM     32  C   UNL     1      -2.855   6.089   0.133  0.00  0.00    +0.000 C 
ENDBRANCH  30  31
ENDBRANCH  29  30
ENDBRANCH  28  29
ENDBRANCH   1  28
TORSDOF 6
