REMARK  Name = 9821754
REMARK  10 active torsions:
REMARK  status: ('A' for Active; 'I' for Inactive)
REMARK    1  A    between atoms: O_5  and  C_19
REMARK    2  A    between atoms: O_5  and  C_26
REMARK    3  A    between atoms: O_6  and  C_20
REMARK    4  A    between atoms: O_6  and  C_27
REMARK    5  A    between atoms: O_7  and  C_22
REMARK    6  A    between atoms: O_8  and  C_25
REMARK    7  A    between atoms: O_8  and  C_28
REMARK    8  A    between atoms: C_10  and  C_11
REMARK    9  A    between atoms: C_13  and  C_22
REMARK   10  A    between atoms: C_15  and  C_25
REMARK                            x       y       z     vdW  Elec       q    Type
REMARK                         _______ _______ _______ _____ _____    ______ ____
ROOT
ATOM      1  O   UNL     1       1.240   2.338  -0.666  0.00  0.00    +0.000 OA
ATOM      2  O   UNL     1       3.610   1.963  -0.901  0.00  0.00    +0.000 OA
ATOM      3  C   UNL     1       0.732   0.048   0.009  0.00  0.00    +0.000 A 
ATOM      4  C   UNL     1       1.592   1.055  -0.378  0.00  0.00    +0.000 A 
ATOM      5  C   UNL     1       1.281  -1.211   0.264  0.00  0.00    +0.000 A 
ATOM      6  C   UNL     1       2.944   0.841  -0.512  0.00  0.00    +0.000 A 
ATOM      7  C   UNL     1       3.512  -0.393  -0.267  0.00  0.00    +0.000 A 
ATOM      8  C   UNL     1       2.663  -1.430   0.126  0.00  0.00    +0.000 A 
ATOM      9  C   UNL     1       2.524   2.907  -0.997  0.00  0.00    +0.000 C 
ENDROOT
BRANCH   3  12
ATOM     10  O   UNL     1      -1.179  -0.284  -2.176  0.00  0.00    +0.000 OA
ATOM     11  O   UNL     1      -3.547   0.128  -1.995  0.00  0.00    +0.000 OA
ATOM     12  C   UNL     1      -0.688   0.302   0.142  0.00  0.00    +0.000 A 
ATOM     13  C   UNL     1      -1.539   0.126  -0.929  0.00  0.00    +0.000 A 
ATOM     14  C   UNL     1      -1.244   0.730   1.349  0.00  0.00    +0.000 A 
ATOM     15  C   UNL     1      -2.891   0.361  -0.826  0.00  0.00    +0.000 A 
ATOM     16  C   UNL     1      -2.626   0.971   1.455  0.00  0.00    +0.000 A 
ATOM     17  C   UNL     1      -3.466   0.785   0.354  0.00  0.00    +0.000 A 
ATOM     18  C   UNL     1      -2.456  -0.281  -2.846  0.00  0.00    +0.000 C 
BRANCH  17  19
ATOM     19  O   UNL     1      -4.798   1.018   0.452  0.00  0.00    +0.000 OA
ATOM     20  C   UNL     1      -5.627  -0.079   0.843  0.00  0.00    +0.000 C 
ENDBRANCH  17  19
BRANCH  14  21
ATOM     21  C   UNL     1      -0.395   0.950   2.562  0.00  0.00    +0.000 C 
BRANCH  21  22
ATOM     22  O   UNL     1       0.064   2.294   2.574  0.00  0.00    +0.000 OA
ATOM     23  H   UNL     1       0.600   2.406   3.378  0.00  0.00    +0.000 HD
ENDBRANCH  21  22
ENDBRANCH  14  21
ENDBRANCH   3  12
BRANCH   7  24
ATOM     24  O   UNL     1       4.845  -0.600  -0.400  0.00  0.00    +0.000 OA
ATOM     25  C   UNL     1       5.660  -0.379   0.753  0.00  0.00    +0.000 C 
ENDBRANCH   7  24
BRANCH   5  27
ATOM     26  O   UNL     1       0.190  -2.613   1.853  0.00  0.00    +0.000 OA
ATOM     27  C   UNL     1       0.449  -2.335   0.678  0.00  0.00    +0.000 C 
BRANCH  27  28
ATOM     28  O   UNL     1      -0.009  -3.041  -0.400  0.00  0.00    +0.000 OA
ATOM     29  C   UNL     1      -0.841  -4.172  -0.122  0.00  0.00    +0.000 C 
ENDBRANCH  27  28
ENDBRANCH   5  27
TORSDOF 7
