REMARK  Name = 36811
REMARK  11 active torsions:
REMARK  status: ('A' for Active; 'I' for Inactive)
REMARK    1  A    between atoms: O_1  and  C_19
REMARK    2  A    between atoms: O_2  and  C_20
REMARK    3  A    between atoms: O_3  and  C_22
REMARK    4  A    between atoms: N_4  and  C_5
REMARK    5  A    between atoms: N_4  and  C_8
REMARK    6  A    between atoms: C_5  and  C_6
REMARK    7  A    between atoms: C_5  and  C_9
REMARK    8  A    between atoms: C_6  and  C_7
REMARK    9  A    between atoms: C_7  and  C_11
REMARK   10  A    between atoms: C_8  and  C_10
REMARK   11  A    between atoms: C_10  and  C_12
REMARK                            x       y       z     vdW  Elec       q    Type
REMARK                         _______ _______ _______ _____ _____    ______ ____
ROOT
ATOM      1  N   UNL     1       0.072   3.034   0.374  0.00  0.00    +0.000 NA
ATOM      2  H   UNL     1       0.603   3.897   0.491  0.00  0.00    +0.000 HD
ENDROOT
BRANCH   1   3
ATOM      3  C   UNL     1      -1.019   3.248  -0.577  0.00  0.00    +0.000 C 
ATOM      4  C   UNL     1      -1.931   4.363  -0.065  0.00  0.00    +0.000 C 
BRANCH   3   5
ATOM      5  C   UNL     1      -1.822   1.952  -0.792  0.00  0.00    +0.000 C 
BRANCH   5   6
ATOM      6  C   UNL     1      -2.448   1.359   0.479  0.00  0.00    +0.000 C 
BRANCH   6   7
ATOM      7  C   UNL     1      -3.173   0.056   0.252  0.00  0.00    +0.000 A 
ATOM      8  C   UNL     1      -4.521   0.074  -0.070  0.00  0.00    +0.000 A 
ATOM      9  C   UNL     1      -2.478  -1.138   0.369  0.00  0.00    +0.000 A 
ATOM     10  C   UNL     1      -5.191  -1.131  -0.279  0.00  0.00    +0.000 A 
ATOM     11  C   UNL     1      -3.148  -2.344   0.160  0.00  0.00    +0.000 A 
ATOM     12  C   UNL     1      -4.505  -2.340  -0.165  0.00  0.00    +0.000 A 
BRANCH  12  13
ATOM     13  O   UNL     1      -5.160  -3.515  -0.370  0.00  0.00    +0.000 OA
ATOM     14  H   UNL     1      -6.089  -3.325  -0.585  0.00  0.00    +0.000 HD
ENDBRANCH  12  13
ENDBRANCH   6   7
ENDBRANCH   5   6
ENDBRANCH   3   5
ENDBRANCH   1   3
BRANCH   1  15
ATOM     15  C   UNL     1       0.952   1.970  -0.083  0.00  0.00    +0.000 C 
BRANCH  15  16
ATOM     16  C   UNL     1       2.094   1.740   0.908  0.00  0.00    +0.000 C 
BRANCH  16  17
ATOM     17  C   UNL     1       3.026   0.653   0.434  0.00  0.00    +0.000 A 
ATOM     18  C   UNL     1       2.780  -0.662   0.799  0.00  0.00    +0.000 A 
ATOM     19  C   UNL     1       4.115   0.987  -0.356  0.00  0.00    +0.000 A 
ATOM     20  C   UNL     1       3.643  -1.667   0.361  0.00  0.00    +0.000 A 
ATOM     21  C   UNL     1       4.978  -0.017  -0.793  0.00  0.00    +0.000 A 
ATOM     22  C   UNL     1       4.742  -1.345  -0.434  0.00  0.00    +0.000 A 
BRANCH  20  23
ATOM     23  O   UNL     1       3.401  -2.959   0.718  0.00  0.00    +0.000 OA
ATOM     24  H   UNL     1       2.599  -2.992   1.267  0.00  0.00    +0.000 HD
ENDBRANCH  20  23
BRANCH  22  25
ATOM     25  O   UNL     1       5.592  -2.317  -0.868  0.00  0.00    +0.000 OA
ATOM     26  H   UNL     1       6.293  -1.909  -1.405  0.00  0.00    +0.000 HD
ENDBRANCH  22  25
ENDBRANCH  16  17
ENDBRANCH  15  16
ENDBRANCH   1  15
TORSDOF 10
