REMARK  Name = 15118984
REMARK  12 active torsions:
REMARK  status: ('A' for Active; 'I' for Inactive)
REMARK    1  A    between atoms: O_3  and  C_18
REMARK    2  A    between atoms: O_3  and  C_23
REMARK    3  A    between atoms: O_6  and  C_21
REMARK    4  A    between atoms: N_7  and  C_13
REMARK    5  A    between atoms: N_8  and  C_9
REMARK    6  A    between atoms: C_9  and  C_10
REMARK    7  A    between atoms: C_9  and  C_11
REMARK    8  A    between atoms: C_10  and  C_12
REMARK    9  A    between atoms: C_13  and  C_16
REMARK   10  A    between atoms: C_13  and  C_17
REMARK   11  A    between atoms: C_17  and  C_22
REMARK   12  A    between atoms: C_23  and  C_24
REMARK                            x       y       z     vdW  Elec       q    Type
REMARK                         _______ _______ _______ _____ _____    ______ ____
ROOT
ATOM      1  C   UNL     1      -0.205  -0.097   0.087  0.00  0.00    +0.000 C 
ENDROOT
BRANCH   1   4
ATOM      2  O   UNL     1      -0.394   2.004   1.280  0.00  0.00    +0.000 OA
ATOM      3  N   UNL     1      -2.038   1.451  -0.260  0.00  0.00    +0.000 N 
ATOM      4  C   UNL     1      -0.862   1.233   0.443  0.00  0.00    +0.000 C 
ATOM      5  H   UNL     1      -2.338   0.772  -0.953  0.00  0.00    +0.000 HD
BRANCH   3   6
ATOM      6  C   UNL     1      -2.840   2.635  -0.065  0.00  0.00    +0.000 C 
ATOM      7  C   UNL     1      -2.446   3.748  -1.020  0.00  0.00    +0.000 C 
BRANCH   6   9
ATOM      8  O   UNL     1      -4.637   1.415  -1.120  0.00  0.00    +0.000 OA
ATOM      9  C   UNL     1      -4.292   2.238  -0.272  0.00  0.00    +0.000 C 
BRANCH   9  11
ATOM     10  F   UNL     1      -6.569   2.495   0.324  0.00  0.00    +0.000 F 
ATOM     11  C   UNL     1      -5.311   2.943   0.586  0.00  0.00    +0.000 C 
ENDBRANCH   9  11
ENDBRANCH   6   9
ENDBRANCH   3   6
ENDBRANCH   1   4
BRANCH   1  13
ATOM     12  O   UNL     1       1.918  -1.394  -1.413  0.00  0.00    +0.000 OA
ATOM     13  N   UNL     1       1.239   0.095   0.228  0.00  0.00    +0.000 N 
ATOM     14  C   UNL     1       2.159  -0.572  -0.535  0.00  0.00    +0.000 C 
ATOM     15  H   UNL     1       1.580   0.738   0.937  0.00  0.00    +0.000 HD
BRANCH  14  16
ATOM     16  O   UNL     1       3.414  -0.178  -0.166  0.00  0.00    +0.000 OA
BRANCH  16  17
ATOM     17  C   UNL     1       4.496  -0.790  -0.877  0.00  0.00    +0.000 C 
BRANCH  17  18
ATOM     18  C   UNL     1       5.794  -0.251  -0.353  0.00  0.00    +0.000 A 
ATOM     19  C   UNL     1       6.353   0.884  -0.932  0.00  0.00    +0.000 A 
ATOM     20  C   UNL     1       6.428  -0.890   0.707  0.00  0.00    +0.000 A 
ATOM     21  C   UNL     1       7.559   1.385  -0.445  0.00  0.00    +0.000 A 
ATOM     22  C   UNL     1       7.635  -0.389   1.194  0.00  0.00    +0.000 A 
ATOM     23  C   UNL     1       8.201   0.749   0.618  0.00  0.00    +0.000 A 
ENDBRANCH  17  18
ENDBRANCH  16  17
ENDBRANCH  14  16
ENDBRANCH   1  13
BRANCH   1  24
ATOM     24  C   UNL     1      -0.680  -1.209   1.034  0.00  0.00    +0.000 C 
BRANCH  24  25
ATOM     25  C   UNL     1      -2.006  -1.803   0.621  0.00  0.00    +0.000 A 
ATOM     26  C   UNL     1      -2.023  -2.890  -0.238  0.00  0.00    +0.000 A 
ATOM     27  C   UNL     1      -3.178  -1.250   1.109  0.00  0.00    +0.000 A 
ATOM     28  C   UNL     1      -3.247  -3.439  -0.619  0.00  0.00    +0.000 A 
ATOM     29  C   UNL     1      -4.402  -1.799   0.728  0.00  0.00    +0.000 A 
ATOM     30  C   UNL     1      -4.437  -2.894  -0.136  0.00  0.00    +0.000 A 
BRANCH  30  31
ATOM     31  O   UNL     1      -5.631  -3.430  -0.508  0.00  0.00    +0.000 OA
ATOM     32  H   UNL     1      -5.468  -4.178  -1.107  0.00  0.00    +0.000 HD
ENDBRANCH  30  31
ENDBRANCH  24  25
ENDBRANCH   1  24
TORSDOF 11
