REMARK  Name = 1794427
REMARK  11 active torsions:
REMARK  status: ('A' for Active; 'I' for Inactive)
REMARK    1  A    between atoms: O_1  and  C_11
REMARK    2  A    between atoms: O_1  and  C_17
REMARK    3  A    between atoms: O_2  and  C_10
REMARK    4  A    between atoms: O_3  and  C_14
REMARK    5  A    between atoms: O_4  and  C_15
REMARK    6  A    between atoms: O_5  and  C_16
REMARK    7  A    between atoms: O_8  and  C_23
REMARK    8  A    between atoms: O_9  and  C_25
REMARK    9  A    between atoms: C_10  and  C_16
REMARK   10  A    between atoms: C_17  and  C_18
REMARK   11  A    between atoms: C_19  and  C_20
REMARK                            x       y       z     vdW  Elec       q    Type
REMARK                         _______ _______ _______ _____ _____    ______ ____
ROOT
ATOM      1  C   UNL     1      -3.807  -1.045  -0.004  0.00  0.00    +0.000 C 
ATOM      2  C   UNL     1      -2.360   1.022   0.274  0.00  0.00    +0.000 C 
ATOM      3  C   UNL     1      -2.387  -0.489   0.022  0.00  0.00    +0.000 C 
ATOM      4  C   UNL     1      -4.710  -0.285  -0.979  0.00  0.00    +0.000 C 
ATOM      5  C   UNL     1      -3.244   1.761  -0.735  0.00  0.00    +0.000 C 
ATOM      6  C   UNL     1      -4.681   1.229  -0.735  0.00  0.00    +0.000 C 
ENDROOT
BRANCH   1   7
ATOM      7  O   UNL     1      -4.376  -1.040   1.298  0.00  0.00    +0.000 OA
ATOM      8  H   UNL     1      -3.757  -1.485   1.901  0.00  0.00    +0.000 HD
ENDBRANCH   1   7
BRANCH   5   9
ATOM      9  O   UNL     1      -3.279   3.154  -0.427  0.00  0.00    +0.000 OA
ATOM     10  H   UNL     1      -2.360   3.469  -0.405  0.00  0.00    +0.000 HD
ENDBRANCH   5   9
BRANCH   6  11
ATOM     11  O   UNL     1      -5.293   1.526   0.521  0.00  0.00    +0.000 OA
ATOM     12  H   UNL     1      -6.204   1.187   0.490  0.00  0.00    +0.000 HD
ENDBRANCH   6  11
BRANCH   1  14
ATOM     13  O   UNL     1      -4.131  -3.453   0.173  0.00  0.00    +0.000 OA
ATOM     14  C   UNL     1      -3.766  -2.487  -0.481  0.00  0.00    +0.000 C 
BRANCH  14  15
ATOM     15  O   UNL     1      -3.266  -2.562  -1.738  0.00  0.00    +0.000 OA
ATOM     16  H   UNL     1      -3.230  -3.487  -2.064  0.00  0.00    +0.000 HD
ENDBRANCH  14  15
ENDBRANCH   1  14
BRANCH   2  17
ATOM     17  O   UNL     1      -1.008   1.457   0.139  0.00  0.00    +0.000 OA
BRANCH  17  19
ATOM     18  O   UNL     1      -0.335   0.451   2.107  0.00  0.00    +0.000 OA
ATOM     19  C   UNL     1      -0.111   0.873   0.984  0.00  0.00    +0.000 C 
BRANCH  19  20
ATOM     20  C   UNL     1       1.202   0.838   0.300  0.00  0.00    +0.000 C 
ATOM     21  C   UNL     1       2.257   0.295   0.923  0.00  0.00    +0.000 C 
BRANCH  21  22
ATOM     22  C   UNL     1       3.608   0.192   0.344  0.00  0.00    +0.000 A 
ATOM     23  C   UNL     1       4.502  -0.728   0.868  0.00  0.00    +0.000 A 
ATOM     24  C   UNL     1       3.958   1.017  -0.713  0.00  0.00    +0.000 A 
ATOM     25  C   UNL     1       5.781  -0.826   0.320  0.00  0.00    +0.000 A 
ATOM     26  C   UNL     1       5.238   0.919  -1.260  0.00  0.00    +0.000 A 
ATOM     27  C   UNL     1       6.149  -0.002  -0.744  0.00  0.00    +0.000 A 
BRANCH  25  28
ATOM     28  O   UNL     1       6.663  -1.729   0.833  0.00  0.00    +0.000 OA
ATOM     29  H   UNL     1       7.570  -1.459   0.618  0.00  0.00    +0.000 HD
ENDBRANCH  25  28
BRANCH  27  30
ATOM     30  O   UNL     1       7.395  -0.088  -1.288  0.00  0.00    +0.000 OA
ATOM     31  H   UNL     1       7.779  -0.958  -1.091  0.00  0.00    +0.000 HD
ENDBRANCH  27  30
ENDBRANCH  21  22
ENDBRANCH  19  20
ENDBRANCH  17  19
ENDBRANCH   2  17
TORSDOF 11
