REMARK  Name = 8550
REMARK  14 active torsions:
REMARK  status: ('A' for Active; 'I' for Inactive)
REMARK    1  A    between atoms: O_1  and  C_18
REMARK    2  A    between atoms: O_1  and  C_27
REMARK    3  A    between atoms: O_2  and  C_19
REMARK    4  A    between atoms: O_2  and  C_29
REMARK    5  A    between atoms: O_3  and  C_24
REMARK    6  A    between atoms: O_3  and  C_32
REMARK    7  A    between atoms: O_6  and  C_37
REMARK    8  A    between atoms: O_6  and  C_40
REMARK    9  A    between atoms: O_7  and  C_38
REMARK   10  A    between atoms: O_7  and  C_41
REMARK   11  A    between atoms: O_8  and  C_39
REMARK   12  A    between atoms: O_8  and  C_42
REMARK   13  A    between atoms: C_14  and  C_24
REMARK   14  A    between atoms: C_29  and  C_34
REMARK                            x       y       z     vdW  Elec       q    Type
REMARK                         _______ _______ _______ _____ _____    ______ ____
ROOT
ATOM      1  N   UNL     1       2.350   2.070  -0.027  0.00  0.00    +0.000 NA
ATOM      2  N   UNL     1       5.241  -0.135  -0.997  0.00  0.00    +0.000 N 
ATOM      3  C   UNL     1       1.917  -0.795   0.579  0.00  0.00    +0.000 C 
ATOM      4  C   UNL     1       1.262   0.325   1.411  0.00  0.00    +0.000 C 
ATOM      5  C   UNL     1       2.177  -0.295  -0.856  0.00  0.00    +0.000 C 
ATOM      6  C   UNL     1       1.058  -2.075   0.647  0.00  0.00    +0.000 C 
ATOM      7  C   UNL     1       2.956   1.031  -0.906  0.00  0.00    +0.000 C 
ATOM      8  C   UNL     1       2.112   1.603   1.347  0.00  0.00    +0.000 C 
ATOM      9  C   UNL     1      -0.190   0.582   0.981  0.00  0.00    +0.000 C 
ATOM     10  C   UNL     1      -0.404  -1.845   0.242  0.00  0.00    +0.000 C 
ATOM     11  C   UNL     1      -1.031  -0.692   1.030  0.00  0.00    +0.000 C 
ATOM     12  C   UNL     1       4.429   0.904  -0.641  0.00  0.00    +0.000 A 
ATOM     13  C   UNL     1       3.159   3.314  -0.039  0.00  0.00    +0.000 C 
ATOM     14  C   UNL     1       4.619   3.150   0.454  0.00  0.00    +0.000 C 
ATOM     15  C   UNL     1       5.210   1.876  -0.046  0.00  0.00    +0.000 A 
ATOM     16  C   UNL     1       6.546   1.396  -0.012  0.00  0.00    +0.000 A 
ATOM     17  C   UNL     1       6.538   0.133  -0.614  0.00  0.00    +0.000 A 
ATOM     18  C   UNL     1       7.767   1.908   0.471  0.00  0.00    +0.000 A 
ATOM     19  C   UNL     1       7.696  -0.640  -0.757  0.00  0.00    +0.000 A 
ATOM     20  C   UNL     1       8.931   1.144   0.336  0.00  0.00    +0.000 A 
ATOM     21  C   UNL     1       8.894  -0.110  -0.270  0.00  0.00    +0.000 A 
ATOM     22  H   UNL     1       4.946  -0.978  -1.470  0.00  0.00    +0.000 HD
ENDROOT
BRANCH  10  23
ATOM     23  O   UNL     1      -1.168  -3.019   0.541  0.00  0.00    +0.000 OA
ATOM     24  C   UNL     1      -2.374  -3.048  -0.203  0.00  0.00    +0.000 C 
ENDBRANCH  10  23
BRANCH   6  26
ATOM     25  O   UNL     1       1.111  -3.746  -1.091  0.00  0.00    +0.000 OA
ATOM     26  C   UNL     1       1.683  -3.163  -0.179  0.00  0.00    +0.000 C 
BRANCH  26  27
ATOM     27  O   UNL     1       2.959  -3.383   0.247  0.00  0.00    +0.000 OA
ATOM     28  C   UNL     1       3.676  -4.402  -0.458  0.00  0.00    +0.000 C 
ENDBRANCH  26  27
ENDBRANCH   6  26
BRANCH  11  29
ATOM     29  O   UNL     1      -2.320  -0.416   0.480  0.00  0.00    +0.000 OA
BRANCH  29  31
ATOM     30  O   UNL     1      -3.090   0.220   2.554  0.00  0.00    +0.000 OA
ATOM     31  C   UNL     1      -3.254   0.034   1.358  0.00  0.00    +0.000 C 
BRANCH  31  32
ATOM     32  C   UNL     1      -4.544   0.280   0.665  0.00  0.00    +0.000 A 
ATOM     33  C   UNL     1      -5.747   0.131   1.355  0.00  0.00    +0.000 A 
ATOM     34  C   UNL     1      -4.553   0.658  -0.678  0.00  0.00    +0.000 A 
ATOM     35  C   UNL     1      -5.765   0.887  -1.330  0.00  0.00    +0.000 A 
ATOM     36  C   UNL     1      -6.958   0.359   0.704  0.00  0.00    +0.000 A 
ATOM     37  C   UNL     1      -6.968   0.737  -0.639  0.00  0.00    +0.000 A 
BRANCH  35  38
ATOM     38  O   UNL     1      -5.761   1.256  -2.641  0.00  0.00    +0.000 OA
ATOM     39  C   UNL     1      -4.489   1.386  -3.273  0.00  0.00    +0.000 C 
ENDBRANCH  35  38
BRANCH  36  40
ATOM     40  O   UNL     1      -8.126   0.209   1.390  0.00  0.00    +0.000 OA
ATOM     41  C   UNL     1      -8.636   1.360   2.060  0.00  0.00    +0.000 C 
ENDBRANCH  36  40
BRANCH  37  42
ATOM     42  O   UNL     1      -8.152   0.963  -1.275  0.00  0.00    +0.000 OA
ATOM     43  C   UNL     1      -8.762  -0.152  -1.921  0.00  0.00    +0.000 C 
ENDBRANCH  37  42
ENDBRANCH  31  32
ENDBRANCH  29  31
ENDBRANCH  11  29
TORSDOF 9
