REMARK  Name = 275196
REMARK  8 active torsions:
REMARK  status: ('A' for Active; 'I' for Inactive)
REMARK    1  A    between atoms: O_2  and  C_16
REMARK    2  A    between atoms: O_2  and  C_28
REMARK    3  A    between atoms: O_5  and  C_24
REMARK    4  A    between atoms: O_5  and  C_29
REMARK    5  A    between atoms: O_7  and  C_26
REMARK    6  A    between atoms: O_7  and  C_30
REMARK    7  A    between atoms: N_8  and  C_17
REMARK    8  A    between atoms: C_9  and  C_10
REMARK                            x       y       z     vdW  Elec       q    Type
REMARK                         _______ _______ _______ _____ _____    ______ ____
ROOT
ATOM      1  O   UNL     1       4.364   2.228  -0.242  0.00  0.00    +0.000 OA
ATOM      2  O   UNL     1       5.907   0.561   0.562  0.00  0.00    +0.000 OA
ATOM      3  N   UNL     1       0.282  -2.409  -0.502  0.00  0.00    +0.000 NA
ATOM      4  C   UNL     1       0.557  -0.960  -0.386  0.00  0.00    +0.000 C 
ATOM      5  C   UNL     1       2.014  -0.608  -0.130  0.00  0.00    +0.000 A 
ATOM      6  C   UNL     1       0.967  -3.181   0.540  0.00  0.00    +0.000 C 
ATOM      7  C   UNL     1       2.925  -1.584   0.349  0.00  0.00    +0.000 A 
ATOM      8  C   UNL     1       2.488  -3.015   0.530  0.00  0.00    +0.000 C 
ATOM      9  C   UNL     1       2.456   0.710  -0.348  0.00  0.00    +0.000 A 
ATOM     10  C   UNL     1       0.569  -2.917  -1.844  0.00  0.00    +0.000 C 
ATOM     11  C   UNL     1       4.264  -1.243   0.596  0.00  0.00    +0.000 A 
ATOM     12  C   UNL     1       3.776   1.010  -0.086  0.00  0.00    +0.000 A 
ATOM     13  C   UNL     1       4.656   0.060   0.373  0.00  0.00    +0.000 A 
ATOM     14  C   UNL     1       5.714   1.936   0.172  0.00  0.00    +0.000 C 
ENDROOT
BRANCH   4  17
ATOM     15  O   UNL     1      -0.242   1.091   0.657  0.00  0.00    +0.000 OA
ATOM     16  O   UNL     1      -1.660   2.891   0.363  0.00  0.00    +0.000 OA
ATOM     17  C   UNL     1      -0.339  -0.358   0.709  0.00  0.00    +0.000 C 
ATOM     18  C   UNL     1      -1.786  -0.586   0.498  0.00  0.00    +0.000 A 
ATOM     19  C   UNL     1      -2.431   0.626   0.354  0.00  0.00    +0.000 A 
ATOM     20  C   UNL     1      -1.452   1.697   0.449  0.00  0.00    +0.000 C 
ATOM     21  C   UNL     1      -2.502  -1.769   0.448  0.00  0.00    +0.000 A 
ATOM     22  C   UNL     1      -3.795   0.728   0.149  0.00  0.00    +0.000 A 
ATOM     23  C   UNL     1      -3.884  -1.700   0.242  0.00  0.00    +0.000 A 
ATOM     24  C   UNL     1      -4.526  -0.460   0.093  0.00  0.00    +0.000 A 
BRANCH  22  25
ATOM     25  O   UNL     1      -4.407   1.930   0.007  0.00  0.00    +0.000 OA
ATOM     26  C   UNL     1      -5.421   2.264   0.957  0.00  0.00    +0.000 C 
ENDBRANCH  22  25
BRANCH  24  27
ATOM     27  O   UNL     1      -5.874  -0.430  -0.106  0.00  0.00    +0.000 OA
ATOM     28  C   UNL     1      -6.330  -0.471  -1.457  0.00  0.00    +0.000 C 
ENDBRANCH  24  27
ENDBRANCH   4  17
BRANCH   9  29
ATOM     29  O   UNL     1       1.651   1.677  -0.860  0.00  0.00    +0.000 OA
ATOM     30  C   UNL     1       2.060   2.283  -2.086  0.00  0.00    +0.000 C 
ENDBRANCH   9  29
TORSDOF 4
