REMARK  Name = 24905153
REMARK  7 active torsions:
REMARK  status: ('A' for Active; 'I' for Inactive)
REMARK    1  A    between atoms: O_1  and  C_20
REMARK    2  A    between atoms: O_1  and  C_23
REMARK    3  A    between atoms: O_2  and  C_22
REMARK    4  A    between atoms: O_2  and  C_24
REMARK    5  A    between atoms: N_3  and  C_8
REMARK    6  A    between atoms: N_7  and  C_16
REMARK    7  A    between atoms: C_14  and  C_15
REMARK                            x       y       z     vdW  Elec       q    Type
REMARK                         _______ _______ _______ _____ _____    ______ ____
ROOT
ATOM      1  N   UNL     1       2.469   0.637   0.344  0.00  0.00    +0.000 N 
ATOM      2  N   UNL     1       1.226   1.148   0.412  0.00  0.00    +0.000 NA
ATOM      3  N   UNL     1       3.582  -1.498   0.091  0.00  0.00    +0.000 NA
ATOM      4  N   UNL     1       1.984  -3.330  -0.106  0.00  0.00    +0.000 NA
ATOM      5  C   UNL     1       2.495  -0.717   0.189  0.00  0.00    +0.000 A 
ATOM      6  C   UNL     1       1.172  -1.122   0.153  0.00  0.00    +0.000 A 
ATOM      7  C   UNL     1       0.440   0.072   0.295  0.00  0.00    +0.000 A 
ATOM      8  C   UNL     1       0.932  -2.483  -0.001  0.00  0.00    +0.000 A 
ATOM      9  C   UNL     1       3.226  -2.793  -0.054  0.00  0.00    +0.000 A 
ENDROOT
BRANCH   7  10
ATOM     10  C   UNL     1      -0.992   0.225   0.323  0.00  0.00    +0.000 A 
ATOM     11  C   UNL     1      -1.694   0.438  -0.864  0.00  0.00    +0.000 A 
ATOM     12  C   UNL     1      -1.678   0.161   1.536  0.00  0.00    +0.000 A 
ATOM     13  C   UNL     1      -3.080   0.587  -0.838  0.00  0.00    +0.000 A 
ATOM     14  C   UNL     1      -3.065   0.310   1.562  0.00  0.00    +0.000 A 
ATOM     15  C   UNL     1      -3.766   0.523   0.375  0.00  0.00    +0.000 A 
BRANCH  13  16
ATOM     16  O   UNL     1      -3.754   0.795  -2.004  0.00  0.00    +0.000 OA
ATOM     17  C   UNL     1      -4.213  -0.360  -2.703  0.00  0.00    +0.000 C 
ENDBRANCH  13  16
BRANCH  15  18
ATOM     18  O   UNL     1      -5.120   0.668   0.413  0.00  0.00    +0.000 OA
ATOM     19  C   UNL     1      -5.744   0.590   1.694  0.00  0.00    +0.000 C 
ENDBRANCH  15  18
ENDBRANCH   7  10
BRANCH   1  20
ATOM     20  C   UNL     1       3.656   1.470   0.430  0.00  0.00    +0.000 C 
ATOM     21  C   UNL     1       4.388   1.601  -0.922  0.00  0.00    +0.000 C 
ATOM     22  C   UNL     1       3.334   2.975   0.314  0.00  0.00    +0.000 C 
ATOM     23  C   UNL     1       4.582   3.094  -0.585  0.00  0.00    +0.000 C 
ENDBRANCH   1  20
BRANCH   8  24
ATOM     24  N   UNL     1      -0.378  -2.993  -0.052  0.00  0.00    +0.000 N 
ATOM     25  H   UNL     1      -1.182  -2.386   0.022  0.00  0.00    +0.000 HD
ATOM     26  H   UNL     1      -0.508  -3.989  -0.166  0.00  0.00    +0.000 HD
ENDBRANCH   8  24
TORSDOF 5
