REMARK  Name = 9878
REMARK  7 active torsions:
REMARK  status: ('A' for Active; 'I' for Inactive)
REMARK    1  A    between atoms: O_2  and  C_10
REMARK    2  A    between atoms: O_3  and  C_12
REMARK    3  A    between atoms: C_6  and  C_18
REMARK    4  A    between atoms: C_10  and  C_20
REMARK    5  A    between atoms: C_14  and  C_21
REMARK    6  A    between atoms: C_17  and  C_23
REMARK    7  A    between atoms: C_20  and  C_26
REMARK                            x       y       z     vdW  Elec       q    Type
REMARK                         _______ _______ _______ _____ _____    ______ ____
ROOT
ATOM      1  F   UNL     1       0.888   0.432   1.284  0.00  0.00    +0.000 F 
ATOM      2  O   UNL     1       5.718   0.706   1.554  0.00  0.00    +0.000 OA
ATOM      3  C   UNL     1      -2.292   0.171  -0.181  0.00  0.00    +0.000 C 
ATOM      4  C   UNL     1      -1.335  -0.969   0.232  0.00  0.00    +0.000 C 
ATOM      5  C   UNL     1       0.034  -0.899  -0.461  0.00  0.00    +0.000 C 
ATOM      6  C   UNL     1       0.726   0.455  -0.093  0.00  0.00    +0.000 C 
ATOM      7  C   UNL     1      -3.549  -0.245   0.630  0.00  0.00    +0.000 C 
ATOM      8  C   UNL     1      -1.629   1.501   0.228  0.00  0.00    +0.000 C 
ATOM      9  C   UNL     1      -0.208   1.677  -0.355  0.00  0.00    +0.000 C 
ATOM     10  C   UNL     1      -2.187  -2.224   0.060  0.00  0.00    +0.000 C 
ATOM     11  C   UNL     1       2.184   0.555  -0.690  0.00  0.00    +0.000 C 
ATOM     12  C   UNL     1      -3.603  -1.782   0.484  0.00  0.00    +0.000 C 
ATOM     13  C   UNL     1       0.905  -2.100  -0.050  0.00  0.00    +0.000 C 
ATOM     14  C   UNL     1       2.321  -2.027  -0.636  0.00  0.00    +0.000 C 
ATOM     15  C   UNL     1      -2.628   0.171  -1.699  0.00  0.00    +0.000 C 
ATOM     16  C   UNL     1       2.960  -0.699  -0.237  0.00  0.00    +0.000 C 
ATOM     17  C   UNL     1       2.231   0.624  -2.234  0.00  0.00    +0.000 C 
ATOM     18  C   UNL     1       2.852   1.834  -0.201  0.00  0.00    +0.000 C 
ATOM     19  C   UNL     1       3.092  -3.297  -0.249  0.00  0.00    +0.000 C 
ATOM     20  C   UNL     1       4.093  -0.626   0.484  0.00  0.00    +0.000 C 
ATOM     21  C   UNL     1       3.976   1.897   0.516  0.00  0.00    +0.000 C 
ATOM     22  C   UNL     1       4.680   0.664   0.902  0.00  0.00    +0.000 C 
ENDROOT
BRANCH   7  24
ATOM     23  O   UNL     1      -5.543  -0.047  -0.666  0.00  0.00    +0.000 OA
ATOM     24  C   UNL     1      -4.819   0.430   0.206  0.00  0.00    +0.000 C 
ATOM     25  C   UNL     1      -5.165   1.719   0.901  0.00  0.00    +0.000 C 
ENDBRANCH   7  24
BRANCH   7  26
ATOM     26  O   UNL     1      -3.412   0.095   2.007  0.00  0.00    +0.000 OA
ATOM     27  H   UNL     1      -4.110  -0.359   2.507  0.00  0.00    +0.000 HD
ENDBRANCH   7  26
BRANCH   9  28
ATOM     28  O   UNL     1      -0.290   1.984  -1.738  0.00  0.00    +0.000 OA
ATOM     29  H   UNL     1      -0.215   1.169  -2.254  0.00  0.00    +0.000 HD
ENDBRANCH   9  28
TORSDOF 3
