REMARK  Name = 443872
REMARK  5 active torsions:
REMARK  status: ('A' for Active; 'I' for Inactive)
REMARK    1  A    between atoms: O_3  and  C_24
REMARK    2  A    between atoms: O_3  and  C_30
REMARK    3  A    between atoms: C_9  and  C_20
REMARK    4  A    between atoms: C_12  and  C_23
REMARK    5  A    between atoms: C_15  and  C_24
REMARK                            x       y       z     vdW  Elec       q    Type
REMARK                         _______ _______ _______ _____ _____    ______ ____
ROOT
ATOM      1  O   UNL     1      -0.646  -0.517   1.453  0.00  0.00    +0.000 OA
ATOM      2  O   UNL     1       4.582  -0.962  -0.325  0.00  0.00    +0.000 OA
ATOM      3  O   UNL     1       6.801  -1.103   0.242  0.00  0.00    +0.000 OA
ATOM      4  O   UNL     1      -6.346  -0.804   0.691  0.00  0.00    +0.000 OA
ATOM      5  C   UNL     1      -0.843  -0.787   0.059  0.00  0.00    +0.000 C 
ATOM      6  C   UNL     1      -0.206   0.233  -0.881  0.00  0.00    +0.000 C 
ATOM      7  C   UNL     1       2.110  -0.680  -0.226  0.00  0.00    +0.000 C 
ATOM      8  C   UNL     1       1.234   0.576  -0.459  0.00  0.00    +0.000 C 
ATOM      9  C   UNL     1       0.082  -1.644   0.931  0.00  0.00    +0.000 C 
ATOM     10  C   UNL     1      -2.280  -1.245  -0.303  0.00  0.00    +0.000 C 
ATOM     11  C   UNL     1       1.573  -1.434   1.005  0.00  0.00    +0.000 C 
ATOM     12  C   UNL     1       3.518  -0.026  -0.098  0.00  0.00    +0.000 C 
ATOM     13  C   UNL     1      -1.119   1.458  -1.058  0.00  0.00    +0.000 C 
ATOM     14  C   UNL     1       2.035   1.412  -1.460  0.00  0.00    +0.000 C 
ATOM     15  C   UNL     1       3.506   1.042  -1.222  0.00  0.00    +0.000 C 
ATOM     16  C   UNL     1      -3.156  -0.050  -0.714  0.00  0.00    +0.000 C 
ATOM     17  C   UNL     1      -2.504   1.027  -1.559  0.00  0.00    +0.000 C 
ATOM     18  C   UNL     1       2.097  -1.671  -1.425  0.00  0.00    +0.000 C 
ATOM     19  C   UNL     1      -2.955  -1.991   0.888  0.00  0.00    +0.000 C 
ATOM     20  C   UNL     1       3.891   0.594   1.246  0.00  0.00    +0.000 C 
ATOM     21  C   UNL     1      -2.184  -2.221  -1.502  0.00  0.00    +0.000 C 
ATOM     22  C   UNL     1      -4.441  -2.252   0.688  0.00  0.00    +0.000 C 
ATOM     23  C   UNL     1       5.404   0.636   1.185  0.00  0.00    +0.000 C 
ATOM     24  C   UNL     1      -4.447   0.086  -0.366  0.00  0.00    +0.000 C 
ATOM     25  C   UNL     1       5.709  -0.565   0.342  0.00  0.00    +0.000 C 
ATOM     26  C   UNL     1      -5.166  -0.968   0.386  0.00  0.00    +0.000 C 
ENDROOT
BRANCH  13  28
ATOM     27  O   UNL     1      -0.693   2.002   1.252  0.00  0.00    +0.000 OA
ATOM     28  C   UNL     1      -1.244   2.279   0.195  0.00  0.00    +0.000 C 
BRANCH  28  29
ATOM     29  O   UNL     1      -2.052   3.351  -0.040  0.00  0.00    +0.000 OA
ATOM     30  C   UNL     1      -2.258   4.222   1.076  0.00  0.00    +0.000 C 
ENDBRANCH  28  29
ENDBRANCH  13  28
TORSDOF 2
