REMARK  Name = 439501
REMARK  14 active torsions:
REMARK  status: ('A' for Active; 'I' for Inactive)
REMARK    1  A    between atoms: O_1  and  C_15
REMARK    2  A    between atoms: O_2  and  C_18
REMARK    3  A    between atoms: O_3  and  C_19
REMARK    4  A    between atoms: O_4  and  C_25
REMARK    5  A    between atoms: O_5  and  C_28
REMARK    6  A    between atoms: O_6  and  C_31
REMARK    7  A    between atoms: O_6  and  C_35
REMARK    8  A    between atoms: O_10  and  C_37
REMARK    9  A    between atoms: O_11  and  C_38
REMARK   10  A    between atoms: O_12  and  C_40
REMARK   11  A    between atoms: C_16  and  C_29
REMARK   12  A    between atoms: C_17  and  C_28
REMARK   13  A    between atoms: C_21  and  C_32
REMARK   14  A    between atoms: C_39  and  C_41
REMARK                            x       y       z     vdW  Elec       q    Type
REMARK                         _______ _______ _______ _____ _____    ______ ____
ROOT
ATOM      1  C   UNL     1       0.953  -0.718  -0.198  0.00  0.00    +0.000 C 
ATOM      2  C   UNL     1       1.916   0.397  -0.732  0.00  0.00    +0.000 C 
ATOM      3  C   UNL     1       3.267   0.492   0.031  0.00  0.00    +0.000 C 
ATOM      4  C   UNL     1       3.998  -0.867   0.170  0.00  0.00    +0.000 C 
ATOM      5  C   UNL     1      -0.420  -0.773  -1.032  0.00  0.00    +0.000 C 
ATOM      6  C   UNL     1      -1.068   0.667  -1.049  0.00  0.00    +0.000 C 
ATOM      7  C   UNL     1       1.723  -2.064  -0.100  0.00  0.00    +0.000 C 
ATOM      8  C   UNL     1       3.022  -1.939   0.702  0.00  0.00    +0.000 C 
ATOM      9  C   UNL     1       5.071  -0.578   1.269  0.00  0.00    +0.000 C 
ATOM     10  C   UNL     1       1.223   1.770  -0.800  0.00  0.00    +0.000 C 
ATOM     11  C   UNL     1       3.165   0.992   1.484  0.00  0.00    +0.000 C 
ATOM     12  C   UNL     1      -0.086   1.727  -1.570  0.00  0.00    +0.000 C 
ATOM     13  C   UNL     1      -1.474  -1.772  -0.424  0.00  0.00    +0.000 C 
ATOM     14  C   UNL     1       4.390   0.428   2.218  0.00  0.00    +0.000 C 
ATOM     15  C   UNL     1      -1.603   1.079   0.350  0.00  0.00    +0.000 C 
ATOM     16  C   UNL     1       4.619  -1.368  -1.149  0.00  0.00    +0.000 C 
ATOM     17  C   UNL     1      -1.972  -1.352   0.963  0.00  0.00    +0.000 C 
ATOM     18  C   UNL     1      -2.555   0.061   0.980  0.00  0.00    +0.000 C 
ENDROOT
BRANCH   9  21
ATOM     19  O   UNL     1       8.551  -0.009   0.052  0.00  0.00    +0.000 OA
ATOM     20  O   UNL     1       8.704   2.276  -0.179  0.00  0.00    +0.000 OA
ATOM     21  C   UNL     1       6.382  -0.030   0.784  0.00  0.00    +0.000 C 
ATOM     22  C   UNL     1       7.524  -0.913   0.470  0.00  0.00    +0.000 C 
ATOM     23  C   UNL     1       6.692   1.248   0.579  0.00  0.00    +0.000 C 
ATOM     24  C   UNL     1       8.079   1.270   0.111  0.00  0.00    +0.000 C 
ENDBRANCH   9  21
BRANCH   3  25
ATOM     25  O   UNL     1       4.124   1.394  -0.687  0.00  0.00    +0.000 OA
ATOM     26  H   UNL     1       4.095   1.164  -1.630  0.00  0.00    +0.000 HD
ENDBRANCH   3  25
BRANCH   6  27
ATOM     27  O   UNL     1      -2.181   0.683  -1.956  0.00  0.00    +0.000 OA
ATOM     28  H   UNL     1      -2.856   0.066  -1.631  0.00  0.00    +0.000 HD
ENDBRANCH   6  27
BRANCH   7  29
ATOM     29  O   UNL     1       0.944  -3.045   0.580  0.00  0.00    +0.000 OA
ATOM     30  H   UNL     1       1.434  -3.885   0.552  0.00  0.00    +0.000 HD
ENDBRANCH   7  29
BRANCH  13  31
ATOM     31  O   UNL     1      -2.627  -1.907  -1.264  0.00  0.00    +0.000 OA
ATOM     32  H   UNL     1      -3.212  -2.572  -0.862  0.00  0.00    +0.000 HD
ENDBRANCH  13  31
BRANCH  18  33
ATOM     33  O   UNL     1      -3.804   0.099   0.296  0.00  0.00    +0.000 OA
BRANCH  33  35
ATOM     34  O   UNL     1      -5.441   0.559   1.952  0.00  0.00    +0.000 OA
ATOM     35  C   UNL     1      -4.675   1.075   0.858  0.00  0.00    +0.000 C 
ATOM     36  C   UNL     1      -5.594   1.633  -0.228  0.00  0.00    +0.000 C 
ATOM     37  C   UNL     1      -6.618   0.585  -0.667  0.00  0.00    +0.000 C 
ATOM     38  C   UNL     1      -6.352  -0.484   1.590  0.00  0.00    +0.000 C 
ATOM     39  C   UNL     1      -7.358   0.003   0.538  0.00  0.00    +0.000 C 
ATOM     40  C   UNL     1      -7.041  -0.939   2.873  0.00  0.00    +0.000 C 
BRANCH  36  41
ATOM     41  O   UNL     1      -6.265   2.772   0.314  0.00  0.00    +0.000 OA
ATOM     42  H   UNL     1      -6.876   3.099  -0.368  0.00  0.00    +0.000 HD
ENDBRANCH  36  41
BRANCH  37  43
ATOM     43  O   UNL     1      -7.563   1.173  -1.559  0.00  0.00    +0.000 OA
ATOM     44  H   UNL     1      -8.207   0.485  -1.797  0.00  0.00    +0.000 HD
ENDBRANCH  37  43
BRANCH  39  45
ATOM     45  O   UNL     1      -8.161  -1.083   0.083  0.00  0.00    +0.000 OA
ATOM     46  H   UNL     1      -8.750  -1.342   0.812  0.00  0.00    +0.000 HD
ENDBRANCH  39  45
ENDBRANCH  33  35
ENDBRANCH  18  33
BRANCH   5  47
ATOM     47  C   UNL     1      -0.129  -1.250  -2.486  0.00  0.00    +0.000 C 
BRANCH  47  48
ATOM     48  O   UNL     1      -1.358  -1.292  -3.168  0.00  0.00    +0.000 OA
ATOM     49  H   UNL     1      -1.768  -2.157  -3.000  0.00  0.00    +0.000 HD
ENDBRANCH  47  48
ENDBRANCH   5  47
TORSDOF 12
