REMARK  Name = 28417
REMARK  4 active torsions:
REMARK  status: ('A' for Active; 'I' for Inactive)
REMARK    1  A    between atoms: O_1  and  C_10
REMARK    2  A    between atoms: C_5  and  C_16
REMARK    3  A    between atoms: C_8  and  C_19
REMARK    4  A    between atoms: C_10  and  C_20
REMARK                            x       y       z     vdW  Elec       q    Type
REMARK                         _______ _______ _______ _____ _____    ______ ____
ROOT
ATOM      1  O   UNL     1      -5.582   0.156   0.791  0.00  0.00    +0.000 OA
ATOM      2  N   UNL     1      -6.052  -1.122   0.515  0.00  0.00    +0.000 NA
ATOM      3  C   UNL     1       2.172   0.747   0.263  0.00  0.00    +0.000 C 
ATOM      4  C   UNL     1       2.868  -0.356  -0.566  0.00  0.00    +0.000 C 
ATOM      5  C   UNL     1       0.761   1.079  -0.241  0.00  0.00    +0.000 C 
ATOM      6  C   UNL     1      -0.115  -0.211  -0.181  0.00  0.00    +0.000 C 
ATOM      7  C   UNL     1      -1.607   0.028  -0.633  0.00  0.00    +0.000 C 
ATOM      8  C   UNL     1       2.025  -1.639  -0.454  0.00  0.00    +0.000 C 
ATOM      9  C   UNL     1       4.274  -0.372   0.111  0.00  0.00    +0.000 C 
ATOM     10  C   UNL     1       0.569  -1.407  -0.901  0.00  0.00    +0.000 C 
ATOM     11  C   UNL     1       3.212   1.864   0.317  0.00  0.00    +0.000 C 
ATOM     12  C   UNL     1       0.120   2.192   0.599  0.00  0.00    +0.000 C 
ATOM     13  C   UNL     1       4.572   1.135   0.334  0.00  0.00    +0.000 C 
ATOM     14  C   UNL     1      -2.171   1.291   0.086  0.00  0.00    +0.000 C 
ATOM     15  C   UNL     1       3.015   0.004  -2.074  0.00  0.00    +0.000 C 
ATOM     16  C   UNL     1      -1.286   2.513   0.110  0.00  0.00    +0.000 C 
ATOM     17  C   UNL     1      -2.431  -1.285  -0.318  0.00  0.00    +0.000 C 
ATOM     18  C   UNL     1      -1.714   0.295  -2.155  0.00  0.00    +0.000 C 
ATOM     19  C   UNL     1      -3.410   1.361   0.617  0.00  0.00    +0.000 C 
ATOM     20  C   UNL     1      -3.840  -1.002   0.043  0.00  0.00    +0.000 A 
ATOM     21  C   UNL     1      -4.248   0.232   0.499  0.00  0.00    +0.000 A 
ATOM     22  C   UNL     1      -4.991  -1.800   0.070  0.00  0.00    +0.000 A 
ENDROOT
BRANCH   9  23
ATOM     23  O   UNL     1       5.267  -0.977  -0.705  0.00  0.00    +0.000 OA
ATOM     24  H   UNL     1       6.138  -0.778  -0.319  0.00  0.00    +0.000 HD
ENDBRANCH   9  23
BRANCH   9  25
ATOM     25  C   UNL     1       4.289  -1.077   1.409  0.00  0.00    +0.000 C 
ATOM     26  C   UNL     1       4.301  -1.650   2.463  0.00  0.00    +0.000 C 
ENDBRANCH   9  25
TORSDOF 2
