REMARK  Name = 160531
REMARK  2 active torsions:
REMARK  status: ('A' for Active; 'I' for Inactive)
REMARK    1  A    between atoms: C_6  and  C_16
REMARK    2  A    between atoms: C_7  and  C_18
REMARK                            x       y       z     vdW  Elec       q    Type
REMARK                         _______ _______ _______ _____ _____    ______ ____
ROOT
ATOM      1  O   UNL     1      -4.915   0.921   0.965  0.00  0.00    +0.000 OA
ATOM      2  O   UNL     1       5.335  -0.307   1.292  0.00  0.00    +0.000 OA
ATOM      3  C   UNL     1      -0.569  -0.738  -0.407  0.00  0.00    +0.000 C 
ATOM      4  C   UNL     1       0.237   0.514   0.072  0.00  0.00    +0.000 C 
ATOM      5  C   UNL     1      -1.944  -0.735   0.266  0.00  0.00    +0.000 C 
ATOM      6  C   UNL     1      -2.756   0.526  -0.084  0.00  0.00    +0.000 C 
ATOM      7  C   UNL     1       1.651   0.572  -0.626  0.00  0.00    +0.000 C 
ATOM      8  C   UNL     1      -0.594   1.826  -0.046  0.00  0.00    +0.000 C 
ATOM      9  C   UNL     1      -2.025   1.722   0.514  0.00  0.00    +0.000 C 
ATOM     10  C   UNL     1      -2.912  -1.886   0.014  0.00  0.00    +0.000 C 
ATOM     11  C   UNL     1       0.192  -2.035  -0.102  0.00  0.00    +0.000 C 
ATOM     12  C   UNL     1       2.341  -0.795  -0.512  0.00  0.00    +0.000 C 
ATOM     13  C   UNL     1      -4.067   0.131   0.573  0.00  0.00    +0.000 C 
ATOM     14  C   UNL     1      -4.212  -1.379   0.654  0.00  0.00    +0.000 C 
ATOM     15  C   UNL     1       2.570   1.648   0.038  0.00  0.00    +0.000 C 
ATOM     16  C   UNL     1      -3.060   0.739  -1.578  0.00  0.00    +0.000 C 
ATOM     17  C   UNL     1       1.672  -1.939  -0.288  0.00  0.00    +0.000 C 
ATOM     18  C   UNL     1       1.529   0.923  -2.128  0.00  0.00    +0.000 C 
ATOM     19  C   UNL     1       3.846  -0.782  -0.528  0.00  0.00    +0.000 C 
ATOM     20  C   UNL     1       3.392   1.098   1.202  0.00  0.00    +0.000 C 
ATOM     21  C   UNL     1       4.287  -0.025   0.710  0.00  0.00    +0.000 C 
ENDROOT
TORSDOF 0
