REMARK  Name = 28204
REMARK  5 active torsions:
REMARK  status: ('A' for Active; 'I' for Inactive)
REMARK    1  A    between atoms: O_1  and  C_7
REMARK    2  A    between atoms: C_4  and  C_16
REMARK    3  A    between atoms: C_7  and  C_18
REMARK    4  A    between atoms: C_8  and  C_19
REMARK    5  A    between atoms: C_12  and  C_20
REMARK                            x       y       z     vdW  Elec       q    Type
REMARK                         _______ _______ _______ _____ _____    ______ ____
ROOT
ATOM      1  O   UNL     1       5.743   0.229   1.169  0.00  0.00    +0.000 OA
ATOM      2  C   UNL     1      -1.825  -0.624   0.301  0.00  0.00    +0.000 C 
ATOM      3  C   UNL     1      -2.572   0.642  -0.194  0.00  0.00    +0.000 C 
ATOM      4  C   UNL     1      -0.405  -0.770  -0.313  0.00  0.00    +0.000 C 
ATOM      5  C   UNL     1       0.415   0.530   0.054  0.00  0.00    +0.000 C 
ATOM      6  C   UNL     1      -3.966   0.465   0.481  0.00  0.00    +0.000 C 
ATOM      7  C   UNL     1       1.896   0.535  -0.493  0.00  0.00    +0.000 C 
ATOM      8  C   UNL     1      -1.776   1.875   0.247  0.00  0.00    +0.000 C 
ATOM      9  C   UNL     1      -0.343   1.840  -0.292  0.00  0.00    +0.000 C 
ATOM     10  C   UNL     1      -2.876  -1.721   0.112  0.00  0.00    +0.000 C 
ATOM     11  C   UNL     1       0.381  -2.031   0.163  0.00  0.00    +0.000 C 
ATOM     12  C   UNL     1      -4.244  -1.040   0.294  0.00  0.00    +0.000 C 
ATOM     13  C   UNL     1       1.806  -2.032  -0.417  0.00  0.00    +0.000 C 
ATOM     14  C   UNL     1       2.575  -0.776  -0.112  0.00  0.00    +0.000 C 
ATOM     15  C   UNL     1      -2.748   0.681  -1.742  0.00  0.00    +0.000 C 
ATOM     16  C   UNL     1       2.659   1.734   0.148  0.00  0.00    +0.000 C 
ATOM     17  C   UNL     1      -4.046   0.843   1.965  0.00  0.00    +0.000 C 
ATOM     18  C   UNL     1       1.944   0.680  -2.031  0.00  0.00    +0.000 C 
ATOM     19  C   UNL     1      -0.260  -3.366  -0.234  0.00  0.00    +0.000 C 
ATOM     20  C   UNL     1       4.172   1.631   0.031  0.00  0.00    +0.000 C 
ATOM     21  C   UNL     1       3.800  -0.867   0.433  0.00  0.00    +0.000 C 
ATOM     22  C   UNL     1       4.650   0.331   0.617  0.00  0.00    +0.000 C 
ENDROOT
BRANCH   6  23
ATOM     23  O   UNL     1      -4.979   1.212  -0.188  0.00  0.00    +0.000 OA
ATOM     24  H   UNL     1      -4.747   2.154  -0.118  0.00  0.00    +0.000 HD
ENDBRANCH   6  23
TORSDOF 1
