REMARK  Name = 133967
REMARK  2 active torsions:
REMARK  status: ('A' for Active; 'I' for Inactive)
REMARK    1  A    between atoms: C_6  and  C_16
REMARK    2  A    between atoms: C_7  and  C_18
REMARK                            x       y       z     vdW  Elec       q    Type
REMARK                         _______ _______ _______ _____ _____    ______ ____
ROOT
ATOM      1  F   UNL     1      -4.268  -1.538   1.245  0.00  0.00    +0.000 F 
ATOM      2  O   UNL     1      -4.496   1.296   0.534  0.00  0.00    +0.000 OA
ATOM      3  C   UNL     1       0.660   0.466   0.300  0.00  0.00    +0.000 C 
ATOM      4  C   UNL     1      -0.162  -0.656  -0.404  0.00  0.00    +0.000 C 
ATOM      5  C   UNL     1      -1.619  -0.574   0.058  0.00  0.00    +0.000 C 
ATOM      6  C   UNL     1      -2.255   0.792  -0.268  0.00  0.00    +0.000 C 
ATOM      7  C   UNL     1       2.170   0.456  -0.169  0.00  0.00    +0.000 C 
ATOM      8  C   UNL     1      -0.023   1.860   0.218  0.00  0.00    +0.000 C 
ATOM      9  C   UNL     1      -1.524   1.847   0.557  0.00  0.00    +0.000 C 
ATOM     10  C   UNL     1      -2.631  -1.594  -0.459  0.00  0.00    +0.000 C 
ATOM     11  C   UNL     1       0.439  -2.032  -0.083  0.00  0.00    +0.000 C 
ATOM     12  C   UNL     1       2.721  -0.976  -0.203  0.00  0.00    +0.000 C 
ATOM     13  C   UNL     1       3.001   1.299   0.844  0.00  0.00    +0.000 C 
ATOM     14  C   UNL     1      -3.679   0.472   0.148  0.00  0.00    +0.000 C 
ATOM     15  C   UNL     1      -3.964  -1.015   0.030  0.00  0.00    +0.000 C 
ATOM     16  C   UNL     1      -2.305   1.173  -1.759  0.00  0.00    +0.000 C 
ATOM     17  C   UNL     1       1.932  -2.064  -0.150  0.00  0.00    +0.000 C 
ATOM     18  C   UNL     1       2.322   1.060  -1.586  0.00  0.00    +0.000 C 
ATOM     19  C   UNL     1       4.222  -1.137  -0.293  0.00  0.00    +0.000 C 
ATOM     20  C   UNL     1       4.516   1.162   0.687  0.00  0.00    +0.000 C 
ATOM     21  C   UNL     1       4.945  -0.298   0.754  0.00  0.00    +0.000 C 
ENDROOT
TORSDOF 0
