REMARK  Name = 443943
REMARK  7 active torsions:
REMARK  status: ('A' for Active; 'I' for Inactive)
REMARK    1  A    between atoms: O_5  and  C_16
REMARK    2  A    between atoms: C_8  and  C_19
REMARK    3  A    between atoms: C_11  and  C_22
REMARK    4  A    between atoms: C_17  and  C_25
REMARK    5  A    between atoms: C_22  and  C_28
REMARK    6  A    between atoms: C_23  and  C_29
REMARK    7  A    between atoms: C_23  and  C_30
REMARK                            x       y       z     vdW  Elec       q    Type
REMARK                         _______ _______ _______ _____ _____    ______ ____
ROOT
ATOM      1  F   UNL     1      -1.504  -0.421  -1.159  0.00  0.00    +0.000 F 
ATOM      2  O   UNL     1       2.864  -0.553  -1.133  0.00  0.00    +0.000 OA
ATOM      3  O   UNL     1       3.488  -2.224   0.399  0.00  0.00    +0.000 OA
ATOM      4  O   UNL     1      -6.691  -0.804  -1.460  0.00  0.00    +0.000 OA
ATOM      5  C   UNL     1       1.408   0.645   0.479  0.00  0.00    +0.000 C 
ATOM      6  C   UNL     1       0.596  -0.651   0.696  0.00  0.00    +0.000 C 
ATOM      7  C   UNL     1      -0.867  -0.404   1.095  0.00  0.00    +0.000 C 
ATOM      8  C   UNL     1       2.798   0.030   0.166  0.00  0.00    +0.000 C 
ATOM      9  C   UNL     1      -1.570   0.404  -0.042  0.00  0.00    +0.000 C 
ATOM     10  C   UNL     1       1.494  -1.487   1.611  0.00  0.00    +0.000 C 
ATOM     11  C   UNL     1       2.925  -1.145   1.140  0.00  0.00    +0.000 C 
ATOM     12  C   UNL     1       0.742   1.419  -0.675  0.00  0.00    +0.000 C 
ATOM     13  C   UNL     1      -0.768   1.673  -0.464  0.00  0.00    +0.000 C 
ATOM     14  C   UNL     1      -3.116   0.623   0.222  0.00  0.00    +0.000 C 
ATOM     15  C   UNL     1      -1.587  -1.744   1.321  0.00  0.00    +0.000 C 
ATOM     16  C   UNL     1       1.518   1.524   1.754  0.00  0.00    +0.000 C 
ATOM     17  C   UNL     1      -3.759  -0.730   0.561  0.00  0.00    +0.000 C 
ATOM     18  C   UNL     1      -3.066  -1.552   1.621  0.00  0.00    +0.000 C 
ATOM     19  C   UNL     1       3.458  -1.846  -0.979  0.00  0.00    +0.000 C 
ATOM     20  C   UNL     1      -3.758   1.210  -1.070  0.00  0.00    +0.000 C 
ATOM     21  C   UNL     1      -3.422   1.571   1.404  0.00  0.00    +0.000 C 
ATOM     22  C   UNL     1      -5.274   1.093  -1.103  0.00  0.00    +0.000 C 
ATOM     23  C   UNL     1      -4.896  -1.184   0.007  0.00  0.00    +0.000 C 
ATOM     24  C   UNL     1       4.891  -1.808  -1.504  0.00  0.00    +0.000 C 
ATOM     25  C   UNL     1       2.636  -2.865  -1.758  0.00  0.00    +0.000 C 
ATOM     26  C   UNL     1      -5.686  -0.344  -0.921  0.00  0.00    +0.000 C 
ENDROOT
BRANCH  13  27
ATOM     27  O   UNL     1      -0.939   2.777   0.411  0.00  0.00    +0.000 OA
ATOM     28  H   UNL     1      -0.475   3.540   0.026  0.00  0.00    +0.000 HD
ENDBRANCH  13  27
BRANCH   8  30
ATOM     29  O   UNL     1       4.859   0.844   1.023  0.00  0.00    +0.000 OA
ATOM     30  C   UNL     1       3.931   1.012   0.234  0.00  0.00    +0.000 C 
BRANCH  30  32
ATOM     31 CL   UNL     1       5.454   2.754  -1.164  0.00  0.00    +0.000 Cl
ATOM     32  C   UNL     1       3.840   2.185  -0.714  0.00  0.00    +0.000 C 
ENDBRANCH  30  32
ENDBRANCH   8  30
TORSDOF 3
