REMARK  Name = 5876
REMARK  7 active torsions:
REMARK  status: ('A' for Active; 'I' for Inactive)
REMARK    1  A    between atoms: O_2  and  C_11
REMARK    2  A    between atoms: O_3  and  C_13
REMARK    3  A    between atoms: O_5  and  C_25
REMARK    4  A    between atoms: C_7  and  C_18
REMARK    5  A    between atoms: C_11  and  C_21
REMARK    6  A    between atoms: C_15  and  C_22
REMARK    7  A    between atoms: C_21  and  C_25
REMARK                            x       y       z     vdW  Elec       q    Type
REMARK                         _______ _______ _______ _____ _____    ______ ____
ROOT
ATOM      1  F   UNL     1       3.330  -3.036  -0.376  0.00  0.00    +0.000 F 
ATOM      2  O   UNL     1       5.993   0.474   1.779  0.00  0.00    +0.000 OA
ATOM      3  C   UNL     1      -1.988   0.205  -0.190  0.00  0.00    +0.000 C 
ATOM      4  C   UNL     1      -1.027  -0.967   0.114  0.00  0.00    +0.000 C 
ATOM      5  C   UNL     1       0.351  -0.830  -0.553  0.00  0.00    +0.000 C 
ATOM      6  C   UNL     1       1.036   0.481  -0.031  0.00  0.00    +0.000 C 
ATOM      7  C   UNL     1      -3.247  -0.295   0.575  0.00  0.00    +0.000 C 
ATOM      8  C   UNL     1      -1.328   1.494   0.341  0.00  0.00    +0.000 C 
ATOM      9  C   UNL     1       0.106   1.727  -0.184  0.00  0.00    +0.000 C 
ATOM     10  C   UNL     1      -1.872  -2.202  -0.186  0.00  0.00    +0.000 C 
ATOM     11  C   UNL     1       2.518   0.641  -0.557  0.00  0.00    +0.000 C 
ATOM     12  C   UNL     1      -3.288  -1.814   0.285  0.00  0.00    +0.000 C 
ATOM     13  C   UNL     1       1.216  -2.065  -0.250  0.00  0.00    +0.000 C 
ATOM     14  C   UNL     1      -2.315   0.347  -1.702  0.00  0.00    +0.000 C 
ATOM     15  C   UNL     1       2.642  -1.921  -0.761  0.00  0.00    +0.000 C 
ATOM     16  C   UNL     1       3.265  -0.657  -0.224  0.00  0.00    +0.000 C 
ATOM     17  C   UNL     1       2.622   0.873  -2.081  0.00  0.00    +0.000 C 
ATOM     18  C   UNL     1       3.176   1.843   0.107  0.00  0.00    +0.000 C 
ATOM     19  C   UNL     1       4.377  -0.702   0.527  0.00  0.00    +0.000 C 
ATOM     20  C   UNL     1       4.281   1.802   0.858  0.00  0.00    +0.000 C 
ATOM     21  C   UNL     1       4.968   0.522   1.107  0.00  0.00    +0.000 C 
ENDROOT
BRANCH   7  22
ATOM     22  O   UNL     1      -3.117  -0.084   1.977  0.00  0.00    +0.000 OA
ATOM     23  H   UNL     1      -3.144   0.872   2.152  0.00  0.00    +0.000 HD
ENDBRANCH   7  22
BRANCH   9  24
ATOM     24  O   UNL     1       0.021   2.160  -1.534  0.00  0.00    +0.000 OA
ATOM     25  H   UNL     1       0.622   2.918  -1.638  0.00  0.00    +0.000 HD
ENDBRANCH   9  24
BRANCH   7  27
ATOM     26  O   UNL     1      -4.518   1.585  -0.152  0.00  0.00    +0.000 OA
ATOM     27  C   UNL     1      -4.519   0.408   0.207  0.00  0.00    +0.000 C 
BRANCH  27  28
ATOM     28  C   UNL     1      -5.790  -0.409   0.304  0.00  0.00    +0.000 C 
BRANCH  28  29
ATOM     29  O   UNL     1      -6.894   0.419   0.602  0.00  0.00    +0.000 OA
ATOM     30  H   UNL     1      -6.752   0.788   1.490  0.00  0.00    +0.000 HD
ENDBRANCH  28  29
ENDBRANCH  27  28
ENDBRANCH   7  27
TORSDOF 5
