REMARK  Name = 9820838
REMARK  7 active torsions:
REMARK  status: ('A' for Active; 'I' for Inactive)
REMARK    1  A    between atoms: O_1  and  C_9
REMARK    2  A    between atoms: O_1  and  C_26
REMARK    3  A    between atoms: C_5  and  C_16
REMARK    4  A    between atoms: C_9  and  C_21
REMARK    5  A    between atoms: C_11  and  C_19
REMARK    6  A    between atoms: C_21  and  C_24
REMARK    7  A    between atoms: C_26  and  C_27
REMARK                            x       y       z     vdW  Elec       q    Type
REMARK                         _______ _______ _______ _____ _____    ______ ____
ROOT
ATOM      1  O   UNL     1       6.691  -0.564   1.386  0.00  0.00    +0.000 OA
ATOM      2  C   UNL     1      -1.500   0.527  -0.562  0.00  0.00    +0.000 C 
ATOM      3  C   UNL     1      -0.678  -0.780  -0.600  0.00  0.00    +0.000 C 
ATOM      4  C   UNL     1       0.786  -0.569  -1.008  0.00  0.00    +0.000 C 
ATOM      5  C   UNL     1       1.465   0.354   0.051  0.00  0.00    +0.000 C 
ATOM      6  C   UNL     1      -2.883  -0.060  -0.161  0.00  0.00    +0.000 C 
ATOM      7  C   UNL     1      -0.839   1.468   0.464  0.00  0.00    +0.000 C 
ATOM      8  C   UNL     1       0.683   1.696   0.255  0.00  0.00    +0.000 C 
ATOM      9  C   UNL     1      -1.555  -1.723  -1.418  0.00  0.00    +0.000 C 
ATOM     10  C   UNL     1      -2.993  -1.365  -0.985  0.00  0.00    +0.000 C 
ATOM     11  C   UNL     1       2.995   0.540  -0.215  0.00  0.00    +0.000 C 
ATOM     12  C   UNL     1       1.528  -1.909  -1.105  0.00  0.00    +0.000 C 
ATOM     13  C   UNL     1      -1.625   1.220  -1.946  0.00  0.00    +0.000 C 
ATOM     14  C   UNL     1       2.989  -1.699  -1.477  0.00  0.00    +0.000 C 
ATOM     15  C   UNL     1       3.686  -0.786  -0.502  0.00  0.00    +0.000 C 
ATOM     16  C   UNL     1       0.976   2.754  -0.815  0.00  0.00    +0.000 C 
ATOM     17  C   UNL     1       3.654   1.268   0.977  0.00  0.00    +0.000 C 
ATOM     18  C   UNL     1       5.171   1.229   0.917  0.00  0.00    +0.000 C 
ATOM     19  C   UNL     1       4.869  -1.147   0.021  0.00  0.00    +0.000 C 
ATOM     20  C   UNL     1       5.649  -0.198   0.848  0.00  0.00    +0.000 C 
ENDROOT
BRANCH   6  22
ATOM     21  O   UNL     1      -4.968   0.582  -1.130  0.00  0.00    +0.000 OA
ATOM     22  C   UNL     1      -4.042   0.867  -0.372  0.00  0.00    +0.000 C 
ATOM     23  C   UNL     1      -4.018   2.164   0.392  0.00  0.00    +0.000 C 
ENDBRANCH   6  22
BRANCH   6  24
ATOM     24  O   UNL     1      -2.932  -0.373   1.228  0.00  0.00    +0.000 OA
BRANCH  24  26
ATOM     25  O   UNL     1      -5.045  -1.269   0.967  0.00  0.00    +0.000 OA
ATOM     26  C   UNL     1      -4.078  -0.979   1.659  0.00  0.00    +0.000 C 
ATOM     27  C   UNL     1      -3.988  -1.247   3.130  0.00  0.00    +0.000 C 
ENDBRANCH  24  26
ENDBRANCH   6  24
TORSDOF 3
