REMARK  Name = 5311051
REMARK  7 active torsions:
REMARK  status: ('A' for Active; 'I' for Inactive)
REMARK    1  A    between atoms: O_3  and  C_11
REMARK    2  A    between atoms: O_4  and  C_15
REMARK    3  A    between atoms: C_7  and  C_18
REMARK    4  A    between atoms: C_11  and  C_21
REMARK    5  A    between atoms: C_14  and  C_22
REMARK    6  A    between atoms: C_16  and  C_23
REMARK    7  A    between atoms: C_21  and  C_26
REMARK                            x       y       z     vdW  Elec       q    Type
REMARK                         _______ _______ _______ _____ _____    ______ ____
ROOT
ATOM      1  F   UNL     1       1.376   0.302   1.271  0.00  0.00    +0.000 F 
ATOM      2  O   UNL     1       6.237   0.282   1.675  0.00  0.00    +0.000 OA
ATOM      3  C   UNL     1      -1.755   0.173  -0.318  0.00  0.00    +0.000 C 
ATOM      4  C   UNL     1      -0.868  -1.005   0.141  0.00  0.00    +0.000 C 
ATOM      5  C   UNL     1       0.529  -1.002  -0.499  0.00  0.00    +0.000 C 
ATOM      6  C   UNL     1       1.268   0.325  -0.111  0.00  0.00    +0.000 C 
ATOM      7  C   UNL     1      -3.075  -0.170   0.440  0.00  0.00    +0.000 C 
ATOM      8  C   UNL     1      -1.771  -2.216  -0.068  0.00  0.00    +0.000 C 
ATOM      9  C   UNL     1      -1.047   1.476   0.113  0.00  0.00    +0.000 C 
ATOM     10  C   UNL     1      -3.154  -1.730   0.437  0.00  0.00    +0.000 C 
ATOM     11  C   UNL     1       0.403   1.586  -0.413  0.00  0.00    +0.000 C 
ATOM     12  C   UNL     1       2.752   0.357  -0.652  0.00  0.00    +0.000 C 
ATOM     13  C   UNL     1       1.328  -2.237  -0.044  0.00  0.00    +0.000 C 
ATOM     14  C   UNL     1      -2.017   0.184  -1.849  0.00  0.00    +0.000 C 
ATOM     15  C   UNL     1       2.763  -2.219  -0.559  0.00  0.00    +0.000 C 
ATOM     16  C   UNL     1       3.441  -0.928  -0.178  0.00  0.00    +0.000 C 
ATOM     17  C   UNL     1      -4.279  -2.358  -0.379  0.00  0.00    +0.000 C 
ATOM     18  C   UNL     1       2.860   0.416  -2.193  0.00  0.00    +0.000 C 
ATOM     19  C   UNL     1       3.474   1.591  -0.130  0.00  0.00    +0.000 C 
ATOM     20  C   UNL     1       4.556  -0.945   0.569  0.00  0.00    +0.000 C 
ATOM     21  C   UNL     1       4.583   1.581   0.616  0.00  0.00    +0.000 C 
ATOM     22  C   UNL     1       5.210   0.305   1.006  0.00  0.00    +0.000 C 
ENDROOT
BRANCH   7  23
ATOM     23  O   UNL     1      -2.983   0.267   1.803  0.00  0.00    +0.000 OA
ATOM     24  H   UNL     1      -2.962   1.238   1.822  0.00  0.00    +0.000 HD
ENDBRANCH   7  23
BRANCH  11  25
ATOM     25  O   UNL     1       0.390   1.892  -1.798  0.00  0.00    +0.000 OA
ATOM     26  H   UNL     1       0.968   2.662  -1.936  0.00  0.00    +0.000 HD
ENDBRANCH  11  25
BRANCH   7  28
ATOM     27  O   UNL     1      -4.211   1.332  -1.009  0.00  0.00    +0.000 OA
ATOM     28  C   UNL     1      -4.285   0.575  -0.042  0.00  0.00    +0.000 C 
BRANCH  28  30
ATOM     29 CL   UNL     1      -6.161   1.835   1.442  0.00  0.00    +0.000 Cl
ATOM     30  C   UNL     1      -5.560   0.330   0.732  0.00  0.00    +0.000 C 
ENDBRANCH  28  30
ENDBRANCH   7  28
TORSDOF 4
