REMARK  Name = 66249
REMARK  12 active torsions:
REMARK  status: ('A' for Active; 'I' for Inactive)
REMARK    1  A    between atoms: O_1  and  C_12
REMARK    2  A    between atoms: O_2  and  C_16
REMARK    3  A    between atoms: O_4  and  C_28
REMARK    4  A    between atoms: O_4  and  C_33
REMARK    5  A    between atoms: N_6  and  C_32
REMARK    6  A    between atoms: C_8  and  C_18
REMARK    7  A    between atoms: C_12  and  C_21
REMARK    8  A    between atoms: C_15  and  C_23
REMARK    9  A    between atoms: C_17  and  C_25
REMARK   10  A    between atoms: C_21  and  C_28
REMARK   11  A    between atoms: C_24  and  C_30
REMARK   12  A    between atoms: C_33  and  C_36
REMARK                            x       y       z     vdW  Elec       q    Type
REMARK                         _______ _______ _______ _____ _____    ______ ____
ROOT
ATOM      1  N   UNL     1       5.258  -1.317  -0.184  0.00  0.00    +0.000 N 
ATOM      2  N   UNL     1       5.387  -2.654  -0.047  0.00  0.00    +0.000 NA
ATOM      3  C   UNL     1      -3.066   0.528   0.413  0.00  0.00    +0.000 C 
ATOM      4  C   UNL     1      -1.951   1.540   0.050  0.00  0.00    +0.000 C 
ATOM      5  C   UNL     1      -0.624   1.254   0.775  0.00  0.00    +0.000 C 
ATOM      6  C   UNL     1      -0.131  -0.156   0.329  0.00  0.00    +0.000 C 
ATOM      7  C   UNL     1      -4.232   1.128  -0.427  0.00  0.00    +0.000 C 
ATOM      8  C   UNL     1      -2.584  -0.879  -0.004  0.00  0.00    +0.000 C 
ATOM      9  C   UNL     1      -2.629   2.899   0.234  0.00  0.00    +0.000 C 
ATOM     10  C   UNL     1      -4.104   2.663  -0.187  0.00  0.00    +0.000 C 
ATOM     11  C   UNL     1      -1.203  -1.257   0.578  0.00  0.00    +0.000 C 
ATOM     12  C   UNL     1       1.329  -0.443   0.841  0.00  0.00    +0.000 C 
ATOM     13  C   UNL     1      -3.442   0.539   1.922  0.00  0.00    +0.000 C 
ATOM     14  C   UNL     1       0.419   2.304   0.496  0.00  0.00    +0.000 C 
ATOM     15  C   UNL     1       2.276   0.697   0.280  0.00  0.00    +0.000 C 
ATOM     16  C   UNL     1       1.752  -1.896   0.370  0.00  0.00    +0.000 C 
ATOM     17  C   UNL     1      -4.508   3.535  -1.372  0.00  0.00    +0.000 C 
ATOM     18  C   UNL     1       1.720   2.062   0.251  0.00  0.00    +0.000 C 
ATOM     19  C   UNL     1       1.457  -0.399   2.386  0.00  0.00    +0.000 C 
ATOM     20  C   UNL     1       3.216  -2.006   0.202  0.00  0.00    +0.000 A 
ATOM     21  C   UNL     1       3.550   0.439  -0.106  0.00  0.00    +0.000 C 
ATOM     22  C   UNL     1       3.977  -0.895  -0.034  0.00  0.00    +0.000 A 
ATOM     23  C   UNL     1       2.642   3.226  -0.017  0.00  0.00    +0.000 C 
ATOM     24  C   UNL     1       4.134  -3.068   0.185  0.00  0.00    +0.000 A 
ENDROOT
BRANCH   1  25
ATOM     25  C   UNL     1       6.392  -0.542  -0.437  0.00  0.00    +0.000 A 
ATOM     26  C   UNL     1       6.447   0.763   0.032  0.00  0.00    +0.000 A 
ATOM     27  C   UNL     1       7.448  -1.088  -1.154  0.00  0.00    +0.000 A 
ATOM     28  C   UNL     1       7.580   1.537  -0.220  0.00  0.00    +0.000 A 
ATOM     29  C   UNL     1       8.581  -0.314  -1.406  0.00  0.00    +0.000 A 
ATOM     30  C   UNL     1       8.647   0.999  -0.939  0.00  0.00    +0.000 A 
ENDBRANCH   1  25
BRANCH   7  31
ATOM     31  O   UNL     1      -4.152   0.778  -1.804  0.00  0.00    +0.000 OA
ATOM     32  H   UNL     1      -4.871   1.219  -2.287  0.00  0.00    +0.000 HD
ENDBRANCH   7  31
BRANCH  11  33
ATOM     33  O   UNL     1      -1.320  -1.549   1.963  0.00  0.00    +0.000 OA
ATOM     34  H   UNL     1      -1.974  -2.262   2.062  0.00  0.00    +0.000 HD
ENDBRANCH  11  33
BRANCH   7  36
ATOM     35  O   UNL     1      -6.458   1.363   0.386  0.00  0.00    +0.000 OA
ATOM     36  C   UNL     1      -5.589   0.613  -0.054  0.00  0.00    +0.000 C 
BRANCH  36  37
ATOM     37  C   UNL     1      -5.820  -0.871  -0.250  0.00  0.00    +0.000 C 
BRANCH  37  38
ATOM     38  O   UNL     1      -7.175  -1.129  -0.551  0.00  0.00    +0.000 OA
BRANCH  38  40
ATOM     39  O   UNL     1      -6.741  -3.394  -0.690  0.00  0.00    +0.000 OA
ATOM     40  C   UNL     1      -7.510  -2.444  -0.751  0.00  0.00    +0.000 C 
ATOM     41  C   UNL     1      -8.972  -2.565  -1.060  0.00  0.00    +0.000 C 
ENDBRANCH  38  40
ENDBRANCH  37  38
ENDBRANCH  36  37
ENDBRANCH   7  36
TORSDOF 7
