REMARK  Name = 
REMARK  22 active torsions:
REMARK  status: ('A' for Active; 'I' for Inactive)
REMARK    1  A    between atoms: C_1  and  C_2
REMARK    2  A    between atoms: C_2  and  C_3
REMARK    3  A    between atoms: C_7  and  C_8
REMARK    4  A    between atoms: C_16  and  C_17
REMARK    5  A    between atoms: C_16  and  C_18
REMARK    6  A    between atoms: C_18  and  O_20
REMARK    7  A    between atoms: C_23  and  C_24
REMARK    8  A    between atoms: C_27  and  C_28
REMARK    9  A    between atoms: C_29  and  C_30
REMARK   10  A    between atoms: C_33  and  O_34
REMARK   11  A    between atoms: O_34  and  C_35
REMARK   12  A    between atoms: C_37  and  C_38
REMARK   13  A    between atoms: C_38  and  O_40
REMARK   14  A    between atoms: C_41  and  O_42
REMARK   15  A    between atoms: C_43  and  O_44
REMARK   16  A    between atoms: C_45  and  O_46
REMARK   17  A    between atoms: O_46  and  C_47
REMARK   18  A    between atoms: C_49  and  C_50
REMARK   19  A    between atoms: C_50  and  O_52
REMARK   20  A    between atoms: C_53  and  O_54
REMARK   21  A    between atoms: C_55  and  O_56
REMARK   22  A    between atoms: C_57  and  O_58
REMARK                            x       y       z     vdW  Elec       q    Type
REMARK                         _______ _______ _______ _____ _____    ______ ____
ROOT
ATOM      1  C   UNL     1      -1.360   0.282   0.435  0.00  0.00    +0.000 C 
ATOM      2  C   UNL     1      -1.266   0.183   0.852  0.00  0.00    +0.000 C 
ATOM      3  C   UNL     1      -1.944   0.922   2.024  0.00  0.00    +0.000 C 
ATOM      4  C   UNL     1       0.273   0.024   1.438  0.00  0.00    +0.000 C 
ATOM      5  C   UNL     1       0.791   1.528   1.067  0.00  0.00    +0.000 C 
ATOM      6  C   UNL     1       2.300   1.500   1.371  0.00  0.00    +0.000 C 
ATOM      7  C   UNL     1       2.981   0.846   0.220  0.00  0.00    +0.000 C 
ATOM      8  C   UNL     1       2.633   1.519  -1.006  0.00  0.00    +0.000 C 
ATOM      9  C   UNL     1       2.465  -0.688   0.404  0.00  0.00    +0.000 C 
ATOM     10  C   UNL     1       2.993  -1.154  -1.038  0.00  0.00    +0.000 C 
ATOM     11  O   UNL     1       2.605  -0.672  -2.081  0.00  0.00    +0.000 OA
ATOM     12  C   UNL     1       4.385  -1.331  -0.601  0.00  0.00    +0.000 C 
ATOM     13  C   UNL     1       4.982  -0.547   0.312  0.00  0.00    +0.000 C 
ATOM     14  C   UNL     1       6.558  -0.860   0.400  0.00  0.00    +0.000 C 
ATOM     15  C   UNL     1       7.091   0.657   0.663  0.00  0.00    +0.000 C 
ATOM     16  C   UNL     1       8.519   0.793   0.420  0.00  0.00    +0.000 C 
ATOM     17  C   UNL     1       8.711   2.315   0.354  0.00  0.00    +0.000 C 
ATOM     18  C   UNL     1       9.060   0.384  -0.919  0.00  0.00    +0.000 C 
ATOM     19  C   UNL     1       8.333  -0.770  -1.417  0.00  0.00    +0.000 C 
ATOM     20  C   UNL     1       6.813  -0.691  -1.204  0.00  0.00    +0.000 C 
ATOM     21  C   UNL     1       6.483  -2.021  -1.859  0.00  0.00    +0.000 C 
ATOM     22  C   UNL     1       6.168   0.493  -1.669  0.00  0.00    +0.000 C 
ATOM     23  C   UNL     1       5.141   1.290  -1.053  0.00  0.00    +0.000 C 
ATOM     24  C   UNL     1       4.493   0.813   0.243  0.00  0.00    +0.000 C 
ATOM     25  C   UNL     1       4.823   1.755   1.330  0.00  0.00    +0.000 C 
ATOM     26  C   UNL     1       0.889  -0.526   0.042  0.00  0.00    +0.000 C 
ATOM     27  C   UNL     1       0.475   0.136  -1.065  0.00  0.00    +0.000 C 
ATOM     28  C   UNL     1       0.634  -2.041   0.159  0.00  0.00    +0.000 C 
ATOM     29  C   UNL     1      -0.805  -1.922  -0.178  0.00  0.00    +0.000 C 
ATOM     30  C   UNL     1      -1.577  -1.411   1.196  0.00  0.00    +0.000 C 
ENDROOT
BRANCH  16  31
ATOM     31  C   UNL     1       9.466   0.324   1.416  0.00  0.00    +0.000 C 
ATOM     32  O   UNL     1       9.393  -0.879   1.817  0.00  0.00    +0.000 OA
BRANCH  31  33
ATOM     33  O   UNL     1      10.731   0.887   1.417  0.00  0.00    +0.000 OA
ATOM     34  H   UNL     1      10.850   1.772   1.133  0.00  0.00    +0.000 HD
ENDBRANCH  31  33
ENDBRANCH  16  31
BRANCH  30  35
ATOM     35  O   UNL     1      -2.958  -1.668   0.679  0.00  0.00    +0.000 OA
BRANCH  35  36
ATOM     36  C   UNL     1      -3.223  -0.805  -0.506  0.00  0.00    +0.000 C 
ATOM     37  O   UNL     1      -3.156  -1.895  -1.551  0.00  0.00    +0.000 OA
ATOM     38  C   UNL     1      -3.099  -3.264  -1.004  0.00  0.00    +0.000 C 
ATOM     39  C   UNL     1      -4.688  -3.554  -0.449  0.00  0.00    +0.000 C 
ATOM     40  C   UNL     1      -4.927  -2.302   0.640  0.00  0.00    +0.000 C 
ATOM     41  C   UNL     1      -4.915  -1.178  -0.662  0.00  0.00    +0.000 C 
BRANCH  38  42
ATOM     42  C   UNL     1      -3.549  -3.896  -2.446  0.00  0.00    +0.000 C 
ATOM     43  O   UNL     1      -3.505  -3.177  -3.468  0.00  0.00    +0.000 OA
BRANCH  42  44
ATOM     44  O   UNL     1      -4.386  -4.943  -2.494  0.00  0.00    +0.000 OA
ATOM     45  H   UNL     1      -4.461  -5.518  -1.758  0.00  0.00    +0.000 HD
ENDBRANCH  42  44
ENDBRANCH  38  42
BRANCH  39  46
ATOM     46  O   UNL     1      -4.077  -4.411   0.636  0.00  0.00    +0.000 OA
ATOM     47  H   UNL     1      -3.380  -3.912   1.089  0.00  0.00    +0.000 HD
ENDBRANCH  39  46
BRANCH  40  48
ATOM     48  O   UNL     1      -6.415  -2.477   0.539  0.00  0.00    +0.000 OA
ATOM     49  H   UNL     1      -6.666  -2.578  -0.392  0.00  0.00    +0.000 HD
ENDBRANCH  40  48
BRANCH  41  50
ATOM     50  O   UNL     1      -5.566  -0.220   0.229  0.00  0.00    +0.000 OA
BRANCH  50  51
ATOM     51  C   UNL     1      -5.215   1.212   0.076  0.00  0.00    +0.000 C 
ATOM     52  O   UNL     1      -6.592   1.471   0.684  0.00  0.00    +0.000 OA
ATOM     53  C   UNL     1      -6.534   2.921   1.067  0.00  0.00    +0.000 C 
ATOM     54  C   UNL     1      -6.935   3.599  -0.466  0.00  0.00    +0.000 C 
ATOM     55  C   UNL     1      -5.489   3.136  -1.221  0.00  0.00    +0.000 C 
ATOM     56  C   UNL     1      -5.950   1.505  -1.464  0.00  0.00    +0.000 C 
BRANCH  53  57
ATOM     57  C   UNL     1      -8.125   3.014   1.392  0.00  0.00    +0.000 C 
ATOM     58  O   UNL     1      -8.674   2.025   1.917  0.00  0.00    +0.000 OA
BRANCH  57  59
ATOM     59  O   UNL     1      -8.191   4.060   2.301  0.00  0.00    +0.000 OA
ATOM     60  H   UNL     1      -7.827   4.895   2.082  0.00  0.00    +0.000 HD
ENDBRANCH  57  59
ENDBRANCH  53  57
BRANCH  54  61
ATOM     61  O   UNL     1      -6.325   4.912  -0.045  0.00  0.00    +0.000 OA
ATOM     62  H   UNL     1      -5.453   4.751   0.350  0.00  0.00    +0.000 HD
ENDBRANCH  54  61
BRANCH  55  63
ATOM     63  O   UNL     1      -6.068   3.565  -2.534  0.00  0.00    +0.000 OA
ATOM     64  H   UNL     1      -6.962   3.201  -2.628  0.00  0.00    +0.000 HD
ENDBRANCH  55  63
BRANCH  56  65
ATOM     65  O   UNL     1      -4.673   1.230  -2.178  0.00  0.00    +0.000 OA
ATOM     66  H   UNL     1      -3.941   1.653  -1.704  0.00  0.00    +0.000 HD
ENDBRANCH  56  65
ENDBRANCH  50  51
ENDBRANCH  41  50
ENDBRANCH  35  36
ENDBRANCH  30  35
TORSDOF 15
