REMARK  Name = 68921
REMARK  12 active torsions:
REMARK  status: ('A' for Active; 'I' for Inactive)
REMARK    1  A    between atoms: O_1  and  C_12
REMARK    2  A    between atoms: O_1  and  C_29
REMARK    3  A    between atoms: O_2  and  C_15
REMARK    4  A    between atoms: O_4  and  C_28
REMARK    5  A    between atoms: O_4  and  C_32
REMARK    6  A    between atoms: C_8  and  C_19
REMARK    7  A    between atoms: C_12  and  C_24
REMARK    8  A    between atoms: C_14  and  C_23
REMARK    9  A    between atoms: C_24  and  C_28
REMARK   10  A    between atoms: C_29  and  C_30
REMARK   11  A    between atoms: C_30  and  C_31
REMARK   12  A    between atoms: C_32  and  C_33
REMARK                            x       y       z     vdW  Elec       q    Type
REMARK                         _______ _______ _______ _____ _____    ______ ____
ROOT
ATOM      1  O   UNL     1      -7.224  -0.200   2.113  0.00  0.00    +0.000 OA
ATOM      2  C   UNL     1       0.678   0.071  -0.867  0.00  0.00    +0.000 C 
ATOM      3  C   UNL     1      -0.333   1.234  -0.755  0.00  0.00    +0.000 C 
ATOM      4  C   UNL     1      -1.784   0.817  -1.041  0.00  0.00    +0.000 C 
ATOM      5  C   UNL     1      -2.203  -0.284  -0.013  0.00  0.00    +0.000 C 
ATOM      6  C   UNL     1       1.994   0.850  -0.592  0.00  0.00    +0.000 C 
ATOM      7  C   UNL     1       0.285  -0.985   0.186  0.00  0.00    +0.000 C 
ATOM      8  C   UNL     1      -3.722  -0.709  -0.151  0.00  0.00    +0.000 C 
ATOM      9  C   UNL     1      -1.179  -1.460   0.052  0.00  0.00    +0.000 C 
ATOM     10  C   UNL     1       0.298   2.335  -1.603  0.00  0.00    +0.000 C 
ATOM     11  C   UNL     1       1.814   2.182  -1.356  0.00  0.00    +0.000 C 
ATOM     12  C   UNL     1      -2.719   2.031  -0.934  0.00  0.00    +0.000 C 
ATOM     13  C   UNL     1       0.733  -0.559  -2.286  0.00  0.00    +0.000 C 
ATOM     14  C   UNL     1      -4.598   0.551  -0.174  0.00  0.00    +0.000 C 
ATOM     15  C   UNL     1      -4.177   1.641  -1.128  0.00  0.00    +0.000 C 
ATOM     16  C   UNL     1      -4.090  -1.590   1.078  0.00  0.00    +0.000 C 
ATOM     17  C   UNL     1      -4.029  -1.500  -1.444  0.00  0.00    +0.000 C 
ATOM     18  C   UNL     1      -5.587  -1.743   1.292  0.00  0.00    +0.000 C 
ATOM     19  C   UNL     1      -5.709   0.710   0.565  0.00  0.00    +0.000 C 
ATOM     20  C   UNL     1      -6.237  -0.389   1.405  0.00  0.00    +0.000 C 
ENDROOT
BRANCH   9  21
ATOM     21  O   UNL     1      -1.296  -2.312  -1.079  0.00  0.00    +0.000 OA
ATOM     22  H   UNL     1      -0.678  -3.053  -0.958  0.00  0.00    +0.000 HD
ENDBRANCH   9  21
BRANCH   6  24
ATOM     23  O   UNL     1       4.006   0.539  -1.831  0.00  0.00    +0.000 OA
ATOM     24  C   UNL     1       3.233   0.100  -0.981  0.00  0.00    +0.000 C 
BRANCH  24  25
ATOM     25  C   UNL     1       3.472  -1.216  -0.270  0.00  0.00    +0.000 C 
BRANCH  25  26
ATOM     26  O   UNL     1       4.854  -1.474  -0.150  0.00  0.00    +0.000 OA
BRANCH  26  28
ATOM     27  O   UNL     1       4.417  -3.465   0.938  0.00  0.00    +0.000 OA
ATOM     28  C   UNL     1       5.199  -2.643   0.480  0.00  0.00    +0.000 C 
ATOM     29  C   UNL     1       6.690  -2.783   0.534  0.00  0.00    +0.000 C 
ENDBRANCH  26  28
ENDBRANCH  25  26
ENDBRANCH  24  25
ENDBRANCH   6  24
BRANCH   6  30
ATOM     30  O   UNL     1       2.152   1.123   0.797  0.00  0.00    +0.000 OA
BRANCH  30  32
ATOM     31  O   UNL     1       4.079   2.312   0.355  0.00  0.00    +0.000 OA
ATOM     32  C   UNL     1       3.247   1.871   1.137  0.00  0.00    +0.000 C 
BRANCH  32  33
ATOM     33  C   UNL     1       3.267   2.069   2.634  0.00  0.00    +0.000 C 
ATOM     34  C   UNL     1       4.470   2.878   3.087  0.00  0.00    +0.000 C 
ENDBRANCH  32  33
ENDBRANCH  30  32
ENDBRANCH   6  30
TORSDOF 8
