REMARK  Name = 250948
REMARK  8 active torsions:
REMARK  status: ('A' for Active; 'I' for Inactive)
REMARK    1  A    between atoms: O_1  and  C_10
REMARK    2  A    between atoms: O_1  and  C_28
REMARK    3  A    between atoms: C_5  and  C_15
REMARK    4  A    between atoms: C_10  and  C_21
REMARK    5  A    between atoms: C_11  and  C_20
REMARK    6  A    between atoms: C_19  and  C_26
REMARK    7  A    between atoms: C_21  and  C_27
REMARK    8  A    between atoms: C_28  and  C_29
REMARK                            x       y       z     vdW  Elec       q    Type
REMARK                         _______ _______ _______ _____ _____    ______ ____
ROOT
ATOM      1  O   UNL     1       6.775   0.137   1.317  0.00  0.00    +0.000 OA
ATOM      2  C   UNL     1      -1.546   0.699  -0.534  0.00  0.00    +0.000 C 
ATOM      3  C   UNL     1      -0.741  -0.624  -0.382  0.00  0.00    +0.000 C 
ATOM      4  C   UNL     1       0.714  -0.483  -0.856  0.00  0.00    +0.000 C 
ATOM      5  C   UNL     1       1.405   0.597   0.027  0.00  0.00    +0.000 C 
ATOM      6  C   UNL     1      -0.860   1.766   0.339  0.00  0.00    +0.000 C 
ATOM      7  C   UNL     1      -2.952   0.215  -0.069  0.00  0.00    +0.000 C 
ATOM      8  C   UNL     1       2.942   0.689  -0.280  0.00  0.00    +0.000 C 
ATOM      9  C   UNL     1       0.631   1.937  -0.017  0.00  0.00    +0.000 C 
ATOM     10  C   UNL     1      -1.640  -1.666  -1.050  0.00  0.00    +0.000 C 
ATOM     11  C   UNL     1      -3.024  -1.183  -0.663  0.00  0.00    +0.000 C 
ATOM     12  C   UNL     1      -1.608   1.216  -2.002  0.00  0.00    +0.000 C 
ATOM     13  C   UNL     1       1.487  -1.772  -0.814  0.00  0.00    +0.000 C 
ATOM     14  C   UNL     1       3.578  -0.701  -0.051  0.00  0.00    +0.000 C 
ATOM     15  C   UNL     1       3.585   1.724   0.684  0.00  0.00    +0.000 C 
ATOM     16  C   UNL     1       2.777  -1.880  -0.439  0.00  0.00    +0.000 C 
ATOM     17  C   UNL     1       3.211   1.126  -1.740  0.00  0.00    +0.000 C 
ATOM     18  C   UNL     1       5.105   1.713   0.660  0.00  0.00    +0.000 C 
ATOM     19  C   UNL     1       4.804  -0.837   0.491  0.00  0.00    +0.000 C 
ATOM     20  C   UNL     1      -4.127  -1.926  -0.821  0.00  0.00    +0.000 C 
ATOM     21  C   UNL     1       5.642   0.325   0.875  0.00  0.00    +0.000 C 
ATOM     22  C   UNL     1       3.426  -3.242  -0.456  0.00  0.00    +0.000 C 
ENDROOT
BRANCH   7  24
ATOM     23  O   UNL     1      -4.969   0.675  -1.270  0.00  0.00    +0.000 OA
ATOM     24  C   UNL     1      -4.094   1.090  -0.511  0.00  0.00    +0.000 C 
ATOM     25  C   UNL     1      -4.115   2.497   0.023  0.00  0.00    +0.000 C 
ENDBRANCH   7  24
BRANCH   7  26
ATOM     26  O   UNL     1      -3.041   0.085   1.343  0.00  0.00    +0.000 OA
BRANCH  26  28
ATOM     27  O   UNL     1      -5.287  -0.455   1.288  0.00  0.00    +0.000 OA
ATOM     28  C   UNL     1      -4.183  -0.500   1.815  0.00  0.00    +0.000 C 
ATOM     29  C   UNL     1      -3.894  -1.222   3.095  0.00  0.00    +0.000 C 
ENDBRANCH  26  28
ENDBRANCH   7  26
TORSDOF 3
