MODEL 1
REMARK VINA RESULT:    -6.653      0.000      0.000
REMARK INTER + INTRA:         -10.606
REMARK INTER:                  -8.741
REMARK INTRA:                  -1.865
REMARK CONF_INDEPENDENT:        2.088
REMARK UNBOUND:                 1.865
REMARK  Name = 6322
REMARK  7 active torsions:
REMARK  status: ('A' for Active; 'I' for Inactive)
REMARK    1  A    between atoms: O_1  and  C_11
REMARK    2  A    between atoms: N_3  and  CA_9
REMARK    3  A    between atoms: NE_4  and  CD_10
REMARK    4  A    between atoms: CB_7  and  CG_8
REMARK    5  A    between atoms: CB_7  and  CA_9
REMARK    6  A    between atoms: CG_8  and  CD_10
REMARK    7  A    between atoms: CA_9  and  C_11
REMARK                            x       y       z     vdW  Elec       q    Type
REMARK                         _______ _______ _______ _____ _____    ______ ____
ROOT
ATOM      1  CG  ARG A   1      -4.812   0.482  -0.007  0.00  0.00    +0.000 C 
ENDROOT
BRANCH   1   2
ATOM      2  CB  ARG A   1      -4.699   0.099   1.476  0.00  0.00    +0.000 C 
BRANCH   2   3
ATOM      3  CA  ARG A   1      -4.568  -1.419   1.674  0.00  0.00    +0.000 C 
BRANCH   3   4
ATOM      4  N   ARG A   1      -5.569  -1.884   2.631  0.00  0.00    +0.000 NA
ATOM      5  H1  ARG A   1      -5.376  -2.850   2.889  0.00  0.00    +0.000 HD
ATOM      6  H2  ARG A   1      -6.489  -1.887   2.190  0.00  0.00    +0.000 HD
ENDBRANCH   3   4
BRANCH   3   8
ATOM      7  OXT ARG A   1      -2.204  -1.133   2.191  0.00  0.00    +0.000 OA
ATOM      8  C   ARG A   1      -3.221  -1.811   2.254  0.00  0.00    +0.000 C 
BRANCH   8   9
ATOM      9  O   ARG A   1      -3.268  -3.012   2.891  0.00  0.00    +0.000 OA
ATOM     10  H   ARG A   1      -4.002  -3.052   3.540  0.00  0.00    +0.000 HD
ENDBRANCH   8   9
ENDBRANCH   3   8
ENDBRANCH   2   3
ENDBRANCH   1   2
BRANCH   1  11
ATOM     11  CD  ARG A   1      -3.919  -0.375  -0.899  0.00  0.00    +0.000 C 
BRANCH  11  12
ATOM     12  NE  ARG A   1      -2.516  -0.009  -0.697  0.00  0.00    +0.000 NA
ATOM     13  NH1 ARG A   1      -0.333  -0.134  -1.466  0.00  0.00    +0.000 N 
ATOM     14  NH2 ARG A   1      -1.928  -1.193  -2.704  0.00  0.00    +0.000 N 
ATOM     15  CZ  ARG A   1      -1.670  -0.433  -1.584  0.00  0.00    +0.000 C 
ATOM     16 HH11 ARG A   1       0.013   0.420  -0.690  0.00  0.00    +0.000 HD
ATOM     17 HH12 ARG A   1       0.345  -0.456  -2.148  0.00  0.00    +0.000 HD
ATOM     18 HH21 ARG A   1      -1.180  -1.468  -3.331  0.00  0.00    +0.000 HD
ATOM     19 HH22 ARG A   1      -2.862  -1.506  -2.942  0.00  0.00    +0.000 HD
ENDBRANCH  11  12
ENDBRANCH   1  11
TORSDOF 7
ENDMDL
MODEL 2
REMARK VINA RESULT:    -5.786      2.593      4.409
REMARK INTER + INTRA:         -10.459
REMARK INTER:                  -7.875
REMARK INTRA:                  -2.584
REMARK CONF_INDEPENDENT:        2.088
REMARK UNBOUND:                 2.584
REMARK  Name = 6322
REMARK  7 active torsions:
REMARK  status: ('A' for Active; 'I' for Inactive)
REMARK    1  A    between atoms: O_1  and  C_11
REMARK    2  A    between atoms: N_3  and  CA_9
REMARK    3  A    between atoms: NE_4  and  CD_10
REMARK    4  A    between atoms: CB_7  and  CG_8
REMARK    5  A    between atoms: CB_7  and  CA_9
REMARK    6  A    between atoms: CG_8  and  CD_10
REMARK    7  A    between atoms: CA_9  and  C_11
REMARK                            x       y       z     vdW  Elec       q    Type
REMARK                         _______ _______ _______ _____ _____    ______ ____
ROOT
ATOM      1  CG  ARG A   1      -4.347   1.052  -0.248  0.00  0.00    +0.000 C 
ENDROOT
BRANCH   1   2
ATOM      2  CB  ARG A   1      -2.854   0.834  -0.540  0.00  0.00    +0.000 C 
BRANCH   2   3
ATOM      3  CA  ARG A   1      -2.617   0.232  -1.933  0.00  0.00    +0.000 C 
BRANCH   3   4
ATOM      4  N   ARG A   1      -3.649  -0.759  -2.228  0.00  0.00    +0.000 NA
ATOM      5  H1  ARG A   1      -3.621  -1.502  -1.531  0.00  0.00    +0.000 HD
ATOM      6  H2  ARG A   1      -3.451  -1.203  -3.124  0.00  0.00    +0.000 HD
ENDBRANCH   3   4
BRANCH   3   8
ATOM      7  OXT ARG A   1      -0.201  -0.026  -1.743  0.00  0.00    +0.000 OA
ATOM      8  C   ARG A   1      -1.292  -0.504  -2.026  0.00  0.00    +0.000 C 
BRANCH   8   9
ATOM      9  O   ARG A   1      -1.449  -1.789  -2.441  0.00  0.00    +0.000 OA
ATOM     10  H   ARG A   1      -2.195  -1.881  -3.070  0.00  0.00    +0.000 HD
ENDBRANCH   8   9
ENDBRANCH   3   8
ENDBRANCH   2   3
ENDBRANCH   1   2
BRANCH   1  11
ATOM     11  CD  ARG A   1      -5.027  -0.210   0.272  0.00  0.00    +0.000 C 
BRANCH  11  12
ATOM     12  NE  ARG A   1      -4.018  -1.171   0.722  0.00  0.00    +0.000 NA
ATOM     13  NH1 ARG A   1      -3.457  -2.873   2.191  0.00  0.00    +0.000 N 
ATOM     14  NH2 ARG A   1      -5.543  -1.977   2.395  0.00  0.00    +0.000 N 
ATOM     15  CZ  ARG A   1      -4.349  -1.944   1.709  0.00  0.00    +0.000 C 
ATOM     16 HH11 ARG A   1      -2.532  -2.970   1.787  0.00  0.00    +0.000 HD
ATOM     17 HH12 ARG A   1      -3.696  -3.488   2.962  0.00  0.00    +0.000 HD
ATOM     18 HH21 ARG A   1      -5.690  -2.630   3.156  0.00  0.00    +0.000 HD
ATOM     19 HH22 ARG A   1      -6.312  -1.356   2.172  0.00  0.00    +0.000 HD
ENDBRANCH  11  12
ENDBRANCH   1  11
TORSDOF 7
ENDMDL
MODEL 3
REMARK VINA RESULT:    -5.326      3.003      4.946
REMARK INTER + INTRA:         -10.214
REMARK INTER:                  -7.414
REMARK INTRA:                  -2.800
REMARK CONF_INDEPENDENT:        2.088
REMARK UNBOUND:                 2.800
REMARK  Name = 6322
REMARK  7 active torsions:
REMARK  status: ('A' for Active; 'I' for Inactive)
REMARK    1  A    between atoms: O_1  and  C_11
REMARK    2  A    between atoms: N_3  and  CA_9
REMARK    3  A    between atoms: NE_4  and  CD_10
REMARK    4  A    between atoms: CB_7  and  CG_8
REMARK    5  A    between atoms: CB_7  and  CA_9
REMARK    6  A    between atoms: CG_8  and  CD_10
REMARK    7  A    between atoms: CA_9  and  C_11
REMARK                            x       y       z     vdW  Elec       q    Type
REMARK                         _______ _______ _______ _____ _____    ______ ____
ROOT
ATOM      1  CG  ARG A   1      -1.915  -0.184   1.117  0.00  0.00    +0.000 C 
ENDROOT
BRANCH   1   2
ATOM      2  CB  ARG A   1      -1.064  -0.357  -0.150  0.00  0.00    +0.000 C 
BRANCH   2   3
ATOM      3  CA  ARG A   1      -1.806   0.104  -1.414  0.00  0.00    +0.000 C 
BRANCH   3   4
ATOM      4  N   ARG A   1      -3.132  -0.506  -1.462  0.00  0.00    +0.000 NA
ATOM      5  H1  ARG A   1      -3.044  -1.508  -1.627  0.00  0.00    +0.000 HD
ATOM      6  H2  ARG A   1      -3.652  -0.133  -2.256  0.00  0.00    +0.000 HD
ENDBRANCH   3   4
BRANCH   3   8
ATOM      7  OXT ARG A   1       0.044  -0.021  -2.995  0.00  0.00    +0.000 OA
ATOM      8  C   ARG A   1      -1.100  -0.328  -2.686  0.00  0.00    +0.000 C 
BRANCH   8   9
ATOM      9  O   ARG A   1      -1.880  -1.132  -3.456  0.00  0.00    +0.000 OA
ATOM     10  H   ARG A   1      -2.436  -1.731  -2.913  0.00  0.00    +0.000 HD
ENDBRANCH   8   9
ENDBRANCH   3   8
ENDBRANCH   2   3
ENDBRANCH   1   2
BRANCH   1  11
ATOM     11  CD  ARG A   1      -2.195  -1.510   1.816  0.00  0.00    +0.000 C 
BRANCH  11  12
ATOM     12  NE  ARG A   1      -3.439  -1.417   2.583  0.00  0.00    +0.000 NA
ATOM     13  NH1 ARG A   1      -5.756  -1.483   2.566  0.00  0.00    +0.000 N 
ATOM     14  NH2 ARG A   1      -4.697  -1.789   0.570  0.00  0.00    +0.000 N 
ATOM     15  CZ  ARG A   1      -4.544  -1.558   1.919  0.00  0.00    +0.000 C 
ATOM     16 HH11 ARG A   1      -5.806  -1.317   3.565  0.00  0.00    +0.000 HD
ATOM     17 HH12 ARG A   1      -6.632  -1.591   2.066  0.00  0.00    +0.000 HD
ATOM     18 HH21 ARG A   1      -5.619  -1.883   0.158  0.00  0.00    +0.000 HD
ATOM     19 HH22 ARG A   1      -3.906  -1.869  -0.059  0.00  0.00    +0.000 HD
ENDBRANCH  11  12
ENDBRANCH   1  11
TORSDOF 7
ENDMDL
MODEL 4
REMARK VINA RESULT:    -5.195      1.982      2.333
REMARK INTER + INTRA:         -10.652
REMARK INTER:                  -7.283
REMARK INTRA:                  -3.369
REMARK CONF_INDEPENDENT:        2.088
REMARK UNBOUND:                 3.369
REMARK  Name = 6322
REMARK  7 active torsions:
REMARK  status: ('A' for Active; 'I' for Inactive)
REMARK    1  A    between atoms: O_1  and  C_11
REMARK    2  A    between atoms: N_3  and  CA_9
REMARK    3  A    between atoms: NE_4  and  CD_10
REMARK    4  A    between atoms: CB_7  and  CG_8
REMARK    5  A    between atoms: CB_7  and  CA_9
REMARK    6  A    between atoms: CG_8  and  CD_10
REMARK    7  A    between atoms: CA_9  and  C_11
REMARK                            x       y       z     vdW  Elec       q    Type
REMARK                         _______ _______ _______ _____ _____    ______ ____
ROOT
ATOM      1  CG  ARG A   1      -1.984   0.757   1.433  0.00  0.00    +0.000 C 
ENDROOT
BRANCH   1   2
ATOM      2  CB  ARG A   1      -1.970  -0.772   1.574  0.00  0.00    +0.000 C 
BRANCH   2   3
ATOM      3  CA  ARG A   1      -3.281  -1.312   2.167  0.00  0.00    +0.000 C 
BRANCH   3   4
ATOM      4  N   ARG A   1      -3.188  -2.758   2.345  0.00  0.00    +0.000 NA
ATOM      5  H1  ARG A   1      -3.049  -3.208   1.441  0.00  0.00    +0.000 HD
ATOM      6  H2  ARG A   1      -4.071  -3.117   2.707  0.00  0.00    +0.000 HD
ENDBRANCH   3   4
BRANCH   3   8
ATOM      7  OXT ARG A   1      -5.124  -0.046   1.196  0.00  0.00    +0.000 OA
ATOM      8  C   ARG A   1      -4.468  -1.079   1.249  0.00  0.00    +0.000 C 
BRANCH   8   9
ATOM      9  O   ARG A   1      -4.718  -2.152   0.453  0.00  0.00    +0.000 OA
ATOM     10  H   ARG A   1      -4.425  -2.991   0.869  0.00  0.00    +0.000 HD
ENDBRANCH   8   9
ENDBRANCH   3   8
ENDBRANCH   2   3
ENDBRANCH   1   2
BRANCH   1  11
ATOM     11  CD  ARG A   1      -2.478   1.211   0.063  0.00  0.00    +0.000 C 
BRANCH  11  12
ATOM     12  NE  ARG A   1      -1.728   0.522  -0.989  0.00  0.00    +0.000 NA
ATOM     13  NH1 ARG A   1      -1.733  -1.077  -2.666  0.00  0.00    +0.000 N 
ATOM     14  NH2 ARG A   1      -3.676  -0.785  -1.510  0.00  0.00    +0.000 N 
ATOM     15  CZ  ARG A   1      -2.367  -0.384  -1.662  0.00  0.00    +0.000 C 
ATOM     16 HH11 ARG A   1      -0.763  -0.893  -2.898  0.00  0.00    +0.000 HD
ATOM     17 HH12 ARG A   1      -2.215  -1.790  -3.205  0.00  0.00    +0.000 HD
ATOM     18 HH21 ARG A   1      -4.072  -1.509  -2.098  0.00  0.00    +0.000 HD
ATOM     19 HH22 ARG A   1      -4.288  -0.379  -0.811  0.00  0.00    +0.000 HD
ENDBRANCH  11  12
ENDBRANCH   1  11
TORSDOF 7
ENDMDL
MODEL 5
REMARK VINA RESULT:    -4.984      2.662      4.667
REMARK INTER + INTRA:          -9.986
REMARK INTER:                  -7.072
REMARK INTRA:                  -2.914
REMARK CONF_INDEPENDENT:        2.088
REMARK UNBOUND:                 2.914
REMARK  Name = 6322
REMARK  7 active torsions:
REMARK  status: ('A' for Active; 'I' for Inactive)
REMARK    1  A    between atoms: O_1  and  C_11
REMARK    2  A    between atoms: N_3  and  CA_9
REMARK    3  A    between atoms: NE_4  and  CD_10
REMARK    4  A    between atoms: CB_7  and  CG_8
REMARK    5  A    between atoms: CB_7  and  CA_9
REMARK    6  A    between atoms: CG_8  and  CD_10
REMARK    7  A    between atoms: CA_9  and  C_11
REMARK                            x       y       z     vdW  Elec       q    Type
REMARK                         _______ _______ _______ _____ _____    ______ ____
ROOT
ATOM      1  CG  ARG A   1      -1.507   0.665   0.487  0.00  0.00    +0.000 C 
ENDROOT
BRANCH   1   2
ATOM      2  CB  ARG A   1      -1.962   0.862  -0.967  0.00  0.00    +0.000 C 
BRANCH   2   3
ATOM      3  CA  ARG A   1      -2.684  -0.376  -1.521  0.00  0.00    +0.000 C 
BRANCH   3   4
ATOM      4  N   ARG A   1      -2.089  -0.768  -2.797  0.00  0.00    +0.000 NA
ATOM      5  H1  ARG A   1      -2.171  -0.002  -3.464  0.00  0.00    +0.000 HD
ATOM      6  H2  ARG A   1      -2.614  -1.547  -3.194  0.00  0.00    +0.000 HD
ENDBRANCH   3   4
BRANCH   3   8
ATOM      7  OXT ARG A   1      -5.019   0.032  -0.956  0.00  0.00    +0.000 OA
ATOM      8  C   ARG A   1      -4.150  -0.109  -1.808  0.00  0.00    +0.000 C 
BRANCH   8   9
ATOM      9  O   ARG A   1      -4.403  -0.015  -3.140  0.00  0.00    +0.000 OA
ATOM     10  H   ARG A   1      -4.063  -0.792  -3.632  0.00  0.00    +0.000 HD
ENDBRANCH   8   9
ENDBRANCH   3   8
ENDBRANCH   2   3
ENDBRANCH   1   2
BRANCH   1  11
ATOM     11  CD  ARG A   1      -2.670   0.350   1.423  0.00  0.00    +0.000 C 
BRANCH  11  12
ATOM     12  NE  ARG A   1      -2.458  -0.951   2.060  0.00  0.00    +0.000 NA
ATOM     13  NH1 ARG A   1      -3.323  -3.037   2.582  0.00  0.00    +0.000 N 
ATOM     14  NH2 ARG A   1      -4.675  -1.618   1.418  0.00  0.00    +0.000 N 
ATOM     15  CZ  ARG A   1      -3.442  -1.794   2.006  0.00  0.00    +0.000 C 
ATOM     16 HH11 ARG A   1      -2.470  -3.315   3.055  0.00  0.00    +0.000 HD
ATOM     17 HH12 ARG A   1      -4.081  -3.711   2.551  0.00  0.00    +0.000 HD
ATOM     18 HH21 ARG A   1      -5.373  -2.353   1.438  0.00  0.00    +0.000 HD
ATOM     19 HH22 ARG A   1      -4.934  -0.756   0.950  0.00  0.00    +0.000 HD
ENDBRANCH  11  12
ENDBRANCH   1  11
TORSDOF 7
ENDMDL
MODEL 6
REMARK VINA RESULT:    -4.967      1.715      3.793
REMARK INTER + INTRA:         -11.064
REMARK INTER:                  -7.055
REMARK INTRA:                  -4.009
REMARK CONF_INDEPENDENT:        2.088
REMARK UNBOUND:                 4.009
REMARK  Name = 6322
REMARK  7 active torsions:
REMARK  status: ('A' for Active; 'I' for Inactive)
REMARK    1  A    between atoms: O_1  and  C_11
REMARK    2  A    between atoms: N_3  and  CA_9
REMARK    3  A    between atoms: NE_4  and  CD_10
REMARK    4  A    between atoms: CB_7  and  CG_8
REMARK    5  A    between atoms: CB_7  and  CA_9
REMARK    6  A    between atoms: CG_8  and  CD_10
REMARK    7  A    between atoms: CA_9  and  C_11
REMARK                            x       y       z     vdW  Elec       q    Type
REMARK                         _______ _______ _______ _____ _____    ______ ____
ROOT
ATOM      1  CG  ARG A   1      -4.630   0.796  -0.567  0.00  0.00    +0.000 C 
ENDROOT
BRANCH   1   2
ATOM      2  CB  ARG A   1      -3.441   1.418   0.182  0.00  0.00    +0.000 C 
BRANCH   2   3
ATOM      3  CA  ARG A   1      -2.106   0.763  -0.203  0.00  0.00    +0.000 C 
BRANCH   3   4
ATOM      4  N   ARG A   1      -2.349  -0.382  -1.078  0.00  0.00    +0.000 NA
ATOM      5  H1  ARG A   1      -3.101  -0.954  -0.695  0.00  0.00    +0.000 HD
ATOM      6  H2  ARG A   1      -1.522  -0.979  -1.097  0.00  0.00    +0.000 HD
ENDBRANCH   3   4
BRANCH   3   8
ATOM      7  OXT ARG A   1      -0.750   0.897   1.817  0.00  0.00    +0.000 OA
ATOM      8  C   ARG A   1      -1.362   0.218   1.002  0.00  0.00    +0.000 C 
BRANCH   8   9
ATOM      9  O   ARG A   1      -1.469  -1.134   1.103  0.00  0.00    +0.000 OA
ATOM     10  H   ARG A   1      -2.257  -1.473   0.627  0.00  0.00    +0.000 HD
ENDBRANCH   8   9
ENDBRANCH   3   8
ENDBRANCH   2   3
ENDBRANCH   1   2
BRANCH   1  11
ATOM     11  CD  ARG A   1      -5.226  -0.395   0.175  0.00  0.00    +0.000 C 
BRANCH  11  12
ATOM     12  NE  ARG A   1      -4.154  -1.265   0.663  0.00  0.00    +0.000 NA
ATOM     13  NH1 ARG A   1      -3.455  -2.805   2.248  0.00  0.00    +0.000 N 
ATOM     14  NH2 ARG A   1      -5.575  -1.994   2.459  0.00  0.00    +0.000 N 
ATOM     15  CZ  ARG A   1      -4.410  -1.965   1.725  0.00  0.00    +0.000 C 
ATOM     16 HH11 ARG A   1      -2.541  -2.892   1.816  0.00  0.00    +0.000 HD
ATOM     17 HH12 ARG A   1      -3.635  -3.361   3.077  0.00  0.00    +0.000 HD
ATOM     18 HH21 ARG A   1      -5.661  -2.585   3.278  0.00  0.00    +0.000 HD
ATOM     19 HH22 ARG A   1      -6.382  -1.431   2.215  0.00  0.00    +0.000 HD
ENDBRANCH  11  12
ENDBRANCH   1  11
TORSDOF 7
ENDMDL
MODEL 7
REMARK VINA RESULT:    -4.515      2.867      3.950
REMARK INTER + INTRA:          -9.432
REMARK INTER:                  -6.603
REMARK INTRA:                  -2.829
REMARK CONF_INDEPENDENT:        2.088
REMARK UNBOUND:                 2.829
REMARK  Name = 6322
REMARK  7 active torsions:
REMARK  status: ('A' for Active; 'I' for Inactive)
REMARK    1  A    between atoms: O_1  and  C_11
REMARK    2  A    between atoms: N_3  and  CA_9
REMARK    3  A    between atoms: NE_4  and  CD_10
REMARK    4  A    between atoms: CB_7  and  CG_8
REMARK    5  A    between atoms: CB_7  and  CA_9
REMARK    6  A    between atoms: CG_8  and  CD_10
REMARK    7  A    between atoms: CA_9  and  C_11
REMARK                            x       y       z     vdW  Elec       q    Type
REMARK                         _______ _______ _______ _____ _____    ______ ____
ROOT
ATOM      1  CG  ARG A   1      -4.588   1.435   0.931  0.00  0.00    +0.000 C 
ENDROOT
BRANCH   1   2
ATOM      2  CB  ARG A   1      -5.510   1.564  -0.290  0.00  0.00    +0.000 C 
BRANCH   2   3
ATOM      3  CA  ARG A   1      -5.078   0.645  -1.443  0.00  0.00    +0.000 C 
BRANCH   3   4
ATOM      4  N   ARG A   1      -5.593  -0.704  -1.222  0.00  0.00    +0.000 NA
ATOM      5  H1  ARG A   1      -6.366  -0.673  -0.559  0.00  0.00    +0.000 HD
ATOM      6  H2  ARG A   1      -4.871  -1.280  -0.788  0.00  0.00    +0.000 HD
ENDBRANCH   3   4
BRANCH   3   8
ATOM      7  OXT ARG A   1      -2.795   1.418  -1.802  0.00  0.00    +0.000 OA
ATOM      8  C   ARG A   1      -3.569   0.507  -1.536  0.00  0.00    +0.000 C 
BRANCH   8   9
ATOM      9  O   ARG A   1      -3.153  -0.757  -1.262  0.00  0.00    +0.000 OA
ATOM     10  H   ARG A   1      -3.606  -1.421  -1.824  0.00  0.00    +0.000 HD
ENDBRANCH   8   9
ENDBRANCH   3   8
ENDBRANCH   2   3
ENDBRANCH   1   2
BRANCH   1  11
ATOM     11  CD  ARG A   1      -5.027   0.322   1.877  0.00  0.00    +0.000 C 
BRANCH  11  12
ATOM     12  NE  ARG A   1      -3.862  -0.452   2.310  0.00  0.00    +0.000 NA
ATOM     13  NH1 ARG A   1      -2.684  -2.445   2.191  0.00  0.00    +0.000 N 
ATOM     14  NH2 ARG A   1      -4.598  -2.299   0.960  0.00  0.00    +0.000 N 
ATOM     15  CZ  ARG A   1      -3.750  -1.653   1.832  0.00  0.00    +0.000 C 
ATOM     16 HH11 ARG A   1      -1.972  -2.107   2.829  0.00  0.00    +0.000 HD
ATOM     17 HH12 ARG A   1      -2.578  -3.387   1.829  0.00  0.00    +0.000 HD
ATOM     18 HH21 ARG A   1      -4.407  -3.246   0.652  0.00  0.00    +0.000 HD
ATOM     19 HH22 ARG A   1      -5.437  -1.861   0.597  0.00  0.00    +0.000 HD
ENDBRANCH  11  12
ENDBRANCH   1  11
TORSDOF 7
ENDMDL
MODEL 8
REMARK VINA RESULT:    -4.436      2.706      4.431
REMARK INTER + INTRA:         -10.393
REMARK INTER:                  -6.524
REMARK INTRA:                  -3.869
REMARK CONF_INDEPENDENT:        2.088
REMARK UNBOUND:                 3.869
REMARK  Name = 6322
REMARK  7 active torsions:
REMARK  status: ('A' for Active; 'I' for Inactive)
REMARK    1  A    between atoms: O_1  and  C_11
REMARK    2  A    between atoms: N_3  and  CA_9
REMARK    3  A    between atoms: NE_4  and  CD_10
REMARK    4  A    between atoms: CB_7  and  CG_8
REMARK    5  A    between atoms: CB_7  and  CA_9
REMARK    6  A    between atoms: CG_8  and  CD_10
REMARK    7  A    between atoms: CA_9  and  C_11
REMARK                            x       y       z     vdW  Elec       q    Type
REMARK                         _______ _______ _______ _____ _____    ______ ____
ROOT
ATOM      1  CG  ARG A   1      -1.341   0.247   0.705  0.00  0.00    +0.000 C 
ENDROOT
BRANCH   1   2
ATOM      2  CB  ARG A   1      -2.061  -0.008  -0.628  0.00  0.00    +0.000 C 
BRANCH   2   3
ATOM      3  CA  ARG A   1      -3.312   0.870  -0.788  0.00  0.00    +0.000 C 
BRANCH   3   4
ATOM      4  N   ARG A   1      -3.613   1.540   0.475  0.00  0.00    +0.000 NA
ATOM      5  H1  ARG A   1      -3.379   0.927   1.254  0.00  0.00    +0.000 HD
ATOM      6  H2  ARG A   1      -4.616   1.712   0.541  0.00  0.00    +0.000 HD
ENDBRANCH   3   4
BRANCH   3   8
ATOM      7  OXT ARG A   1      -4.886  -0.256  -2.268  0.00  0.00    +0.000 OA
ATOM      8  C   ARG A   1      -4.546   0.057  -1.135  0.00  0.00    +0.000 C 
BRANCH   8   9
ATOM      9  O   ARG A   1      -5.239  -0.320  -0.027  0.00  0.00    +0.000 OA
ATOM     10  H   ARG A   1      -4.919   0.142   0.778  0.00  0.00    +0.000 HD
ENDBRANCH   8   9
ENDBRANCH   3   8
ENDBRANCH   2   3
ENDBRANCH   1   2
BRANCH   1  11
ATOM     11  CD  ARG A   1      -1.826  -0.681   1.814  0.00  0.00    +0.000 C 
BRANCH  11  12
ATOM     12  NE  ARG A   1      -3.283  -0.808   1.755  0.00  0.00    +0.000 NA
ATOM     13  NH1 ARG A   1      -5.150  -2.119   2.166  0.00  0.00    +0.000 N 
ATOM     14  NH2 ARG A   1      -3.121  -3.010   2.704  0.00  0.00    +0.000 N 
ATOM     15  CZ  ARG A   1      -3.789  -1.921   2.189  0.00  0.00    +0.000 C 
ATOM     16 HH11 ARG A   1      -5.777  -1.404   1.813  0.00  0.00    +0.000 HD
ATOM     17 HH12 ARG A   1      -5.566  -2.982   2.500  0.00  0.00    +0.000 HD
ATOM     18 HH21 ARG A   1      -3.626  -3.832   3.014  0.00  0.00    +0.000 HD
ATOM     19 HH22 ARG A   1      -2.112  -3.034   2.790  0.00  0.00    +0.000 HD
ENDBRANCH  11  12
ENDBRANCH   1  11
TORSDOF 7
ENDMDL
MODEL 9
REMARK VINA RESULT:    -4.119      1.313      1.687
REMARK INTER + INTRA:         -10.180
REMARK INTER:                  -6.207
REMARK INTRA:                  -3.973
REMARK CONF_INDEPENDENT:        2.088
REMARK UNBOUND:                 3.973
REMARK  Name = 6322
REMARK  7 active torsions:
REMARK  status: ('A' for Active; 'I' for Inactive)
REMARK    1  A    between atoms: O_1  and  C_11
REMARK    2  A    between atoms: N_3  and  CA_9
REMARK    3  A    between atoms: NE_4  and  CD_10
REMARK    4  A    between atoms: CB_7  and  CG_8
REMARK    5  A    between atoms: CB_7  and  CA_9
REMARK    6  A    between atoms: CG_8  and  CD_10
REMARK    7  A    between atoms: CA_9  and  C_11
REMARK                            x       y       z     vdW  Elec       q    Type
REMARK                         _______ _______ _______ _____ _____    ______ ____
ROOT
ATOM      1  CG  ARG A   1      -4.689   0.067  -0.803  0.00  0.00    +0.000 C 
ENDROOT
BRANCH   1   2
ATOM      2  CB  ARG A   1      -4.857  -1.009   0.281  0.00  0.00    +0.000 C 
BRANCH   2   3
ATOM      3  CA  ARG A   1      -4.294  -0.559   1.637  0.00  0.00    +0.000 C 
BRANCH   3   4
ATOM      4  N   ARG A   1      -3.597   0.716   1.487  0.00  0.00    +0.000 NA
ATOM      5  H1  ARG A   1      -2.805   0.603   0.856  0.00  0.00    +0.000 HD
ATOM      6  H2  ARG A   1      -3.205   1.000   2.385  0.00  0.00    +0.000 HD
ENDBRANCH   3   4
BRANCH   3   8
ATOM      7  OXT ARG A   1      -3.512  -2.673   2.564  0.00  0.00    +0.000 OA
ATOM      8  C   ARG A   1      -3.268  -1.533   2.188  0.00  0.00    +0.000 C 
BRANCH   8   9
ATOM      9  O   ARG A   1      -2.014  -1.007   2.196  0.00  0.00    +0.000 OA
ATOM     10  H   ARG A   1      -1.816  -0.526   1.365  0.00  0.00    +0.000 HD
ENDBRANCH   8   9
ENDBRANCH   3   8
ENDBRANCH   2   3
ENDBRANCH   1   2
BRANCH   1  11
ATOM     11  CD  ARG A   1      -3.344  -0.031  -1.515  0.00  0.00    +0.000 C 
BRANCH  11  12
ATOM     12  NE  ARG A   1      -2.296  -0.382  -0.555  0.00  0.00    +0.000 NA
ATOM     13  NH1 ARG A   1      -0.029  -0.605  -0.129  0.00  0.00    +0.000 N 
ATOM     14  NH2 ARG A   1      -0.626   0.098  -2.214  0.00  0.00    +0.000 N 
ATOM     15  CZ  ARG A   1      -1.071  -0.292  -0.970  0.00  0.00    +0.000 C 
ATOM     16 HH11 ARG A   1      -0.198  -0.910   0.823  0.00  0.00    +0.000 HD
ATOM     17 HH12 ARG A   1       0.937  -0.541  -0.434  0.00  0.00    +0.000 HD
ATOM     18 HH21 ARG A   1       0.365   0.131  -2.427  0.00  0.00    +0.000 HD
ATOM     19 HH22 ARG A   1      -1.262   0.361  -2.958  0.00  0.00    +0.000 HD
ENDBRANCH  11  12
ENDBRANCH   1  11
TORSDOF 7
ENDMDL
