REMARK  Name = 2730282
REMARK  6 active torsions:
REMARK  status: ('A' for Active; 'I' for Inactive)
REMARK    1  A    between atoms: O_1  and  C_9
REMARK    2  A    between atoms: O_1  and  C_15
REMARK    3  A    between atoms: O_2  and  C_10
REMARK    4  A    between atoms: O_2  and  C_16
REMARK    5  A    between atoms: N_3  and  C_8
REMARK    6  A    between atoms: N_4  and  C_14
REMARK                            x       y       z     vdW  Elec       q    Type
REMARK                         _______ _______ _______ _____ _____    ______ ____
ROOT
ATOM      1  N   UNL     1       1.013   0.531  -0.657  0.00  0.00    +0.000 NA
ATOM      2  N   UNL     1       1.482   0.713   1.693  0.00  0.00    +0.000 N 
ATOM      3  C   UNL     1       1.808   0.749   0.353  0.00  0.00    +0.000 C 
ATOM      4  H   UNL     1       2.180   0.906   2.402  0.00  0.00    +0.000 HD
ATOM      5  H   UNL     1       0.546   0.493   2.017  0.00  0.00    +0.000 HD
ENDROOT
BRANCH   3   6
ATOM      6  N   UNL     1       3.106   1.068   0.004  0.00  0.00    +0.000 NA
ATOM      7  N   UNL     1       5.266   0.327  -0.471  0.00  0.00    +0.000 N 
ATOM      8  N   UNL     1       3.704  -1.261   0.036  0.00  0.00    +0.000 N 
ATOM      9  C   UNL     1       3.957   0.083  -0.129  0.00  0.00    +0.000 C 
ATOM     10  H   UNL     1       5.599   1.272  -0.626  0.00  0.00    +0.000 HD
ATOM     11  H   UNL     1       5.935  -0.427  -0.577  0.00  0.00    +0.000 HD
ATOM     12  H   UNL     1       2.785  -1.607   0.288  0.00  0.00    +0.000 HD
ATOM     13  H   UNL     1       4.436  -1.951  -0.091  0.00  0.00    +0.000 HD
ENDBRANCH   3   6
BRANCH   1  14
ATOM     14  C   UNL     1      -0.329   0.200  -0.405  0.00  0.00    +0.000 A 
ATOM     15  C   UNL     1      -2.614   0.880  -0.050  0.00  0.00    +0.000 A 
ATOM     16  C   UNL     1      -2.027  -1.464  -0.008  0.00  0.00    +0.000 A 
ATOM     17  C   UNL     1      -0.695  -1.135  -0.259  0.00  0.00    +0.000 A 
ATOM     18  C   UNL     1      -1.282   1.209  -0.301  0.00  0.00    +0.000 A 
ATOM     19  C   UNL     1      -2.987  -0.457   0.096  0.00  0.00    +0.000 A 
BRANCH  15  20
ATOM     20  O   UNL     1      -3.550   1.863   0.052  0.00  0.00    +0.000 OA
ATOM     21  C   UNL     1      -3.100   3.207  -0.108  0.00  0.00    +0.000 C 
ENDBRANCH  15  20
BRANCH  16  22
ATOM     22  O   UNL     1      -2.391  -2.767   0.135  0.00  0.00    +0.000 OA
ATOM     23  C   UNL     1      -1.359  -3.746   0.017  0.00  0.00    +0.000 C 
ENDBRANCH  16  22
ENDBRANCH   1  14
TORSDOF 4
