REMARK  Name = 5241
REMARK  7 active torsions:
REMARK  status: ('A' for Active; 'I' for Inactive)
REMARK    1  A    between atoms: O_4  and  C_16
REMARK    2  A    between atoms: N_6  and  C_13
REMARK    3  A    between atoms: N_7  and  C_18
REMARK    4  A    between atoms: N_7  and  C_19
REMARK    5  A    between atoms: C_8  and  C_9
REMARK    6  A    between atoms: C_8  and  C_10
REMARK    7  A    between atoms: C_10  and  C_16
REMARK                            x       y       z     vdW  Elec       q    Type
REMARK                         _______ _______ _______ _____ _____    ______ ____
ROOT
ATOM      1  I   UNL     1       0.034   2.042  -1.341  0.00  0.00    +0.000 I 
ATOM      2  I   UNL     1       2.866  -3.082   0.417  0.00  0.00    +0.000 I 
ATOM      3  I   UNL     1      -3.091  -2.921   0.363  0.00  0.00    +0.000 I 
ATOM      4  C   UNL     1       1.167  -0.654  -0.416  0.00  0.00    +0.000 A 
ATOM      5  C   UNL     1      -0.021   0.038  -0.653  0.00  0.00    +0.000 A 
ATOM      6  C   UNL     1       1.128  -1.973   0.037  0.00  0.00    +0.000 A 
ATOM      7  C   UNL     1      -1.248  -0.590  -0.437  0.00  0.00    +0.000 A 
ATOM      8  C   UNL     1      -0.099  -2.600   0.253  0.00  0.00    +0.000 A 
ATOM      9  C   UNL     1      -1.287  -1.909   0.015  0.00  0.00    +0.000 A 
ENDROOT
BRANCH   7  10
ATOM     10  N   UNL     1      -2.450   0.100  -0.674  0.00  0.00    +0.000 NA
ATOM     11  N   UNL     1      -4.092   1.515   0.379  0.00  0.00    +0.000 N 
ATOM     12  C   UNL     1      -2.936   0.757   0.332  0.00  0.00    +0.000 C 
ATOM     13  C   UNL     1      -4.945   1.658  -0.792  0.00  0.00    +0.000 C 
ATOM     14  C   UNL     1      -4.638   1.980   1.646  0.00  0.00    +0.000 C 
ENDBRANCH   7  10
BRANCH   4  15
ATOM     15  C   UNL     1       2.491   0.013  -0.644  0.00  0.00    +0.000 C 
BRANCH  15  16
ATOM     16  C   UNL     1       3.027   0.739   0.591  0.00  0.00    +0.000 C 
BRANCH  16  18
ATOM     17  O   UNL     1       4.899   1.409  -0.781  0.00  0.00    +0.000 OA
ATOM     18  C   UNL     1       4.340   1.428   0.308  0.00  0.00    +0.000 C 
BRANCH  18  19
ATOM     19  O   UNL     1       4.855   2.050   1.398  0.00  0.00    +0.000 OA
ATOM     20  H   UNL     1       5.714   2.482   1.202  0.00  0.00    +0.000 HD
ENDBRANCH  18  19
ENDBRANCH  16  18
ENDBRANCH  15  16
ENDBRANCH   4  15
TORSDOF 5
