REMARK  Name = 9799487
REMARK  7 active torsions:
REMARK  status: ('A' for Active; 'I' for Inactive)
REMARK    1  A    between atoms: S_1  and  C_11
REMARK    2  A    between atoms: S_1  and  C_17
REMARK    3  A    between atoms: S_2  and  C_12
REMARK    4  A    between atoms: S_2  and  C_18
REMARK    5  A    between atoms: N_8  and  C_20
REMARK    6  A    between atoms: C_13  and  C_19
REMARK    7  A    between atoms: C_16  and  C_20
REMARK                            x       y       z     vdW  Elec       q    Type
REMARK                         _______ _______ _______ _____ _____    ______ ____
ROOT
ATOM      1  C   UNL     1       1.383  -0.740  -0.041  0.00  0.00    +0.000 A 
ATOM      2  C   UNL     1       0.773   0.469   0.293  0.00  0.00    +0.000 A 
ATOM      3  C   UNL     1      -0.744  -1.868   0.158  0.00  0.00    +0.000 A 
ATOM      4  C   UNL     1       0.625  -1.909  -0.108  0.00  0.00    +0.000 A 
ATOM      5  C   UNL     1      -0.596   0.510   0.560  0.00  0.00    +0.000 A 
ATOM      6  C   UNL     1      -1.354  -0.659   0.492  0.00  0.00    +0.000 A 
ATOM      7  C   UNL     1      -1.533  -3.135   0.079  0.00  0.00    +0.000 C 
ENDROOT
BRANCH   1   8
ATOM      8  S   UNL     1       3.098  -0.840  -0.380  0.00  0.00    +0.000 S 
ATOM      9  O   UNL     1       3.695   0.468  -0.160  0.00  0.00    +0.000 OA
ATOM     10  O   UNL     1       3.621  -2.004   0.319  0.00  0.00    +0.000 OA
ATOM     11  C   UNL     1       3.181  -1.164  -2.125  0.00  0.00    +0.000 C 
ENDBRANCH   1   8
BRANCH   2  12
ATOM     12  S   UNL     1       1.683   1.962   0.389  0.00  0.00    +0.000 S 
ATOM     13  O   UNL     1       2.579   2.038  -0.755  0.00  0.00    +0.000 OA
ATOM     14  O   UNL     1       0.740   3.040   0.646  0.00  0.00    +0.000 OA
ATOM     15  C   UNL     1       2.699   1.763   1.834  0.00  0.00    +0.000 C 
ENDBRANCH   2  12
BRANCH   6  17
ATOM     16  O   UNL     1      -3.370  -1.553   1.298  0.00  0.00    +0.000 OA
ATOM     17  C   UNL     1      -2.781  -0.589   0.775  0.00  0.00    +0.000 C 
BRANCH  17  18
ATOM     18  N   UNL     1      -3.424   0.607   0.471  0.00  0.00    +0.000 NA
ATOM     19  N   UNL     1      -2.824   0.341  -1.763  0.00  0.00    +0.000 N 
ATOM     20  N   UNL     1      -4.018   2.209  -1.226  0.00  0.00    +0.000 N 
ATOM     21  C   UNL     1      -3.433   1.054  -0.758  0.00  0.00    +0.000 C 
ATOM     22  H   UNL     1      -4.510   2.837  -0.600  0.00  0.00    +0.000 HD
ATOM     23  H   UNL     1      -3.971   2.468  -2.205  0.00  0.00    +0.000 HD
ATOM     24  H   UNL     1      -2.461  -0.597  -1.654  0.00  0.00    +0.000 HD
ATOM     25  H   UNL     1      -2.806   0.708  -2.709  0.00  0.00    +0.000 HD
ENDBRANCH  17  18
ENDBRANCH   6  17
TORSDOF 4
