REMARK  Name = 5939
REMARK  1 active torsions:
REMARK  status: ('A' for Active; 'I' for Inactive)
REMARK    1  A    between atoms: N_1  and  C_7
REMARK                            x       y       z     vdW  Elec       q    Type
REMARK                         _______ _______ _______ _____ _____    ______ ____
ROOT
ATOM      1  N   UNL     1      -0.056   0.774   0.133  0.00  0.00    +0.000 NA
ATOM      2  N   UNL     1      -2.377   0.556   0.132  0.00  0.00    +0.000 N 
ATOM      3  N   UNL     1      -1.151  -1.337  -0.228  0.00  0.00    +0.000 N 
ATOM      4  C   UNL     1      -1.117   0.018   0.017  0.00  0.00    +0.000 C 
ATOM      5  H   UNL     1      -2.510   1.545   0.312  0.00  0.00    +0.000 HD
ATOM      6  H   UNL     1      -3.208  -0.018   0.044  0.00  0.00    +0.000 HD
ATOM      7  H   UNL     1      -2.032  -1.834  -0.302  0.00  0.00    +0.000 HD
ATOM      8  H   UNL     1      -0.304  -1.882  -0.342  0.00  0.00    +0.000 HD
ENDROOT
BRANCH   1  11
ATOM      9  N   UNL     1       1.839  -0.306   1.115  0.00  0.00    +0.000 N 
ATOM     10  N   UNL     1       1.683   0.120  -1.183  0.00  0.00    +0.000 NA
ATOM     11  C   UNL     1       1.178   0.175   0.014  0.00  0.00    +0.000 C 
ATOM     12  H   UNL     1       1.431  -0.244   2.042  0.00  0.00    +0.000 HD
ATOM     13  H   UNL     1       2.753  -0.740   1.038  0.00  0.00    +0.000 HD
ATOM     14  H   UNL     1       2.601  -0.336  -1.133  0.00  0.00    +0.000 HD
ENDBRANCH   1  11
TORSDOF 1
