REMARK  Name = 587
REMARK  7 active torsions:
REMARK  status: ('A' for Active; 'I' for Inactive)
REMARK    1  A    between atoms: P_1  and  O_3
REMARK    2  A    between atoms: P_1  and  O_4
REMARK    3  A    between atoms: P_1  and  N_8
REMARK    4  A    between atoms: O_2  and  C_13
REMARK    5  A    between atoms: N_7  and  C_10
REMARK    6  A    between atoms: N_7  and  C_12
REMARK    7  A    between atoms: C_10  and  C_13
REMARK                            x       y       z     vdW  Elec       q    Type
REMARK                         _______ _______ _______ _____ _____    ______ ____
ROOT
ATOM      1  N   UNL     1      -1.122  -1.041   0.415  0.00  0.00    +0.000 N 
ATOM      2  N   UNL     1       0.876   0.229   0.289  0.00  0.00    +0.000 NA
ATOM      3  N   UNL     1       0.822  -1.983  -0.528  0.00  0.00    +0.000 N 
ATOM      4  C   UNL     1       0.228  -0.888   0.064  0.00  0.00    +0.000 C 
ATOM      5  C   UNL     1      -1.881  -2.267   0.182  0.00  0.00    +0.000 C 
ATOM      6  H   UNL     1       0.324  -2.846  -0.711  0.00  0.00    +0.000 HD
ATOM      7  H   UNL     1       1.795  -1.959  -0.812  0.00  0.00    +0.000 HD
ENDROOT
BRANCH   2   8
ATOM      8  P   UNL     1       2.420   0.517  -0.071  0.00  0.00    +0.000 P 
ATOM      9  O   UNL     1       2.818   0.416  -1.521  0.00  0.00    +0.000 OA
BRANCH   8  10
ATOM     10  O   UNL     1       3.327  -0.441   0.878  0.00  0.00    +0.000 OA
ATOM     11  H   UNL     1       4.299  -0.445   0.750  0.00  0.00    +0.000 HD
ENDBRANCH   8  10
BRANCH   8  12
ATOM     12  O   UNL     1       2.778   1.976   0.548  0.00  0.00    +0.000 OA
ATOM     13  H   UNL     1       3.663   2.360   0.368  0.00  0.00    +0.000 HD
ENDBRANCH   8  12
ENDBRANCH   2   8
BRANCH   1  14
ATOM     14  C   UNL     1      -1.890   0.090   0.932  0.00  0.00    +0.000 C 
BRANCH  14  16
ATOM     15  O   UNL     1      -2.509   0.584  -1.342  0.00  0.00    +0.000 OA
ATOM     16  C   UNL     1      -2.580   0.875  -0.154  0.00  0.00    +0.000 C 
BRANCH  16  17
ATOM     17  O   UNL     1      -3.286   1.933   0.308  0.00  0.00    +0.000 OA
ATOM     18  H   UNL     1      -3.724   2.427  -0.417  0.00  0.00    +0.000 HD
ENDBRANCH  16  17
ENDBRANCH  14  16
ENDBRANCH   1  14
TORSDOF 6
