REMARK  Name = 11250647
REMARK  16 active torsions:
REMARK  status: ('A' for Active; 'I' for Inactive)
REMARK    1  A    between atoms: O_8  and  C_38
REMARK    2  A    between atoms: O_8  and  C_45
REMARK    3  A    between atoms: O_9  and  C_44
REMARK    4  A    between atoms: N_11  and  C_15
REMARK    5  A    between atoms: N_12  and  C_21
REMARK    6  A    between atoms: N_13  and  C_14
REMARK    7  A    between atoms: N_13  and  C_22
REMARK    8  A    between atoms: C_14  and  C_15
REMARK    9  A    between atoms: C_14  and  C_19
REMARK   10  A    between atoms: C_16  and  C_26
REMARK   11  A    between atoms: C_18  and  C_24
REMARK   12  A    between atoms: C_21  and  C_25
REMARK   13  A    between atoms: C_22  and  C_23
REMARK   14  A    between atoms: C_23  and  C_30
REMARK   15  A    between atoms: C_29  and  C_39
REMARK   16  A    between atoms: C_30  and  C_44
REMARK                            x       y       z     vdW  Elec       q    Type
REMARK                         _______ _______ _______ _____ _____    ______ ____
ROOT
ATOM      1  O   UNL     1      -0.879  -2.044  -1.062  0.00  0.00    +0.000 OA
ATOM      2  O   UNL     1       1.125   2.104  -1.620  0.00  0.00    +0.000 OA
ATOM      3  N   UNL     1       0.084   0.039  -1.352  0.00  0.00    +0.000 N 
ATOM      4  N   UNL     1       1.372  -1.792  -0.542  0.00  0.00    +0.000 N 
ATOM      5  C   UNL     1       2.505  -0.973  -0.460  0.00  0.00    +0.000 A 
ATOM      6  C   UNL     1       0.122  -1.323  -0.988  0.00  0.00    +0.000 A 
ATOM      7  C   UNL     1       2.449   0.330  -0.813  0.00  0.00    +0.000 A 
ATOM      8  C   UNL     1       1.166   0.916  -1.300  0.00  0.00    +0.000 A 
ATOM      9  C   UNL     1       3.786  -1.613   0.039  0.00  0.00    +0.000 C 
ENDROOT
BRANCH   7  11
ATOM     10  F   UNL     1       3.077   1.807   1.496  0.00  0.00    +0.000 F 
ATOM     11  C   UNL     1       3.618   1.201  -0.736  0.00  0.00    +0.000 A 
ATOM     12  C   UNL     1       3.887   1.915   0.432  0.00  0.00    +0.000 A 
ATOM     13  C   UNL     1       4.468   1.319  -1.836  0.00  0.00    +0.000 A 
ATOM     14  C   UNL     1       5.006   2.745   0.500  0.00  0.00    +0.000 A 
ATOM     15  C   UNL     1       5.586   2.150  -1.768  0.00  0.00    +0.000 A 
ATOM     16  C   UNL     1       5.855   2.863  -0.600  0.00  0.00    +0.000 A 
BRANCH  14  17
ATOM     17  O   UNL     1       5.270   3.442   1.639  0.00  0.00    +0.000 OA
ATOM     18  C   UNL     1       6.431   4.272   1.638  0.00  0.00    +0.000 C 
ENDBRANCH  14  17
ENDBRANCH   7  11
BRANCH   3  19
ATOM     19  C   UNL     1      -1.191   0.573  -1.823  0.00  0.00    +0.000 C 
BRANCH  19  20
ATOM     20  C   UNL     1      -2.043   1.132  -0.672  0.00  0.00    +0.000 C 
BRANCH  20  21
ATOM     21  C   UNL     1      -1.379   2.287   0.058  0.00  0.00    +0.000 A 
ATOM     22  C   UNL     1      -0.556   2.037   1.155  0.00  0.00    +0.000 A 
ATOM     23  C   UNL     1      -1.593   3.597  -0.370  0.00  0.00    +0.000 A 
ATOM     24  C   UNL     1       0.054   3.097   1.826  0.00  0.00    +0.000 A 
ATOM     25  C   UNL     1      -0.983   4.658   0.300  0.00  0.00    +0.000 A 
ATOM     26  C   UNL     1      -0.159   4.408   1.398  0.00  0.00    +0.000 A 
ENDBRANCH  20  21
BRANCH  20  27
ATOM     27  N   UNL     1      -3.366   1.524  -1.173  0.00  0.00    +0.000 NA
ATOM     28  H   UNL     1      -3.658   0.888  -1.914  0.00  0.00    +0.000 HD
BRANCH  27  29
ATOM     29  C   UNL     1      -4.349   1.479  -0.104  0.00  0.00    +0.000 C 
BRANCH  29  30
ATOM     30  C   UNL     1      -5.725   1.883  -0.634  0.00  0.00    +0.000 C 
BRANCH  30  31
ATOM     31  C   UNL     1      -6.800   1.850   0.448  0.00  0.00    +0.000 C 
BRANCH  31  33
ATOM     32  O   UNL     1      -8.331   2.684  -1.223  0.00  0.00    +0.000 OA
ATOM     33  C   UNL     1      -8.147   2.272  -0.084  0.00  0.00    +0.000 C 
BRANCH  33  34
ATOM     34  O   UNL     1      -9.134   2.174   0.840  0.00  0.00    +0.000 OA
ATOM     35  H   UNL     1     -10.001   2.463   0.482  0.00  0.00    +0.000 HD
ENDBRANCH  33  34
ENDBRANCH  31  33
ENDBRANCH  30  31
ENDBRANCH  29  30
ENDBRANCH  27  29
ENDBRANCH  20  27
ENDBRANCH  19  20
ENDBRANCH   3  19
BRANCH   4  36
ATOM     36  C   UNL     1       1.493  -3.198  -0.145  0.00  0.00    +0.000 C 
BRANCH  36  38
ATOM     37  F   UNL     1       0.538  -1.641   1.991  0.00  0.00    +0.000 F 
ATOM     38  C   UNL     1       0.348  -3.638   0.720  0.00  0.00    +0.000 A 
ATOM     39  C   UNL     1      -0.294  -4.856   0.493  0.00  0.00    +0.000 A 
ATOM     40  C   UNL     1      -0.072  -2.813   1.764  0.00  0.00    +0.000 A 
ATOM     41  C   UNL     1      -1.356  -5.247   1.308  0.00  0.00    +0.000 A 
ATOM     42  C   UNL     1      -1.134  -3.205   2.579  0.00  0.00    +0.000 A 
ATOM     43  C   UNL     1      -1.776  -4.422   2.351  0.00  0.00    +0.000 A 
BRANCH  39  47
ATOM     44  F   UNL     1      -0.594  -6.905  -0.704  0.00  0.00    +0.000 F 
ATOM     45  F   UNL     1       0.046  -5.180  -1.853  0.00  0.00    +0.000 F 
ATOM     46  F   UNL     1       1.436  -6.155  -0.494  0.00  0.00    +0.000 F 
ATOM     47  C   UNL     1       0.138  -5.756  -0.618  0.00  0.00    +0.000 C 
ENDBRANCH  39  47
ENDBRANCH  36  38
ENDBRANCH   4  36
TORSDOF 14
