REMARK  Name = 170345
REMARK  9 active torsions:
REMARK  status: ('A' for Active; 'I' for Inactive)
REMARK    1  A    between atoms: O_1  and  C_9
REMARK    2  A    between atoms: O_1  and  C_15
REMARK    3  A    between atoms: O_3  and  C_12
REMARK    4  A    between atoms: O_4  and  C_14
REMARK    5  A    between atoms: N_5  and  C_7
REMARK    6  A    between atoms: C_6  and  C_7
REMARK    7  A    between atoms: C_6  and  C_8
REMARK    8  A    between atoms: C_7  and  C_9
REMARK    9  A    between atoms: C_15  and  C_16
REMARK                            x       y       z     vdW  Elec       q    Type
REMARK                         _______ _______ _______ _____ _____    ______ ____
ROOT
ATOM      1  C   UNL     1      -1.009   1.938   0.328  0.00  0.00    +0.000 C 
ENDROOT
BRANCH   1   2
ATOM      2  C   UNL     1       0.343   1.295   0.124  0.00  0.00    +0.000 A 
ATOM      3  C   UNL     1       0.778   0.334   1.021  0.00  0.00    +0.000 A 
ATOM      4  C   UNL     1       1.121   1.680  -0.956  0.00  0.00    +0.000 A 
ATOM      5  C   UNL     1       2.027  -0.260   0.833  0.00  0.00    +0.000 A 
ATOM      6  C   UNL     1       2.369   1.087  -1.143  0.00  0.00    +0.000 A 
ATOM      7  C   UNL     1       2.822   0.117  -0.249  0.00  0.00    +0.000 A 
BRANCH   5   8
ATOM      8  O   UNL     1       2.459  -1.204   1.715  0.00  0.00    +0.000 OA
ATOM      9  H   UNL     1       1.777  -1.338   2.395  0.00  0.00    +0.000 HD
ENDBRANCH   5   8
BRANCH   7  10
ATOM     10  O   UNL     1       4.043  -0.455  -0.443  0.00  0.00    +0.000 OA
ATOM     11  H   UNL     1       4.449  -0.072  -1.239  0.00  0.00    +0.000 HD
ENDBRANCH   7  10
ENDBRANCH   1   2
BRANCH   1  12
ATOM     12  C   UNL     1      -2.146   1.188  -0.380  0.00  0.00    +0.000 C 
BRANCH  12  13
ATOM     13  N   UNL     1      -3.414   1.878  -0.139  0.00  0.00    +0.000 NA
ATOM     14  H   UNL     1      -4.155   1.427  -0.674  0.00  0.00    +0.000 HD
ATOM     15  H   UNL     1      -3.354   2.834  -0.490  0.00  0.00    +0.000 HD
ENDBRANCH  12  13
BRANCH  12  17
ATOM     16  O   UNL     1      -2.966  -0.521   1.153  0.00  0.00    +0.000 OA
ATOM     17  C   UNL     1      -2.297  -0.219   0.172  0.00  0.00    +0.000 C 
BRANCH  17  18
ATOM     18  O   UNL     1      -1.599  -1.092  -0.614  0.00  0.00    +0.000 OA
BRANCH  18  19
ATOM     19  C   UNL     1      -1.677  -2.468  -0.229  0.00  0.00    +0.000 C 
ATOM     20  C   UNL     1      -0.855  -3.297  -1.194  0.00  0.00    +0.000 C 
ENDBRANCH  18  19
ENDBRANCH  17  18
ENDBRANCH  12  17
ENDBRANCH   1  12
TORSDOF 8
