REMARK  Name = 185914
REMARK  6 active torsions:
REMARK  status: ('A' for Active; 'I' for Inactive)
REMARK    1  A    between atoms: O_1  and  C_12
REMARK    2  A    between atoms: O_2  and  C_13
REMARK    3  A    between atoms: O_3  and  C_17
REMARK    4  A    between atoms: C_4  and  C_5
REMARK    5  A    between atoms: C_4  and  C_6
REMARK    6  A    between atoms: C_5  and  C_7
REMARK                            x       y       z     vdW  Elec       q    Type
REMARK                         _______ _______ _______ _____ _____    ______ ____
ROOT
ATOM      1  C   UNL     1       0.241  -0.019   0.654  0.00  0.00    +0.000 C 
ENDROOT
BRANCH   1   2
ATOM      2  C   UNL     1       1.724  -0.008   0.373  0.00  0.00    +0.000 A 
ATOM      3  C   UNL     1       2.400  -1.211   0.244  0.00  0.00    +0.000 A 
ATOM      4  C   UNL     1       2.383   1.205   0.249  0.00  0.00    +0.000 A 
ATOM      5  C   UNL     1       3.753   1.215  -0.011  0.00  0.00    +0.000 A 
ATOM      6  C   UNL     1       3.770  -1.201  -0.016  0.00  0.00    +0.000 A 
ATOM      7  C   UNL     1       4.447   0.012  -0.143  0.00  0.00    +0.000 A 
BRANCH   5   8
ATOM      8  O   UNL     1       4.413   2.399  -0.136  0.00  0.00    +0.000 OA
ATOM      9  H   UNL     1       3.780   3.127  -0.016  0.00  0.00    +0.000 HD
ENDBRANCH   5   8
BRANCH   6  10
ATOM     10  O   UNL     1       4.447  -2.375  -0.146  0.00  0.00    +0.000 OA
ATOM     11  H   UNL     1       5.383  -2.181  -0.324  0.00  0.00    +0.000 HD
ENDBRANCH   6  10
ENDBRANCH   1   2
BRANCH   1  12
ATOM     12  C   UNL     1      -0.620  -0.023  -0.625  0.00  0.00    +0.000 C 
BRANCH  12  13
ATOM     13  C   UNL     1      -2.089  -0.012  -0.369  0.00  0.00    +0.000 A 
ATOM     14  C   UNL     1      -2.783  -1.215  -0.241  0.00  0.00    +0.000 A 
ATOM     15  C   UNL     1      -2.769   1.201  -0.259  0.00  0.00    +0.000 A 
ATOM     16  C   UNL     1      -4.157  -1.205  -0.003  0.00  0.00    +0.000 A 
ATOM     17  C   UNL     1      -4.143   1.211  -0.020  0.00  0.00    +0.000 A 
ATOM     18  C   UNL     1      -4.837   0.008   0.108  0.00  0.00    +0.000 A 
BRANCH  18  19
ATOM     19  O   UNL     1      -6.178   0.017   0.341  0.00  0.00    +0.000 OA
ATOM     20  H   UNL     1      -6.494  -0.901   0.401  0.00  0.00    +0.000 HD
ENDBRANCH  18  19
ENDBRANCH  12  13
ENDBRANCH   1  12
TORSDOF 6
