REMARK  Name = 66645351
REMARK  14 active torsions:
REMARK  status: ('A' for Active; 'I' for Inactive)
REMARK    1  A    between atoms: S_1  and  O_3
REMARK    2  A    between atoms: S_1  and  O_8
REMARK    3  A    between atoms: O_2  and  C_12
REMARK    4  A    between atoms: O_2  and  C_30
REMARK    5  A    between atoms: O_3  and  C_14
REMARK    6  A    between atoms: O_4  and  C_23
REMARK    7  A    between atoms: O_4  and  C_31
REMARK    8  A    between atoms: O_5  and  C_27
REMARK    9  A    between atoms: C_11  and  C_18
REMARK   10  A    between atoms: C_16  and  C_24
REMARK   11  A    between atoms: C_19  and  C_22
REMARK   12  A    between atoms: C_19  and  C_26
REMARK   13  A    between atoms: C_21  and  C_22
REMARK   14  A    between atoms: C_26  and  C_28
REMARK                            x       y       z     vdW  Elec       q    Type
REMARK                         _______ _______ _______ _____ _____    ______ ____
ROOT
ATOM      1  O   UNL     1       0.182  -2.462   0.093  0.00  0.00    +0.000 OA
ATOM      2  C   UNL     1       0.020  -1.260   0.287  0.00  0.00    +0.000 C 
ENDROOT
BRANCH   2   4
ATOM      3  C   UNL     1      -2.434  -1.433   0.314  0.00  0.00    +0.000 C 
ATOM      4  C   UNL     1      -1.343  -0.659   0.392  0.00  0.00    +0.000 C 
BRANCH   3   5
ATOM      5  C   UNL     1      -3.820  -0.940   0.414  0.00  0.00    +0.000 A 
ATOM      6  C   UNL     1      -5.409   0.875   0.281  0.00  0.00    +0.000 A 
ATOM      7  C   UNL     1      -4.098   0.407   0.186  0.00  0.00    +0.000 A 
ATOM      8  C   UNL     1      -6.442  -0.006   0.604  0.00  0.00    +0.000 A 
ATOM      9  C   UNL     1      -4.852  -1.821   0.737  0.00  0.00    +0.000 A 
ATOM     10  C   UNL     1      -6.163  -1.354   0.832  0.00  0.00    +0.000 A 
BRANCH   6  11
ATOM     11  O   UNL     1      -5.669   2.193   0.055  0.00  0.00    +0.000 OA
ATOM     12  C   UNL     1      -4.558   3.026  -0.270  0.00  0.00    +0.000 C 
ENDBRANCH   6  11
BRANCH   8  13
ATOM     13  O   UNL     1      -7.726   0.438   0.700  0.00  0.00    +0.000 OA
BRANCH  13  14
ATOM     14  S   UNL     1      -8.676   0.418  -0.641  0.00  0.00    +0.000 S 
ATOM     15  O   UNL     1      -8.070   1.253  -1.662  0.00  0.00    +0.000 OA
ATOM     16  O   UNL     1      -8.996  -0.967  -0.934  0.00  0.00    +0.000 OA
BRANCH  14  17
ATOM     17  O   UNL     1     -10.055   1.144  -0.154  0.00  0.00    +0.000 OA
ATOM     18  H   UNL     1     -10.755   1.224  -0.844  0.00  0.00    +0.000 HD
ENDBRANCH  14  17
ENDBRANCH  13  14
ENDBRANCH   8  13
ENDBRANCH   3   5
ENDBRANCH   2   4
BRANCH   2  19
ATOM     19  C   UNL     1       1.177  -0.287   0.389  0.00  0.00    +0.000 C 
BRANCH  19  21
ATOM     20  O   UNL     1       2.386  -1.387  -1.382  0.00  0.00    +0.000 OA
ATOM     21  C   UNL     1       2.423  -0.674  -0.383  0.00  0.00    +0.000 C 
BRANCH  21  23
ATOM     22  C   UNL     1       4.873  -0.456  -0.434  0.00  0.00    +0.000 C 
ATOM     23  C   UNL     1       3.713  -0.169   0.174  0.00  0.00    +0.000 C 
BRANCH  22  24
ATOM     24  C   UNL     1       6.197  -0.014   0.037  0.00  0.00    +0.000 A 
ATOM     25  C   UNL     1       7.279   0.008  -0.843  0.00  0.00    +0.000 A 
ATOM     26  C   UNL     1       8.533   0.426  -0.398  0.00  0.00    +0.000 A 
ATOM     27  C   UNL     1       6.370   0.381   1.364  0.00  0.00    +0.000 A 
ATOM     28  C   UNL     1       8.705   0.821   0.929  0.00  0.00    +0.000 A 
ATOM     29  C   UNL     1       7.624   0.798   1.810  0.00  0.00    +0.000 A 
BRANCH  26  30
ATOM     30  O   UNL     1       9.582   0.444  -1.267  0.00  0.00    +0.000 OA
ATOM     31  C   UNL     1       9.321   0.025  -2.605  0.00  0.00    +0.000 C 
ENDBRANCH  26  30
BRANCH  28  32
ATOM     32  O   UNL     1       9.925   1.231   1.377  0.00  0.00    +0.000 OA
ATOM     33  H   UNL     1       9.854   1.466   2.318  0.00  0.00    +0.000 HD
ENDBRANCH  28  32
ENDBRANCH  22  24
ENDBRANCH  21  23
ENDBRANCH  19  21
ENDBRANCH   2  19
TORSDOF 12
