REMARK  Name = 4055
REMARK  1 active torsions:
REMARK  status: ('A' for Active; 'I' for Inactive)
REMARK    1  A    between atoms: C_5  and  C_11
REMARK                            x       y       z     vdW  Elec       q    Type
REMARK                         _______ _______ _______ _____ _____    ______ ____
ROOT
ATOM      1  O   UNL     1       1.359   2.300  -0.001  0.00  0.00    +0.000 OA
ATOM      2  O   UNL     1       0.077  -2.889   0.000  0.00  0.00    +0.000 OA
ATOM      3  C   UNL     1      -0.359   0.693  -0.000  0.00  0.00    +0.000 A 
ATOM      4  C   UNL     1      -0.701  -0.660  -0.001  0.00  0.00    +0.000 A 
ATOM      5  C   UNL     1       2.100   0.050   0.000  0.00  0.00    +0.000 C 
ATOM      6  C   UNL     1       1.057   1.112  -0.001  0.00  0.00    +0.000 C 
ATOM      7  C   UNL     1       0.349  -1.694  -0.001  0.00  0.00    +0.000 C 
ATOM      8  C   UNL     1       1.755  -1.243   0.000  0.00  0.00    +0.000 C 
ATOM      9  C   UNL     1      -1.366   1.665   0.001  0.00  0.00    +0.000 A 
ATOM     10  C   UNL     1      -2.047  -1.044  -0.000  0.00  0.00    +0.000 A 
ATOM     11  C   UNL     1       3.530   0.500   0.002  0.00  0.00    +0.000 C 
ATOM     12  C   UNL     1      -2.708   1.280   0.001  0.00  0.00    +0.000 A 
ATOM     13  C   UNL     1      -3.047  -0.071   0.000  0.00  0.00    +0.000 A 
ENDROOT
TORSDOF 0
