REMARK  Name = 667476
REMARK  7 active torsions:
REMARK  status: ('A' for Active; 'I' for Inactive)
REMARK    1  A    between atoms: O_1  and  C_17
REMARK    2  A    between atoms: O_2  and  C_18
REMARK    3  A    between atoms: C_3  and  C_4
REMARK    4  A    between atoms: C_3  and  C_5
REMARK    5  A    between atoms: C_4  and  C_6
REMARK    6  A    between atoms: C_7  and  C_19
REMARK    7  A    between atoms: C_8  and  C_20
REMARK                            x       y       z     vdW  Elec       q    Type
REMARK                         _______ _______ _______ _____ _____    ______ ____
ROOT
ATOM      1  C   UNL     1      -0.686  -1.607   0.261  0.00  0.00    +0.000 C 
ATOM      2  C   UNL     1      -1.248  -2.664   0.886  0.00  0.00    +0.000 C 
ATOM      3  C   UNL     1      -2.643  -2.775   1.418  0.00  0.00    +0.000 C 
ENDROOT
BRANCH   1   4
ATOM      4  C   UNL     1      -1.546  -0.413   0.077  0.00  0.00    +0.000 A 
ATOM      5  C   UNL     1      -1.563   0.558   1.058  0.00  0.00    +0.000 A 
ATOM      6  C   UNL     1      -2.307  -0.307  -1.071  0.00  0.00    +0.000 A 
ATOM      7  C   UNL     1      -2.373   1.680   0.885  0.00  0.00    +0.000 A 
ATOM      8  C   UNL     1      -3.116   0.815  -1.245  0.00  0.00    +0.000 A 
ATOM      9  C   UNL     1      -3.150   1.809  -0.266  0.00  0.00    +0.000 A 
BRANCH   9  10
ATOM     10  O   UNL     1      -3.940   2.904  -0.435  0.00  0.00    +0.000 OA
ATOM     11  H   UNL     1      -3.839   3.487   0.337  0.00  0.00    +0.000 HD
ENDBRANCH   9  10
ENDBRANCH   1   4
BRANCH   1  12
ATOM     12  C   UNL     1       0.686  -1.607  -0.261  0.00  0.00    +0.000 C 
ATOM     13  C   UNL     1       1.247  -2.664  -0.886  0.00  0.00    +0.000 C 
ATOM     14  C   UNL     1       2.643  -2.775  -1.418  0.00  0.00    +0.000 C 
BRANCH  12  15
ATOM     15  C   UNL     1       1.546  -0.413  -0.077  0.00  0.00    +0.000 A 
ATOM     16  C   UNL     1       1.563   0.558  -1.058  0.00  0.00    +0.000 A 
ATOM     17  C   UNL     1       2.307  -0.307   1.071  0.00  0.00    +0.000 A 
ATOM     18  C   UNL     1       2.373   1.680  -0.885  0.00  0.00    +0.000 A 
ATOM     19  C   UNL     1       3.116   0.815   1.245  0.00  0.00    +0.000 A 
ATOM     20  C   UNL     1       3.150   1.809   0.266  0.00  0.00    +0.000 A 
BRANCH  20  21
ATOM     21  O   UNL     1       3.940   2.904   0.435  0.00  0.00    +0.000 OA
ATOM     22  H   UNL     1       3.839   3.487  -0.337  0.00  0.00    +0.000 HD
ENDBRANCH  20  21
ENDBRANCH  12  15
ENDBRANCH   1  12
TORSDOF 5
