REMARK  Name = 5288545
REMARK  8 active torsions:
REMARK  status: ('A' for Active; 'I' for Inactive)
REMARK    1  A    between atoms: O_1  and  C_8
REMARK    2  A    between atoms: O_1  and  C_15
REMARK    3  A    between atoms: O_2  and  C_10
REMARK    4  A    between atoms: O_3  and  C_11
REMARK    5  A    between atoms: O_4  and  C_14
REMARK    6  A    between atoms: O_5  and  C_14
REMARK    7  A    between atoms: C_6  and  C_12
REMARK    8  A    between atoms: C_13  and  C_14
REMARK                            x       y       z     vdW  Elec       q    Type
REMARK                         _______ _______ _______ _____ _____    ______ ____
ROOT
ATOM      1  C   UNL     1      -0.255   0.616   0.145  0.00  0.00    +0.000 A 
ATOM      2  C   UNL     1       0.251  -0.675   0.293  0.00  0.00    +0.000 A 
ATOM      3  C   UNL     1       1.628  -0.893   0.261  0.00  0.00    +0.000 A 
ATOM      4  C   UNL     1       0.616   1.690  -0.035  0.00  0.00    +0.000 A 
ATOM      5  C   UNL     1       2.500   0.181   0.081  0.00  0.00    +0.000 A 
ATOM      6  C   UNL     1       1.994   1.473  -0.068  0.00  0.00    +0.000 A 
ENDROOT
BRANCH   3   7
ATOM      7  O   UNL     1       2.110  -2.159   0.407  0.00  0.00    +0.000 OA
ATOM      8  C   UNL     1       2.283  -2.927  -0.782  0.00  0.00    +0.000 C 
ENDBRANCH   3   7
BRANCH   5   9
ATOM      9  O   UNL     1       3.846  -0.031   0.049  0.00  0.00    +0.000 OA
ATOM     10  H   UNL     1       4.289   0.825  -0.085  0.00  0.00    +0.000 HD
ENDBRANCH   5   9
BRANCH   6  11
ATOM     11  O   UNL     1       2.834   2.530  -0.244  0.00  0.00    +0.000 OA
ATOM     12  H   UNL     1       2.308   3.344  -0.328  0.00  0.00    +0.000 HD
ENDBRANCH   6  11
BRANCH   1  13
ATOM     13  C   UNL     1      -1.691   0.843   0.179  0.00  0.00    +0.000 C 
ATOM     14  C   UNL     1      -2.646  -0.092  -0.034  0.00  0.00    +0.000 C 
BRANCH  14  15
ATOM     15  C   UNL     1      -4.117   0.192   0.002  0.00  0.00    +0.000 C 
BRANCH  15  16
ATOM     16  O   UNL     1      -4.695  -0.616   1.018  0.00  0.00    +0.000 OA
ATOM     17  H   UNL     1      -5.503  -0.165   1.317  0.00  0.00    +0.000 HD
ENDBRANCH  15  16
BRANCH  15  18
ATOM     18  O   UNL     1      -4.659  -0.132  -1.272  0.00  0.00    +0.000 OA
ATOM     19  H   UNL     1      -5.460   0.406  -1.387  0.00  0.00    +0.000 HD
ENDBRANCH  15  18
ENDBRANCH  14  15
ENDBRANCH   1  13
TORSDOF 7
