REMARK  Name = 6755
REMARK  1 active torsions:
REMARK  status: ('A' for Active; 'I' for Inactive)
REMARK    1  A    between atoms: O_1  and  C_6
REMARK                            x       y       z     vdW  Elec       q    Type
REMARK                         _______ _______ _______ _____ _____    ______ ____
ROOT
ATOM      1  O   UNL     1      -1.333  -2.357   0.006  0.00  0.00    +0.000 OA
ATOM      2  O   UNL     1      -3.285  -0.538  -0.001  0.00  0.00    +0.000 OA
ATOM      3  C   UNL     1       0.640   0.669  -0.005  0.00  0.00    +0.000 A 
ATOM      4  C   UNL     1       0.375  -0.709   0.001  0.00  0.00    +0.000 A 
ATOM      5  C   UNL     1      -0.467   1.643  -0.009  0.00  0.00    +0.000 C 
ATOM      6  C   UNL     1      -1.023  -1.177   0.002  0.00  0.00    +0.000 C 
ATOM      7  C   UNL     1       1.982   1.081  -0.007  0.00  0.00    +0.000 A 
ATOM      8  C   UNL     1       1.412  -1.650   0.004  0.00  0.00    +0.000 A 
ATOM      9  C   UNL     1      -1.754   1.269  -0.007  0.00  0.00    +0.000 C 
ATOM     10  C   UNL     1      -2.124  -0.157  -0.003  0.00  0.00    +0.000 C 
ATOM     11  C   UNL     1       3.021   0.146  -0.003  0.00  0.00    +0.000 A 
ATOM     12  C   UNL     1       2.736  -1.217   0.002  0.00  0.00    +0.000 A 
ENDROOT
BRANCH   5  13
ATOM     13  O   UNL     1      -0.180   2.997   0.020  0.00  0.00    +0.000 OA
ATOM     14  H   UNL     1      -1.015   3.497   0.023  0.00  0.00    +0.000 HD
ENDBRANCH   5  13
TORSDOF 1
