REMARK  Name = 5310985
REMARK  6 active torsions:
REMARK  status: ('A' for Active; 'I' for Inactive)
REMARK    1  A    between atoms: O_1  and  C_13
REMARK    2  A    between atoms: O_1  and  C_22
REMARK    3  A    between atoms: O_2  and  C_19
REMARK    4  A    between atoms: O_2  and  C_23
REMARK    5  A    between atoms: C_9  and  C_11
REMARK    6  A    between atoms: C_10  and  C_12
REMARK                            x       y       z     vdW  Elec       q    Type
REMARK                         _______ _______ _______ _____ _____    ______ ____
ROOT
ATOM      1  N   UNL     1       2.922  -2.181  -0.014  0.00  0.00    +0.000 NA
ATOM      2  C   UNL     1       0.012  -2.315   0.308  0.00  0.00    +0.000 C 
ATOM      3  C   UNL     1       0.958  -3.296   0.986  0.00  0.00    +0.000 C 
ATOM      4  C   UNL     1       0.718  -1.033  -0.038  0.00  0.00    +0.000 C 
ATOM      5  C   UNL     1       2.217  -3.454   0.148  0.00  0.00    +0.000 C 
ATOM      6  C   UNL     1       2.221  -1.101  -0.097  0.00  0.00    +0.000 C 
ATOM      7  C   UNL     1       0.024   0.087  -0.288  0.00  0.00    +0.000 C 
ENDROOT
BRANCH   6   9
ATOM      8  N   UNL     1       3.964   1.803  -1.704  0.00  0.00    +0.000 NA
ATOM      9  C   UNL     1       2.973   0.163  -0.246  0.00  0.00    +0.000 A 
ATOM     10  C   UNL     1       3.383   0.875   0.868  0.00  0.00    +0.000 A 
ATOM     11  C   UNL     1       3.279   0.656  -1.498  0.00  0.00    +0.000 A 
ATOM     12  C   UNL     1       4.090   2.060   0.697  0.00  0.00    +0.000 A 
ATOM     13  C   UNL     1       4.352   2.477  -0.598  0.00  0.00    +0.000 A 
ENDBRANCH   6   9
BRANCH   7  14
ATOM     14  C   UNL     1      -1.403   0.183  -0.239  0.00  0.00    +0.000 A 
ATOM     15  C   UNL     1      -2.085   0.563   0.933  0.00  0.00    +0.000 A 
ATOM     16  C   UNL     1      -2.164  -0.107  -1.387  0.00  0.00    +0.000 A 
ATOM     17  C   UNL     1      -3.477   0.649   0.956  0.00  0.00    +0.000 A 
ATOM     18  C   UNL     1      -3.556  -0.020  -1.365  0.00  0.00    +0.000 A 
ATOM     19  C   UNL     1      -4.213   0.358  -0.193  0.00  0.00    +0.000 A 
BRANCH  15  20
ATOM     20  O   UNL     1      -1.390   0.853   2.070  0.00  0.00    +0.000 OA
ATOM     21  C   UNL     1      -0.991   2.209   2.255  0.00  0.00    +0.000 C 
ENDBRANCH  15  20
BRANCH  19  22
ATOM     22  O   UNL     1      -5.571   0.442  -0.172  0.00  0.00    +0.000 OA
ATOM     23  C   UNL     1      -6.261   0.130  -1.381  0.00  0.00    +0.000 C 
ENDBRANCH  19  22
ENDBRANCH   7  14
TORSDOF 4
