REMARK  Name = 16478818
REMARK  4 active torsions:
REMARK  status: ('A' for Active; 'I' for Inactive)
REMARK    1  A    between atoms: O_4  and  C_16
REMARK    2  A    between atoms: N_7  and  N_8
REMARK    3  A    between atoms: N_7  and  C_13
REMARK    4  A    between atoms: C_12  and  C_17
REMARK                            x       y       z     vdW  Elec       q    Type
REMARK                         _______ _______ _______ _____ _____    ______ ____
ROOT
ATOM      1  N   UNL     1      -0.020  -0.147  -0.503  0.00  0.00    +0.000 N 
ATOM      2  H   UNL     1      -0.232  -1.122  -0.675  0.00  0.00    +0.000 HD
ENDROOT
BRANCH   1   9
ATOM      3 BR   UNL     1      -4.926  -2.846  -0.395  0.00  0.00    +0.000 Br
ATOM      4 BR   UNL     1      -5.775   2.687   0.703  0.00  0.00    +0.000 Br
ATOM      5  O   UNL     1      -2.048  -1.827  -0.559  0.00  0.00    +0.000 OA
ATOM      6  C   UNL     1      -2.315   0.504  -0.108  0.00  0.00    +0.000 C 
ATOM      7  C   UNL     1      -2.805  -0.897  -0.301  0.00  0.00    +0.000 C 
ATOM      8  C   UNL     1      -3.267   1.550   0.195  0.00  0.00    +0.000 C 
ATOM      9  C   UNL     1      -1.001   0.742  -0.224  0.00  0.00    +0.000 C 
ATOM     10  C   UNL     1      -4.285  -1.101  -0.159  0.00  0.00    +0.000 C 
ATOM     11  C   UNL     1      -4.580   1.296   0.308  0.00  0.00    +0.000 C 
ATOM     12  C   UNL     1      -5.087  -0.058   0.127  0.00  0.00    +0.000 C 
BRANCH  12  13
ATOM     13  O   UNL     1      -6.454  -0.240   0.260  0.00  0.00    +0.000 OA
ATOM     14  H   UNL     1      -6.648  -1.182   0.114  0.00  0.00    +0.000 HD
ENDBRANCH  12  13
ENDBRANCH   1   9
BRANCH   1  16
ATOM     15  O   UNL     1       1.959  -1.185   1.086  0.00  0.00    +0.000 OA
ATOM     16  N   UNL     1       1.295   0.240  -0.616  0.00  0.00    +0.000 N 
ATOM     17  C   UNL     1       2.218  -0.341   0.231  0.00  0.00    +0.000 C 
ATOM     18  H   UNL     1       1.497   0.884  -1.373  0.00  0.00    +0.000 HD
BRANCH  17  20
ATOM     19 BR   UNL     1       7.419  -1.484   0.692  0.00  0.00    +0.000 Br
ATOM     20  C   UNL     1       3.625   0.101   0.049  0.00  0.00    +0.000 A 
ATOM     21  C   UNL     1       4.676  -0.749   0.394  0.00  0.00    +0.000 A 
ATOM     22  C   UNL     1       3.895   1.368  -0.468  0.00  0.00    +0.000 A 
ATOM     23  C   UNL     1       5.996  -0.332   0.223  0.00  0.00    +0.000 A 
ATOM     24  C   UNL     1       5.215   1.785  -0.640  0.00  0.00    +0.000 A 
ATOM     25  C   UNL     1       6.265   0.935  -0.294  0.00  0.00    +0.000 A 
ENDBRANCH  17  20
ENDBRANCH   1  16
TORSDOF 4
