REMARK  Name = 4788
REMARK  8 active torsions:
REMARK  status: ('A' for Active; 'I' for Inactive)
REMARK    1  A    between atoms: O_2  and  C_13
REMARK    2  A    between atoms: O_3  and  C_14
REMARK    3  A    between atoms: O_4  and  C_19
REMARK    4  A    between atoms: O_5  and  C_20
REMARK    5  A    between atoms: C_6  and  C_7
REMARK    6  A    between atoms: C_6  and  C_8
REMARK    7  A    between atoms: C_7  and  C_9
REMARK    8  A    between atoms: C_9  and  C_10
REMARK                            x       y       z     vdW  Elec       q    Type
REMARK                         _______ _______ _______ _____ _____    ______ ____
ROOT
ATOM      1  O   UNL     1      -1.005   1.472   1.951  0.00  0.00    +0.000 OA
ATOM      2  C   UNL     1      -0.978   0.795   0.905  0.00  0.00    +0.000 C 
ENDROOT
BRANCH   2   3
ATOM      3  C   UNL     1      -2.213   0.297   0.310  0.00  0.00    +0.000 A 
ATOM      4  C   UNL     1      -2.711  -0.952   0.681  0.00  0.00    +0.000 A 
ATOM      5  C   UNL     1      -2.897   1.069  -0.629  0.00  0.00    +0.000 A 
ATOM      6  C   UNL     1      -3.892  -1.429   0.113  0.00  0.00    +0.000 A 
ATOM      7  C   UNL     1      -4.078   0.593  -1.197  0.00  0.00    +0.000 A 
ATOM      8  C   UNL     1      -4.576  -0.656  -0.826  0.00  0.00    +0.000 A 
BRANCH   4   9
ATOM      9  O   UNL     1      -2.059  -1.723   1.597  0.00  0.00    +0.000 OA
ATOM     10  H   UNL     1      -1.265  -1.270   1.923  0.00  0.00    +0.000 HD
ENDBRANCH   4   9
BRANCH   5  11
ATOM     11  O   UNL     1      -2.428   2.292  -1.005  0.00  0.00    +0.000 OA
ATOM     12  H   UNL     1      -3.033   2.676  -1.663  0.00  0.00    +0.000 HD
ENDBRANCH   5  11
BRANCH   8  13
ATOM     13  O   UNL     1      -5.728  -1.122  -1.381  0.00  0.00    +0.000 OA
ATOM     14  H   UNL     1      -5.924  -2.000  -1.010  0.00  0.00    +0.000 HD
ENDBRANCH   8  13
ENDBRANCH   2   3
BRANCH   2  15
ATOM     15  C   UNL     1       0.372   0.486   0.236  0.00  0.00    +0.000 C 
BRANCH  15  16
ATOM     16  C   UNL     1       1.537   0.424   1.226  0.00  0.00    +0.000 C 
BRANCH  16  17
ATOM     17  C   UNL     1       2.842   0.128   0.533  0.00  0.00    +0.000 A 
ATOM     18  C   UNL     1       3.243  -1.189   0.369  0.00  0.00    +0.000 A 
ATOM     19  C   UNL     1       3.622   1.178   0.070  0.00  0.00    +0.000 A 
ATOM     20  C   UNL     1       4.451  -1.464  -0.272  0.00  0.00    +0.000 A 
ATOM     21  C   UNL     1       4.830   0.904  -0.572  0.00  0.00    +0.000 A 
ATOM     22  C   UNL     1       5.245  -0.417  -0.742  0.00  0.00    +0.000 A 
BRANCH  22  23
ATOM     23  O   UNL     1       6.422  -0.685  -1.369  0.00  0.00    +0.000 OA
ATOM     24  H   UNL     1       6.551  -1.648  -1.400  0.00  0.00    +0.000 HD
ENDBRANCH  22  23
ENDBRANCH  16  17
ENDBRANCH  15  16
ENDBRANCH   2  15
TORSDOF 8
