REMARK  Name = 446415
REMARK  9 active torsions:
REMARK  status: ('A' for Active; 'I' for Inactive)
REMARK    1  A    between atoms: O_1  and  C_7
REMARK    2  A    between atoms: O_1  and  C_14
REMARK    3  A    between atoms: O_2  and  C_8
REMARK    4  A    between atoms: O_3  and  C_9
REMARK    5  A    between atoms: O_5  and  C_17
REMARK    6  A    between atoms: O_6  and  C_20
REMARK    7  A    between atoms: O_6  and  C_24
REMARK    8  A    between atoms: C_12  and  C_14
REMARK    9  A    between atoms: C_16  and  C_23
REMARK                            x       y       z     vdW  Elec       q    Type
REMARK                         _______ _______ _______ _____ _____    ______ ____
ROOT
ATOM      1  C   UNL     1       0.290  -1.067   0.266  0.00  0.00    +0.000 A 
ATOM      2  C   UNL     1       1.487  -0.343   0.140  0.00  0.00    +0.000 A 
ATOM      3  C   UNL     1       2.659  -1.013  -0.283  0.00  0.00    +0.000 A 
ATOM      4  C   UNL     1       3.856  -0.290  -0.409  0.00  0.00    +0.000 A 
ATOM      5  C   UNL     1       0.250  -2.432  -0.021  0.00  0.00    +0.000 A 
ATOM      6  C   UNL     1       1.546   1.031   0.425  0.00  0.00    +0.000 A 
ATOM      7  C   UNL     1       2.600  -2.387  -0.568  0.00  0.00    +0.000 A 
ATOM      8  C   UNL     1       2.744   1.734   0.295  0.00  0.00    +0.000 A 
ATOM      9  C   UNL     1       1.403  -3.091  -0.438  0.00  0.00    +0.000 A 
ATOM     10  C   UNL     1       3.897   1.075  -0.121  0.00  0.00    +0.000 A 
ATOM     11  C   UNL     1       5.132  -0.936  -0.852  0.00  0.00    +0.000 C 
ENDROOT
BRANCH   1  13
ATOM     12  O   UNL     1      -1.308  -0.334   1.877  0.00  0.00    +0.000 OA
ATOM     13  C   UNL     1      -0.951  -0.425   0.700  0.00  0.00    +0.000 C 
BRANCH  13  14
ATOM     14  O   UNL     1      -1.657   0.056  -0.365  0.00  0.00    +0.000 OA
BRANCH  14  15
ATOM     15  C   UNL     1      -2.889   0.707  -0.069  0.00  0.00    +0.000 C 
ATOM     16  C   UNL     1      -3.852  -0.287   0.594  0.00  0.00    +0.000 C 
ATOM     17  C   UNL     1      -3.555   1.130  -1.384  0.00  0.00    +0.000 C 
ATOM     18  C   UNL     1      -5.140  -0.047  -0.118  0.00  0.00    +0.000 C 
ATOM     19  C   UNL     1      -4.979   0.725  -1.196  0.00  0.00    +0.000 C 
BRANCH  16  20
ATOM     20  O   UNL     1      -4.003   0.013   1.972  0.00  0.00    +0.000 OA
ATOM     21  H   UNL     1      -3.143  -0.121   2.403  0.00  0.00    +0.000 HD
ENDBRANCH  16  20
BRANCH  17  22
ATOM     22  O   UNL     1      -3.451   2.537  -1.541  0.00  0.00    +0.000 OA
ATOM     23  H   UNL     1      -3.918   2.777  -2.360  0.00  0.00    +0.000 HD
ENDBRANCH  17  22
ENDBRANCH  14  15
ENDBRANCH  13  14
ENDBRANCH   1  13
BRANCH   5  24
ATOM     24  O   UNL     1      -0.907  -3.144   0.098  0.00  0.00    +0.000 OA
ATOM     25  H   UNL     1      -0.738  -4.070  -0.144  0.00  0.00    +0.000 HD
ENDBRANCH   5  24
BRANCH   8  26
ATOM     26  O   UNL     1       2.785   3.065   0.575  0.00  0.00    +0.000 OA
ATOM     27  C   UNL     1       4.042   3.723   0.421  0.00  0.00    +0.000 C 
ENDBRANCH   8  26
TORSDOF 7
