REMARK  Name = 73571
REMARK  5 active torsions:
REMARK  status: ('A' for Active; 'I' for Inactive)
REMARK    1  A    between atoms: O_3  and  C_12
REMARK    2  A    between atoms: O_4  and  C_16
REMARK    3  A    between atoms: O_4  and  C_21
REMARK    4  A    between atoms: O_5  and  C_20
REMARK    5  A    between atoms: C_6  and  C_9
REMARK                            x       y       z     vdW  Elec       q    Type
REMARK                         _______ _______ _______ _____ _____    ______ ____
ROOT
ATOM      1  O   UNL     1      -0.178  -0.672  -0.159  0.00  0.00    +0.000 OA
ATOM      2  O   UNL     1       1.251   3.172  -0.057  0.00  0.00    +0.000 OA
ATOM      3  C   UNL     1      -0.970   0.391   0.393  0.00  0.00    +0.000 C 
ATOM      4  C   UNL     1      -0.647   1.722  -0.282  0.00  0.00    +0.000 C 
ATOM      5  C   UNL     1       1.716   0.858  -0.027  0.00  0.00    +0.000 A 
ATOM      6  C   UNL     1       0.816   2.027  -0.094  0.00  0.00    +0.000 C 
ATOM      7  C   UNL     1       1.169  -0.427  -0.086  0.00  0.00    +0.000 A 
ATOM      8  C   UNL     1       3.100   1.032   0.050  0.00  0.00    +0.000 A 
ATOM      9  C   UNL     1       2.011  -1.540  -0.102  0.00  0.00    +0.000 A 
ATOM     10  C   UNL     1       3.393  -1.368  -0.027  0.00  0.00    +0.000 A 
ATOM     11  C   UNL     1       3.936  -0.086   0.054  0.00  0.00    +0.000 A 
ENDROOT
BRANCH   3  12
ATOM     12  C   UNL     1      -2.433   0.035   0.226  0.00  0.00    +0.000 A 
ATOM     13  C   UNL     1      -3.236  -0.155   1.350  0.00  0.00    +0.000 A 
ATOM     14  C   UNL     1      -2.974  -0.103  -1.051  0.00  0.00    +0.000 A 
ATOM     15  C   UNL     1      -4.583  -0.484   1.196  0.00  0.00    +0.000 A 
ATOM     16  C   UNL     1      -4.321  -0.432  -1.205  0.00  0.00    +0.000 A 
ATOM     17  C   UNL     1      -5.125  -0.623  -0.081  0.00  0.00    +0.000 A 
BRANCH  17  18
ATOM     18  O   UNL     1      -6.440  -0.943  -0.230  0.00  0.00    +0.000 OA
ATOM     19  H   UNL     1      -6.645  -0.997  -1.180  0.00  0.00    +0.000 HD
ENDBRANCH  17  18
ENDBRANCH   3  12
BRANCH   8  20
ATOM     20  O   UNL     1       3.685   2.261   0.114  0.00  0.00    +0.000 OA
ATOM     21  H   UNL     1       4.651   2.163   0.160  0.00  0.00    +0.000 HD
ENDBRANCH   8  20
BRANCH  10  22
ATOM     22  O   UNL     1       4.214  -2.455  -0.031  0.00  0.00    +0.000 OA
ATOM     23  C   UNL     1       5.617  -2.208   0.049  0.00  0.00    +0.000 C 
ENDBRANCH  10  22
TORSDOF 4
