REMARK  Name = 26383
REMARK  10 active torsions:
REMARK  status: ('A' for Active; 'I' for Inactive)
REMARK    1  A    between atoms: O_1  and  C_9
REMARK    2  A    between atoms: O_1  and  C_19
REMARK    3  A    between atoms: O_3  and  C_21
REMARK    4  A    between atoms: O_3  and  C_27
REMARK    5  A    between atoms: C_6  and  C_7
REMARK    6  A    between atoms: C_6  and  C_8
REMARK    7  A    between atoms: C_8  and  C_13
REMARK    8  A    between atoms: C_13  and  C_17
REMARK    9  A    between atoms: C_16  and  C_21
REMARK   10  A    between atoms: C_19  and  C_20
REMARK                            x       y       z     vdW  Elec       q    Type
REMARK                         _______ _______ _______ _____ _____    ______ ____
ROOT
ATOM      1  O   UNL     1       3.904  -1.533  -0.279  0.00  0.00    +0.000 OA
ATOM      2  N   UNL     1       2.321   2.154   0.286  0.00  0.00    +0.000 N 
ATOM      3  C   UNL     1      -0.275  -1.019  -0.640  0.00  0.00    +0.000 A 
ATOM      4  C   UNL     1      -0.787   0.263  -0.439  0.00  0.00    +0.000 A 
ATOM      5  C   UNL     1       1.952  -0.191  -0.227  0.00  0.00    +0.000 A 
ATOM      6  C   UNL     1       1.096  -1.252  -0.536  0.00  0.00    +0.000 A 
ATOM      7  C   UNL     1       1.446   1.106  -0.022  0.00  0.00    +0.000 A 
ATOM      8  C   UNL     1       0.069   1.322  -0.130  0.00  0.00    +0.000 A 
ATOM      9  C   UNL     1       3.419  -0.421  -0.111  0.00  0.00    +0.000 A 
ATOM     10  C   UNL     1       4.271   0.758   0.220  0.00  0.00    +0.000 A 
ATOM     11  C   UNL     1       3.668   1.942   0.392  0.00  0.00    +0.000 A 
ATOM     12  H   UNL     1       1.962   3.087   0.433  0.00  0.00    +0.000 HD
ENDROOT
BRANCH  10  14
ATOM     13  O   UNL     1       6.367   1.421   1.107  0.00  0.00    +0.000 OA
ATOM     14  C   UNL     1       5.725   0.690   0.368  0.00  0.00    +0.000 C 
BRANCH  14  15
ATOM     15  O   UNL     1       6.200  -0.296  -0.437  0.00  0.00    +0.000 OA
ATOM     16  C   UNL     1       7.618  -0.488  -0.404  0.00  0.00    +0.000 C 
ENDBRANCH  14  15
ENDBRANCH  10  14
BRANCH   4  17
ATOM     17  O   UNL     1      -2.126   0.500  -0.538  0.00  0.00    +0.000 OA
BRANCH  17  18
ATOM     18  C   UNL     1      -2.781   1.008   0.622  0.00  0.00    +0.000 C 
BRANCH  18  19
ATOM     19  C   UNL     1      -4.243   1.172   0.327  0.00  0.00    +0.000 A 
ATOM     20  C   UNL     1      -4.712   2.375  -0.189  0.00  0.00    +0.000 A 
ATOM     21  C   UNL     1      -5.117   0.118   0.572  0.00  0.00    +0.000 A 
ATOM     22  C   UNL     1      -6.071   2.527  -0.463  0.00  0.00    +0.000 A 
ATOM     23  C   UNL     1      -6.476   0.270   0.297  0.00  0.00    +0.000 A 
ATOM     24  C   UNL     1      -6.953   1.475  -0.220  0.00  0.00    +0.000 A 
ENDBRANCH  18  19
ENDBRANCH  17  18
ENDBRANCH   4  17
BRANCH   3  25
ATOM     25  C   UNL     1      -1.184  -2.157  -0.970  0.00  0.00    +0.000 C 
BRANCH  25  26
ATOM     26  C   UNL     1      -1.690  -2.878   0.288  0.00  0.00    +0.000 C 
BRANCH  26  27
ATOM     27  C   UNL     1      -2.587  -4.065  -0.062  0.00  0.00    +0.000 C 
ATOM     28  C   UNL     1      -3.052  -4.799   1.185  0.00  0.00    +0.000 C 
ENDBRANCH  26  27
ENDBRANCH  25  26
ENDBRANCH   3  25
TORSDOF 8
