REMARK  Name = 5351387
REMARK  14 active torsions:
REMARK  status: ('A' for Active; 'I' for Inactive)
REMARK    1  A    between atoms: P_1  and  O_5
REMARK    2  A    between atoms: P_1  and  O_7
REMARK    3  A    between atoms: P_1  and  O_8
REMARK    4  A    between atoms: O_2  and  C_14
REMARK    5  A    between atoms: O_2  and  C_24
REMARK    6  A    between atoms: O_3  and  C_15
REMARK    7  A    between atoms: O_3  and  C_25
REMARK    8  A    between atoms: O_4  and  C_16
REMARK    9  A    between atoms: O_4  and  C_26
REMARK   10  A    between atoms: O_5  and  C_20
REMARK   11  A    between atoms: O_6  and  C_22
REMARK   12  A    between atoms: O_6  and  C_27
REMARK   13  A    between atoms: C_10  and  C_17
REMARK   14  A    between atoms: C_11  and  C_18
REMARK                            x       y       z     vdW  Elec       q    Type
REMARK                         _______ _______ _______ _____ _____    ______ ____
ROOT
ATOM      1  C   UNL     1      -1.679  -1.647   1.283  0.00  0.00    +0.000 A 
ATOM      2  C   UNL     1      -1.650  -0.263   1.110  0.00  0.00    +0.000 A 
ATOM      3  C   UNL     1      -2.518   0.346   0.203  0.00  0.00    +0.000 A 
ATOM      4  C   UNL     1      -2.577  -2.422   0.549  0.00  0.00    +0.000 A 
ATOM      5  C   UNL     1      -3.415  -0.430  -0.530  0.00  0.00    +0.000 A 
ATOM      6  C   UNL     1      -3.445  -1.814  -0.357  0.00  0.00    +0.000 A 
ENDROOT
BRANCH   5   7
ATOM      7  O   UNL     1      -4.268   0.152  -1.419  0.00  0.00    +0.000 OA
ATOM      8  C   UNL     1      -3.806   0.295  -2.761  0.00  0.00    +0.000 C 
ENDBRANCH   5   7
BRANCH   1  10
ATOM      9  C   UNL     1       0.577  -2.228   2.172  0.00  0.00    +0.000 C 
ATOM     10  C   UNL     1      -0.775  -2.281   2.229  0.00  0.00    +0.000 C 
BRANCH   9  11
ATOM     11  C   UNL     1       1.357  -1.519   1.142  0.00  0.00    +0.000 A 
ATOM     12  C   UNL     1       1.212  -1.881  -0.188  0.00  0.00    +0.000 A 
ATOM     13  C   UNL     1       2.219  -0.503   1.523  0.00  0.00    +0.000 A 
ATOM     14  C   UNL     1       2.957   0.168   0.548  0.00  0.00    +0.000 A 
ATOM     15  C   UNL     1       1.950  -1.210  -1.163  0.00  0.00    +0.000 A 
ATOM     16  C   UNL     1       2.822  -0.185  -0.795  0.00  0.00    +0.000 A 
BRANCH  14  17
ATOM     17  O   UNL     1       3.805   1.166   0.920  0.00  0.00    +0.000 OA
ATOM     18  C   UNL     1       5.148   0.795   1.226  0.00  0.00    +0.000 C 
ENDBRANCH  14  17
BRANCH  15  19
ATOM     19  O   UNL     1       1.809  -1.564  -2.470  0.00  0.00    +0.000 OA
ATOM     20  C   UNL     1       0.803  -0.887  -3.221  0.00  0.00    +0.000 C 
ENDBRANCH  15  19
BRANCH  16  21
ATOM     21  O   UNL     1       3.543   0.471  -1.748  0.00  0.00    +0.000 OA
ATOM     22  C   UNL     1       3.336   1.877  -1.861  0.00  0.00    +0.000 C 
ENDBRANCH  16  21
ENDBRANCH   9  11
ENDBRANCH   1  10
BRANCH   3  23
ATOM     23  O   UNL     1      -2.479   1.698   0.043  0.00  0.00    +0.000 OA
BRANCH  23  24
ATOM     24  P   UNL     1      -1.487   2.702   0.834  0.00  0.00    +0.000 P 
ATOM     25  O   UNL     1      -1.625   2.696   2.328  0.00  0.00    +0.000 OA
BRANCH  24  26
ATOM     26  O   UNL     1      -1.798   4.130   0.139  0.00  0.00    +0.000 OA
ATOM     27  H   UNL     1      -1.387   4.939   0.513  0.00  0.00    +0.000 HD
ENDBRANCH  24  26
BRANCH  24  28
ATOM     28  O   UNL     1      -0.018   2.335   0.265  0.00  0.00    +0.000 OA
ATOM     29  H   UNL     1       0.767   2.778   0.653  0.00  0.00    +0.000 HD
ENDBRANCH  24  28
ENDBRANCH  23  24
ENDBRANCH   3  23
TORSDOF 10
