REMARK  Name = 9895264
REMARK  13 active torsions:
REMARK  status: ('A' for Active; 'I' for Inactive)
REMARK    1  A    between atoms: O_1  and  C_7
REMARK    2  A    between atoms: O_2  and  C_13
REMARK    3  A    between atoms: O_2  and  C_21
REMARK    4  A    between atoms: O_3  and  C_14
REMARK    5  A    between atoms: O_3  and  C_22
REMARK    6  A    between atoms: O_4  and  C_17
REMARK    7  A    between atoms: O_4  and  C_23
REMARK    8  A    between atoms: O_5  and  C_20
REMARK    9  A    between atoms: O_5  and  C_24
REMARK   10  A    between atoms: O_6  and  C_18
REMARK   11  A    between atoms: C_7  and  C_8
REMARK   12  A    between atoms: C_7  and  C_9
REMARK   13  A    between atoms: C_8  and  C_10
REMARK                            x       y       z     vdW  Elec       q    Type
REMARK                         _______ _______ _______ _____ _____    ______ ____
ROOT
ATOM      1  C   UNL     1       0.301  -2.583  -0.771  0.00  0.00    +0.000 C 
ENDROOT
BRANCH   1   2
ATOM      2  C   UNL     1       1.127  -1.340  -0.530  0.00  0.00    +0.000 A 
ATOM      3  C   UNL     1       2.266  -1.427   0.253  0.00  0.00    +0.000 A 
ATOM      4  C   UNL     1       0.728  -0.141  -1.096  0.00  0.00    +0.000 A 
ATOM      5  C   UNL     1       1.490   1.005  -0.873  0.00  0.00    +0.000 A 
ATOM      6  C   UNL     1       3.028  -0.280   0.477  0.00  0.00    +0.000 A 
ATOM      7  C   UNL     1       2.640   0.936  -0.086  0.00  0.00    +0.000 A 
BRANCH   5   8
ATOM      8  O   UNL     1       1.101   2.187  -1.429  0.00  0.00    +0.000 OA
ATOM      9  C   UNL     1       0.224   3.008  -0.659  0.00  0.00    +0.000 C 
ENDBRANCH   5   8
BRANCH   6  10
ATOM     10  O   UNL     1       4.148  -0.360   1.248  0.00  0.00    +0.000 OA
ATOM     11  C   UNL     1       4.473  -1.641   1.785  0.00  0.00    +0.000 C 
ENDBRANCH   6  10
BRANCH   7  12
ATOM     12  O   UNL     1       3.384   2.057   0.133  0.00  0.00    +0.000 OA
ATOM     13  C   UNL     1       4.429   2.332  -0.797  0.00  0.00    +0.000 C 
ENDBRANCH   7  12
ENDBRANCH   1   2
BRANCH   1  14
ATOM     14  O   UNL     1      -0.241  -2.514  -2.092  0.00  0.00    +0.000 OA
ATOM     15  H   UNL     1      -0.747  -3.330  -2.244  0.00  0.00    +0.000 HD
ENDBRANCH   1  14
BRANCH   1  16
ATOM     16  C   UNL     1      -0.845  -2.756   0.249  0.00  0.00    +0.000 C 
BRANCH  16  17
ATOM     17  C   UNL     1      -1.792  -1.605   0.302  0.00  0.00    +0.000 A 
ATOM     18  C   UNL     1      -1.554  -0.546   1.178  0.00  0.00    +0.000 A 
ATOM     19  C   UNL     1      -2.914  -1.588  -0.526  0.00  0.00    +0.000 A 
ATOM     20  C   UNL     1      -2.440   0.530   1.227  0.00  0.00    +0.000 A 
ATOM     21  C   UNL     1      -3.800  -0.511  -0.477  0.00  0.00    +0.000 A 
ATOM     22  C   UNL     1      -3.563   0.548   0.399  0.00  0.00    +0.000 A 
BRANCH  22  23
ATOM     23  O   UNL     1      -4.435   1.594   0.437  0.00  0.00    +0.000 OA
ATOM     24  C   UNL     1      -5.557   1.534  -0.441  0.00  0.00    +0.000 C 
ENDBRANCH  22  23
BRANCH  20  25
ATOM     25  O   UNL     1      -2.197   1.559   2.087  0.00  0.00    +0.000 OA
ATOM     26  H   UNL     1      -2.907   2.217   1.984  0.00  0.00    +0.000 HD
ENDBRANCH  20  25
ENDBRANCH  16  17
ENDBRANCH   1  16
TORSDOF 9
