REMARK  Name = 2214
REMARK  5 active torsions:
REMARK  status: ('A' for Active; 'I' for Inactive)
REMARK    1  A    between atoms: O_1  and  C_5
REMARK    2  A    between atoms: O_1  and  C_12
REMARK    3  A    between atoms: O_2  and  C_8
REMARK    4  A    between atoms: C_4  and  C_10
REMARK    5  A    between atoms: C_10  and  C_11
REMARK                            x       y       z     vdW  Elec       q    Type
REMARK                         _______ _______ _______ _____ _____    ______ ____
ROOT
ATOM      1  C   UNL     1       1.141  -0.160   0.010  0.00  0.00    +0.000 A 
ATOM      2  C   UNL     1      -1.199   0.395   0.240  0.00  0.00    +0.000 A 
ATOM      3  C   UNL     1       0.138   0.790   0.206  0.00  0.00    +0.000 A 
ATOM      4  C   UNL     1       0.806  -1.504  -0.152  0.00  0.00    +0.000 A 
ATOM      5  C   UNL     1      -1.534  -0.949   0.078  0.00  0.00    +0.000 A 
ATOM      6  C   UNL     1      -0.531  -1.899  -0.118  0.00  0.00    +0.000 A 
ENDROOT
BRANCH   1   8
ATOM      7  O   UNL     1       3.454  -0.575  -0.198  0.00  0.00    +0.000 OA
ATOM      8  C   UNL     1       2.535   0.251  -0.026  0.00  0.00    +0.000 C 
ATOM      9  C   UNL     1       2.909   1.719   0.151  0.00  0.00    +0.000 C 
ENDBRANCH   1   8
BRANCH   2  10
ATOM     10  O   UNL     1      -2.169   1.332   0.432  0.00  0.00    +0.000 OA
ATOM     11  C   UNL     1      -2.714   1.949  -0.733  0.00  0.00    +0.000 C 
ENDBRANCH   2  10
BRANCH   5  12
ATOM     12  O   UNL     1      -2.836  -1.348   0.110  0.00  0.00    +0.000 OA
ATOM     13  H   UNL     1      -2.876  -2.311  -0.020  0.00  0.00    +0.000 HD
ENDBRANCH   5  12
TORSDOF 3
