REMARK  Name = 21102
REMARK  8 active torsions:
REMARK  status: ('A' for Active; 'I' for Inactive)
REMARK    1  A    between atoms: O_1  and  C_8
REMARK    2  A    between atoms: O_1  and  C_16
REMARK    3  A    between atoms: O_2  and  C_10
REMARK    4  A    between atoms: O_2  and  C_22
REMARK    5  A    between atoms: N_6  and  C_9
REMARK    6  A    between atoms: C_7  and  C_16
REMARK    7  A    between atoms: C_20  and  C_21
REMARK    8  A    between atoms: C_22  and  C_23
REMARK                            x       y       z     vdW  Elec       q    Type
REMARK                         _______ _______ _______ _____ _____    ______ ____
ROOT
ATOM      1  O   UNL     1      -0.320  -0.960   0.624  0.00  0.00    +0.000 OA
ENDROOT
BRANCH   1   2
ATOM      2  C   UNL     1       1.020  -0.570   0.552  0.00  0.00    +0.000 A 
ATOM      3  C   UNL     1       3.661   0.197   0.414  0.00  0.00    +0.000 A 
ATOM      4  C   UNL     1       3.215  -0.902  -0.320  0.00  0.00    +0.000 A 
ATOM      5  C   UNL     1       2.770   0.907   1.218  0.00  0.00    +0.000 A 
ATOM      6  C   UNL     1       1.877  -1.290  -0.250  0.00  0.00    +0.000 A 
ATOM      7  C   UNL     1       1.432   0.519   1.288  0.00  0.00    +0.000 A 
BRANCH   3   9
ATOM      8  O   UNL     1       5.957  -0.973  -1.143  0.00  0.00    +0.000 OA
ATOM      9  N   UNL     1       4.999   0.585   0.344  0.00  0.00    +0.000 N 
ATOM     10  C   UNL     1       6.032   0.000  -0.400  0.00  0.00    +0.000 C 
ATOM     11  C   UNL     1       7.342   0.721  -0.202  0.00  0.00    +0.000 C 
ATOM     12  H   UNL     1       5.246   1.395   0.909  0.00  0.00    +0.000 HD
ENDBRANCH   3   9
ENDBRANCH   1   2
BRANCH   1  14
ATOM     13  O   UNL     1      -0.755   0.469  -1.167  0.00  0.00    +0.000 OA
ATOM     14  C   UNL     1      -1.138  -0.355  -0.327  0.00  0.00    +0.000 C 
BRANCH  14  15
ATOM     15  C   UNL     1      -2.515  -0.809  -0.190  0.00  0.00    +0.000 A 
ATOM     16  C   UNL     1      -3.581   0.027  -0.523  0.00  0.00    +0.000 A 
ATOM     17  C   UNL     1      -2.760  -2.099   0.280  0.00  0.00    +0.000 A 
ATOM     18  C   UNL     1      -4.893  -0.427  -0.386  0.00  0.00    +0.000 A 
ATOM     19  C   UNL     1      -4.072  -2.553   0.418  0.00  0.00    +0.000 A 
ATOM     20  C   UNL     1      -5.138  -1.717   0.085  0.00  0.00    +0.000 A 
BRANCH  16  21
ATOM     21  O   UNL     1      -3.362   1.290  -0.984  0.00  0.00    +0.000 OA
BRANCH  21  23
ATOM     22  O   UNL     1      -3.420   2.061   1.225  0.00  0.00    +0.000 OA
ATOM     23  C   UNL     1      -3.297   2.264   0.025  0.00  0.00    +0.000 C 
ATOM     24  C   UNL     1      -3.054   3.615  -0.582  0.00  0.00    +0.000 C 
ENDBRANCH  21  23
ENDBRANCH  16  21
ENDBRANCH  14  15
ENDBRANCH   1  14
TORSDOF 6
