REMARK  Name = 5281793
REMARK  16 active torsions:
REMARK  status: ('A' for Active; 'I' for Inactive)
REMARK    1  A    between atoms: O_1  and  C_12
REMARK    2  A    between atoms: O_1  and  C_26
REMARK    3  A    between atoms: O_2  and  C_18
REMARK    4  A    between atoms: O_3  and  C_19
REMARK    5  A    between atoms: O_4  and  C_21
REMARK    6  A    between atoms: O_6  and  C_22
REMARK    7  A    between atoms: O_7  and  C_27
REMARK    8  A    between atoms: O_9  and  C_34
REMARK    9  A    between atoms: O_10  and  C_36
REMARK   10  A    between atoms: C_11  and  C_12
REMARK   11  A    between atoms: C_11  and  C_13
REMARK   12  A    between atoms: C_12  and  C_18
REMARK   13  A    between atoms: C_16  and  C_25
REMARK   14  A    between atoms: C_17  and  C_23
REMARK   15  A    between atoms: C_26  and  C_28
REMARK   16  A    between atoms: C_30  and  C_31
REMARK                            x       y       z     vdW  Elec       q    Type
REMARK                         _______ _______ _______ _____ _____    ______ ____
ROOT
ATOM      1  C   UNL     1      -3.878  -0.392  -0.213  0.00  0.00    +0.000 A 
ATOM      2  C   UNL     1      -3.815   0.987  -0.372  0.00  0.00    +0.000 A 
ATOM      3  C   UNL     1      -5.054  -1.010   0.190  0.00  0.00    +0.000 A 
ATOM      4  C   UNL     1      -4.949   1.760  -0.125  0.00  0.00    +0.000 A 
ATOM      5  C   UNL     1      -6.189  -0.236   0.437  0.00  0.00    +0.000 A 
ATOM      6  C   UNL     1      -6.136   1.149   0.280  0.00  0.00    +0.000 A 
ENDROOT
BRANCH   3   7
ATOM      7  O   UNL     1      -5.125  -2.364   0.349  0.00  0.00    +0.000 OA
ATOM      8  H   UNL     1      -6.026  -2.595   0.633  0.00  0.00    +0.000 HD
ENDBRANCH   3   7
BRANCH   5   9
ATOM      9  O   UNL     1      -7.355  -0.819   0.833  0.00  0.00    +0.000 OA
ATOM     10  H   UNL     1      -8.028  -0.129   0.956  0.00  0.00    +0.000 HD
ENDBRANCH   5   9
BRANCH   2  11
ATOM     11  C   UNL     1      -2.599   1.673  -0.794  0.00  0.00    +0.000 C 
ATOM     12  C   UNL     1      -1.637   2.126   0.036  0.00  0.00    +0.000 C 
BRANCH  12  14
ATOM     13  O   UNL     1      -0.408   3.463  -1.540  0.00  0.00    +0.000 OA
ATOM     14  C   UNL     1      -0.439   2.800  -0.515  0.00  0.00    +0.000 C 
BRANCH  14  15
ATOM     15  O   UNL     1       0.600   2.544   0.325  0.00  0.00    +0.000 OA
BRANCH  15  16
ATOM     16  C   UNL     1       1.853   3.124  -0.053  0.00  0.00    +0.000 C 
BRANCH  16  18
ATOM     17  O   UNL     1       0.881   5.276   0.533  0.00  0.00    +0.000 OA
ATOM     18  C   UNL     1       1.649   4.622  -0.161  0.00  0.00    +0.000 C 
BRANCH  18  19
ATOM     19  O   UNL     1       2.437   5.179  -1.116  0.00  0.00    +0.000 OA
ATOM     20  H   UNL     1       2.308   6.149  -1.177  0.00  0.00    +0.000 HD
ENDBRANCH  18  19
ENDBRANCH  16  18
BRANCH  16  21
ATOM     21  C   UNL     1       2.890   2.795   1.022  0.00  0.00    +0.000 C 
BRANCH  21  22
ATOM     22  C   UNL     1       3.429   1.392   0.877  0.00  0.00    +0.000 A 
ATOM     23  C   UNL     1       4.550   1.173   0.092  0.00  0.00    +0.000 A 
ATOM     24  C   UNL     1       2.794   0.350   1.533  0.00  0.00    +0.000 A 
ATOM     25  C   UNL     1       5.048  -0.123  -0.042  0.00  0.00    +0.000 A 
ATOM     26  C   UNL     1       3.292  -0.947   1.399  0.00  0.00    +0.000 A 
ATOM     27  C   UNL     1       4.418  -1.183   0.612  0.00  0.00    +0.000 A 
BRANCH  25  28
ATOM     28  O   UNL     1       6.149  -0.342  -0.813  0.00  0.00    +0.000 OA
ATOM     29  H   UNL     1       6.448   0.505  -1.186  0.00  0.00    +0.000 HD
ENDBRANCH  25  28
BRANCH  27  30
ATOM     30  O   UNL     1       4.895  -2.453   0.489  0.00  0.00    +0.000 OA
ATOM     31  H   UNL     1       5.675  -2.433  -0.092  0.00  0.00    +0.000 HD
ENDBRANCH  27  30
ENDBRANCH  21  22
ENDBRANCH  16  21
ENDBRANCH  15  16
ENDBRANCH  14  15
ENDBRANCH  12  14
ENDBRANCH   2  11
BRANCH   1  32
ATOM     32  C   UNL     1      -2.690  -1.225  -0.470  0.00  0.00    +0.000 C 
ATOM     33  C   UNL     1      -1.775  -1.588   0.460  0.00  0.00    +0.000 C 
BRANCH  33  34
ATOM     34  C   UNL     1      -0.613  -2.426   0.211  0.00  0.00    +0.000 A 
ATOM     35  C   UNL     1      -0.130  -2.581  -1.088  0.00  0.00    +0.000 A 
ATOM     36  C   UNL     1       0.019  -3.075   1.272  0.00  0.00    +0.000 A 
ATOM     37  C   UNL     1       0.985  -3.385  -1.327  0.00  0.00    +0.000 A 
ATOM     38  C   UNL     1       1.134  -3.879   1.033  0.00  0.00    +0.000 A 
ATOM     39  C   UNL     1       1.617  -4.034  -0.266  0.00  0.00    +0.000 A 
BRANCH  37  40
ATOM     40  O   UNL     1       1.446  -3.530  -2.600  0.00  0.00    +0.000 OA
ATOM     41  H   UNL     1       2.222  -4.117  -2.579  0.00  0.00    +0.000 HD
ENDBRANCH  37  40
BRANCH  39  42
ATOM     42  O   UNL     1       2.707  -4.820  -0.486  0.00  0.00    +0.000 OA
ATOM     43  H   UNL     1       3.014  -5.181   0.363  0.00  0.00    +0.000 HD
ENDBRANCH  39  42
ENDBRANCH  33  34
ENDBRANCH   1  32
TORSDOF 16
