REMARK  Name = 5276454
REMARK  11 active torsions:
REMARK  status: ('A' for Active; 'I' for Inactive)
REMARK    1  A    between atoms: O_2  and  C_11
REMARK    2  A    between atoms: O_2  and  C_23
REMARK    3  A    between atoms: O_3  and  C_17
REMARK    4  A    between atoms: O_4  and  C_22
REMARK    5  A    between atoms: O_5  and  C_24
REMARK    6  A    between atoms: O_7  and  C_26
REMARK    7  A    between atoms: O_8  and  C_30
REMARK    8  A    between atoms: O_9  and  C_31
REMARK    9  A    between atoms: O_10  and  C_32
REMARK   10  A    between atoms: C_12  and  C_16
REMARK   11  A    between atoms: C_23  and  C_27
REMARK                            x       y       z     vdW  Elec       q    Type
REMARK                         _______ _______ _______ _____ _____    ______ ____
ROOT
ATOM      1  O   UNL     1       2.886   0.928  -0.179  0.00  0.00    +0.000 OA
ATOM      2  C   UNL     1       0.860  -0.363   0.381  0.00  0.00    +0.000 C 
ATOM      3  C   UNL     1       1.475   0.797  -0.415  0.00  0.00    +0.000 C 
ATOM      4  C   UNL     1       1.533  -1.669  -0.031  0.00  0.00    +0.000 C 
ATOM      5  C   UNL     1       3.020  -1.508  -0.116  0.00  0.00    +0.000 A 
ATOM      6  C   UNL     1       3.603  -0.238  -0.196  0.00  0.00    +0.000 A 
ATOM      7  C   UNL     1       3.845  -2.640  -0.143  0.00  0.00    +0.000 A 
ATOM      8  C   UNL     1       4.993  -0.104  -0.263  0.00  0.00    +0.000 A 
ATOM      9  C   UNL     1       5.231  -2.505  -0.222  0.00  0.00    +0.000 A 
ATOM     10  C   UNL     1       5.805  -1.237  -0.279  0.00  0.00    +0.000 A 
ENDROOT
BRANCH   3  11
ATOM     11  C   UNL     1       0.840   2.128  -0.057  0.00  0.00    +0.000 A 
ATOM     12  C   UNL     1       0.214   2.886  -1.044  0.00  0.00    +0.000 A 
ATOM     13  C   UNL     1       0.885   2.588   1.258  0.00  0.00    +0.000 A 
ATOM     14  C   UNL     1      -0.369   4.109  -0.716  0.00  0.00    +0.000 A 
ATOM     15  C   UNL     1       0.302   3.812   1.586  0.00  0.00    +0.000 A 
ATOM     16  C   UNL     1      -0.326   4.572   0.599  0.00  0.00    +0.000 A 
BRANCH  14  17
ATOM     17  O   UNL     1      -0.978   4.845  -1.688  0.00  0.00    +0.000 OA
ATOM     18  H   UNL     1      -0.911   4.369  -2.534  0.00  0.00    +0.000 HD
ENDBRANCH  14  17
BRANCH  16  19
ATOM     19  O   UNL     1      -0.892   5.766   0.933  0.00  0.00    +0.000 OA
ATOM     20  H   UNL     1      -0.764   5.922   1.884  0.00  0.00    +0.000 HD
ENDBRANCH  16  19
ENDBRANCH   3  11
BRANCH   7  21
ATOM     21  O   UNL     1       3.313  -3.896  -0.093  0.00  0.00    +0.000 OA
ATOM     22  H   UNL     1       4.032  -4.549  -0.122  0.00  0.00    +0.000 HD
ENDBRANCH   7  21
BRANCH  10  23
ATOM     23  O   UNL     1       7.157  -1.104  -0.352  0.00  0.00    +0.000 OA
ATOM     24  H   UNL     1       7.380  -0.158  -0.384  0.00  0.00    +0.000 HD
ENDBRANCH  10  23
BRANCH   2  25
ATOM     25  O   UNL     1      -0.533  -0.457   0.101  0.00  0.00    +0.000 OA
BRANCH  25  27
ATOM     26  O   UNL     1      -0.714  -2.275   1.502  0.00  0.00    +0.000 OA
ATOM     27  C   UNL     1      -1.200  -1.462   0.731  0.00  0.00    +0.000 C 
BRANCH  27  28
ATOM     28  C   UNL     1      -2.636  -1.453   0.356  0.00  0.00    +0.000 A 
ATOM     29  C   UNL     1      -3.329  -2.647   0.341  0.00  0.00    +0.000 A 
ATOM     30  C   UNL     1      -3.234  -0.252   0.035  0.00  0.00    +0.000 A 
ATOM     31  C   UNL     1      -4.584  -0.243  -0.318  0.00  0.00    +0.000 A 
ATOM     32  C   UNL     1      -4.679  -2.638  -0.012  0.00  0.00    +0.000 A 
ATOM     33  C   UNL     1      -5.306  -1.436  -0.342  0.00  0.00    +0.000 A 
BRANCH  31  34
ATOM     34  O   UNL     1      -5.184   0.936  -0.639  0.00  0.00    +0.000 OA
ATOM     35  H   UNL     1      -4.532   1.655  -0.570  0.00  0.00    +0.000 HD
ENDBRANCH  31  34
BRANCH  32  36
ATOM     36  O   UNL     1      -5.373  -3.810  -0.032  0.00  0.00    +0.000 OA
ATOM     37  H   UNL     1      -4.778  -4.536   0.223  0.00  0.00    +0.000 HD
ENDBRANCH  32  36
BRANCH  33  38
ATOM     38  O   UNL     1      -6.625  -1.428  -0.685  0.00  0.00    +0.000 OA
ATOM     39  H   UNL     1      -6.959  -2.341  -0.646  0.00  0.00    +0.000 HD
ENDBRANCH  33  38
ENDBRANCH  27  28
ENDBRANCH  25  27
ENDBRANCH   2  25
TORSDOF 11
