449342
  -OEChem-01122014393D

 50 50  0     1  0  0  0  0  0999 V2000
   -4.4203   -0.2073   -2.6223 I   0  0  0  0  0  0  0  0  0  0  0  0
   -0.5799    1.6588    2.0564 S   0  0  0  0  0  0  0  0  0  0  0  0
    1.1755   -1.5477   -0.9662 O   0  0  0  0  0  0  0  0  0  0  0  0
    3.9589   -0.2622    1.5709 O   0  0  0  0  0  0  0  0  0  0  0  0
   -1.5860   -2.7843   -1.5766 O   0  0  0  0  0  0  0  0  0  0  0  0
   -3.1154   -4.0100   -0.4367 O   0  0  0  0  0  0  0  0  0  0  0  0
    4.7314   -0.2188   -1.9320 O   0  0  0  0  0  0  0  0  0  0  0  0
    6.8652    0.5334   -1.7616 O   0  0  0  0  0  0  0  0  0  0  0  0
    1.2478   -0.7986    1.2313 N   0  0  0  0  0  0  0  0  0  0  0  0
    3.7741    1.3561   -0.0811 N   0  0  0  0  0  0  0  0  0  0  0  0
   -3.1598   -2.0653    1.5162 N   0  0  0  0  0  0  0  0  0  0  0  0
    1.7486    0.5279    0.9547 C   0  0  1  0  0  0  0  0  0  0  0  0
   -0.8398   -2.8458    1.5739 C   0  0  0  0  0  0  0  0  0  0  0  0
    0.4724   -3.0354    0.8101 C   0  0  0  0  0  0  0  0  0  0  0  0
    1.2378    1.5644    1.9585 C   0  0  0  0  0  0  0  0  0  0  0  0
   -1.9412   -2.2123    0.7167 C   0  0  1  0  0  0  0  0  0  0  0  0
    1.0017   -1.7324    0.2354 C   0  0  0  0  0  0  0  0  0  0  0  0
    3.2721    0.4723    0.8636 C   0  0  0  0  0  0  0  0  0  0  0  0
   -0.8682    2.6031    0.5438 C   0  0  0  0  0  0  0  0  0  0  0  0
   -2.2993   -3.0972   -0.4636 C   0  0  0  0  0  0  0  0  0  0  0  0
   -2.2816    2.4645    0.0492 C   0  0  0  0  0  0  0  0  0  0  0  0
    5.1881    1.5054   -0.3344 C   0  0  0  0  0  0  0  0  0  0  0  0
   -2.6136    1.4427   -0.8405 C   0  0  0  0  0  0  0  0  0  0  0  0
   -3.2609    3.3591    0.4807 C   0  0  0  0  0  0  0  0  0  0  0  0
   -3.9250    1.3155   -1.2984 C   0  0  0  0  0  0  0  0  0  0  0  0
   -4.5724    3.2320    0.0227 C   0  0  0  0  0  0  0  0  0  0  0  0
    5.6943    0.5719   -1.4037 C   0  0  0  0  0  0  0  0  0  0  0  0
   -4.9043    2.2102   -0.8668 C   0  0  0  0  0  0  0  0  0  0  0  0
    1.3852    0.7936   -0.0456 H   0  0  0  0  0  0  0  0  0  0  0  0
   -1.1645   -3.8319    1.9324 H   0  0  0  0  0  0  0  0  0  0  0  0
   -0.6717   -2.2335    2.4683 H   0  0  0  0  0  0  0  0  0  0  0  0
    1.2337   -3.4441    1.4855 H   0  0  0  0  0  0  0  0  0  0  0  0
    0.3563   -3.7578   -0.0048 H   0  0  0  0  0  0  0  0  0  0  0  0
    1.5956    1.3036    2.9616 H   0  0  0  0  0  0  0  0  0  0  0  0
    1.6426    2.5583    1.7370 H   0  0  0  0  0  0  0  0  0  0  0  0
    1.1691   -1.0773    2.2047 H   0  0  0  0  0  0  0  0  0  0  0  0
   -1.6531   -1.2218    0.3540 H   0  0  0  0  0  0  0  0  0  0  0  0
   -0.1881    2.2883   -0.2537 H   0  0  0  0  0  0  0  0  0  0  0  0
   -0.6424    3.6578    0.7390 H   0  0  0  0  0  0  0  0  0  0  0  0
    3.1340    1.9263   -0.6260 H   0  0  0  0  0  0  0  0  0  0  0  0
   -2.9668   -1.4781    2.3268 H   0  0  0  0  0  0  0  0  0  0  0  0
   -3.8668   -1.5712    0.9722 H   0  0  0  0  0  0  0  0  0  0  0  0
    5.7432    1.3127    0.5883 H   0  0  0  0  0  0  0  0  0  0  0  0
    5.3508    2.5351   -0.6646 H   0  0  0  0  0  0  0  0  0  0  0  0
   -1.8433    0.7514   -1.1748 H   0  0  0  0  0  0  0  0  0  0  0  0
   -3.0156    4.1590    1.1742 H   0  0  0  0  0  0  0  0  0  0  0  0
   -5.3349    3.9285    0.3590 H   0  0  0  0  0  0  0  0  0  0  0  0
   -5.9322    2.1289   -1.2109 H   0  0  0  0  0  0  0  0  0  0  0  0
   -1.8126   -3.3676   -2.3320 H   0  0  0  0  0  0  0  0  0  0  0  0
    5.0857   -0.8161   -2.6249 H   0  0  0  0  0  0  0  0  0  0  0  0
  1 25  1  0  0  0  0
  2 15  1  0  0  0  0
  2 19  1  0  0  0  0
  3 17  2  0  0  0  0
  4 18  2  0  0  0  0
  5 20  1  0  0  0  0
  5 49  1  0  0  0  0
  6 20  2  0  0  0  0
  7 27  1  0  0  0  0
  7 50  1  0  0  0  0
  8 27  2  0  0  0  0
  9 12  1  0  0  0  0
  9 17  1  0  0  0  0
  9 36  1  0  0  0  0
 10 18  1  0  0  0  0
 10 22  1  0  0  0  0
 10 40  1  0  0  0  0
 11 16  1  0  0  0  0
 11 41  1  0  0  0  0
 11 42  1  0  0  0  0
 12 15  1  0  0  0  0
 12 18  1  0  0  0  0
 12 29  1  0  0  0  0
 13 14  1  0  0  0  0
 13 16  1  0  0  0  0
 13 30  1  0  0  0  0
 13 31  1  0  0  0  0
 14 17  1  0  0  0  0
 14 32  1  0  0  0  0
 14 33  1  0  0  0  0
 15 34  1  0  0  0  0
 15 35  1  0  0  0  0
 16 20  1  0  0  0  0
 16 37  1  0  0  0  0
 19 21  1  0  0  0  0
 19 38  1  0  0  0  0
 19 39  1  0  0  0  0
 21 23  2  0  0  0  0
 21 24  1  0  0  0  0
 22 27  1  0  0  0  0
 22 43  1  0  0  0  0
 22 44  1  0  0  0  0
 23 25  1  0  0  0  0
 23 45  1  0  0  0  0
 24 26  2  0  0  0  0
 24 46  1  0  0  0  0
 25 28  2  0  0  0  0
 26 28  1  0  0  0  0
 26 47  1  0  0  0  0
 28 48  1  0  0  0  0
M  END
> <DATABASE_ID>
DB04341

> <DATABASE_NAME>
drugbank

> <ORIGINAL_SOURCE>
PUBCHEM

> <ORIGINAL_SOURCE_URL>
https://pubchem.ncbi.nlm.nih.gov/rest/pug/compound/inchikey/AHWSFXKKIDTZBI-STQMWFEESA-N/SDF?record_type=3d

> <SMILES>
[H]N([H])[C@@H](CCC(=O)N([H])[C@@H](CSCC1=CC(I)=CC=C1)C(=O)N([H])CC(O)=O)C(O)=O

> <INCHI_IDENTIFIER>
InChI=1S/C17H22IN3O6S/c18-11-3-1-2-10(6-11)8-28-9-13(16(25)20-7-15(23)24)21-14(22)5-4-12(19)17(26)27/h1-3,6,12-13H,4-5,7-9,19H2,(H,20,25)(H,21,22)(H,23,24)(H,26,27)/t12-,13-/m0/s1

> <INCHI_KEY>
AHWSFXKKIDTZBI-STQMWFEESA-N

> <FORMULA>
C17H22IN3O6S

> <MOLECULAR_WEIGHT>
523.343

> <EXACT_MASS>
523.027399561

> <JCHEM_ACCEPTOR_COUNT>
7

> <JCHEM_ATOM_COUNT>
50

> <JCHEM_AVERAGE_NEUTRAL_MICROSPECIES_CHARGE>
0.9963388805874055

> <JCHEM_AVERAGE_POLARIZABILITY>
46.09809941515249

> <JCHEM_BIOAVAILABILITY>
0

> <JCHEM_DONOR_COUNT>
5

> <JCHEM_FORMAL_CHARGE>
0

> <JCHEM_GHOSE_FILTER>
0

> <JCHEM_IUPAC>
(2S)-2-amino-4-{[(1R)-1-[(carboxymethyl)carbamoyl]-2-{[(3-iodophenyl)methyl]sulfanyl}ethyl]carbamoyl}butanoic acid

> <ALOGPS_LOGP>
-2.35

> <JCHEM_LOGP>
-1.957981615738858

> <ALOGPS_LOGS>
-4.24

> <JCHEM_MDDR_LIKE_RULE>
0

> <JCHEM_NEUTRAL_CHARGE>
-1

> <JCHEM_NUMBER_OF_RINGS>
1

> <JCHEM_PHYSIOLOGICAL_CHARGE>
-1

> <JCHEM_PKA>
3.6387277773956517

> <JCHEM_PKA_STRONGEST_ACIDIC>
1.8068275206740279

> <JCHEM_PKA_STRONGEST_BASIC>
9.311103064877729

> <JCHEM_POLAR_SURFACE_AREA>
158.82000000000002

> <JCHEM_REFRACTIVITY>
111.79019999999998

> <JCHEM_ROTATABLE_BOND_COUNT>
12

> <JCHEM_RULE_OF_FIVE>
0

> <ALOGPS_SOLUBILITY>
3.00e-02 g/l

> <JCHEM_TRADITIONAL_IUPAC>
S-(3-iodobenzyl)glutathione

> <JCHEM_VEBER_RULE>
0

$$$$
