6971251
  -OEChem-10051720353D

 16 15  0     1  0  0  0  0  0999 V2000
   -1.1804   -0.3883   -1.2687 O   0  5  0  0  0  0  0  0  0  0  0  0
   -1.5855   -0.8396    0.9303 O   0  0  0  0  0  0  0  0  0  0  0  0
    0.0185    2.0526    0.0817 N   0  3  0  0  0  0  0  0  0  0  0  0
    0.2170    0.5998    0.3831 C   0  0  2  0  0  0  0  0  0  0  0  0
    1.5805    0.1656   -0.1677 C   0  0  0  0  0  0  0  0  0  0  0  0
    1.9202   -1.3016    0.0684 C   0  0  0  0  0  0  0  0  0  0  0  0
   -0.9705   -0.2885   -0.0271 C   0  0  0  0  0  0  0  0  0  0  0  0
    0.2816    0.5677    1.4788 H   0  0  0  0  0  0  0  0  0  0  0  0
    1.6188    0.3559   -1.2478 H   0  0  0  0  0  0  0  0  0  0  0  0
    2.3678    0.7815    0.2853 H   0  0  0  0  0  0  0  0  0  0  0  0
   -0.8470    2.4059    0.5109 H   0  0  0  0  0  0  0  0  0  0  0  0
   -0.0486    2.2202   -0.9311 H   0  0  0  0  0  0  0  0  0  0  0  0
    0.7943    2.6246    0.4414 H   0  0  0  0  0  0  0  0  0  0  0  0
    1.8862   -1.5417    1.1358 H   0  0  0  0  0  0  0  0  0  0  0  0
    2.9290   -1.5182   -0.2972 H   0  0  0  0  0  0  0  0  0  0  0  0
    1.2250   -1.9629   -0.4575 H   0  0  0  0  0  0  0  0  0  0  0  0
  1  7  1  0  0  0  0
  2  7  2  0  0  0  0
  3  4  1  0  0  0  0
  3 11  1  0  0  0  0
  3 12  1  0  0  0  0
  3 13  1  0  0  0  0
  4  5  1  0  0  0  0
  4  7  1  0  0  0  0
  4  8  1  0  0  0  0
  5  6  1  0  0  0  0
  5  9  1  0  0  0  0
  5 10  1  0  0  0  0
  6 14  1  0  0  0  0
  6 15  1  0  0  0  0
  6 16  1  0  0  0  0
M  CHG  2   1  -1   3   1
M  END
> <DATABASE_ID>
DB04454

> <DATABASE_NAME>
drugbank

> <ORIGINAL_SOURCE>
PUBCHEM

> <ORIGINAL_SOURCE_URL>
https://pubchem.ncbi.nlm.nih.gov/rest/pug/compound/inchikey/QWCKQJZIFLGMSD-GSVOUGTGSA-N/SDF?record_type=3d

> <SMILES>
CC[C@@H](N)C(O)=O

> <INCHI_IDENTIFIER>
InChI=1S/C4H9NO2/c1-2-3(5)4(6)7/h3H,2,5H2,1H3,(H,6,7)/t3-/m1/s1

> <INCHI_KEY>
QWCKQJZIFLGMSD-GSVOUGTGSA-N

> <FORMULA>
C4H9NO2

> <MOLECULAR_WEIGHT>
103.1198

> <EXACT_MASS>
103.063328537

> <JCHEM_ACCEPTOR_COUNT>
3

> <JCHEM_ATOM_COUNT>
16

> <JCHEM_AVERAGE_NEUTRAL_MICROSPECIES_CHARGE>
-0.002869875120549925

> <JCHEM_AVERAGE_POLARIZABILITY>
10.38387358105714

> <JCHEM_BIOAVAILABILITY>
1

> <JCHEM_DONOR_COUNT>
2

> <JCHEM_FORMAL_CHARGE>
0

> <JCHEM_GHOSE_FILTER>
0

> <JCHEM_IUPAC>
(2R)-2-aminobutanoic acid

> <ALOGPS_LOGP>
-2.55

> <JCHEM_LOGP>
-2.3181498124844198

> <ALOGPS_LOGS>
0.54

> <JCHEM_MDDR_LIKE_RULE>
0

> <JCHEM_NEUTRAL_CHARGE>
0

> <JCHEM_NUMBER_OF_RINGS>
0

> <JCHEM_PHYSIOLOGICAL_CHARGE>
0

> <JCHEM_PKA_STRONGEST_ACIDIC>
2.615755119614637

> <JCHEM_PKA_STRONGEST_BASIC>
9.53467345401491

> <JCHEM_POLAR_SURFACE_AREA>
63.32

> <JCHEM_REFRACTIVITY>
25.021300000000004

> <JCHEM_ROTATABLE_BOND_COUNT>
2

> <JCHEM_RULE_OF_FIVE>
1

> <ALOGPS_SOLUBILITY>
3.58e+02 g/l

> <JCHEM_TRADITIONAL_IUPAC>
biotin

> <JCHEM_VEBER_RULE>
0

$$$$
