
     RDKit          3D

 31 31  0  0  0  0  0  0  0  0999 V2000
   -6.3552    0.6773    1.6387 C   0  0  0  0  0  0  0  0  0  0  0  0
   -6.5120    0.4666    0.9237 C   0  0  0  0  0  0  0  0  0  0  0  0
   -7.1911    0.3248   -0.3919 C   0  0  0  0  0  0  0  0  0  0  0  0
   -6.2490    0.7724   -1.4921 C   0  0  0  0  0  0  0  0  0  0  0  0
   -4.9790    1.1856   -0.8678 C   0  0  0  0  0  0  0  0  0  0  0  0
   -4.0745   -0.1711   -0.5740 C   0  0  1  0  0  0  0  0  0  0  0  0
   -4.4789   -0.7716   -1.8700 O   0  0  0  0  0  0  0  0  0  0  0  0
   -3.2300   -1.3885   -2.4500 C   0  0  1  0  0  0  0  0  0  0  0  0
   -3.0648   -0.1369   -3.3386 O   0  0  0  0  0  0  0  0  0  0  0  0
   -2.1335   -0.8064   -1.3593 C   0  0  0  0  0  0  0  0  0  0  0  0
   -2.7292    0.6136   -1.1916 C   0  0  2  0  0  0  0  0  0  0  0  0
   -1.9924    0.9976    0.4874 S   0  0  0  0  0  0  0  0  0  0  0  0
   -0.6699   -0.1923    0.9235 C   0  0  0  0  0  0  0  0  0  0  0  0
    0.5657    0.7855    0.4484 C   0  0  2  0  0  0  0  0  0  0  0  0
    1.3716   -0.3513   -0.3024 N   0  0  0  0  0  0  0  0  0  0  0  0
    2.6289   -0.0081   -0.7938 C   0  0  0  0  0  0  0  0  0  0  0  0
    2.8098    1.2374   -0.6110 O   0  0  0  0  0  0  0  0  0  0  0  0
    3.4403   -0.6267   -1.8672 C   0  0  0  0  0  0  0  0  0  0  0  0
    3.8273    0.3763   -2.8413 C   0  0  0  0  0  0  0  0  0  0  0  0
    5.3342    0.1618   -3.4393 C   0  0  2  0  0  0  0  0  0  0  0  0
    5.2026   -1.4085   -3.3335 N   0  0  0  0  0  0  0  0  0  0  0  0
    6.0827    0.2206   -2.0131 C   0  0  0  0  0  0  0  0  0  0  0  0
    7.2924    0.3472   -2.4307 O   0  0  0  0  0  0  0  0  0  0  0  0
    5.8461    1.2306   -1.1455 O   0  0  0  0  0  0  0  0  0  0  0  0
    1.4082    0.6236    1.8038 C   0  0  0  0  0  0  0  0  0  0  0  0
    1.7402    1.8308    2.0902 O   0  0  0  0  0  0  0  0  0  0  0  0
    0.9871   -0.1091    2.9002 N   0  0  0  0  0  0  0  0  0  0  0  0
    1.9252   -0.1226    4.0252 C   0  0  0  0  0  0  0  0  0  0  0  0
    1.2757   -0.2581    5.3448 C   0  0  0  0  0  0  0  0  0  0  0  0
    1.9917   -0.4831    6.3319 O   0  0  0  0  0  0  0  0  0  0  0  0
   -0.0701    0.1218    5.3953 O   0  0  0  0  0  0  0  0  0  0  0  0
  1  2  1  0
  2  3  1  0
  3  4  1  0
  4  5  1  0
  6  5  1  6
  6  7  1  0
  7  8  1  0
  8  9  1  6
  8 10  1  0
 10 11  1  0
 11 12  1  1
 12 13  1  0
 14 13  1  1
 14 15  1  0
 15 16  1  0
 16 17  2  0
 16 18  1  0
 18 19  1  0
 20 19  1  1
 20 21  1  0
 20 22  1  0
 22 23  2  0
 22 24  1  0
 14 25  1  0
 25 26  2  0
 25 27  1  0
 27 28  1  0
 28 29  1  0
 29 30  2  0
 29 31  1  0
 11  6  1  0
M  END
>  <zinc_id>  (1) 
ZINC000031976570

>  <smiles>  (1) 
CCCCC[C@H]1O[C@@H](O)C[C@@H]1SC[C@H](NC(=O)CC[C@H](N)C(=O)O)C(=O)NCC(=O)O

$$$$
