
     RDKit          3D

 27 26  0  0  0  0  0  0  0  0999 V2000
   -7.2236   -0.1651   -1.1230 N   0  0  0  0  0  0  0  0  0  0  0  0
   -7.1298    0.0505    0.1418 C   0  0  0  0  0  0  0  0  0  0  0  0
   -7.2936    1.3353    0.7163 N   0  0  0  0  0  0  0  0  0  0  0  0
   -7.0325   -1.0607    1.0087 N   0  0  0  0  0  0  0  0  0  0  0  0
   -6.8989   -2.3781    0.4486 C   0  0  0  0  0  0  0  0  0  0  0  0
   -5.4630   -2.8187    0.4997 C   0  0  0  0  0  0  0  0  0  0  0  0
   -4.5727   -1.6945    0.0396 C   0  0  0  0  0  0  0  0  0  0  0  0
   -3.2066   -1.8515    0.6937 C   0  0  0  0  0  0  0  0  0  0  0  0
   -2.9815   -0.7088    1.6758 C   0  0  0  0  0  0  0  0  0  0  0  0
   -2.9883    0.6238    0.9640 C   0  0  0  0  0  0  0  0  0  0  0  0
   -1.9124    0.7395   -0.0438 C   0  0  0  0  0  0  0  0  0  0  0  0
   -2.0148    0.0350   -1.0824 O   0  0  0  0  0  0  0  0  0  0  0  0
   -0.6989    1.3791    0.3417 N   0  0  0  0  0  0  0  0  0  0  0  0
    0.3452    1.4133   -0.9077 C   0  0  1  0  0  0  0  0  0  0  0  0
    0.0117    2.9168   -1.1883 O   0  0  0  0  0  0  0  0  0  0  0  0
    1.5992    1.8418    0.1070 C   0  0  0  0  0  0  0  0  0  0  0  0
    1.8973    0.8137    0.7867 O   0  0  0  0  0  0  0  0  0  0  0  0
    2.6483    2.4128   -0.6759 N   0  0  0  0  0  0  0  0  0  0  0  0
    4.0253    2.3760   -0.2637 C   0  0  0  0  0  0  0  0  0  0  0  0
    4.2342    1.8245    1.1155 C   0  0  0  0  0  0  0  0  0  0  0  0
    5.4232    0.8729    1.0701 C   0  0  0  0  0  0  0  0  0  0  0  0
    5.4450    0.1016   -0.2218 C   0  0  0  0  0  0  0  0  0  0  0  0
    6.7154    0.1826   -0.9038 N   0  0  0  0  0  0  0  0  0  0  0  0
    7.7258   -0.6043   -0.2220 C   0  0  0  0  0  0  0  0  0  0  0  0
    7.3535   -2.0572   -0.1963 C   0  0  0  0  0  0  0  0  0  0  0  0
    6.5803   -2.4054    1.0655 C   0  0  0  0  0  0  0  0  0  0  0  0
    5.4118   -3.1749    0.6778 N   0  0  0  0  0  0  0  0  0  0  0  0
  1  2  2  0
  2  3  1  0
  2  4  1  0
  4  5  1  0
  5  6  1  0
  6  7  1  0
  7  8  1  0
  8  9  1  0
  9 10  1  0
 10 11  1  0
 11 12  2  0
 11 13  1  0
 14 13  1  1
 14 15  1  0
 14 16  1  0
 16 17  2  0
 16 18  1  0
 18 19  1  0
 19 20  1  0
 20 21  1  0
 21 22  1  0
 22 23  1  0
 23 24  1  0
 24 25  1  0
 25 26  1  0
 26 27  1  0
M  END
>  <zinc_id>  (1) 
ZINC000004215557

>  <smiles>  (1) 
N=C(N)NCCCCCCC(=O)N[C@@H](O)C(=O)NCCCCNCCCN

$$$$
