5833
  -OEChem-10051719143D

 61 65  0     1  0  0  0  0  0999 V2000
   -1.5041   -2.1484   -0.7260 S   0  0  0  0  0  0  0  0  0  0  0  0
    4.7095    0.4473    0.2941 O   0  0  0  0  0  0  0  0  0  0  0  0
    6.8802    0.4827   -0.4462 O   0  0  0  0  0  0  0  0  0  0  0  0
   -5.5087    1.3451   -1.7675 O   0  0  0  0  0  0  0  0  0  0  0  0
   -2.7689   -3.8329    0.8805 O   0  0  0  0  0  0  0  0  0  0  0  0
    2.2245    0.5711    0.3870 C   0  0  1  0  0  0  0  0  0  0  0  0
    1.1733   -0.5575    0.2970 C   0  0  2  0  0  0  0  0  0  0  0  0
   -0.2027   -0.1527    0.8564 C   0  0  1  0  0  0  0  0  0  0  0  0
    3.4877   -0.1828   -0.1228 C   0  0  2  0  0  0  0  0  0  0  0  0
   -0.7349    1.1240    0.0990 C   0  0  1  0  0  0  0  0  0  0  0  0
    1.7119    1.7458   -0.4599 C   0  0  0  0  0  0  0  0  0  0  0  0
    1.8810   -1.7471    0.9422 C   0  0  0  0  0  0  0  0  0  0  0  0
   -2.1164    1.6124    0.6813 C   0  0  2  0  0  0  0  0  0  0  0  0
    0.3377    2.2435    0.0186 C   0  0  0  0  0  0  0  0  0  0  0  0
    3.3597   -1.5792    0.5521 C   0  0  0  0  0  0  0  0  0  0  0  0
   -1.2474   -1.3059    0.8923 C   0  0  1  0  0  0  0  0  0  0  0  0
    2.4877    1.0778    1.8352 C   0  0  0  0  0  0  0  0  0  0  0  0
    3.6676   -0.3017   -1.6328 C   0  0  0  0  0  0  0  0  0  0  0  0
   -3.0606    0.4053    0.6362 C   0  0  0  0  0  0  0  0  0  0  0  0
   -2.6061   -0.8061    1.4189 C   0  0  0  0  0  0  0  0  0  0  0  0
   -2.7312    2.8029   -0.1115 C   0  0  0  0  0  0  0  0  0  0  0  0
   -1.9789    2.1244    2.1393 C   0  0  0  0  0  0  0  0  0  0  0  0
    5.1506   -0.5746   -1.7713 C   0  0  0  0  0  0  0  0  0  0  0  0
    5.7087    0.1749   -0.5998 C   0  0  0  0  0  0  0  0  0  0  0  0
   -3.3783    2.3907   -1.4207 C   0  0  0  0  0  0  0  0  0  0  0  0
   -4.1571    0.3237   -0.1363 C   0  0  0  0  0  0  0  0  0  0  0  0
   -4.4537    1.3734   -1.1386 C   0  0  0  0  0  0  0  0  0  0  0  0
   -2.6975   -3.3438   -0.2403 C   0  0  0  0  0  0  0  0  0  0  0  0
   -3.6334   -3.7123   -1.3562 C   0  0  0  0  0  0  0  0  0  0  0  0
    1.0361   -0.8039   -0.7662 H   0  0  0  0  0  0  0  0  0  0  0  0
   -0.0478    0.1209    1.9060 H   0  0  0  0  0  0  0  0  0  0  0  0
   -0.9104    0.8183   -0.9431 H   0  0  0  0  0  0  0  0  0  0  0  0
    1.5959    1.4484   -1.5085 H   0  0  0  0  0  0  0  0  0  0  0  0
    2.4312    2.5733   -0.4452 H   0  0  0  0  0  0  0  0  0  0  0  0
    1.4851   -2.7027    0.5839 H   0  0  0  0  0  0  0  0  0  0  0  0
    1.7726   -1.7358    2.0326 H   0  0  0  0  0  0  0  0  0  0  0  0
    0.4483    2.7433    0.9852 H   0  0  0  0  0  0  0  0  0  0  0  0
    0.0132    3.0154   -0.6876 H   0  0  0  0  0  0  0  0  0  0  0  0
    3.9961   -1.6583    1.4413 H   0  0  0  0  0  0  0  0  0  0  0  0
    3.6610   -2.3897   -0.1210 H   0  0  0  0  0  0  0  0  0  0  0  0
   -0.8777   -2.0742    1.5820 H   0  0  0  0  0  0  0  0  0  0  0  0
    2.9031    0.2997    2.4835 H   0  0  0  0  0  0  0  0  0  0  0  0
    3.2067    1.9054    1.8258 H   0  0  0  0  0  0  0  0  0  0  0  0
    1.5879    1.4490    2.3315 H   0  0  0  0  0  0  0  0  0  0  0  0
    3.4648    0.6491   -2.1369 H   0  0  0  0  0  0  0  0  0  0  0  0
    3.0487   -1.0719   -2.1020 H   0  0  0  0  0  0  0  0  0  0  0  0
   -2.4953   -0.5255    2.4737 H   0  0  0  0  0  0  0  0  0  0  0  0
   -3.3822   -1.5759    1.4371 H   0  0  0  0  0  0  0  0  0  0  0  0
   -1.9937    3.5902   -0.2941 H   0  0  0  0  0  0  0  0  0  0  0  0
   -3.5120    3.2776    0.5022 H   0  0  0  0  0  0  0  0  0  0  0  0
   -1.4523    1.4307    2.7989 H   0  0  0  0  0  0  0  0  0  0  0  0
   -1.4384    3.0767    2.1773 H   0  0  0  0  0  0  0  0  0  0  0  0
   -2.9655    2.2983    2.5870 H   0  0  0  0  0  0  0  0  0  0  0  0
    5.5430   -0.1817   -2.7121 H   0  0  0  0  0  0  0  0  0  0  0  0
    5.3881   -1.6369   -1.6686 H   0  0  0  0  0  0  0  0  0  0  0  0
   -2.6554    1.9651   -2.1233 H   0  0  0  0  0  0  0  0  0  0  0  0
   -3.8404    3.2663   -1.8897 H   0  0  0  0  0  0  0  0  0  0  0  0
   -4.7941   -0.5541   -0.1441 H   0  0  0  0  0  0  0  0  0  0  0  0
   -3.0791   -4.1619   -2.1848 H   0  0  0  0  0  0  0  0  0  0  0  0
   -4.1821   -2.8312   -1.7004 H   0  0  0  0  0  0  0  0  0  0  0  0
   -4.3586   -4.4454   -0.9900 H   0  0  0  0  0  0  0  0  0  0  0  0
  1 16  1  0  0  0  0
  1 28  1  0  0  0  0
  2  9  1  0  0  0  0
  2 24  1  0  0  0  0
  3 24  2  0  0  0  0
  4 27  2  0  0  0  0
  5 28  2  0  0  0  0
  6  7  1  0  0  0  0
  6  9  1  0  0  0  0
  6 11  1  0  0  0  0
  6 17  1  0  0  0  0
  7  8  1  0  0  0  0
  7 12  1  0  0  0  0
  7 30  1  0  0  0  0
  8 10  1  0  0  0  0
  8 16  1  0  0  0  0
  8 31  1  0  0  0  0
  9 15  1  0  0  0  0
  9 18  1  0  0  0  0
 10 13  1  0  0  0  0
 10 14  1  0  0  0  0
 10 32  1  0  0  0  0
 11 14  1  0  0  0  0
 11 33  1  0  0  0  0
 11 34  1  0  0  0  0
 12 15  1  0  0  0  0
 12 35  1  0  0  0  0
 12 36  1  0  0  0  0
 13 19  1  0  0  0  0
 13 21  1  0  0  0  0
 13 22  1  0  0  0  0
 14 37  1  0  0  0  0
 14 38  1  0  0  0  0
 15 39  1  0  0  0  0
 15 40  1  0  0  0  0
 16 20  1  0  0  0  0
 16 41  1  0  0  0  0
 17 42  1  0  0  0  0
 17 43  1  0  0  0  0
 17 44  1  0  0  0  0
 18 23  1  0  0  0  0
 18 45  1  0  0  0  0
 18 46  1  0  0  0  0
 19 20  1  0  0  0  0
 19 26  2  0  0  0  0
 20 47  1  0  0  0  0
 20 48  1  0  0  0  0
 21 25  1  0  0  0  0
 21 49  1  0  0  0  0
 21 50  1  0  0  0  0
 22 51  1  0  0  0  0
 22 52  1  0  0  0  0
 22 53  1  0  0  0  0
 23 24  1  0  0  0  0
 23 54  1  0  0  0  0
 23 55  1  0  0  0  0
 25 27  1  0  0  0  0
 25 56  1  0  0  0  0
 25 57  1  0  0  0  0
 26 27  1  0  0  0  0
 26 58  1  0  0  0  0
 28 29  1  0  0  0  0
 29 59  1  0  0  0  0
 29 60  1  0  0  0  0
 29 61  1  0  0  0  0
M  END
> <DATABASE_ID>
DB00421

> <DATABASE_NAME>
drugbank

> <ORIGINAL_SOURCE>
PUBCHEM

> <ORIGINAL_SOURCE_URL>
https://pubchem.ncbi.nlm.nih.gov/rest/pug/compound/inchikey/LXMSZDCAJNLERA-ZHYRCANASA-N/SDF?record_type=3d

> <SMILES>
[H][C@@]12CC[C@@]3(CCC(=O)O3)[C@@]1(C)CC[C@@]1([H])[C@@]2([H])[C@@]([H])(CC2=CC(=O)CC[C@]12C)SC(C)=O

> <INCHI_IDENTIFIER>
InChI=1S/C24H32O4S/c1-14(25)29-19-13-15-12-16(26)4-8-22(15,2)17-5-9-23(3)18(21(17)19)6-10-24(23)11-7-20(27)28-24/h12,17-19,21H,4-11,13H2,1-3H3/t17-,18-,19+,21+,22-,23-,24+/m0/s1

> <INCHI_KEY>
LXMSZDCAJNLERA-ZHYRCANASA-N

> <FORMULA>
C24H32O4S

> <MOLECULAR_WEIGHT>
416.573

> <EXACT_MASS>
416.202130202

> <JCHEM_ACCEPTOR_COUNT>
3

> <JCHEM_ATOM_COUNT>
61

> <JCHEM_AVERAGE_NEUTRAL_MICROSPECIES_CHARGE>
-1.1763355888023541e-11

> <JCHEM_AVERAGE_POLARIZABILITY>
46.02773990167765

> <JCHEM_BIOAVAILABILITY>
1

> <JCHEM_DONOR_COUNT>
0

> <JCHEM_FORMAL_CHARGE>
0

> <JCHEM_GHOSE_FILTER>
1

> <JCHEM_IUPAC>
(1R,3aS,3bR,4R,9aR,9bS,11aS)-4-(acetylsulfanyl)-9a,11a-dimethyl-2,3,3a,3b,4,5,7,8,9,9a,9b,10,11,11a-tetradecahydrospiro[cyclopenta[a]phenanthrene-1,2'-oxolane]-5',7-dione

> <ALOGPS_LOGP>
3.10

> <JCHEM_LOGP>
3.6367545773333334

> <ALOGPS_LOGS>
-5.32

> <JCHEM_MDDR_LIKE_RULE>
0

> <JCHEM_NEUTRAL_CHARGE>
0

> <JCHEM_NUMBER_OF_RINGS>
5

> <JCHEM_PHYSIOLOGICAL_CHARGE>
0

> <JCHEM_PKA_STRONGEST_ACIDIC>
17.88691840145282

> <JCHEM_PKA_STRONGEST_BASIC>
-4.881649136089588

> <JCHEM_POLAR_SURFACE_AREA>
60.440000000000005

> <JCHEM_REFRACTIVITY>
113.50429999999999

> <JCHEM_ROTATABLE_BOND_COUNT>
2

> <JCHEM_RULE_OF_FIVE>
1

> <ALOGPS_SOLUBILITY>
1.98e-03 g/l

> <JCHEM_TRADITIONAL_IUPAC>
tetrahydrofolic acid

> <JCHEM_VEBER_RULE>
0

$$$$
