9820882
  -OEChem-10051722403D

 54 55  0     1  0  0  0  0  0999 V2000
    3.3515   -0.6170   -1.9639 O   0  0  0  0  0  0  0  0  0  0  0  0
   -5.0390    1.1300    0.3551 O   0  0  0  0  0  0  0  0  0  0  0  0
    7.8192    2.6149    0.8864 O   0  0  0  0  0  0  0  0  0  0  0  0
   -8.5997    0.6977    0.3640 O   0  0  0  0  0  0  0  0  0  0  0  0
   -7.3131    2.3797   -0.4745 O   0  0  0  0  0  0  0  0  0  0  0  0
    1.8861   -2.3884   -0.2026 N   0  0  0  0  0  0  0  0  0  0  0  0
    3.1248   -1.7123    0.2030 C   0  0  2  0  0  0  0  0  0  0  0  0
    3.2570   -0.3736   -0.5577 C   0  0  1  0  0  0  0  0  0  0  0  0
    0.7384   -1.5279    0.0255 C   0  0  0  0  0  0  0  0  0  0  0  0
   -0.5590   -2.2242   -0.3872 C   0  0  0  0  0  0  0  0  0  0  0  0
   -1.7568   -1.3328   -0.1763 C   0  0  0  0  0  0  0  0  0  0  0  0
    4.2925   -2.6621   -0.0709 C   0  0  0  0  0  0  0  0  0  0  0  0
    4.4811    0.4279   -0.1700 C   0  0  0  0  0  0  0  0  0  0  0  0
   -2.4386   -1.3461    1.0320 C   0  0  0  0  0  0  0  0  0  0  0  0
   -2.1577   -0.5043   -1.2151 C   0  0  0  0  0  0  0  0  0  0  0  0
   -3.2637    0.3280   -1.0414 C   0  0  0  0  0  0  0  0  0  0  0  0
   -3.5445   -0.5139    1.2056 C   0  0  0  0  0  0  0  0  0  0  0  0
   -3.9570    0.3231    0.1689 C   0  0  0  0  0  0  0  0  0  0  0  0
    4.3736    1.3875    0.8211 C   0  0  0  0  0  0  0  0  0  0  0  0
    5.6800    0.1833   -0.8160 C   0  0  0  0  0  0  0  0  0  0  0  0
   -2.0155   -2.2334    2.1564 C   0  0  0  0  0  0  0  0  0  0  0  0
   -3.6921    1.2162   -2.1625 C   0  0  0  0  0  0  0  0  0  0  0  0
    5.5017    2.1266    1.1775 C   0  0  0  0  0  0  0  0  0  0  0  0
    6.8081    0.9223   -0.4595 C   0  0  0  0  0  0  0  0  0  0  0  0
    6.7188    1.8940    0.5372 C   0  0  0  0  0  0  0  0  0  0  0  0
   -6.2793    0.4921    0.6533 C   0  0  0  0  0  0  0  0  0  0  0  0
   -7.4168    1.3126    0.1116 C   0  0  0  0  0  0  0  0  0  0  0  0
    3.0943   -1.5191    1.2836 H   0  0  0  0  0  0  0  0  0  0  0  0
    2.4147    0.3055   -0.4059 H   0  0  0  0  0  0  0  0  0  0  0  0
    0.6906   -1.2184    1.0759 H   0  0  0  0  0  0  0  0  0  0  0  0
    0.7705   -0.6248   -0.5882 H   0  0  0  0  0  0  0  0  0  0  0  0
    1.7794   -3.2549    0.3244 H   0  0  0  0  0  0  0  0  0  0  0  0
   -0.6774   -3.1754    0.1449 H   0  0  0  0  0  0  0  0  0  0  0  0
   -0.5056   -2.5057   -1.4485 H   0  0  0  0  0  0  0  0  0  0  0  0
    4.1228   -3.6315    0.4132 H   0  0  0  0  0  0  0  0  0  0  0  0
    4.4328   -2.8513   -1.1406 H   0  0  0  0  0  0  0  0  0  0  0  0
    5.2296   -2.2765    0.3411 H   0  0  0  0  0  0  0  0  0  0  0  0
   -1.6134   -0.5024   -2.1561 H   0  0  0  0  0  0  0  0  0  0  0  0
   -4.0816   -0.5102    2.1509 H   0  0  0  0  0  0  0  0  0  0  0  0
    3.4312    1.5736    1.3279 H   0  0  0  0  0  0  0  0  0  0  0  0
    5.7805   -0.5700   -1.5915 H   0  0  0  0  0  0  0  0  0  0  0  0
    2.5629   -1.1224   -2.2252 H   0  0  0  0  0  0  0  0  0  0  0  0
   -0.9710   -2.0610    2.4308 H   0  0  0  0  0  0  0  0  0  0  0  0
   -2.6094   -2.0479    3.0587 H   0  0  0  0  0  0  0  0  0  0  0  0
   -2.1583   -3.2859    1.8913 H   0  0  0  0  0  0  0  0  0  0  0  0
   -3.6647    2.2649   -1.8486 H   0  0  0  0  0  0  0  0  0  0  0  0
   -3.0395    1.1172   -3.0364 H   0  0  0  0  0  0  0  0  0  0  0  0
   -4.7093    0.9632   -2.4796 H   0  0  0  0  0  0  0  0  0  0  0  0
    5.4192    2.8799    1.9564 H   0  0  0  0  0  0  0  0  0  0  0  0
    7.7540    0.7357   -0.9607 H   0  0  0  0  0  0  0  0  0  0  0  0
   -6.3857    0.4177    1.7403 H   0  0  0  0  0  0  0  0  0  0  0  0
   -6.3271   -0.5016    0.1915 H   0  0  0  0  0  0  0  0  0  0  0  0
    7.5759    3.2403    1.5906 H   0  0  0  0  0  0  0  0  0  0  0  0
   -9.3606    1.2125    0.0200 H   0  0  0  0  0  0  0  0  0  0  0  0
  1  8  1  0  0  0  0
  1 42  1  0  0  0  0
  2 18  1  0  0  0  0
  2 26  1  0  0  0  0
  3 25  1  0  0  0  0
  3 53  1  0  0  0  0
  4 27  1  0  0  0  0
  4 54  1  0  0  0  0
  5 27  2  0  0  0  0
  6  7  1  0  0  0  0
  6  9  1  0  0  0  0
  6 32  1  0  0  0  0
  7  8  1  0  0  0  0
  7 12  1  0  0  0  0
  7 28  1  0  0  0  0
  8 13  1  0  0  0  0
  8 29  1  0  0  0  0
  9 10  1  0  0  0  0
  9 30  1  0  0  0  0
  9 31  1  0  0  0  0
 10 11  1  0  0  0  0
 10 33  1  0  0  0  0
 10 34  1  0  0  0  0
 11 14  2  0  0  0  0
 11 15  1  0  0  0  0
 12 35  1  0  0  0  0
 12 36  1  0  0  0  0
 12 37  1  0  0  0  0
 13 19  2  0  0  0  0
 13 20  1  0  0  0  0
 14 17  1  0  0  0  0
 14 21  1  0  0  0  0
 15 16  2  0  0  0  0
 15 38  1  0  0  0  0
 16 18  1  0  0  0  0
 16 22  1  0  0  0  0
 17 18  2  0  0  0  0
 17 39  1  0  0  0  0
 19 23  1  0  0  0  0
 19 40  1  0  0  0  0
 20 24  2  0  0  0  0
 20 41  1  0  0  0  0
 21 43  1  0  0  0  0
 21 44  1  0  0  0  0
 21 45  1  0  0  0  0
 22 46  1  0  0  0  0
 22 47  1  0  0  0  0
 22 48  1  0  0  0  0
 23 25  2  0  0  0  0
 23 49  1  0  0  0  0
 24 25  1  0  0  0  0
 24 50  1  0  0  0  0
 26 27  1  0  0  0  0
 26 51  1  0  0  0  0
 26 52  1  0  0  0  0
M  END
> <DATABASE_ID>
DB12080

> <DATABASE_NAME>
drugbank

> <ORIGINAL_SOURCE>
PUBCHEM

> <ORIGINAL_SOURCE_URL>
https://pubchem.ncbi.nlm.nih.gov/rest/pug/compound/inchikey/VMMYRRFPMAGXNP-BTYIYWSLSA-N/SDF?record_type=3d

> <SMILES>
C[C@H](NCCC1=C(C)C=C(OCC(O)=O)C(C)=C1)[C@H](O)C1=CC=C(O)C=C1

> <INCHI_IDENTIFIER>
InChI=1S/C21H27NO5/c1-13-11-19(27-12-20(24)25)14(2)10-17(13)8-9-22-15(3)21(26)16-4-6-18(23)7-5-16/h4-7,10-11,15,21-23,26H,8-9,12H2,1-3H3,(H,24,25)/t15-,21-/m0/s1

> <INCHI_KEY>
VMMYRRFPMAGXNP-BTYIYWSLSA-N

> <FORMULA>
C21H27NO5

> <MOLECULAR_WEIGHT>
373.449

> <EXACT_MASS>
373.188922973

> <JCHEM_ACCEPTOR_COUNT>
6

> <JCHEM_ATOM_COUNT>
54

> <JCHEM_AVERAGE_POLARIZABILITY>
41.252018182352884

> <JCHEM_BIOAVAILABILITY>
1

> <JCHEM_DONOR_COUNT>
4

> <JCHEM_FORMAL_CHARGE>
0

> <JCHEM_GHOSE_FILTER>
1

> <JCHEM_IUPAC>
2-[4-(2-{[(1R,2S)-1-hydroxy-1-(4-hydroxyphenyl)propan-2-yl]amino}ethyl)-2,5-dimethylphenoxy]acetic acid

> <ALOGPS_LOGP>
1.79

> <JCHEM_LOGP>
0.9010047507158356

> <ALOGPS_LOGS>
-4.56

> <JCHEM_MDDR_LIKE_RULE>
0

> <JCHEM_NUMBER_OF_RINGS>
2

> <JCHEM_PHYSIOLOGICAL_CHARGE>
0

> <JCHEM_PKA>
9.216177182925863

> <JCHEM_PKA_STRONGEST_ACIDIC>
3.734903953415511

> <JCHEM_PKA_STRONGEST_BASIC>
10.00733012977074

> <JCHEM_POLAR_SURFACE_AREA>
99.02000000000001

> <JCHEM_REFRACTIVITY>
103.66600000000001

> <JCHEM_ROTATABLE_BOND_COUNT>
9

> <JCHEM_RULE_OF_FIVE>
1

> <ALOGPS_SOLUBILITY>
1.03e-02 g/l

> <JCHEM_TRADITIONAL_IUPAC>
ritobegron

> <JCHEM_VEBER_RULE>
0

$$$$
