5289547
  -OEChem-10051720443D

 61 63  0     1  0  0  0  0  0999 V2000
   -5.2864    1.5453   -1.2286 O   0  0  0  0  0  0  0  0  0  0  0  0
   -4.9304   -2.6904   -0.2888 O   0  0  0  0  0  0  0  0  0  0  0  0
    2.9067    0.2841    0.0608 C   0  0  2  0  0  0  0  0  0  0  0  0
    3.9002   -0.7923   -0.4465 C   0  0  2  0  0  0  0  0  0  0  0  0
    1.6097   -0.2282   -0.6134 C   0  0  1  0  0  0  0  0  0  0  0  0
    3.1147   -2.1151   -0.3286 C   0  0  0  0  0  0  0  0  0  0  0  0
    1.6250   -1.7341   -0.3332 C   0  0  0  0  0  0  0  0  0  0  0  0
    3.2260    1.7149   -0.4337 C   0  0  0  0  0  0  0  0  0  0  0  0
    5.2556   -0.8446    0.2440 C   0  0  2  0  0  0  0  0  0  0  0  0
    0.4155    0.6147   -0.2493 C   0  0  0  0  0  0  0  0  0  0  0  0
    2.8243    0.2898    1.6095 C   0  0  0  0  0  0  0  0  0  0  0  0
    1.9872    2.4889   -0.9248 C   0  0  0  0  0  0  0  0  0  0  0  0
    0.6816    2.1062   -0.2149 C   0  0  0  0  0  0  0  0  0  0  0  0
    5.9660    0.5182    0.1236 C   0  0  0  0  0  0  0  0  0  0  0  0
    6.0984   -1.9845   -0.3375 C   0  0  0  0  0  0  0  0  0  0  0  0
   -0.8031    0.1235    0.0190 C   0  0  0  0  0  0  0  0  0  0  0  0
    7.3619    0.5412    0.7301 C   0  0  0  0  0  0  0  0  0  0  0  0
   -1.9335    0.9532    0.3543 C   0  0  0  0  0  0  0  0  0  0  0  0
   -3.1521    0.4627    0.6227 C   0  0  0  0  0  0  0  0  0  0  0  0
   -4.3257    1.3495    0.9725 C   0  0  0  0  0  0  0  0  0  0  0  0
   -3.4592   -1.0121    0.5694 C   0  0  0  0  0  0  0  0  0  0  0  0
   -5.5446    1.0511    0.0860 C   0  0  2  0  0  0  0  0  0  0  0  0
   -4.6471   -1.2958   -0.3590 C   0  0  2  0  0  0  0  0  0  0  0  0
   -5.8371   -0.4353    0.0279 C   0  0  0  0  0  0  0  0  0  0  0  0
   -7.0536   -0.9106    0.3384 C   0  0  0  0  0  0  0  0  0  0  0  0
    4.0713   -0.6200   -1.5207 H   0  0  0  0  0  0  0  0  0  0  0  0
    1.7232   -0.1238   -1.7053 H   0  0  0  0  0  0  0  0  0  0  0  0
    3.3478   -2.6559    0.5959 H   0  0  0  0  0  0  0  0  0  0  0  0
    3.3446   -2.7806   -1.1682 H   0  0  0  0  0  0  0  0  0  0  0  0
    1.0736   -2.2932   -1.0967 H   0  0  0  0  0  0  0  0  0  0  0  0
    1.1773   -1.9752    0.6380 H   0  0  0  0  0  0  0  0  0  0  0  0
    3.9435    1.7051   -1.2614 H   0  0  0  0  0  0  0  0  0  0  0  0
    3.6726    2.3134    0.3687 H   0  0  0  0  0  0  0  0  0  0  0  0
    5.1238   -1.0688    1.3101 H   0  0  0  0  0  0  0  0  0  0  0  0
    2.6374   -0.7072    2.0207 H   0  0  0  0  0  0  0  0  0  0  0  0
    3.7487    0.6565    2.0665 H   0  0  0  0  0  0  0  0  0  0  0  0
    2.0241    0.9396    1.9754 H   0  0  0  0  0  0  0  0  0  0  0  0
    1.8671    2.3064   -2.0015 H   0  0  0  0  0  0  0  0  0  0  0  0
    2.1651    3.5660   -0.8207 H   0  0  0  0  0  0  0  0  0  0  0  0
   -0.1170    2.6616   -0.7199 H   0  0  0  0  0  0  0  0  0  0  0  0
    0.7271    2.4511    0.8246 H   0  0  0  0  0  0  0  0  0  0  0  0
    5.4189    1.2839    0.6701 H   0  0  0  0  0  0  0  0  0  0  0  0
    6.0384    0.8252   -0.9259 H   0  0  0  0  0  0  0  0  0  0  0  0
    5.5971   -2.9531   -0.2493 H   0  0  0  0  0  0  0  0  0  0  0  0
    7.0496   -2.0875    0.1939 H   0  0  0  0  0  0  0  0  0  0  0  0
    6.3193   -1.8122   -1.3964 H   0  0  0  0  0  0  0  0  0  0  0  0
   -0.9133   -0.9496   -0.0355 H   0  0  0  0  0  0  0  0  0  0  0  0
    7.7475    1.5661    0.7445 H   0  0  0  0  0  0  0  0  0  0  0  0
    8.0649   -0.0607    0.1468 H   0  0  0  0  0  0  0  0  0  0  0  0
    7.3518    0.1697    1.7597 H   0  0  0  0  0  0  0  0  0  0  0  0
   -1.8018    2.0279    0.4198 H   0  0  0  0  0  0  0  0  0  0  0  0
   -4.5868    1.1733    2.0240 H   0  0  0  0  0  0  0  0  0  0  0  0
   -4.0513    2.4075    0.8795 H   0  0  0  0  0  0  0  0  0  0  0  0
   -2.6447   -1.6706    0.2678 H   0  0  0  0  0  0  0  0  0  0  0  0
   -3.7043   -1.3422    1.5896 H   0  0  0  0  0  0  0  0  0  0  0  0
   -6.4087    1.6058    0.4709 H   0  0  0  0  0  0  0  0  0  0  0  0
   -4.3723   -1.0787   -1.3980 H   0  0  0  0  0  0  0  0  0  0  0  0
   -5.1287    2.5022   -1.1575 H   0  0  0  0  0  0  0  0  0  0  0  0
   -5.0814   -2.9247    0.6430 H   0  0  0  0  0  0  0  0  0  0  0  0
   -7.2807   -1.9703    0.3148 H   0  0  0  0  0  0  0  0  0  0  0  0
   -7.8614   -0.2439    0.6223 H   0  0  0  0  0  0  0  0  0  0  0  0
  1 22  1  0  0  0  0
  1 58  1  0  0  0  0
  2 23  1  0  0  0  0
  2 59  1  0  0  0  0
  3  4  1  0  0  0  0
  3  5  1  0  0  0  0
  3  8  1  0  0  0  0
  3 11  1  0  0  0  0
  4  6  1  0  0  0  0
  4  9  1  0  0  0  0
  4 26  1  0  0  0  0
  5  7  1  0  0  0  0
  5 10  1  0  0  0  0
  5 27  1  0  0  0  0
  6  7  1  0  0  0  0
  6 28  1  0  0  0  0
  6 29  1  0  0  0  0
  7 30  1  0  0  0  0
  7 31  1  0  0  0  0
  8 12  1  0  0  0  0
  8 32  1  0  0  0  0
  8 33  1  0  0  0  0
  9 14  1  0  0  0  0
  9 15  1  0  0  0  0
  9 34  1  0  0  0  0
 10 13  1  0  0  0  0
 10 16  2  0  0  0  0
 11 35  1  0  0  0  0
 11 36  1  0  0  0  0
 11 37  1  0  0  0  0
 12 13  1  0  0  0  0
 12 38  1  0  0  0  0
 12 39  1  0  0  0  0
 13 40  1  0  0  0  0
 13 41  1  0  0  0  0
 14 17  1  0  0  0  0
 14 42  1  0  0  0  0
 14 43  1  0  0  0  0
 15 44  1  0  0  0  0
 15 45  1  0  0  0  0
 15 46  1  0  0  0  0
 16 18  1  0  0  0  0
 16 47  1  0  0  0  0
 17 48  1  0  0  0  0
 17 49  1  0  0  0  0
 17 50  1  0  0  0  0
 18 19  2  0  0  0  0
 18 51  1  0  0  0  0
 19 20  1  0  0  0  0
 19 21  1  0  0  0  0
 20 22  1  0  0  0  0
 20 52  1  0  0  0  0
 20 53  1  0  0  0  0
 21 23  1  0  0  0  0
 21 54  1  0  0  0  0
 21 55  1  0  0  0  0
 22 24  1  0  0  0  0
 22 56  1  0  0  0  0
 23 24  1  0  0  0  0
 23 57  1  0  0  0  0
 24 25  2  0  0  0  0
 25 60  1  0  0  0  0
 25 61  1  0  0  0  0
M  END
> <DATABASE_ID>
DB04891

> <DATABASE_NAME>
drugbank

> <ORIGINAL_SOURCE>
PUBCHEM

> <ORIGINAL_SOURCE_URL>
https://pubchem.ncbi.nlm.nih.gov/rest/pug/compound/inchikey/QSLUXQQUPXBIHH-YHSKWIAJSA-N/SDF?record_type=3d

> <SMILES>
CC[C@@](C)([H])[C@@]1([H])CC[C@@]2([H])\C(CCC[C@]12C)=C\C=C1/C[C@](O)([H])C(=C)[C@]([H])(O)C1

> <INCHI_IDENTIFIER>
InChI=1S/C23H36O2/c1-5-15(2)19-10-11-20-18(7-6-12-23(19,20)4)9-8-17-13-21(24)16(3)22(25)14-17/h8-9,15,19-22,24-25H,3,5-7,10-14H2,1-2,4H3/b18-9+/t15-,19+,20-,21+,22+,23+/m0/s1

> <INCHI_KEY>
QSLUXQQUPXBIHH-YHSKWIAJSA-N

> <FORMULA>
C23H36O2

> <MOLECULAR_WEIGHT>
344.5307

> <EXACT_MASS>
344.271530396

> <JCHEM_ACCEPTOR_COUNT>
2

> <JCHEM_ATOM_COUNT>
61

> <JCHEM_AVERAGE_NEUTRAL_MICROSPECIES_CHARGE>
-7.7265000919462e-08

> <JCHEM_AVERAGE_POLARIZABILITY>
42.79493983780377

> <JCHEM_BIOAVAILABILITY>
1

> <JCHEM_DONOR_COUNT>
2

> <JCHEM_FORMAL_CHARGE>
0

> <JCHEM_GHOSE_FILTER>
1

> <JCHEM_IUPAC>
(1R,3R)-5-{2-[(1R,3aS,4E,7aR)-1-[(2S)-butan-2-yl]-7a-methyl-octahydro-1H-inden-4-ylidene]ethylidene}-2-methylidenecyclohexane-1,3-diol

> <ALOGPS_LOGP>
5.35

> <JCHEM_LOGP>
4.429832056333334

> <ALOGPS_LOGS>
-4.55

> <JCHEM_MDDR_LIKE_RULE>
0

> <JCHEM_NEUTRAL_CHARGE>
0

> <JCHEM_NUMBER_OF_RINGS>
3

> <JCHEM_PHYSIOLOGICAL_CHARGE>
0

> <JCHEM_PKA>
14.881605669087874

> <JCHEM_PKA_STRONGEST_ACIDIC>
14.191367968833884

> <JCHEM_PKA_STRONGEST_BASIC>
-3.0208251303286344

> <JCHEM_POLAR_SURFACE_AREA>
40.46

> <JCHEM_REFRACTIVITY>
106.2344

> <JCHEM_ROTATABLE_BOND_COUNT>
3

> <JCHEM_RULE_OF_FIVE>
1

> <ALOGPS_SOLUBILITY>
9.70e-03 g/l

> <JCHEM_TRADITIONAL_IUPAC>
tetrahydrofolic acid

> <JCHEM_VEBER_RULE>
0

$$$$
