
     RDKit          3D

 18 19  0  0  0  0  0  0  0  0999 V2000
   -4.5580   -1.4424   -1.6969 C   0  0  0  0  0  0  0  0  0  0  0  0
   -4.4291   -0.0261   -1.6026 O   0  0  0  0  0  0  0  0  0  0  0  0
   -3.4855    0.4856   -0.7065 C   0  0  0  0  0  0  0  0  0  0  0  0
   -3.7154    1.6115    0.0520 C   0  0  0  0  0  0  0  0  0  0  0  0
   -2.7140    2.0465    0.8982 C   0  0  0  0  0  0  0  0  0  0  0  0
   -1.6299    1.2650    1.2186 C   0  0  0  0  0  0  0  0  0  0  0  0
   -1.5219    0.0562    0.5667 C   0  0  0  0  0  0  0  0  0  0  0  0
   -0.3635   -0.8308    0.7363 C   0  0  0  0  0  0  0  0  0  0  0  0
    0.7644   -0.3691    1.1238 N   0  0  0  0  0  0  0  0  0  0  0  0
    2.0195   -0.7394    0.5423 C   0  0  0  0  0  0  0  0  0  0  0  0
    3.0798   -1.1511    1.3414 C   0  0  0  0  0  0  0  0  0  0  0  0
    4.3677   -0.6949    1.0883 C   0  0  0  0  0  0  0  0  0  0  0  0
    4.6555    0.0912   -0.0217 C   0  0  0  0  0  0  0  0  0  0  0  0
    5.6419    1.2092    0.1191 C   0  0  0  0  0  0  0  0  0  0  0  0
    3.6666    0.1110   -0.9983 C   0  0  0  0  0  0  0  0  0  0  0  0
    2.3791   -0.3429   -0.7403 C   0  0  0  0  0  0  0  0  0  0  0  0
   -2.2557   -0.1492   -0.5950 C   0  0  0  0  0  0  0  0  0  0  0  0
   -1.9015   -1.1303   -1.5136 O   0  0  0  0  0  0  0  0  0  0  0  0
  1  2  1  0
  2  3  1  0
  3  4  2  0
  4  5  1  0
  5  6  2  0
  6  7  1  0
  7  8  1  0
  8  9  2  0
  9 10  1  0
 10 11  2  0
 11 12  1  0
 12 13  2  0
 13 14  1  0
 13 15  1  0
 15 16  2  0
  7 17  2  0
 17 18  1  0
 17  3  1  0
 16 10  1  0
M  END
>  <zinc_id>  (1) 
ZINC000004793359

>  <smiles>  (1) 
COc1cccc(/C=N/c2ccc(C)cc2)c1O

$$$$
