10317383
  -OEChem-10051722433D

 51 57  0     1  0  0  0  0  0999 V2000
    1.2704   -1.7555   -1.1348 O   0  0  0  0  0  0  0  0  0  0  0  0
    1.0228    1.5200   -1.7686 O   0  0  0  0  0  0  0  0  0  0  0  0
    2.6181   -0.3365    1.8501 O   0  0  0  0  0  0  0  0  0  0  0  0
    3.5311    0.5090   -1.6056 O   0  0  0  0  0  0  0  0  0  0  0  0
   -0.9570    0.5690    1.5325 O   0  0  0  0  0  0  0  0  0  0  0  0
   -5.1416    1.1758    0.6868 O   0  0  0  0  0  0  0  0  0  0  0  0
   -6.0278   -0.9151    0.3099 O   0  0  0  0  0  0  0  0  0  0  0  0
    0.6184   -0.6446   -0.4966 C   0  0  2  0  0  0  0  0  0  0  0  0
    1.3677    0.7175   -0.6227 C   0  0  2  0  0  0  0  0  0  0  0  0
    1.3128   -1.7625    0.2974 C   0  0  2  0  0  0  0  0  0  0  0  0
   -0.9242   -0.6185   -0.6397 C   0  0  2  0  0  0  0  0  0  0  0  0
    3.3920   -0.1901    0.6589 C   0  0  1  0  0  0  0  0  0  0  0  0
    2.6441   -1.4628    0.9472 C   0  0  1  0  0  0  0  0  0  0  0  0
    0.5596    2.0071   -0.5098 C   0  0  2  0  0  0  0  0  0  0  0  0
    2.8686    0.7725   -0.3625 C   0  0  1  0  0  0  0  0  0  0  0  0
   -1.4581    0.6346    0.1800 C   0  0  2  0  0  0  0  0  0  0  0  0
   -0.9365    1.9762   -0.3788 C   0  0  0  0  0  0  0  0  0  0  0  0
   -1.6216   -1.8993   -0.0681 C   0  0  0  0  0  0  0  0  0  0  0  0
    4.8537   -0.1441    0.9450 C   0  0  0  0  0  0  0  0  0  0  0  0
   -1.2791   -0.5370   -2.1525 C   0  0  0  0  0  0  0  0  0  0  0  0
   -2.9606    0.5996    0.2946 C   0  0  0  0  0  0  0  0  0  0  0  0
   -3.1583   -1.8611   -0.1713 C   0  0  0  0  0  0  0  0  0  0  0  0
   -3.6815   -0.5088    0.1354 C   0  0  0  0  0  0  0  0  0  0  0  0
    5.6700   -0.7158   -0.2205 C   0  0  0  0  0  0  0  0  0  0  0  0
    5.3183    1.2840    1.2560 C   0  0  0  0  0  0  0  0  0  0  0  0
   -3.8222    1.7393    0.6639 C   0  0  0  0  0  0  0  0  0  0  0  0
   -5.0792   -0.1529    0.3740 C   0  0  0  0  0  0  0  0  0  0  0  0
    0.7280   -2.5265    0.7906 H   0  0  0  0  0  0  0  0  0  0  0  0
    3.2230   -2.3259    1.2583 H   0  0  0  0  0  0  0  0  0  0  0  0
    1.0153    2.9057   -0.1191 H   0  0  0  0  0  0  0  0  0  0  0  0
    3.1248    1.7973   -0.0770 H   0  0  0  0  0  0  0  0  0  0  0  0
   -1.2161    2.7965    0.2954 H   0  0  0  0  0  0  0  0  0  0  0  0
   -1.3968    2.2031   -1.3483 H   0  0  0  0  0  0  0  0  0  0  0  0
   -1.3658   -2.0135    0.9936 H   0  0  0  0  0  0  0  0  0  0  0  0
   -1.2559   -2.8015   -0.5742 H   0  0  0  0  0  0  0  0  0  0  0  0
    5.0702   -0.7601    1.8287 H   0  0  0  0  0  0  0  0  0  0  0  0
   -0.7672    0.2754   -2.6709 H   0  0  0  0  0  0  0  0  0  0  0  0
   -0.9861   -1.4616   -2.6641 H   0  0  0  0  0  0  0  0  0  0  0  0
   -2.3483   -0.3902   -2.3298 H   0  0  0  0  0  0  0  0  0  0  0  0
   -3.5812   -2.5998    0.5191 H   0  0  0  0  0  0  0  0  0  0  0  0
   -3.4719   -2.1519   -1.1804 H   0  0  0  0  0  0  0  0  0  0  0  0
    3.2689   -0.3808   -1.8987 H   0  0  0  0  0  0  0  0  0  0  0  0
   -1.2881    1.3411    2.0225 H   0  0  0  0  0  0  0  0  0  0  0  0
    5.7675   -0.0181   -1.0570 H   0  0  0  0  0  0  0  0  0  0  0  0
    6.6898   -0.9343    0.1173 H   0  0  0  0  0  0  0  0  0  0  0  0
    5.2383   -1.6505   -0.5933 H   0  0  0  0  0  0  0  0  0  0  0  0
    5.2953    1.9330    0.3745 H   0  0  0  0  0  0  0  0  0  0  0  0
    6.3519    1.2724    1.6197 H   0  0  0  0  0  0  0  0  0  0  0  0
    4.6958    1.7403    2.0331 H   0  0  0  0  0  0  0  0  0  0  0  0
   -3.5897    2.1370    1.6557 H   0  0  0  0  0  0  0  0  0  0  0  0
   -3.7980    2.5422   -0.0781 H   0  0  0  0  0  0  0  0  0  0  0  0
  1  8  1  0  0  0  0
  1 10  1  0  0  0  0
  2  9  1  0  0  0  0
  2 14  1  0  0  0  0
  3 12  1  0  0  0  0
  3 13  1  0  0  0  0
  4 15  1  0  0  0  0
  4 42  1  0  0  0  0
  5 16  1  0  0  0  0
  5 43  1  0  0  0  0
  6 26  1  0  0  0  0
  6 27  1  0  0  0  0
  7 27  2  0  0  0  0
  8  9  1  0  0  0  0
  8 10  1  0  0  0  0
  8 11  1  0  0  0  0
  9 14  1  0  0  0  0
  9 15  1  0  0  0  0
 10 13  1  0  0  0  0
 10 28  1  0  0  0  0
 11 16  1  0  0  0  0
 11 18  1  0  0  0  0
 11 20  1  0  0  0  0
 12 13  1  0  0  0  0
 12 15  1  0  0  0  0
 12 19  1  0  0  0  0
 13 29  1  0  0  0  0
 14 17  1  0  0  0  0
 14 30  1  0  0  0  0
 15 31  1  0  0  0  0
 16 17  1  0  0  0  0
 16 21  1  0  0  0  0
 17 32  1  0  0  0  0
 17 33  1  0  0  0  0
 18 22  1  0  0  0  0
 18 34  1  0  0  0  0
 18 35  1  0  0  0  0
 19 24  1  0  0  0  0
 19 25  1  0  0  0  0
 19 36  1  0  0  0  0
 20 37  1  0  0  0  0
 20 38  1  0  0  0  0
 20 39  1  0  0  0  0
 21 23  2  0  0  0  0
 21 26  1  0  0  0  0
 22 23  1  0  0  0  0
 22 40  1  0  0  0  0
 22 41  1  0  0  0  0
 23 27  1  0  0  0  0
 24 44  1  0  0  0  0
 24 45  1  0  0  0  0
 24 46  1  0  0  0  0
 25 47  1  0  0  0  0
 25 48  1  0  0  0  0
 25 49  1  0  0  0  0
 26 50  1  0  0  0  0
 26 51  1  0  0  0  0
M  END
> <DATABASE_ID>
DB12252

> <DATABASE_NAME>
drugbank

> <ORIGINAL_SOURCE>
PUBCHEM

> <ORIGINAL_SOURCE_URL>
https://pubchem.ncbi.nlm.nih.gov/rest/pug/compound/inchikey/OKRSVUYYCJPECG-LFGMFVMYSA-N/SDF?record_type=3d

> <SMILES>
CC(C)[C@]12O[C@H]1[C@@H]1O[C@]11[C@]3(O[C@H]3C[C@@]3(O)C4=C(CC[C@]13C)C(=O)OC4)[C@@H]2O

> <INCHI_IDENTIFIER>
InChI=1S/C20H24O7/c1-8(2)18-12(26-18)13-20(27-13)16(3)5-4-9-10(7-24-14(9)21)17(16,23)6-11-19(20,25-11)15(18)22/h8,11-13,15,22-23H,4-7H2,1-3H3/t11-,12-,13-,15+,16-,17+,18-,19+,20+/m0/s1

> <INCHI_KEY>
OKRSVUYYCJPECG-LFGMFVMYSA-N

> <FORMULA>
C20H24O7

> <MOLECULAR_WEIGHT>
376.405

> <EXACT_MASS>
376.152203113

> <JCHEM_ACCEPTOR_COUNT>
6

> <JCHEM_ATOM_COUNT>
51

> <JCHEM_AVERAGE_POLARIZABILITY>
37.80071166237492

> <JCHEM_BIOAVAILABILITY>
1

> <JCHEM_DONOR_COUNT>
2

> <JCHEM_FORMAL_CHARGE>
0

> <JCHEM_GHOSE_FILTER>
1

> <JCHEM_IUPAC>
(1S,2S,4S,5S,7R,8R,9S,11S,13R)-8,13-dihydroxy-1-methyl-7-(propan-2-yl)-3,6,10,16-tetraoxaheptacyclo[11.7.0.0^{2,4}.0^{2,9}.0^{5,7}.0^{9,11}.0^{14,18}]icos-14(18)-en-17-one

> <ALOGPS_LOGP>
0.45

> <JCHEM_LOGP>
0.251486247666667

> <ALOGPS_LOGS>
-2.09

> <JCHEM_MDDR_LIKE_RULE>
0

> <JCHEM_NUMBER_OF_RINGS>
7

> <JCHEM_PHYSIOLOGICAL_CHARGE>
0

> <JCHEM_PKA>
12.767024253615123

> <JCHEM_PKA_STRONGEST_ACIDIC>
12.065839039515106

> <JCHEM_PKA_STRONGEST_BASIC>
-3.4489127215772992

> <JCHEM_POLAR_SURFACE_AREA>
104.35

> <JCHEM_REFRACTIVITY>
88.59109999999998

> <JCHEM_ROTATABLE_BOND_COUNT>
1

> <JCHEM_RULE_OF_FIVE>
1

> <ALOGPS_SOLUBILITY>
3.04e+00 g/l

> <JCHEM_TRADITIONAL_IUPAC>
(1S,2S,4S,5S,7R,8R,9S,11S,13R)-8,13-dihydroxy-7-isopropyl-1-methyl-3,6,10,16-tetraoxaheptacyclo[11.7.0.0^{2,4}.0^{2,9}.0^{5,7}.0^{9,11}.0^{14,18}]icos-14(18)-en-17-one

> <JCHEM_VEBER_RULE>
0

$$$$
