5858
  -OEChem-10051722533D

 52 55  0     1  0  0  0  0  0999 V2000
   -4.6685    0.8751   -0.6935 O   0  0  0  0  0  0  0  0  0  0  0  0
    6.0773    0.1811    1.0226 O   0  0  0  0  0  0  0  0  0  0  0  0
   -2.2343    0.4752   -0.4998 C   0  0  1  0  0  0  0  0  0  0  0  0
   -1.4790   -0.7486    0.0635 C   0  0  2  0  0  0  0  0  0  0  0  0
   -0.0329   -0.8374   -0.4350 C   0  0  1  0  0  0  0  0  0  0  0  0
    0.7330    0.4475   -0.0035 C   0  0  2  0  0  0  0  0  0  0  0  0
   -3.6622    0.2197    0.0750 C   0  0  2  0  0  0  0  0  0  0  0  0
   -1.5033    1.7388   -0.0172 C   0  0  0  0  0  0  0  0  0  0  0  0
   -2.4215   -1.9122   -0.2250 C   0  0  0  0  0  0  0  0  0  0  0  0
   -0.0180    1.7365   -0.4226 C   0  0  0  0  0  0  0  0  0  0  0  0
   -3.8331   -1.3157   -0.0721 C   0  0  0  0  0  0  0  0  0  0  0  0
    2.2060    0.4213   -0.5149 C   0  0  2  0  0  0  0  0  0  0  0  0
    0.6859   -2.0780    0.1109 C   0  0  0  0  0  0  0  0  0  0  0  0
   -2.3002    0.5026   -2.0549 C   0  0  0  0  0  0  0  0  0  0  0  0
   -3.8779    0.6445    1.5329 C   0  0  0  0  0  0  0  0  0  0  0  0
    2.1142   -2.1504   -0.4176 C   0  0  0  0  0  0  0  0  0  0  0  0
    2.8925   -0.8872   -0.1447 C   0  0  0  0  0  0  0  0  0  0  0  0
    2.9824    1.6447    0.0146 C   0  0  0  0  0  0  0  0  0  0  0  0
    4.4831    1.5116   -0.1749 C   0  0  0  0  0  0  0  0  0  0  0  0
   -5.2558    0.2480    2.0190 C   0  0  0  0  0  0  0  0  0  0  0  0
    4.1345   -0.9643    0.3593 C   0  0  0  0  0  0  0  0  0  0  0  0
    4.9778    0.2473    0.4779 C   0  0  0  0  0  0  0  0  0  0  0  0
   -1.4208   -0.6615    1.1591 H   0  0  0  0  0  0  0  0  0  0  0  0
   -0.0248   -0.9104   -1.5294 H   0  0  0  0  0  0  0  0  0  0  0  0
    0.7655    0.4511    1.0974 H   0  0  0  0  0  0  0  0  0  0  0  0
   -1.5427    1.8141    1.0759 H   0  0  0  0  0  0  0  0  0  0  0  0
   -1.9916    2.6392   -0.4086 H   0  0  0  0  0  0  0  0  0  0  0  0
   -2.2647   -2.7427    0.4713 H   0  0  0  0  0  0  0  0  0  0  0  0
   -2.2800   -2.3022   -1.2393 H   0  0  0  0  0  0  0  0  0  0  0  0
    0.0769    1.8861   -1.5041 H   0  0  0  0  0  0  0  0  0  0  0  0
    0.4496    2.6094    0.0473 H   0  0  0  0  0  0  0  0  0  0  0  0
   -4.4312   -1.5714   -0.9556 H   0  0  0  0  0  0  0  0  0  0  0  0
   -4.3210   -1.8054    0.7716 H   0  0  0  0  0  0  0  0  0  0  0  0
    2.1928    0.4754   -1.6128 H   0  0  0  0  0  0  0  0  0  0  0  0
    0.1546   -2.9885   -0.1892 H   0  0  0  0  0  0  0  0  0  0  0  0
    0.6949   -2.0598    1.2083 H   0  0  0  0  0  0  0  0  0  0  0  0
   -1.3144    0.5062   -2.5262 H   0  0  0  0  0  0  0  0  0  0  0  0
   -2.8425   -0.3549   -2.4658 H   0  0  0  0  0  0  0  0  0  0  0  0
   -2.8162    1.4061   -2.4008 H   0  0  0  0  0  0  0  0  0  0  0  0
   -3.8050    1.7362    1.6108 H   0  0  0  0  0  0  0  0  0  0  0  0
   -3.1276    0.2157    2.2043 H   0  0  0  0  0  0  0  0  0  0  0  0
    2.0901   -2.3127   -1.5029 H   0  0  0  0  0  0  0  0  0  0  0  0
    2.6086   -3.0270    0.0182 H   0  0  0  0  0  0  0  0  0  0  0  0
    2.7721    1.7815    1.0841 H   0  0  0  0  0  0  0  0  0  0  0  0
    2.6466    2.5545   -0.4960 H   0  0  0  0  0  0  0  0  0  0  0  0
   -5.4947    0.3676   -0.6317 H   0  0  0  0  0  0  0  0  0  0  0  0
    4.9864    2.3673    0.2879 H   0  0  0  0  0  0  0  0  0  0  0  0
    4.7508    1.4858   -1.2367 H   0  0  0  0  0  0  0  0  0  0  0  0
   -6.0606    0.6291    1.3843 H   0  0  0  0  0  0  0  0  0  0  0  0
   -5.3874   -0.8282    2.1463 H   0  0  0  0  0  0  0  0  0  0  0  0
   -5.4166    0.6850    3.0122 H   0  0  0  0  0  0  0  0  0  0  0  0
    4.5915   -1.9106    0.6273 H   0  0  0  0  0  0  0  0  0  0  0  0
  1  7  1  0  0  0  0
  1 46  1  0  0  0  0
  2 22  2  0  0  0  0
  3  4  1  0  0  0  0
  3  7  1  0  0  0  0
  3  8  1  0  0  0  0
  3 14  1  0  0  0  0
  4  5  1  0  0  0  0
  4  9  1  0  0  0  0
  4 23  1  0  0  0  0
  5  6  1  0  0  0  0
  5 13  1  0  0  0  0
  5 24  1  0  0  0  0
  6 10  1  0  0  0  0
  6 12  1  0  0  0  0
  6 25  1  0  0  0  0
  7 11  1  0  0  0  0
  7 15  1  0  0  0  0
  8 10  1  0  0  0  0
  8 26  1  0  0  0  0
  8 27  1  0  0  0  0
  9 11  1  0  0  0  0
  9 28  1  0  0  0  0
  9 29  1  0  0  0  0
 10 30  1  0  0  0  0
 10 31  1  0  0  0  0
 11 32  1  0  0  0  0
 11 33  1  0  0  0  0
 12 17  1  0  0  0  0
 12 18  1  0  0  0  0
 12 34  1  0  0  0  0
 13 16  1  0  0  0  0
 13 35  1  0  0  0  0
 13 36  1  0  0  0  0
 14 37  1  0  0  0  0
 14 38  1  0  0  0  0
 14 39  1  0  0  0  0
 15 20  1  0  0  0  0
 15 40  1  0  0  0  0
 15 41  1  0  0  0  0
 16 17  1  0  0  0  0
 16 42  1  0  0  0  0
 16 43  1  0  0  0  0
 17 21  2  0  0  0  0
 18 19  1  0  0  0  0
 18 44  1  0  0  0  0
 18 45  1  0  0  0  0
 19 22  1  0  0  0  0
 19 47  1  0  0  0  0
 19 48  1  0  0  0  0
 20 49  1  0  0  0  0
 20 50  1  0  0  0  0
 20 51  1  0  0  0  0
 21 22  1  0  0  0  0
 21 52  1  0  0  0  0
M  END
> <DATABASE_ID>
DB12787

> <DATABASE_NAME>
drugbank

> <ORIGINAL_SOURCE>
PUBCHEM

> <ORIGINAL_SOURCE_URL>
https://pubchem.ncbi.nlm.nih.gov/rest/pug/compound/inchikey/ZDHCJEIGTNNEMY-XGXHKTLJSA-N/SDF?record_type=3d

> <SMILES>
CC[C@]1(O)CC[C@H]2[C@@H]3CCC4=CC(=O)CC[C@@H]4[C@H]3CC[C@]12C

> <INCHI_IDENTIFIER>
InChI=1S/C20H30O2/c1-3-20(22)11-9-18-17-6-4-13-12-14(21)5-7-15(13)16(17)8-10-19(18,20)2/h12,15-18,22H,3-11H2,1-2H3/t15-,16+,17+,18-,19-,20-/m0/s1

> <INCHI_KEY>
ZDHCJEIGTNNEMY-XGXHKTLJSA-N

> <FORMULA>
C20H30O2

> <MOLECULAR_WEIGHT>
302.458

> <EXACT_MASS>
302.224580206

> <JCHEM_ACCEPTOR_COUNT>
2

> <JCHEM_ATOM_COUNT>
52

> <JCHEM_AVERAGE_POLARIZABILITY>
36.275705170894156

> <JCHEM_BIOAVAILABILITY>
1

> <JCHEM_DONOR_COUNT>
1

> <JCHEM_FORMAL_CHARGE>
0

> <JCHEM_GHOSE_FILTER>
1

> <JCHEM_IUPAC>
(1S,2R,10R,11S,14S,15S)-14-ethyl-14-hydroxy-15-methyltetracyclo[8.7.0.0^{2,7}.0^{11,15}]heptadec-6-en-5-one

> <ALOGPS_LOGP>
3.58

> <JCHEM_LOGP>
3.868475241

> <ALOGPS_LOGS>
-4.24

> <JCHEM_MDDR_LIKE_RULE>
0

> <JCHEM_NUMBER_OF_RINGS>
4

> <JCHEM_PHYSIOLOGICAL_CHARGE>
0

> <JCHEM_PKA_STRONGEST_ACIDIC>
19.278753990193117

> <JCHEM_PKA_STRONGEST_BASIC>
-0.26908109088997356

> <JCHEM_POLAR_SURFACE_AREA>
37.3

> <JCHEM_REFRACTIVITY>
89.11689999999997

> <JCHEM_ROTATABLE_BOND_COUNT>
1

> <JCHEM_RULE_OF_FIVE>
1

> <ALOGPS_SOLUBILITY>
1.74e-02 g/l

> <JCHEM_TRADITIONAL_IUPAC>
(1S,2R,10R,11S,14S,15S)-14-ethyl-14-hydroxy-15-methyltetracyclo[8.7.0.0^{2,7}.0^{11,15}]heptadec-6-en-5-one

> <JCHEM_VEBER_RULE>
1

$$$$
