9818306
  -OEChem-02201913403D

 49 52  0     1  0  0  0  0  0999 V2000
    5.8357    1.2880    0.5864 O   0  0  0  0  0  0  0  0  0  0  0  0
   -4.9997   -0.0518   -0.4411 O   0  0  0  0  0  0  0  0  0  0  0  0
   -4.8653    0.5549    1.8157 O   0  0  0  0  0  0  0  0  0  0  0  0
    3.4834    0.6358    0.2358 C   0  0  1  0  0  0  0  0  0  0  0  0
    2.9001   -0.7048   -0.2541 C   0  0  2  0  0  0  0  0  0  0  0  0
    1.3945   -0.8026   -0.0097 C   0  0  1  0  0  0  0  0  0  0  0  0
    0.6848    0.3326   -0.8085 C   0  0  2  0  0  0  0  0  0  0  0  0
    4.9706    0.3917   -0.0837 C   0  0  2  0  0  0  0  0  0  0  0  0
    2.8276    1.7642   -0.5694 C   0  0  0  0  0  0  0  0  0  0  0  0
    3.8279   -1.7445    0.3683 C   0  0  0  0  0  0  0  0  0  0  0  0
    1.2906    1.7213   -0.4695 C   0  0  0  0  0  0  0  0  0  0  0  0
    5.2106   -1.0675    0.3513 C   0  0  0  0  0  0  0  0  0  0  0  0
    0.8154   -2.1511   -0.4414 C   0  0  0  0  0  0  0  0  0  0  0  0
    3.2960    0.9118    1.7497 C   0  0  0  0  0  0  0  0  0  0  0  0
   -0.8326    0.2383   -0.6739 C   0  0  0  0  0  0  0  0  0  0  0  0
   -0.6542   -2.2356   -0.0401 C   0  0  0  0  0  0  0  0  0  0  0  0
   -1.4489   -0.9911   -0.3522 C   0  0  0  0  0  0  0  0  0  0  0  0
   -1.6578    1.3423   -0.9524 C   0  0  0  0  0  0  0  0  0  0  0  0
   -2.8501   -1.0706   -0.2653 C   0  0  0  0  0  0  0  0  0  0  0  0
   -3.0488    1.2470   -0.8714 C   0  0  0  0  0  0  0  0  0  0  0  0
   -3.6452    0.0421   -0.5232 C   0  0  0  0  0  0  0  0  0  0  0  0
   -5.5201    0.2404    0.8307 C   0  0  0  0  0  0  0  0  0  0  0  0
   -7.0143    0.1094    0.8179 C   0  0  0  0  0  0  0  0  0  0  0  0
    3.0519   -0.7763   -1.3443 H   0  0  0  0  0  0  0  0  0  0  0  0
    1.1883   -0.6834    1.0618 H   0  0  0  0  0  0  0  0  0  0  0  0
    0.8856    0.1618   -1.8776 H   0  0  0  0  0  0  0  0  0  0  0  0
    5.1542    0.4874   -1.1613 H   0  0  0  0  0  0  0  0  0  0  0  0
    3.1068    1.6790   -1.6278 H   0  0  0  0  0  0  0  0  0  0  0  0
    3.1915    2.7426   -0.2337 H   0  0  0  0  0  0  0  0  0  0  0  0
    3.8368   -2.6796   -0.2008 H   0  0  0  0  0  0  0  0  0  0  0  0
    3.5318   -1.9841    1.3956 H   0  0  0  0  0  0  0  0  0  0  0  0
    0.9719    2.0300    0.5335 H   0  0  0  0  0  0  0  0  0  0  0  0
    0.9043    2.4813   -1.1586 H   0  0  0  0  0  0  0  0  0  0  0  0
    5.6874   -1.1314    1.3359 H   0  0  0  0  0  0  0  0  0  0  0  0
    5.8798   -1.5654   -0.3592 H   0  0  0  0  0  0  0  0  0  0  0  0
    1.3566   -2.9831    0.0227 H   0  0  0  0  0  0  0  0  0  0  0  0
    0.9138   -2.2727   -1.5278 H   0  0  0  0  0  0  0  0  0  0  0  0
    3.7380    1.8772    2.0230 H   0  0  0  0  0  0  0  0  0  0  0  0
    2.2444    0.9526    2.0454 H   0  0  0  0  0  0  0  0  0  0  0  0
    3.7734    0.1518    2.3761 H   0  0  0  0  0  0  0  0  0  0  0  0
   -0.7193   -2.4131    1.0411 H   0  0  0  0  0  0  0  0  0  0  0  0
   -1.1049   -3.1000   -0.5427 H   0  0  0  0  0  0  0  0  0  0  0  0
    6.7478    1.0087    0.3983 H   0  0  0  0  0  0  0  0  0  0  0  0
   -1.2368    2.2991   -1.2460 H   0  0  0  0  0  0  0  0  0  0  0  0
   -3.3217   -2.0137    0.0038 H   0  0  0  0  0  0  0  0  0  0  0  0
   -3.6586    2.1202   -1.0873 H   0  0  0  0  0  0  0  0  0  0  0  0
   -7.4401    0.8125    0.0979 H   0  0  0  0  0  0  0  0  0  0  0  0
   -7.4078    0.3447    1.8108 H   0  0  0  0  0  0  0  0  0  0  0  0
   -7.2923   -0.9167    0.5655 H   0  0  0  0  0  0  0  0  0  0  0  0
  1  8  1  0  0  0  0
  1 43  1  0  0  0  0
  2 21  1  0  0  0  0
  2 22  1  0  0  0  0
  3 22  2  0  0  0  0
  4  5  1  0  0  0  0
  4  8  1  0  0  0  0
  4  9  1  0  0  0  0
  4 14  1  0  0  0  0
  5  6  1  0  0  0  0
  5 10  1  0  0  0  0
  5 24  1  0  0  0  0
  6  7  1  0  0  0  0
  6 13  1  0  0  0  0
  6 25  1  0  0  0  0
  7 11  1  0  0  0  0
  7 15  1  0  0  0  0
  7 26  1  0  0  0  0
  8 12  1  0  0  0  0
  8 27  1  0  0  0  0
  9 11  1  0  0  0  0
  9 28  1  0  0  0  0
  9 29  1  0  0  0  0
 10 12  1  0  0  0  0
 10 30  1  0  0  0  0
 10 31  1  0  0  0  0
 11 32  1  0  0  0  0
 11 33  1  0  0  0  0
 12 34  1  0  0  0  0
 12 35  1  0  0  0  0
 13 16  1  0  0  0  0
 13 36  1  0  0  0  0
 13 37  1  0  0  0  0
 14 38  1  0  0  0  0
 14 39  1  0  0  0  0
 14 40  1  0  0  0  0
 15 17  2  0  0  0  0
 15 18  1  0  0  0  0
 16 17  1  0  0  0  0
 16 41  1  0  0  0  0
 16 42  1  0  0  0  0
 17 19  1  0  0  0  0
 18 20  2  0  0  0  0
 18 44  1  0  0  0  0
 19 21  2  0  0  0  0
 19 45  1  0  0  0  0
 20 21  1  0  0  0  0
 20 46  1  0  0  0  0
 22 23  1  0  0  0  0
 23 47  1  0  0  0  0
 23 48  1  0  0  0  0
 23 49  1  0  0  0  0
M  END
> <DATABASE_ID>
DB13952

> <DATABASE_NAME>
drugbank

> <ORIGINAL_SOURCE>
PUBCHEM

> <ORIGINAL_SOURCE_URL>
https://pubchem.ncbi.nlm.nih.gov/rest/pug/compound/inchikey/FHXBMXJMKMWVRG-SLHNCBLASA-N/SDF?record_type=3d

> <SMILES>
[H][C@@]12CC[C@H](O)[C@@]1(C)CC[C@]1([H])C3=CC=C(OC(C)=O)C=C3CC[C@@]21[H]

> <INCHI_IDENTIFIER>
InChI=1S/C20H26O3/c1-12(21)23-14-4-6-15-13(11-14)3-5-17-16(15)9-10-20(2)18(17)7-8-19(20)22/h4,6,11,16-19,22H,3,5,7-10H2,1-2H3/t16-,17-,18+,19+,20+/m1/s1

> <INCHI_KEY>
FHXBMXJMKMWVRG-SLHNCBLASA-N

> <FORMULA>
C20H26O3

> <MOLECULAR_WEIGHT>
314.4186

> <EXACT_MASS>
314.188194698

> <JCHEM_ACCEPTOR_COUNT>
2

> <JCHEM_ATOM_COUNT>
49

> <JCHEM_AVERAGE_POLARIZABILITY>
36.70264516548409

> <JCHEM_BIOAVAILABILITY>
1

> <JCHEM_DONOR_COUNT>
1

> <JCHEM_FORMAL_CHARGE>
0

> <JCHEM_GHOSE_FILTER>
1

> <JCHEM_IUPAC>
(1S,3aS,3bR,9bS,11aS)-1-hydroxy-11a-methyl-1H,2H,3H,3aH,3bH,4H,5H,9bH,10H,11H,11aH-cyclopenta[a]phenanthren-7-yl acetate

> <ALOGPS_LOGP>
3.91

> <JCHEM_LOGP>
3.656327624333334

> <ALOGPS_LOGS>
-5.24

> <JCHEM_MDDR_LIKE_RULE>
0

> <JCHEM_NUMBER_OF_RINGS>
4

> <JCHEM_PHYSIOLOGICAL_CHARGE>
0

> <JCHEM_PKA_STRONGEST_ACIDIC>
19.37769223665565

> <JCHEM_PKA_STRONGEST_BASIC>
-0.8839971754433246

> <JCHEM_POLAR_SURFACE_AREA>
46.53

> <JCHEM_REFRACTIVITY>
89.0562

> <JCHEM_ROTATABLE_BOND_COUNT>
2

> <JCHEM_RULE_OF_FIVE>
1

> <ALOGPS_SOLUBILITY>
1.83e-03 g/l

> <JCHEM_TRADITIONAL_IUPAC>
menoring

> <JCHEM_VEBER_RULE>
0

$$$$
