
     RDKit          2D

 66 72  0  0  0  0  0  0  0  0999 V2000
    7.3500    5.8874    0.0000 C   0  0  0  0  0  0  0  0  0  0  0  0
    7.4598    4.3914    0.0000 C   0  0  0  0  0  0  0  0  0  0  0  0
    8.8102    3.7385    0.0000 C   0  0  0  0  0  0  0  0  0  0  0  0
    6.2191    3.5483    0.0000 C   0  0  0  0  0  0  0  0  0  0  0  0
    6.3289    2.0524    0.0000 C   0  0  0  0  0  0  0  0  0  0  0  0
    5.0883    1.2093    0.0000 C   0  0  0  0  0  0  0  0  0  0  0  0
    5.1981   -0.2867    0.0000 C   0  0  0  0  0  0  0  0  0  0  0  0
    5.3079   -1.7827    0.0000 C   0  0  0  0  0  0  0  0  0  0  0  0
    6.6941   -0.1769    0.0000 O   0  0  0  0  0  0  0  0  0  0  0  0
    7.5371   -1.4175    0.0000 C   0  0  0  0  0  0  0  0  0  0  0  0
    9.0331   -1.3077    0.0000 O   0  0  0  0  0  0  0  0  0  0  0  0
    9.8762   -2.5484    0.0000 C   0  0  0  0  0  0  0  0  0  0  0  0
   11.3722   -2.4386    0.0000 C   0  0  0  0  0  0  0  0  0  0  0  0
   12.0251   -1.0881    0.0000 O   0  0  0  0  0  0  0  0  0  0  0  0
    9.2233   -3.8988    0.0000 C   0  0  0  0  0  0  0  0  0  0  0  0
   10.0664   -5.1395    0.0000 O   0  0  0  0  0  0  0  0  0  0  0  0
    7.7273   -4.0086    0.0000 C   0  0  0  0  0  0  0  0  0  0  0  0
    7.0744   -5.3591    0.0000 O   0  0  0  0  0  0  0  0  0  0  0  0
    6.8842   -2.7680    0.0000 C   0  0  0  0  0  0  0  0  0  0  0  0
    5.3883   -2.8778    0.0000 O   0  0  0  0  0  0  0  0  0  0  0  0
    3.7021   -0.3965    0.0000 C   0  0  0  0  0  0  0  0  0  0  0  0
    2.9116   -1.6713    0.0000 C   0  0  0  0  0  0  0  0  0  0  0  0
    1.4549   -1.3134    0.0000 C   0  0  0  0  0  0  0  0  0  0  0  0
    1.3451    0.1825    0.0000 C   0  0  0  0  0  0  0  0  0  0  0  0
    0.4516   -0.4478    0.0000 C   0  0  0  0  0  0  0  0  0  0  0  0
    2.7340    0.7492    0.0000 C   0  0  0  0  0  0  0  0  0  0  0  0
    2.9376    2.2354    0.0000 C   0  0  0  0  0  0  0  0  0  0  0  0
    4.3264    2.8021    0.0000 O   0  0  0  0  0  0  0  0  0  0  0  0
    1.7524    3.1548    0.0000 C   0  0  0  0  0  0  0  0  0  0  0  0
    0.3636    2.5880    0.0000 C   0  0  0  0  0  0  0  0  0  0  0  0
   -0.8216    3.5074    0.0000 C   0  0  0  0  0  0  0  0  0  0  0  0
    0.5672    4.0742    0.0000 C   0  0  0  0  0  0  0  0  0  0  0  0
   -0.6180    4.9936    0.0000 C   0  0  0  0  0  0  0  0  0  0  0  0
   -1.8032    5.9130    0.0000 C   0  0  0  0  0  0  0  0  0  0  0  0
   -3.1920    5.3463    0.0000 C   0  0  0  0  0  0  0  0  0  0  0  0
   -4.3772    6.2657    0.0000 O   0  0  0  0  0  0  0  0  0  0  0  0
   -3.3957    3.8601    0.0000 C   0  0  0  0  0  0  0  0  0  0  0  0
   -4.0953    2.5333    0.0000 C   0  0  0  0  0  0  0  0  0  0  0  0
   -4.8238    4.3187    0.0000 C   0  0  0  0  0  0  0  0  0  0  0  0
   -2.2105    2.9407    0.0000 C   0  0  0  0  0  0  0  0  0  0  0  0
   -2.4141    1.4546    0.0000 C   0  0  0  0  0  0  0  0  0  0  0  0
   -3.8029    0.8879    0.0000 O   0  0  0  0  0  0  0  0  0  0  0  0
   -4.0065   -0.5982    0.0000 C   0  0  0  0  0  0  0  0  0  0  0  0
   -2.8213   -1.5176    0.0000 O   0  0  0  0  0  0  0  0  0  0  0  0
   -3.0250   -3.0037    0.0000 C   0  0  0  0  0  0  0  0  0  0  0  0
   -1.8398   -3.9231    0.0000 C   0  0  0  0  0  0  0  0  0  0  0  0
   -0.4509   -3.3564    0.0000 O   0  0  0  0  0  0  0  0  0  0  0  0
   -4.4138   -3.5704    0.0000 C   0  0  0  0  0  0  0  0  0  0  0  0
   -4.6174   -5.0565    0.0000 O   0  0  0  0  0  0  0  0  0  0  0  0
   -5.5990   -2.6510    0.0000 C   0  0  0  0  0  0  0  0  0  0  0  0
   -6.9878   -3.2177    0.0000 O   0  0  0  0  0  0  0  0  0  0  0  0
   -5.3954   -1.1649    0.0000 C   0  0  0  0  0  0  0  0  0  0  0  0
   -6.5806   -0.2455    0.0000 O   0  0  0  0  0  0  0  0  0  0  0  0
   -7.9694   -0.8122    0.0000 C   0  0  0  0  0  0  0  0  0  0  0  0
   -8.1730   -2.2983    0.0000 O   0  0  0  0  0  0  0  0  0  0  0  0
   -9.5618   -2.8650    0.0000 C   0  0  0  0  0  0  0  0  0  0  0  0
   -9.7655   -4.3512    0.0000 C   0  0  0  0  0  0  0  0  0  0  0  0
  -10.7470   -1.9456    0.0000 C   0  0  0  0  0  0  0  0  0  0  0  0
  -12.1359   -2.5124    0.0000 O   0  0  0  0  0  0  0  0  0  0  0  0
  -10.5434   -0.4595    0.0000 C   0  0  0  0  0  0  0  0  0  0  0  0
  -11.7286    0.4599    0.0000 O   0  0  0  0  0  0  0  0  0  0  0  0
   -9.1546    0.1072    0.0000 C   0  0  0  0  0  0  0  0  0  0  0  0
   -8.9510    1.5933    0.0000 O   0  0  0  0  0  0  0  0  0  0  0  0
   -1.2289    0.5352    0.0000 C   0  0  0  0  0  0  0  0  0  0  0  0
    0.1599    1.1019    0.0000 C   0  0  0  0  0  0  0  0  0  0  0  0
   -0.1195    0.0447    0.0000 C   0  0  0  0  0  0  0  0  0  0  0  0
  1  2  1  0
  2  3  1  0
  2  4  2  3
  4  5  1  0
  5  6  1  0
  7  6  1  1
  7  8  1  0
  7  9  1  0
 10  9  1  6
 10 11  1  0
 11 12  1  0
 12 13  1  6
 13 14  1  0
 12 15  1  0
 15 16  1  1
 15 17  1  0
 17 18  1  6
 17 19  1  0
 19 20  1  1
  7 21  1  0
 21 22  1  1
 22 23  1  0
 23 24  1  0
 24 25  1  6
 24 26  1  0
 26 27  1  6
 27 28  1  1
 27 29  1  0
 30 29  1  1
 30 31  1  0
 31 32  1  1
 31 33  1  0
 33 34  1  0
 34 35  1  0
 35 36  1  1
 35 37  1  0
 37 38  1  0
 37 39  1  0
 40 37  1  1
 40 41  1  0
 41 42  1  6
 43 42  1  6
 43 44  1  0
 44 45  1  0
 45 46  1  6
 46 47  1  0
 45 48  1  0
 48 49  1  1
 48 50  1  0
 50 51  1  6
 50 52  1  0
 52 53  1  1
 54 53  1  6
 54 55  1  0
 55 56  1  0
 56 57  1  1
 56 58  1  0
 58 59  1  6
 58 60  1  0
 60 61  1  1
 60 62  1  0
 62 63  1  1
 41 64  1  0
 64 65  1  0
 65 66  1  1
 19 10  1  0
 26 21  1  0
 65 30  1  0
 65 24  1  0
 40 31  1  0
 52 43  1  0
 62 54  1  0
M  END
>  <zinc_id>  (1) 
ZINC000242620164

>  <smiles>  (1) 
CC(C)=CCC[C@](C)(O[C@@H]1O[C@H](CO)[C@@H](O)[C@H](O)[C@H]1O)[C@H]1CC[C@]2(C)[C@@H]1[C@H](O)C[C@@H]1[C@@]3(C)CC[C@H](O)C(C)(C)[C@@H]3[C@@H](O[C@@H]3O[C@H](CO)[C@@H](O)[C@H](O)[C@H]3O[C@@H]3O[C@@H](C)[C@H](O)[C@@H](O)[C@H]3O)C[C@]12C

$$$$
