
     RDKit          3D

 51 56  0  0  0  0  0  0  0  0999 V2000
    9.4649    3.3221   -0.2926 C   0  0  0  0  0  0  0  0  0  0  0  0
    8.7462    2.1505   -0.5565 N   0  0  0  0  0  0  0  0  0  0  0  0
    7.4052    1.9509   -0.5613 C   0  0  0  0  0  0  0  0  0  0  0  0
    7.2552    0.6443   -0.2595 N   0  0  0  0  0  0  0  0  0  0  0  0
    5.8518   -0.0471   -0.6725 C   0  0  2  0  0  0  0  0  0  0  0  0
    5.0914    0.8187    0.3500 O   0  0  0  0  0  0  0  0  0  0  0  0
    3.9988   -0.1998   -0.0241 C   0  0  2  0  0  0  0  0  0  0  0  0
    2.8873    0.5830    0.9481 C   0  0  0  0  0  0  0  0  0  0  0  0
    2.3309    1.3738   -0.0751 O   0  0  0  0  0  0  0  0  0  0  0  0
    1.3521    0.3039   -0.9647 P   0  0  1  0  0  0  0  0  0  0  0  0
    0.6736    1.0838   -2.0793 O   0  0  0  0  0  0  0  0  0  0  0  0
    2.1866   -0.9883   -1.5987 O   0  0  0  0  0  0  0  0  0  0  0  0
    0.1601   -0.1587    0.1617 O   0  0  0  0  0  0  0  0  0  0  0  0
   -0.7626    1.2703    0.3065 P   0  0  1  0  0  0  0  0  0  0  0  0
    0.1974    2.4448    0.3665 O   0  0  0  0  0  0  0  0  0  0  0  0
   -1.5874    1.3920   -1.1774 O   0  0  0  0  0  0  0  0  0  0  0  0
   -1.7879    1.2073    1.6179 O   0  0  0  0  0  0  0  0  0  0  0  0
   -3.0308    0.1049    1.2629 P   0  0  1  0  0  0  0  0  0  0  0  0
   -2.4526   -1.2809    1.3185 O   0  0  0  0  0  0  0  0  0  0  0  0
   -4.2112    0.3260    2.4525 O   0  0  0  0  0  0  0  0  0  0  0  0
   -3.6002    0.4915   -0.2774 O   0  0  0  0  0  0  0  0  0  0  0  0
   -3.8863   -0.7189   -0.9339 C   0  0  0  0  0  0  0  0  0  0  0  0
   -5.0248   -1.2759    0.1597 C   0  0  1  0  0  0  0  0  0  0  0  0
   -6.1657   -0.5635   -0.5907 O   0  0  0  0  0  0  0  0  0  0  0  0
   -7.0136   -1.1215    0.5667 C   0  0  1  0  0  0  0  0  0  0  0  0
   -8.3915   -0.8749   -0.2516 N   0  0  0  0  0  0  0  0  0  0  0  0
   -9.5355   -1.2666    0.3596 C   0  0  0  0  0  0  0  0  0  0  0  0
  -10.4670   -0.3067    0.3289 N   0  0  0  0  0  0  0  0  0  0  0  0
   -9.9132    0.7881   -0.2213 C   0  0  0  0  0  0  0  0  0  0  0  0
   -8.6556    0.4026   -0.6268 C   0  0  0  0  0  0  0  0  0  0  0  0
   -7.8882    1.3299   -1.2323 N   0  0  0  0  0  0  0  0  0  0  0  0
   -8.4436    2.5081   -1.6223 C   0  0  0  0  0  0  0  0  0  0  0  0
   -9.6296    2.9263   -1.1180 N   0  0  0  0  0  0  0  0  0  0  0  0
  -10.3530    2.1029   -0.3285 C   0  0  0  0  0  0  0  0  0  0  0  0
  -11.1514    2.6483    0.7214 N   0  0  0  0  0  0  0  0  0  0  0  0
   -6.9283   -2.7779    0.0012 C   0  0  2  0  0  0  0  0  0  0  0  0
   -6.2149   -3.1379    1.2935 O   0  0  0  0  0  0  0  0  0  0  0  0
   -5.4876   -2.5597   -0.9193 C   0  0  2  0  0  0  0  0  0  0  0  0
   -4.6692   -3.6303   -0.2095 O   0  0  0  0  0  0  0  0  0  0  0  0
    4.6362   -1.0691    1.3371 C   0  0  1  0  0  0  0  0  0  0  0  0
    3.9686   -2.3859    0.9660 O   0  0  0  0  0  0  0  0  0  0  0  0
    6.1101   -1.3419    0.4797 C   0  0  1  0  0  0  0  0  0  0  0  0
    5.5378   -2.3066   -0.5421 O   0  0  0  0  0  0  0  0  0  0  0  0
    8.3660    0.0016   -0.6439 C   0  0  0  0  0  0  0  0  0  0  0  0
    8.6087   -1.3081   -0.8500 N   0  0  0  0  0  0  0  0  0  0  0  0
    9.8677   -1.7304   -0.8232 C   0  0  0  0  0  0  0  0  0  0  0  0
   10.1333   -3.1363   -0.7692 N   0  0  0  0  0  0  0  0  0  0  0  0
   10.8459   -0.8162   -1.0268 N   0  0  0  0  0  0  0  0  0  0  0  0
   10.6465    0.5100   -0.8792 C   0  0  0  0  0  0  0  0  0  0  0  0
   11.5766    1.3578   -0.9216 O   0  0  0  0  0  0  0  0  0  0  0  0
    9.3527    0.9601   -0.7865 C   0  0  0  0  0  0  0  0  0  0  0  0
  1  2  1  0
  2  3  1  0
  3  4  2  0
  5  4  1  1
  5  6  1  0
  6  7  1  0
  7  8  1  1
  8  9  1  0
 10  9  1  1
 10 11  2  0
 10 12  1  0
 10 13  1  0
 14 13  1  6
 14 15  2  0
 14 16  1  0
 14 17  1  0
 18 17  1  1
 18 19  2  0
 18 20  1  0
 18 21  1  0
 21 22  1  0
 23 22  1  6
 23 24  1  0
 24 25  1  0
 25 26  1  6
 26 27  1  0
 27 28  2  0
 28 29  1  0
 29 30  2  0
 30 31  1  0
 31 32  2  0
 32 33  1  0
 33 34  2  0
 34 35  1  0
 25 36  1  0
 36 37  1  1
 36 38  1  0
 38 39  1  1
  7 40  1  0
 40 41  1  6
 40 42  1  0
 42 43  1  6
  4 44  1  0
 44 45  1  0
 45 46  2  0
 46 47  1  0
 46 48  1  0
 48 49  1  0
 49 50  2  0
 49 51  1  0
 51  2  1  0
 42  5  1  0
 51 44  2  0
 38 23  1  0
 30 26  1  0
 34 29  1  0
M  CHG  1   4   1
M  END
>  <zinc_id>  (1) 
ZINC000096006025

>  <smiles>  (1) 
Cn1c[n+]([C@@H]2O[C@H](CO[P@@](=O)(O)O[P@@](=O)(O)O[P@@](=O)(O)OC[C@H]3O[C@@H](n4cnc5c(N)ncnc54)[C@H](O)[C@@H]3O)[C@@H](O)[C@H]2O)c2nc(N)[nH]c(=O)c21

$$$$
