5288599
  -OEChem-06112217093D

 48 48  0     1  0  0  0  0  0999 V2000
    2.3827   -0.5055    0.0518 P   0  0  2  0  0  0  0  0  0  0  0  0
   -2.3108   -3.0153   -0.2579 P   0  0  0  0  0  0  0  0  0  0  0  0
   -4.3757    1.8563   -1.1317 P   0  0  0  0  0  0  0  0  0  0  0  0
    1.2977    0.6235    0.4447 O   0  0  0  0  0  0  0  0  0  0  0  0
   -2.3840   -1.6468    0.5912 O   0  0  0  0  0  0  0  0  0  0  0  0
   -3.1615    1.8590   -0.0704 O   0  0  0  0  0  0  0  0  0  0  0  0
   -0.7629    0.9872   -1.3568 O   0  0  0  0  0  0  0  0  0  0  0  0
   -2.2029    0.0443    2.9323 O   0  0  0  0  0  0  0  0  0  0  0  0
    0.0551    1.6157    2.8042 O   0  0  0  0  0  0  0  0  0  0  0  0
    3.8088    0.2621    0.0543 O   0  0  0  0  0  0  0  0  0  0  0  0
    2.1202   -0.7849   -1.5207 O   0  0  0  0  0  0  0  0  0  0  0  0
   -2.5913   -4.1404    0.8693 O   0  0  0  0  0  0  0  0  0  0  0  0
   -3.6764   -3.0078   -1.1239 O   0  0  0  0  0  0  0  0  0  0  0  0
   -4.5048    3.4209   -1.5192 O   0  0  0  0  0  0  0  0  0  0  0  0
   -3.7287    1.1966   -2.4589 O   0  0  0  0  0  0  0  0  0  0  0  0
    2.3349   -1.7375    0.9095 O   0  0  0  0  0  0  0  0  0  0  0  0
   -1.0504   -3.2108   -1.0488 O   0  0  0  0  0  0  0  0  0  0  0  0
   -5.6446    1.2158   -0.6500 O   0  0  0  0  0  0  0  0  0  0  0  0
    6.1401    1.5943    0.0947 O   0  0  0  0  0  0  0  0  0  0  0  0
    8.5576    0.7041   -0.6546 O   0  0  0  0  0  0  0  0  0  0  0  0
   -2.3001   -0.4133   -0.1178 C   0  0  1  0  0  0  0  0  0  0  0  0
   -2.9640    0.6932    0.7255 C   0  0  1  0  0  0  0  0  0  0  0  0
   -0.0256    0.2360    0.8157 C   0  0  2  0  0  0  0  0  0  0  0  0
   -0.8304   -0.1097   -0.4449 C   0  0  2  0  0  0  0  0  0  0  0  0
   -2.1342    1.0851    1.9566 C   0  0  2  0  0  0  0  0  0  0  0  0
   -0.6716    1.3839    1.5977 C   0  0  1  0  0  0  0  0  0  0  0  0
    4.9549   -0.4418   -0.3923 C   0  0  0  0  0  0  0  0  0  0  0  0
    6.1873    0.4361   -0.3172 C   0  0  0  0  0  0  0  0  0  0  0  0
    7.4809   -0.2003   -0.7825 C   0  0  0  0  0  0  0  0  0  0  0  0
   -2.8518   -0.5276   -1.0537 H   0  0  0  0  0  0  0  0  0  0  0  0
   -3.9379    0.3303    1.0768 H   0  0  0  0  0  0  0  0  0  0  0  0
    0.0492   -0.6403    1.4707 H   0  0  0  0  0  0  0  0  0  0  0  0
   -0.3532   -0.9504   -0.9472 H   0  0  0  0  0  0  0  0  0  0  0  0
   -2.5610    1.9798    2.4269 H   0  0  0  0  0  0  0  0  0  0  0  0
   -0.6063    2.3079    1.0102 H   0  0  0  0  0  0  0  0  0  0  0  0
   -1.2643    0.7386   -2.1521 H   0  0  0  0  0  0  0  0  0  0  0  0
   -3.1389   -0.0795    3.1647 H   0  0  0  0  0  0  0  0  0  0  0  0
   -0.3709    2.3586    3.2650 H   0  0  0  0  0  0  0  0  0  0  0  0
    2.5438   -1.5625   -1.9426 H   0  0  0  0  0  0  0  0  0  0  0  0
   -2.5093   -5.0870    0.6255 H   0  0  0  0  0  0  0  0  0  0  0  0
   -3.8318   -3.7282   -1.7711 H   0  0  0  0  0  0  0  0  0  0  0  0
   -5.2466    3.7079   -2.0933 H   0  0  0  0  0  0  0  0  0  0  0  0
   -4.3037    1.0340   -3.2367 H   0  0  0  0  0  0  0  0  0  0  0  0
    5.1084   -1.3189    0.2429 H   0  0  0  0  0  0  0  0  0  0  0  0
    4.8108   -0.7496   -1.4318 H   0  0  0  0  0  0  0  0  0  0  0  0
    7.3792   -0.4847   -1.8334 H   0  0  0  0  0  0  0  0  0  0  0  0
    7.6842   -1.0821   -0.1685 H   0  0  0  0  0  0  0  0  0  0  0  0
    9.3567    0.2458   -0.9656 H   0  0  0  0  0  0  0  0  0  0  0  0
  1  4  1  0  0  0  0
  1 10  1  0  0  0  0
  1 11  1  0  0  0  0
  1 16  2  0  0  0  0
  2  5  1  0  0  0  0
  2 12  1  0  0  0  0
  2 13  1  0  0  0  0
  2 17  2  0  0  0  0
  3  6  1  0  0  0  0
  3 14  1  0  0  0  0
  3 15  1  0  0  0  0
  3 18  2  0  0  0  0
  4 23  1  0  0  0  0
  5 21  1  0  0  0  0
  6 22  1  0  0  0  0
  7 24  1  0  0  0  0
  7 36  1  0  0  0  0
  8 25  1  0  0  0  0
  8 37  1  0  0  0  0
  9 26  1  0  0  0  0
  9 38  1  0  0  0  0
 10 27  1  0  0  0  0
 11 39  1  0  0  0  0
 12 40  1  0  0  0  0
 13 41  1  0  0  0  0
 14 42  1  0  0  0  0
 15 43  1  0  0  0  0
 19 28  2  0  0  0  0
 20 29  1  0  0  0  0
 20 48  1  0  0  0  0
 21 22  1  0  0  0  0
 21 24  1  0  0  0  0
 21 30  1  0  0  0  0
 22 25  1  0  0  0  0
 22 31  1  0  0  0  0
 23 24  1  0  0  0  0
 23 26  1  0  0  0  0
 23 32  1  0  0  0  0
 24 33  1  0  0  0  0
 25 26  1  0  0  0  0
 25 34  1  0  0  0  0
 26 35  1  0  0  0  0
 27 28  1  0  0  0  0
 27 44  1  0  0  0  0
 27 45  1  0  0  0  0
 28 29  1  0  0  0  0
 29 46  1  0  0  0  0
 29 47  1  0  0  0  0
M  END
> <PUBCHEM_COMPOUND_CID>
5288599

> <PUBCHEM_CONFORMER_RMSD>
1

> <PUBCHEM_CONFORMER_DIVERSEORDER>
1
59
112
7
35
57
42
45
17
117
21
95
11
2
85
74
20
78
113
72
6
56
76
15
60
101
30
105
93
24
18
55
48
31
47
99
51
4
3
89
64
34
119
70
96
33
54
104
62
12
114
66
32
9
46
111
73
29
27
116
65
58
19
88
22
92
10
53
106
69
5
41
77
13
52
118
8
83
14
107
100
36
23
79
71
25
110
91
82
37
26
28
81
86
16
94
98
67
115
87
50
75
108
38
103
109
68
102
61
43
63
97
39
44
40
49
84
80
90

> <PUBCHEM_MMFF94_PARTIAL_CHARGES>
38
1 1.51
10 -0.55
11 -0.77
12 -0.77
13 -0.77
14 -0.77
15 -0.77
16 -0.7
17 -0.7
18 -0.7
19 -0.57
2 1.51
20 -0.68
21 0.28
22 0.28
23 0.28
24 0.28
25 0.28
26 0.28
27 0.34
28 0.45
29 0.34
3 1.51
36 0.4
37 0.4
38 0.4
39 0.5
4 -0.55
40 0.5
41 0.5
42 0.5
43 0.5
48 0.4
5 -0.55
6 -0.55
7 -0.68
8 -0.68
9 -0.68

> <PUBCHEM_EFFECTIVE_ROTOR_COUNT>
11.2

> <PUBCHEM_PHARMACOPHORE_FEATURES>
20
1 11 acceptor
1 12 acceptor
1 13 acceptor
1 14 acceptor
1 15 acceptor
1 16 acceptor
1 17 acceptor
1 18 acceptor
1 19 acceptor
1 20 acceptor
1 20 donor
1 7 acceptor
1 7 donor
1 8 acceptor
1 8 donor
1 9 acceptor
1 9 donor
4 2 12 13 17 anion
4 3 14 15 18 anion
6 21 22 23 24 25 26 rings

> <PUBCHEM_HEAVY_ATOM_COUNT>
29

> <PUBCHEM_ATOM_DEF_STEREO_COUNT>
5

> <PUBCHEM_ATOM_UDEF_STEREO_COUNT>
1

> <PUBCHEM_BOND_DEF_STEREO_COUNT>
0

> <PUBCHEM_BOND_UDEF_STEREO_COUNT>
0

> <PUBCHEM_ISOTOPIC_ATOM_COUNT>
0

> <PUBCHEM_COMPONENT_COUNT>
1

> <PUBCHEM_CACTVS_TAUTO_COUNT>
4

> <PUBCHEM_CONFORMER_ID>
0050B29700000001

> <PUBCHEM_MMFF94_ENERGY>
-22.3244

> <PUBCHEM_FEATURE_SELFOVERLAP>
101.62

> <PUBCHEM_SHAPE_FINGERPRINT>
10165383 225 18341612578411066237
10366900 7 17131547254783656474
10369192 42 18188773826125361957
105312 117 18335139743923734159
10906281 52 17632311029265833777
11135609 187 18200876150210943153
11315181 36 17703792531219925848
11578080 2 18268423719303368833
12788726 201 17631167489733050104
12895836 83 18261386707351391365
12895837 130 17895202112263268892
13540713 4 17843666992482406529
13583140 156 17967825945856402592
13631057 29 18268995448217448210
13690498 29 18270392935753866703
13911987 19 18270959038524278689
15463212 79 18040988531932089547
167882 2 18047748200718674451
17093844 174 18334013904742830968
17980427 23 16515694355421675822
18927931 339 17274835670345037636
20771845 165 18192153689896756516
21236236 1 18270970145605228786
21709351 56 18260831535952820156
22393880 68 18337946883357016368
23402539 116 16950285118045271092
23419403 2 17201338901839163931
23559900 14 18059848506681512352
3633792 109 18125437501597557084
4409770 3 18201720695057696967
44802255 64 18259987045986450495
484985 159 18060426849576572227
59755656 520 18271533004936542995

> <PUBCHEM_SHAPE_MULTIPOLES>
508.58
14.73
3.32
1.97
38.41
3.42
-0.88
-6.07
6.78
-5.87
0.53
-2.23
-0.96
1.09

> <PUBCHEM_SHAPE_SELFOVERLAP>
983.086

> <PUBCHEM_SHAPE_VOLUME>
308.7

> <PUBCHEM_COORDINATE_TYPE>
2
5
10

$$$$
