
     RDKit          3D

 60 66  0  0  0  0  0  0  0  0999 V2000
   -0.1535   -2.6618   -0.9984 O   0  0  0  0  0  0  0  0  0  0  0  0
   -0.3771   -2.6170   -1.0881 C   0  0  0  0  0  0  0  0  0  0  0  0
   -0.8684   -1.4421   -0.5106 O   0  0  0  0  0  0  0  0  0  0  0  0
    0.0550   -1.3098    0.6869 C   0  0  1  0  0  0  0  0  0  0  0  0
    1.2824   -0.6138   -0.2701 C   0  0  2  0  0  0  0  0  0  0  0  0
    2.3507   -1.0772    0.6865 O   0  0  0  0  0  0  0  0  0  0  0  0
    2.7861   -0.4440    1.7544 C   0  0  0  0  0  0  0  0  0  0  0  0
    2.3977    0.7100    1.9714 O   0  0  0  0  0  0  0  0  0  0  0  0
    4.1279   -0.8514    2.2091 C   0  0  0  0  0  0  0  0  0  0  0  0
    5.0183   -1.5063    1.3661 C   0  0  0  0  0  0  0  0  0  0  0  0
    6.3301   -1.6843    1.7249 C   0  0  0  0  0  0  0  0  0  0  0  0
    6.6966   -1.1478    2.9540 C   0  0  0  0  0  0  0  0  0  0  0  0
    5.7324   -0.8929    3.8700 N   0  0  0  0  0  0  0  0  0  0  0  0
    4.4420   -0.8097    3.5377 C   0  0  0  0  0  0  0  0  0  0  0  0
    1.0976    0.9798    0.2734 C   0  0  1  0  0  0  0  0  0  0  0  0
    2.0849    1.5917   -0.6918 O   0  0  0  0  0  0  0  0  0  0  0  0
    2.5402    1.0114   -1.8057 C   0  0  0  0  0  0  0  0  0  0  0  0
    1.6870    0.3150   -2.4006 O   0  0  0  0  0  0  0  0  0  0  0  0
    3.9273    1.1720   -2.2712 C   0  0  0  0  0  0  0  0  0  0  0  0
    4.8599    0.4594   -1.5254 C   0  0  0  0  0  0  0  0  0  0  0  0
    6.1841    0.8721   -1.5230 C   0  0  0  0  0  0  0  0  0  0  0  0
    6.5176    1.9180   -2.3706 C   0  0  0  0  0  0  0  0  0  0  0  0
    5.6668    2.2042   -3.3869 N   0  0  0  0  0  0  0  0  0  0  0  0
    4.3301    2.0073   -3.2617 C   0  0  0  0  0  0  0  0  0  0  0  0
   -0.1885    0.9954   -0.8542 C   0  0  2  0  0  0  0  0  0  0  0  0
   -0.1496    2.4987   -1.0317 O   0  0  0  0  0  0  0  0  0  0  0  0
   -0.5188    3.3748   -0.0947 C   0  0  0  0  0  0  0  0  0  0  0  0
   -0.8981    2.9733    1.0161 O   0  0  0  0  0  0  0  0  0  0  0  0
   -0.8303    4.7687   -0.4432 C   0  0  0  0  0  0  0  0  0  0  0  0
    0.1272    5.6840   -0.7932 C   0  0  0  0  0  0  0  0  0  0  0  0
   -0.2422    6.9483   -1.2282 C   0  0  0  0  0  0  0  0  0  0  0  0
   -1.4382    7.4380   -0.7202 C   0  0  0  0  0  0  0  0  0  0  0  0
   -2.3688    6.5553   -0.2952 N   0  0  0  0  0  0  0  0  0  0  0  0
   -2.0545    5.2726   -0.0160 C   0  0  0  0  0  0  0  0  0  0  0  0
   -1.3737    1.0053    0.3714 C   0  0  1  0  0  0  0  0  0  0  0  0
   -2.3096   -0.0370   -0.2187 O   0  0  0  0  0  0  0  0  0  0  0  0
   -3.2176    0.4360   -1.1107 C   0  0  0  0  0  0  0  0  0  0  0  0
   -3.6374    1.6134   -1.0257 O   0  0  0  0  0  0  0  0  0  0  0  0
   -3.8590   -0.3870   -2.1454 C   0  0  0  0  0  0  0  0  0  0  0  0
   -5.2037   -0.6535   -2.0428 C   0  0  0  0  0  0  0  0  0  0  0  0
   -5.8810   -1.3089   -3.0348 C   0  0  0  0  0  0  0  0  0  0  0  0
   -5.2122   -1.6189   -4.1909 C   0  0  0  0  0  0  0  0  0  0  0  0
   -3.8951   -1.3434   -4.3431 N   0  0  0  0  0  0  0  0  0  0  0  0
   -3.2672   -0.6290   -3.3756 C   0  0  0  0  0  0  0  0  0  0  0  0
   -0.5237    0.0495    1.4936 C   0  0  1  0  0  0  0  0  0  0  0  0
   -1.7708   -0.7253    1.9505 O   0  0  0  0  0  0  0  0  0  0  0  0
   -1.5151   -1.3222    3.1887 C   0  0  0  0  0  0  0  0  0  0  0  0
   -0.5616   -2.1584    3.1754 O   0  0  0  0  0  0  0  0  0  0  0  0
   -2.4046   -1.2119    4.3357 C   0  0  0  0  0  0  0  0  0  0  0  0
   -2.5568   -0.0412    5.0656 C   0  0  0  0  0  0  0  0  0  0  0  0
   -3.7258    0.1862    5.7765 C   0  0  0  0  0  0  0  0  0  0  0  0
   -4.5306   -0.9130    6.0471 C   0  0  0  0  0  0  0  0  0  0  0  0
   -4.2102   -2.1344    5.5748 N   0  0  0  0  0  0  0  0  0  0  0  0
   -3.1160   -2.3042    4.8182 C   0  0  0  0  0  0  0  0  0  0  0  0
   -1.1922   -3.7068   -1.6802 C   0  0  0  0  0  0  0  0  0  0  0  0
   -1.2925   -3.6427   -3.0715 C   0  0  0  0  0  0  0  0  0  0  0  0
   -1.6659   -4.7936   -3.7517 C   0  0  0  0  0  0  0  0  0  0  0  0
   -1.5562   -5.9974   -3.0956 C   0  0  0  0  0  0  0  0  0  0  0  0
   -0.9861   -6.1000   -1.8892 N   0  0  0  0  0  0  0  0  0  0  0  0
   -0.6893   -4.9535   -1.2916 C   0  0  0  0  0  0  0  0  0  0  0  0
  1  2  2  0
  2  3  1  0
  4  3  1  6
  4  5  1  0
  5  6  1  1
  6  7  1  0
  7  8  2  0
  7  9  1  0
  9 10  2  0
 10 11  1  0
 11 12  2  0
 12 13  1  0
 13 14  2  0
  5 15  1  0
 15 16  1  6
 16 17  1  0
 17 18  2  0
 17 19  1  0
 19 20  2  0
 20 21  1  0
 21 22  2  0
 22 23  1  0
 23 24  2  0
 15 25  1  0
 25 26  1  1
 26 27  1  0
 27 28  2  0
 27 29  1  0
 29 30  2  0
 30 31  1  0
 31 32  2  0
 32 33  1  0
 33 34  2  0
 25 35  1  0
 35 36  1  6
 36 37  1  0
 37 38  2  0
 37 39  1  0
 39 40  2  0
 40 41  1  0
 41 42  2  0
 42 43  1  0
 43 44  2  0
 35 45  1  0
 45 46  1  1
 46 47  1  0
 47 48  2  0
 47 49  1  0
 49 50  2  0
 50 51  1  0
 51 52  2  0
 52 53  1  0
 53 54  2  0
  2 55  1  0
 55 56  2  0
 56 57  1  0
 57 58  2  0
 58 59  1  0
 59 60  2  0
 45  4  1  0
 54 49  1  0
 60 55  1  0
 14  9  1  0
 24 19  1  0
 34 29  1  0
 44 39  1  0
M  END
>  <zinc_id>  (1) 
ZINC000150338506

>  <smiles>  (1) 
O=C(O[C@H]1[C@H](OC(=O)c2cccnc2)[C@@H](OC(=O)c2cccnc2)[C@H](OC(=O)c2cccnc2)[C@@H](OC(=O)c2cccnc2)[C@H]1OC(=O)c1cccnc1)c1cccnc1

$$$$
