
     RDKit          3D

 36 36  0  0  0  0  0  0  0  0999 V2000
    1.2072    0.5600    3.5219 O   0  0  0  0  0  0  0  0  0  0  0  0
    2.2538    0.1969    2.4994 P   0  0  0  0  0  0  0  0  0  0  0  0
    2.5104   -1.4473    2.6371 O   0  0  0  0  0  0  0  0  0  0  0  0
    3.6643    0.9747    3.0537 O   0  0  0  0  0  0  0  0  0  0  0  0
    1.8868    0.7134    0.9581 O   0  0  0  0  0  0  0  0  0  0  0  0
    1.3967   -0.5658    0.3143 C   0  0  1  0  0  0  0  0  0  0  0  0
   -0.2186   -0.5498    0.9432 C   0  0  2  0  0  0  0  0  0  0  0  0
   -0.1438   -1.9777    1.4199 O   0  0  0  0  0  0  0  0  0  0  0  0
    0.0573   -3.1223    0.3617 P   0  0  0  0  0  0  0  0  0  0  0  0
    1.0412   -4.1268    0.9869 O   0  0  0  0  0  0  0  0  0  0  0  0
   -1.2576   -4.1832    0.0690 O   0  0  0  0  0  0  0  0  0  0  0  0
    0.7285   -2.8923   -1.1340 O   0  0  0  0  0  0  0  0  0  0  0  0
   -0.8469   -0.9648   -0.6168 C   0  0  1  0  0  0  0  0  0  0  0  0
   -2.1388   -1.4977   -0.0662 O   0  0  0  0  0  0  0  0  0  0  0  0
   -2.7581   -1.0327    1.2614 P   0  0  0  0  0  0  0  0  0  0  0  0
   -4.1330   -0.4134    1.0141 O   0  0  0  0  0  0  0  0  0  0  0  0
   -3.1565   -2.4381    2.1721 O   0  0  0  0  0  0  0  0  0  0  0  0
   -2.1015   -0.0350    2.4013 O   0  0  0  0  0  0  0  0  0  0  0  0
   -1.5165    0.6180   -0.7789 C   0  0  2  0  0  0  0  0  0  0  0  0
   -1.6241    0.4964   -2.2871 O   0  0  0  0  0  0  0  0  0  0  0  0
   -3.3057    0.6444   -2.5075 P   0  0  0  0  0  0  0  0  0  0  0  0
   -3.9545   -0.7339   -2.4178 O   0  0  0  0  0  0  0  0  0  0  0  0
   -4.0217    1.5432   -1.2722 O   0  0  0  0  0  0  0  0  0  0  0  0
   -3.6955    1.3423   -3.9896 O   0  0  0  0  0  0  0  0  0  0  0  0
   -0.0004    1.4666   -0.8957 C   0  0  1  0  0  0  0  0  0  0  0  0
    0.1528    1.6009    0.5983 O   0  0  0  0  0  0  0  0  0  0  0  0
    0.2721    3.3099    0.6011 P   0  0  0  0  0  0  0  0  0  0  0  0
   -0.9816    3.9117    0.0492 O   0  0  0  0  0  0  0  0  0  0  0  0
    0.6341    3.9158    2.1117 O   0  0  0  0  0  0  0  0  0  0  0  0
    1.5090    3.7259   -0.4988 O   0  0  0  0  0  0  0  0  0  0  0  0
    0.9727    0.0803   -1.2413 C   0  0  1  0  0  0  0  0  0  0  0  0
    2.1861    1.0073   -1.3251 O   0  0  0  0  0  0  0  0  0  0  0  0
    3.4735    0.1123   -1.8527 P   0  0  0  0  0  0  0  0  0  0  0  0
    3.1999   -1.3655   -1.8711 O   0  0  0  0  0  0  0  0  0  0  0  0
    3.9144    0.6819   -3.3934 O   0  0  0  0  0  0  0  0  0  0  0  0
    4.7937    0.4445   -0.8263 O   0  0  0  0  0  0  0  0  0  0  0  0
  1  2  2  0
  2  3  1  0
  2  4  1  0
  2  5  1  0
  6  5  1  1
  6  7  1  0
  7  8  1  1
  8  9  1  0
  9 10  2  0
  9 11  1  0
  9 12  1  0
  7 13  1  0
 13 14  1  1
 14 15  1  0
 15 16  2  0
 15 17  1  0
 15 18  1  0
 13 19  1  0
 19 20  1  6
 20 21  1  0
 21 22  2  0
 21 23  1  0
 21 24  1  0
 19 25  1  0
 25 26  1  1
 26 27  1  0
 27 28  2  0
 27 29  1  0
 27 30  1  0
 25 31  1  0
 31 32  1  1
 32 33  1  0
 33 34  2  0
 33 35  1  0
 33 36  1  0
 31  6  1  0
M  END
>  <zinc_id>  (1) 
ZINC000169289809

>  <smiles>  (1) 
O=P(O)(O)O[C@H]1[C@H](OP(=O)(O)O)[C@@H](OP(=O)(O)O)[C@H](OP(=O)(O)O)[C@@H](OP(=O)(O)O)[C@H]1OP(=O)(O)O

$$$$
