49843471
  -OEChem-10051722483D

 49 53  0     0  0  0  0  0  0999 V2000
   -2.3513    4.6459   -1.0758 F   0  0  0  0  0  0  0  0  0  0  0  0
    2.5860   -3.1446   -0.2643 O   0  0  0  0  0  0  0  0  0  0  0  0
   -6.0125   -2.3357    1.0786 O   0  0  0  0  0  0  0  0  0  0  0  0
   -5.1895   -1.2618   -0.7468 O   0  0  0  0  0  0  0  0  0  0  0  0
   -2.8728   -0.5437    0.5565 N   0  0  0  0  0  0  0  0  0  0  0  0
    0.8242   -1.7102   -0.8220 N   0  0  0  0  0  0  0  0  0  0  0  0
   -1.7118   -1.0839    0.0880 C   0  0  0  0  0  0  0  0  0  0  0  0
   -0.9852   -0.0988   -0.5460 C   0  0  0  0  0  0  0  0  0  0  0  0
   -1.2872   -2.4962    0.2482 C   0  0  0  0  0  0  0  0  0  0  0  0
    0.3401   -0.3514   -1.1808 C   0  0  0  0  0  0  0  0  0  0  0  0
   -0.1874   -2.7884   -0.7847 C   0  0  0  0  0  0  0  0  0  0  0  0
   -1.7461    1.1021   -0.4634 C   0  0  0  0  0  0  0  0  0  0  0  0
   -2.9217    0.7957    0.2318 C   0  0  0  0  0  0  0  0  0  0  0  0
   -3.8951   -1.2589    1.2905 C   0  0  0  0  0  0  0  0  0  0  0  0
    2.1625   -2.0287   -0.5626 C   0  0  0  0  0  0  0  0  0  0  0  0
   -1.5510    2.4240   -0.9125 C   0  0  0  0  0  0  0  0  0  0  0  0
   -3.9094    1.7506    0.4994 C   0  0  0  0  0  0  0  0  0  0  0  0
    3.1634   -0.9552   -0.6579 C   0  0  0  0  0  0  0  0  0  0  0  0
   -2.5316    3.3876   -0.6515 C   0  0  0  0  0  0  0  0  0  0  0  0
   -3.6918    3.0539    0.0439 C   0  0  0  0  0  0  0  0  0  0  0  0
   -5.0729   -1.6116    0.4209 C   0  0  0  0  0  0  0  0  0  0  0  0
    3.5143   -0.1519    0.4393 C   0  0  0  0  0  0  0  0  0  0  0  0
    3.7623   -0.7609   -1.9029 C   0  0  0  0  0  0  0  0  0  0  0  0
    4.4866    0.8628    0.2713 C   0  0  0  0  0  0  0  0  0  0  0  0
    2.9218   -0.3334    1.6995 C   0  0  0  0  0  0  0  0  0  0  0  0
    4.7184    0.2369   -2.0682 C   0  0  0  0  0  0  0  0  0  0  0  0
    5.0791    1.0443   -0.9890 C   0  0  0  0  0  0  0  0  0  0  0  0
    4.8375    1.6661    1.3685 C   0  0  0  0  0  0  0  0  0  0  0  0
    3.2825    0.4739    2.7787 C   0  0  0  0  0  0  0  0  0  0  0  0
    4.2385    1.4717    2.6135 C   0  0  0  0  0  0  0  0  0  0  0  0
   -2.1163   -3.1954    0.0994 H   0  0  0  0  0  0  0  0  0  0  0  0
   -0.8910   -2.6400    1.2603 H   0  0  0  0  0  0  0  0  0  0  0  0
    1.0537    0.4185   -0.8808 H   0  0  0  0  0  0  0  0  0  0  0  0
    0.2438   -0.3265   -2.2720 H   0  0  0  0  0  0  0  0  0  0  0  0
    0.2778   -3.7546   -0.5652 H   0  0  0  0  0  0  0  0  0  0  0  0
   -0.6150   -2.8535   -1.7934 H   0  0  0  0  0  0  0  0  0  0  0  0
   -3.4645   -2.1717    1.7106 H   0  0  0  0  0  0  0  0  0  0  0  0
   -4.2273   -0.6207    2.1154 H   0  0  0  0  0  0  0  0  0  0  0  0
   -0.6515    2.6997   -1.4555 H   0  0  0  0  0  0  0  0  0  0  0  0
   -4.8174    1.5017    1.0384 H   0  0  0  0  0  0  0  0  0  0  0  0
   -4.4404    3.8184    0.2353 H   0  0  0  0  0  0  0  0  0  0  0  0
    3.4911   -1.3817   -2.7532 H   0  0  0  0  0  0  0  0  0  0  0  0
    2.1707   -1.1007    1.8716 H   0  0  0  0  0  0  0  0  0  0  0  0
    5.1841    0.3879   -3.0377 H   0  0  0  0  0  0  0  0  0  0  0  0
    5.8286    1.8182   -1.1412 H   0  0  0  0  0  0  0  0  0  0  0  0
    5.5823    2.4521    1.2624 H   0  0  0  0  0  0  0  0  0  0  0  0
   -6.7800   -2.5464    0.5050 H   0  0  0  0  0  0  0  0  0  0  0  0
    2.8165    0.3236    3.7482 H   0  0  0  0  0  0  0  0  0  0  0  0
    4.5188    2.1000    3.4539 H   0  0  0  0  0  0  0  0  0  0  0  0
  1 19  1  0  0  0  0
  2 15  2  0  0  0  0
  3 21  1  0  0  0  0
  3 47  1  0  0  0  0
  4 21  2  0  0  0  0
  5  7  1  0  0  0  0
  5 13  1  0  0  0  0
  5 14  1  0  0  0  0
  6 10  1  0  0  0  0
  6 11  1  0  0  0  0
  6 15  1  0  0  0  0
  7  8  2  0  0  0  0
  7  9  1  0  0  0  0
  8 10  1  0  0  0  0
  8 12  1  0  0  0  0
  9 11  1  0  0  0  0
  9 31  1  0  0  0  0
  9 32  1  0  0  0  0
 10 33  1  0  0  0  0
 10 34  1  0  0  0  0
 11 35  1  0  0  0  0
 11 36  1  0  0  0  0
 12 13  2  0  0  0  0
 12 16  1  0  0  0  0
 13 17  1  0  0  0  0
 14 21  1  0  0  0  0
 14 37  1  0  0  0  0
 14 38  1  0  0  0  0
 15 18  1  0  0  0  0
 16 19  2  0  0  0  0
 16 39  1  0  0  0  0
 17 20  2  0  0  0  0
 17 40  1  0  0  0  0
 18 22  1  0  0  0  0
 18 23  2  0  0  0  0
 19 20  1  0  0  0  0
 20 41  1  0  0  0  0
 22 24  1  0  0  0  0
 22 25  2  0  0  0  0
 23 26  1  0  0  0  0
 23 42  1  0  0  0  0
 24 27  1  0  0  0  0
 24 28  2  0  0  0  0
 25 29  1  0  0  0  0
 25 43  1  0  0  0  0
 26 27  2  0  0  0  0
 26 44  1  0  0  0  0
 27 45  1  0  0  0  0
 28 30  1  0  0  0  0
 28 46  1  0  0  0  0
 29 30  2  0  0  0  0
 29 48  1  0  0  0  0
 30 49  1  0  0  0  0
M  END
> <DATABASE_ID>
DB12562

> <DATABASE_NAME>
drugbank

> <ORIGINAL_SOURCE>
PUBCHEM

> <ORIGINAL_SOURCE_URL>
https://pubchem.ncbi.nlm.nih.gov/rest/pug/compound/inchikey/IHAXLPDVOWLUOS-UHFFFAOYSA-N/SDF?record_type=3d

> <SMILES>
OC(=O)CN1C2=C(CN(CC2)C(=O)C2=CC=CC3=CC=CC=C23)C2=CC(F)=CC=C12

> <INCHI_IDENTIFIER>
InChI=1S/C24H19FN2O3/c25-16-8-9-21-19(12-16)20-13-26(11-10-22(20)27(21)14-23(28)29)24(30)18-7-3-5-15-4-1-2-6-17(15)18/h1-9,12H,10-11,13-14H2,(H,28,29)

> <INCHI_KEY>
IHAXLPDVOWLUOS-UHFFFAOYSA-N

> <FORMULA>
C24H19FN2O3

> <MOLECULAR_WEIGHT>
402.425

> <EXACT_MASS>
402.137970643

> <JCHEM_ACCEPTOR_COUNT>
3

> <JCHEM_ATOM_COUNT>
49

> <JCHEM_AVERAGE_POLARIZABILITY>
42.33017089917256

> <JCHEM_BIOAVAILABILITY>
1

> <JCHEM_DONOR_COUNT>
1

> <JCHEM_FORMAL_CHARGE>
0

> <JCHEM_GHOSE_FILTER>
1

> <JCHEM_IUPAC>
2-[8-fluoro-2-(naphthalene-1-carbonyl)-1H,2H,3H,4H,5H-pyrido[4,3-b]indol-5-yl]acetic acid

> <ALOGPS_LOGP>
3.84

> <JCHEM_LOGP>
3.659499583000001

> <ALOGPS_LOGS>
-5.14

> <JCHEM_MDDR_LIKE_RULE>
0

> <JCHEM_NUMBER_OF_RINGS>
5

> <JCHEM_PHYSIOLOGICAL_CHARGE>
-1

> <JCHEM_PKA_STRONGEST_ACIDIC>
3.928984430136127

> <JCHEM_PKA_STRONGEST_BASIC>
-1.3390514995432081

> <JCHEM_POLAR_SURFACE_AREA>
62.540000000000006

> <JCHEM_REFRACTIVITY>
111.57429999999998

> <JCHEM_ROTATABLE_BOND_COUNT>
3

> <JCHEM_RULE_OF_FIVE>
1

> <ALOGPS_SOLUBILITY>
2.89e-03 g/l

> <JCHEM_TRADITIONAL_IUPAC>
[8-fluoro-2-(naphthalene-1-carbonyl)-1H,3H,4H-pyrido[4,3-b]indol-5-yl]acetic acid

> <JCHEM_VEBER_RULE>
0

$$$$
