447359
  -OEChem-10051721213D

 49 52  0     1  0  0  0  0  0999 V2000
   -8.3845    0.0385   -2.4376 Cl  0  0  0  0  0  0  0  0  0  0  0  0
   -1.4716    1.2840    1.7317 S   0  0  0  0  0  0  0  0  0  0  0  0
   -3.6075    1.6535   -0.2218 S   0  0  0  0  0  0  0  0  0  0  0  0
   -1.4370    2.6997    1.4281 O   0  0  0  0  0  0  0  0  0  0  0  0
   -1.4815    0.7921    3.0934 O   0  0  0  0  0  0  0  0  0  0  0  0
    1.2415   -2.7839    0.5084 O   0  0  0  0  0  0  0  0  0  0  0  0
   -0.2157    0.5101    0.8637 N   0  0  2  0  0  0  0  0  0  0  0  0
    1.6234   -0.8655   -0.7367 N   0  0  0  0  0  0  0  0  0  0  0  0
    7.8588    1.7884    0.0148 N   0  0  0  0  0  0  0  0  0  0  0  0
    6.2163    2.3379   -1.5541 N   0  0  0  0  0  0  0  0  0  0  0  0
    0.0058    0.9920   -0.5172 C   0  0  0  0  0  0  0  0  0  0  0  0
    1.4027    0.5660   -0.9149 C   0  0  0  0  0  0  0  0  0  0  0  0
   -0.2092   -0.9639    0.9290 C   0  0  0  0  0  0  0  0  0  0  0  0
    0.9634   -1.6122    0.2357 C   0  0  0  0  0  0  0  0  0  0  0  0
    2.7435   -1.4414   -1.4677 C   0  0  0  0  0  0  0  0  0  0  0  0
   -3.0256    0.7097    1.0553 C   0  0  0  0  0  0  0  0  0  0  0  0
    4.0202   -1.1508   -0.7393 C   0  0  0  0  0  0  0  0  0  0  0  0
   -3.8217   -0.3369    1.3736 C   0  0  0  0  0  0  0  0  0  0  0  0
   -4.9872   -0.3969    0.5381 C   0  0  0  0  0  0  0  0  0  0  0  0
   -4.9973    0.6471   -0.3920 C   0  0  0  0  0  0  0  0  0  0  0  0
    4.7312    0.0102   -1.0267 C   0  0  0  0  0  0  0  0  0  0  0  0
    4.4869   -2.0450    0.2195 C   0  0  0  0  0  0  0  0  0  0  0  0
    5.9201    0.2799   -0.3491 C   0  0  0  0  0  0  0  0  0  0  0  0
   -6.0654   -1.3144    0.5262 C   0  0  0  0  0  0  0  0  0  0  0  0
   -6.0451    0.7951   -1.3219 C   0  0  0  0  0  0  0  0  0  0  0  0
    5.6759   -1.7753    0.8974 C   0  0  0  0  0  0  0  0  0  0  0  0
    6.3925   -0.6129    0.6130 C   0  0  0  0  0  0  0  0  0  0  0  0
   -7.1063   -1.1708   -0.3952 C   0  0  0  0  0  0  0  0  0  0  0  0
   -7.0943   -0.1260   -1.3084 C   0  0  0  0  0  0  0  0  0  0  0  0
    6.6678    1.4916   -0.6453 C   0  0  0  0  0  0  0  0  0  0  0  0
   -0.0597    2.0821   -0.5780 H   0  0  0  0  0  0  0  0  0  0  0  0
   -0.7377    0.5561   -1.1938 H   0  0  0  0  0  0  0  0  0  0  0  0
    1.5782    0.8298   -1.9635 H   0  0  0  0  0  0  0  0  0  0  0  0
    2.1386    1.0918   -0.2958 H   0  0  0  0  0  0  0  0  0  0  0  0
   -1.1153   -1.3690    0.4663 H   0  0  0  0  0  0  0  0  0  0  0  0
   -0.1733   -1.2745    1.9790 H   0  0  0  0  0  0  0  0  0  0  0  0
    2.7598   -1.0437   -2.4893 H   0  0  0  0  0  0  0  0  0  0  0  0
    2.6046   -2.5254   -1.5612 H   0  0  0  0  0  0  0  0  0  0  0  0
   -3.6036   -1.0452    2.1632 H   0  0  0  0  0  0  0  0  0  0  0  0
    4.3487    0.6908   -1.7831 H   0  0  0  0  0  0  0  0  0  0  0  0
    3.9451   -2.9581    0.4474 H   0  0  0  0  0  0  0  0  0  0  0  0
   -6.0887   -2.1380    1.2358 H   0  0  0  0  0  0  0  0  0  0  0  0
   -6.0321    1.6147   -2.0359 H   0  0  0  0  0  0  0  0  0  0  0  0
    6.0438   -2.4718    1.6452 H   0  0  0  0  0  0  0  0  0  0  0  0
    7.3098   -0.4524    1.1686 H   0  0  0  0  0  0  0  0  0  0  0  0
   -7.9218   -1.8898   -0.3823 H   0  0  0  0  0  0  0  0  0  0  0  0
    8.3653    2.6399   -0.2047 H   0  0  0  0  0  0  0  0  0  0  0  0
    8.2744    1.1967    0.7233 H   0  0  0  0  0  0  0  0  0  0  0  0
    6.8742    3.1227   -1.6184 H   0  0  0  0  0  0  0  0  0  0  0  0
  1 29  1  0  0  0  0
  2  4  2  0  0  0  0
  2  5  2  0  0  0  0
  2  7  1  0  0  0  0
  2 16  1  0  0  0  0
  3 16  1  0  0  0  0
  3 20  1  0  0  0  0
  6 14  2  0  0  0  0
  7 11  1  0  0  0  0
  7 13  1  0  0  0  0
  8 12  1  0  0  0  0
  8 14  1  0  0  0  0
  8 15  1  0  0  0  0
  9 30  1  0  0  0  0
  9 47  1  0  0  0  0
  9 48  1  0  0  0  0
 10 30  2  0  0  0  0
 10 49  1  0  0  0  0
 11 12  1  0  0  0  0
 11 31  1  0  0  0  0
 11 32  1  0  0  0  0
 12 33  1  0  0  0  0
 12 34  1  0  0  0  0
 13 14  1  0  0  0  0
 13 35  1  0  0  0  0
 13 36  1  0  0  0  0
 15 17  1  0  0  0  0
 15 37  1  0  0  0  0
 15 38  1  0  0  0  0
 16 18  2  0  0  0  0
 17 21  2  0  0  0  0
 17 22  1  0  0  0  0
 18 19  1  0  0  0  0
 18 39  1  0  0  0  0
 19 20  2  0  0  0  0
 19 24  1  0  0  0  0
 20 25  1  0  0  0  0
 21 23  1  0  0  0  0
 21 40  1  0  0  0  0
 22 26  2  0  0  0  0
 22 41  1  0  0  0  0
 23 27  2  0  0  0  0
 23 30  1  0  0  0  0
 24 28  2  0  0  0  0
 24 42  1  0  0  0  0
 25 29  2  0  0  0  0
 25 43  1  0  0  0  0
 26 27  1  0  0  0  0
 26 44  1  0  0  0  0
 27 45  1  0  0  0  0
 28 29  1  0  0  0  0
 28 46  1  0  0  0  0
M  END
> <DATABASE_ID>
DB08487

> <DATABASE_NAME>
drugbank

> <ORIGINAL_SOURCE>
PUBCHEM

> <ORIGINAL_SOURCE_URL>
https://pubchem.ncbi.nlm.nih.gov/rest/pug/compound/inchikey/PRMSFVUWLBPPLY-UHFFFAOYSA-N/SDF?record_type=3d

> <SMILES>
NC(=N)C1=CC(CN2CCN(CC2=O)S(=O)(=O)C2=CC3=C(S2)C=C(Cl)C=C3)=CC=C1

> <INCHI_IDENTIFIER>
InChI=1S/C20H19ClN4O3S2/c21-16-5-4-14-9-19(29-17(14)10-16)30(27,28)25-7-6-24(18(26)12-25)11-13-2-1-3-15(8-13)20(22)23/h1-5,8-10H,6-7,11-12H2,(H3,22,23)

> <INCHI_KEY>
PRMSFVUWLBPPLY-UHFFFAOYSA-N

> <FORMULA>
C20H19ClN4O3S2

> <MOLECULAR_WEIGHT>
462.973

> <EXACT_MASS>
462.058709581

> <JCHEM_ACCEPTOR_COUNT>
5

> <JCHEM_ATOM_COUNT>
49

> <JCHEM_AVERAGE_NEUTRAL_MICROSPECIES_CHARGE>
0.999961476598863

> <JCHEM_AVERAGE_POLARIZABILITY>
46.53046212257329

> <JCHEM_BIOAVAILABILITY>
1

> <JCHEM_DONOR_COUNT>
2

> <JCHEM_FORMAL_CHARGE>
0

> <JCHEM_GHOSE_FILTER>
1

> <JCHEM_IUPAC>
3-({4-[(6-chloro-1-benzothiophen-2-yl)sulfonyl]-2-oxopiperazin-1-yl}methyl)benzene-1-carboximidamide

> <ALOGPS_LOGP>
2.30

> <JCHEM_LOGP>
2.2645036356666663

> <ALOGPS_LOGS>
-4.64

> <JCHEM_MDDR_LIKE_RULE>
0

> <JCHEM_NEUTRAL_CHARGE>
1

> <JCHEM_NUMBER_OF_RINGS>
4

> <JCHEM_PHYSIOLOGICAL_CHARGE>
1

> <JCHEM_PKA_STRONGEST_ACIDIC>
17.007120947344365

> <JCHEM_PKA_STRONGEST_BASIC>
11.414258490441279

> <JCHEM_POLAR_SURFACE_AREA>
107.56

> <JCHEM_REFRACTIVITY>
127.3304

> <JCHEM_ROTATABLE_BOND_COUNT>
4

> <JCHEM_RULE_OF_FIVE>
1

> <ALOGPS_SOLUBILITY>
1.06e-02 g/l

> <JCHEM_TRADITIONAL_IUPAC>
biotin

> <JCHEM_VEBER_RULE>
0

$$$$
