236666
  -OEChem-10051719363D

 49 52  0     1  0  0  0  0  0999 V2000
   -5.1950   -1.0970   -0.2029 O   0  0  0  0  0  0  0  0  0  0  0  0
    5.7548   -0.0561   -0.5669 O   0  0  0  0  0  0  0  0  0  0  0  0
   -2.0344    0.7103   -0.3877 C   0  0  1  0  0  0  0  0  0  0  0  0
   -0.6345    0.7888    0.2312 C   0  0  1  0  0  0  0  0  0  0  0  0
   -2.8002   -0.5592    0.0311 C   0  0  2  0  0  0  0  0  0  0  0  0
    0.1927   -0.4561   -0.2405 C   0  0  1  0  0  0  0  0  0  0  0  0
    1.6668   -0.4156    0.3153 C   0  0  1  0  0  0  0  0  0  0  0  0
   -2.0222   -1.7752   -0.4856 C   0  0  0  0  0  0  0  0  0  0  0  0
   -0.5724   -1.7823    0.0341 C   0  0  0  0  0  0  0  0  0  0  0  0
   -4.1362   -0.2950   -0.6894 C   0  0  2  0  0  0  0  0  0  0  0  0
   -3.0334    1.8330   -0.1181 C   0  0  0  0  0  0  0  0  0  0  0  0
    0.0637    2.1050   -0.1371 C   0  0  0  0  0  0  0  0  0  0  0  0
    2.2927    0.9418   -0.1399 C   0  0  1  0  0  0  0  0  0  0  0  0
   -4.3990    1.2048   -0.4505 C   0  0  0  0  0  0  0  0  0  0  0  0
    1.5052    2.1553    0.3600 C   0  0  0  0  0  0  0  0  0  0  0  0
   -3.0308   -0.7027    1.5573 C   0  0  0  0  0  0  0  0  0  0  0  0
    1.6931   -0.5942    1.8520 C   0  0  0  0  0  0  0  0  0  0  0  0
    2.5344   -1.5284   -0.2595 C   0  0  0  0  0  0  0  0  0  0  0  0
    3.7771    1.0509    0.2152 C   0  0  0  0  0  0  0  0  0  0  0  0
    3.8306   -1.4031   -0.5741 C   0  0  0  0  0  0  0  0  0  0  0  0
    4.5472   -0.1251   -0.3439 C   0  0  0  0  0  0  0  0  0  0  0  0
   -1.8944    0.6870   -1.4818 H   0  0  0  0  0  0  0  0  0  0  0  0
   -0.7288    0.7703    1.3221 H   0  0  0  0  0  0  0  0  0  0  0  0
    0.2695   -0.3866   -1.3377 H   0  0  0  0  0  0  0  0  0  0  0  0
   -1.9984   -1.7684   -1.5830 H   0  0  0  0  0  0  0  0  0  0  0  0
   -2.5214   -2.7071   -0.1944 H   0  0  0  0  0  0  0  0  0  0  0  0
   -0.5804   -2.0037    1.1055 H   0  0  0  0  0  0  0  0  0  0  0  0
   -0.0596   -2.6208   -0.4485 H   0  0  0  0  0  0  0  0  0  0  0  0
   -4.0443   -0.4748   -1.7680 H   0  0  0  0  0  0  0  0  0  0  0  0
   -2.8391    2.7133   -0.7393 H   0  0  0  0  0  0  0  0  0  0  0  0
   -3.0051    2.1531    0.9294 H   0  0  0  0  0  0  0  0  0  0  0  0
   -0.4848    2.9547    0.2860 H   0  0  0  0  0  0  0  0  0  0  0  0
    0.0556    2.2366   -1.2267 H   0  0  0  0  0  0  0  0  0  0  0  0
    2.2407    0.9725   -1.2412 H   0  0  0  0  0  0  0  0  0  0  0  0
   -5.1142    1.3735    0.3623 H   0  0  0  0  0  0  0  0  0  0  0  0
   -4.8279    1.6588   -1.3509 H   0  0  0  0  0  0  0  0  0  0  0  0
    1.9710    3.0787   -0.0055 H   0  0  0  0  0  0  0  0  0  0  0  0
    1.5245    2.2110    1.4543 H   0  0  0  0  0  0  0  0  0  0  0  0
   -2.0978   -0.7305    2.1262 H   0  0  0  0  0  0  0  0  0  0  0  0
   -3.6282    0.1169    1.9688 H   0  0  0  0  0  0  0  0  0  0  0  0
   -3.5656   -1.6332    1.7809 H   0  0  0  0  0  0  0  0  0  0  0  0
    2.7109   -0.5350    2.2536 H   0  0  0  0  0  0  0  0  0  0  0  0
    1.1009    0.1614    2.3745 H   0  0  0  0  0  0  0  0  0  0  0  0
    1.3074   -1.5752    2.1509 H   0  0  0  0  0  0  0  0  0  0  0  0
    2.0916   -2.5109   -0.3920 H   0  0  0  0  0  0  0  0  0  0  0  0
    3.9422    1.1007    1.2958 H   0  0  0  0  0  0  0  0  0  0  0  0
    4.1905    1.9627   -0.2323 H   0  0  0  0  0  0  0  0  0  0  0  0
   -4.9481   -2.0261   -0.3480 H   0  0  0  0  0  0  0  0  0  0  0  0
    4.3984   -2.2400   -0.9640 H   0  0  0  0  0  0  0  0  0  0  0  0
  1 10  1  0  0  0  0
  1 48  1  0  0  0  0
  2 21  2  0  0  0  0
  3  4  1  0  0  0  0
  3  5  1  0  0  0  0
  3 11  1  0  0  0  0
  3 22  1  0  0  0  0
  4  6  1  0  0  0  0
  4 12  1  0  0  0  0
  4 23  1  0  0  0  0
  5  8  1  0  0  0  0
  5 10  1  0  0  0  0
  5 16  1  0  0  0  0
  6  7  1  0  0  0  0
  6  9  1  0  0  0  0
  6 24  1  0  0  0  0
  7 13  1  0  0  0  0
  7 17  1  0  0  0  0
  7 18  1  0  0  0  0
  8  9  1  0  0  0  0
  8 25  1  0  0  0  0
  8 26  1  0  0  0  0
  9 27  1  0  0  0  0
  9 28  1  0  0  0  0
 10 14  1  0  0  0  0
 10 29  1  0  0  0  0
 11 14  1  0  0  0  0
 11 30  1  0  0  0  0
 11 31  1  0  0  0  0
 12 15  1  0  0  0  0
 12 32  1  0  0  0  0
 12 33  1  0  0  0  0
 13 15  1  0  0  0  0
 13 19  1  0  0  0  0
 13 34  1  0  0  0  0
 14 35  1  0  0  0  0
 14 36  1  0  0  0  0
 15 37  1  0  0  0  0
 15 38  1  0  0  0  0
 16 39  1  0  0  0  0
 16 40  1  0  0  0  0
 16 41  1  0  0  0  0
 17 42  1  0  0  0  0
 17 43  1  0  0  0  0
 17 44  1  0  0  0  0
 18 20  2  0  0  0  0
 18 45  1  0  0  0  0
 19 21  1  0  0  0  0
 19 46  1  0  0  0  0
 19 47  1  0  0  0  0
 20 21  1  0  0  0  0
 20 49  1  0  0  0  0
M  END
> <DATABASE_ID>
DB01481

> <DATABASE_NAME>
drugbank

> <ORIGINAL_SOURCE>
PUBCHEM

> <ORIGINAL_SOURCE_URL>
https://pubchem.ncbi.nlm.nih.gov/rest/pug/compound/inchikey/OKJCFMUGMSVJBG-ABEVXSGRSA-N/SDF?record_type=3d

> <SMILES>
[H][C@@]12CC[C@H](O)[C@@]1(C)CC[C@@]1([H])[C@@]2([H])CC[C@@]2([H])CC(=O)C=C[C@]12C

> <INCHI_IDENTIFIER>
InChI=1S/C19H28O2/c1-18-9-7-13(20)11-12(18)3-4-14-15-5-6-17(21)19(15,2)10-8-16(14)18/h7,9,12,14-17,21H,3-6,8,10-11H2,1-2H3/t12-,14-,15-,16-,17-,18-,19-/m0/s1

> <INCHI_KEY>
OKJCFMUGMSVJBG-ABEVXSGRSA-N

> <FORMULA>
C19H28O2

> <MOLECULAR_WEIGHT>
288.4244

> <EXACT_MASS>
288.20893014

> <JCHEM_ACCEPTOR_COUNT>
2

> <JCHEM_ATOM_COUNT>
49

> <JCHEM_AVERAGE_NEUTRAL_MICROSPECIES_CHARGE>
1.3062794876096181e-08

> <JCHEM_AVERAGE_POLARIZABILITY>
33.91414256025034

> <JCHEM_BIOAVAILABILITY>
1

> <JCHEM_DONOR_COUNT>
1

> <JCHEM_FORMAL_CHARGE>
0

> <JCHEM_GHOSE_FILTER>
1

> <JCHEM_IUPAC>
(1S,3aS,3bR,5aS,9aR,9bS,11aS)-1-hydroxy-9a,11a-dimethyl-1H,2H,3H,3aH,3bH,4H,5H,5aH,6H,7H,9aH,9bH,10H,11H,11aH-cyclopenta[a]phenanthren-7-one

> <ALOGPS_LOGP>
3.38

> <JCHEM_LOGP>
3.4090811223333346

> <ALOGPS_LOGS>
-4.35

> <JCHEM_MDDR_LIKE_RULE>
0

> <JCHEM_NEUTRAL_CHARGE>
0

> <JCHEM_NUMBER_OF_RINGS>
4

> <JCHEM_PHYSIOLOGICAL_CHARGE>
0

> <JCHEM_PKA_STRONGEST_ACIDIC>
19.377705257051634

> <JCHEM_PKA_STRONGEST_BASIC>
-0.8839499503593189

> <JCHEM_POLAR_SURFACE_AREA>
37.3

> <JCHEM_REFRACTIVITY>
84.69639999999998

> <JCHEM_ROTATABLE_BOND_COUNT>
0

> <JCHEM_RULE_OF_FIVE>
1

> <ALOGPS_SOLUBILITY>
1.28e-02 g/l

> <JCHEM_TRADITIONAL_IUPAC>
biotin

> <JCHEM_VEBER_RULE>
1

$$$$
