26721
  -OEChem-10051719363D

 63 68  0     1  0  0  0  0  0999 V2000
   -1.3578   -1.8942    1.1038 O   0  0  0  0  0  0  0  0  0  0  0  0
    1.3407   -2.7155    0.2928 O   0  0  0  0  0  0  0  0  0  0  0  0
    2.9863   -0.8094   -2.0079 O   0  0  0  0  0  0  0  0  0  0  0  0
   -4.0264   -2.9401    0.6488 O   0  0  0  0  0  0  0  0  0  0  0  0
   -0.4613    3.2722    0.2364 N   0  0  2  0  0  0  0  0  0  0  0  0
   -0.6971    0.4295    0.6858 C   0  0  1  0  0  0  0  0  0  0  0  0
    0.0140    0.9959   -0.5771 C   0  0  1  0  0  0  0  0  0  0  0  0
   -0.2112   -0.9870    1.0576 C   0  0  2  0  0  0  0  0  0  0  0  0
    0.8811   -1.4043    0.0246 C   0  0  1  0  0  0  0  0  0  0  0  0
   -0.7158    2.3419   -0.8891 C   0  0  1  0  0  0  0  0  0  0  0  0
    1.5396    1.0670   -0.2766 C   0  0  0  0  0  0  0  0  0  0  0  0
    2.0483   -0.3558    0.1566 C   0  0  2  0  0  0  0  0  0  0  0  0
   -0.6498    1.4060    1.8758 C   0  0  0  0  0  0  0  0  0  0  0  0
   -2.0928    0.1215    0.2923 C   0  0  0  0  0  0  0  0  0  0  0  0
   -0.0677   -0.0387   -1.7140 C   0  0  0  0  0  0  0  0  0  0  0  0
   -2.2583    2.1248   -1.1855 C   0  0  0  0  0  0  0  0  0  0  0  0
    0.3414   -1.2771   -1.3865 C   0  0  0  0  0  0  0  0  0  0  0  0
   -1.0665    2.8348    1.4985 C   0  0  0  0  0  0  0  0  0  0  0  0
    3.3120   -0.7435   -0.6185 C   0  0  2  0  0  0  0  0  0  0  0  0
   -2.8827    0.9148   -0.5231 C   0  0  0  0  0  0  0  0  0  0  0  0
   -2.4220   -1.1745    0.6194 C   0  0  0  0  0  0  0  0  0  0  0  0
    4.4514    0.2782   -0.4345 C   0  0  0  0  0  0  0  0  0  0  0  0
   -0.8063    4.6566   -0.0701 C   0  0  0  0  0  0  0  0  0  0  0  0
   -4.1577    0.4368   -0.8246 C   0  0  0  0  0  0  0  0  0  0  0  0
    3.7872   -2.1316   -0.1789 C   0  0  0  0  0  0  0  0  0  0  0  0
   -3.6719   -1.6727    0.3230 C   0  0  0  0  0  0  0  0  0  0  0  0
   -4.5570   -0.8398   -0.3775 C   0  0  0  0  0  0  0  0  0  0  0  0
    0.3014   -3.6781    0.1534 C   0  0  0  0  0  0  0  0  0  0  0  0
    4.9618    0.4097    1.0055 C   0  0  0  0  0  0  0  0  0  0  0  0
    6.1371    1.3727    1.0897 C   0  0  0  0  0  0  0  0  0  0  0  0
    0.2222   -1.0196    2.0659 H   0  0  0  0  0  0  0  0  0  0  0  0
   -0.2590    2.7754   -1.7894 H   0  0  0  0  0  0  0  0  0  0  0  0
    1.7684    1.7780    0.5253 H   0  0  0  0  0  0  0  0  0  0  0  0
    2.0477    1.4586   -1.1643 H   0  0  0  0  0  0  0  0  0  0  0  0
    2.3085   -0.3109    1.2230 H   0  0  0  0  0  0  0  0  0  0  0  0
    0.3686    1.4364    2.2837 H   0  0  0  0  0  0  0  0  0  0  0  0
   -1.2921    1.0551    2.6943 H   0  0  0  0  0  0  0  0  0  0  0  0
   -0.4111    0.2187   -2.7078 H   0  0  0  0  0  0  0  0  0  0  0  0
   -2.3525    1.9786   -2.2705 H   0  0  0  0  0  0  0  0  0  0  0  0
   -2.8497    3.0140   -0.9461 H   0  0  0  0  0  0  0  0  0  0  0  0
    0.3676   -2.0763   -2.1164 H   0  0  0  0  0  0  0  0  0  0  0  0
   -2.1605    2.9043    1.4587 H   0  0  0  0  0  0  0  0  0  0  0  0
   -0.7480    3.5008    2.3104 H   0  0  0  0  0  0  0  0  0  0  0  0
    4.1632    1.2670   -0.8097 H   0  0  0  0  0  0  0  0  0  0  0  0
    5.2889   -0.0163   -1.0833 H   0  0  0  0  0  0  0  0  0  0  0  0
   -1.8839    4.8178   -0.1716 H   0  0  0  0  0  0  0  0  0  0  0  0
   -0.3189    4.9833   -0.9951 H   0  0  0  0  0  0  0  0  0  0  0  0
   -0.4422    5.3207    0.7220 H   0  0  0  0  0  0  0  0  0  0  0  0
   -4.8296    1.0166   -1.4514 H   0  0  0  0  0  0  0  0  0  0  0  0
    3.7067   -2.2968    0.9004 H   0  0  0  0  0  0  0  0  0  0  0  0
    4.8495   -2.2561   -0.4297 H   0  0  0  0  0  0  0  0  0  0  0  0
    3.3093   -2.9410   -0.7403 H   0  0  0  0  0  0  0  0  0  0  0  0
    3.0074    0.0858   -2.3840 H   0  0  0  0  0  0  0  0  0  0  0  0
   -5.5479   -1.2036   -0.6401 H   0  0  0  0  0  0  0  0  0  0  0  0
    0.7820   -4.6117   -0.1595 H   0  0  0  0  0  0  0  0  0  0  0  0
   -0.4677   -3.4626   -0.5922 H   0  0  0  0  0  0  0  0  0  0  0  0
   -0.1401   -3.8912    1.1315 H   0  0  0  0  0  0  0  0  0  0  0  0
    5.2835   -0.5609    1.3962 H   0  0  0  0  0  0  0  0  0  0  0  0
    4.1678    0.7817    1.6607 H   0  0  0  0  0  0  0  0  0  0  0  0
   -3.2779   -3.3582    1.1092 H   0  0  0  0  0  0  0  0  0  0  0  0
    5.8514    2.3712    0.7437 H   0  0  0  0  0  0  0  0  0  0  0  0
    6.9753    1.0232    0.4785 H   0  0  0  0  0  0  0  0  0  0  0  0
    6.4837    1.4581    2.1243 H   0  0  0  0  0  0  0  0  0  0  0  0
  1  8  1  0  0  0  0
  1 21  1  0  0  0  0
  2  9  1  0  0  0  0
  2 28  1  0  0  0  0
  3 19  1  0  0  0  0
  3 53  1  0  0  0  0
  4 26  1  0  0  0  0
  4 60  1  0  0  0  0
  5 10  1  0  0  0  0
  5 18  1  0  0  0  0
  5 23  1  0  0  0  0
  6  7  1  0  0  0  0
  6  8  1  0  0  0  0
  6 13  1  0  0  0  0
  6 14  1  0  0  0  0
  7 10  1  0  0  0  0
  7 11  1  0  0  0  0
  7 15  1  0  0  0  0
  8  9  1  0  0  0  0
  8 31  1  0  0  0  0
  9 12  1  0  0  0  0
  9 17  1  0  0  0  0
 10 16  1  0  0  0  0
 10 32  1  0  0  0  0
 11 12  1  0  0  0  0
 11 33  1  0  0  0  0
 11 34  1  0  0  0  0
 12 19  1  0  0  0  0
 12 35  1  0  0  0  0
 13 18  1  0  0  0  0
 13 36  1  0  0  0  0
 13 37  1  0  0  0  0
 14 20  2  0  0  0  0
 14 21  1  0  0  0  0
 15 17  2  0  0  0  0
 15 38  1  0  0  0  0
 16 20  1  0  0  0  0
 16 39  1  0  0  0  0
 16 40  1  0  0  0  0
 17 41  1  0  0  0  0
 18 42  1  0  0  0  0
 18 43  1  0  0  0  0
 19 22  1  0  0  0  0
 19 25  1  0  0  0  0
 20 24  1  0  0  0  0
 21 26  2  0  0  0  0
 22 29  1  0  0  0  0
 22 44  1  0  0  0  0
 22 45  1  0  0  0  0
 23 46  1  0  0  0  0
 23 47  1  0  0  0  0
 23 48  1  0  0  0  0
 24 27  2  0  0  0  0
 24 49  1  0  0  0  0
 25 50  1  0  0  0  0
 25 51  1  0  0  0  0
 25 52  1  0  0  0  0
 26 27  1  0  0  0  0
 27 54  1  0  0  0  0
 28 55  1  0  0  0  0
 28 56  1  0  0  0  0
 28 57  1  0  0  0  0
 29 30  1  0  0  0  0
 29 58  1  0  0  0  0
 29 59  1  0  0  0  0
 30 61  1  0  0  0  0
 30 62  1  0  0  0  0
 30 63  1  0  0  0  0
M  END
> <DATABASE_ID>
DB01497

> <DATABASE_NAME>
drugbank

> <ORIGINAL_SOURCE>
PUBCHEM

> <ORIGINAL_SOURCE_URL>
https://pubchem.ncbi.nlm.nih.gov/rest/pug/compound/inchikey/CAHCBJPUTCKATP-HBDRVVKHSA-N/SDF?record_type=3d

> <SMILES>
[H][C@]12CC3=C4C(OC5[C@@]4(CCN1C)[C@]21CC(C(C)(O)CCC)C5(OC)C=C1)=C(O)C=C3

> <INCHI_IDENTIFIER>
InChI=1S/C25H33NO4/c1-5-8-22(2,28)17-14-23-9-10-25(17,29-4)21-24(23)11-12-26(3)18(23)13-15-6-7-16(27)20(30-21)19(15)24/h6-7,9-10,17-18,21,27-28H,5,8,11-14H2,1-4H3/t17?,18-,21?,22?,23-,24+,25?/m1/s1

> <INCHI_KEY>
CAHCBJPUTCKATP-HBDRVVKHSA-N

> <FORMULA>
C25H33NO4

> <MOLECULAR_WEIGHT>
411.5338

> <EXACT_MASS>
411.240958549

> <JCHEM_ACCEPTOR_COUNT>
5

> <JCHEM_ATOM_COUNT>
63

> <JCHEM_AVERAGE_NEUTRAL_MICROSPECIES_CHARGE>
0.9892377108685508

> <JCHEM_AVERAGE_POLARIZABILITY>
45.53652157059129

> <JCHEM_BIOAVAILABILITY>
1

> <JCHEM_DONOR_COUNT>
2

> <JCHEM_FORMAL_CHARGE>
0

> <JCHEM_GHOSE_FILTER>
1

> <JCHEM_IUPAC>
(1R,2R,6S)-19-(2-hydroxypentan-2-yl)-15-methoxy-3-methyl-13-oxa-3-azahexacyclo[13.2.2.1^{2,8}.0^{1,6}.0^{6,14}.0^{7,12}]icosa-7,9,11,16-tetraen-11-ol

> <ALOGPS_LOGP>
3.29

> <JCHEM_LOGP>
2.4724506300221645

> <ALOGPS_LOGS>
-3.56

> <JCHEM_MDDR_LIKE_RULE>
0

> <JCHEM_NEUTRAL_CHARGE>
1

> <JCHEM_NUMBER_OF_RINGS>
6

> <JCHEM_PHYSIOLOGICAL_CHARGE>
1

> <JCHEM_PKA>
14.683286929100834

> <JCHEM_PKA_STRONGEST_ACIDIC>
10.21317258381575

> <JCHEM_PKA_STRONGEST_BASIC>
8.991996311596711

> <JCHEM_POLAR_SURFACE_AREA>
62.160000000000004

> <JCHEM_REFRACTIVITY>
116.5142

> <JCHEM_ROTATABLE_BOND_COUNT>
4

> <JCHEM_RULE_OF_FIVE>
1

> <ALOGPS_SOLUBILITY>
1.12e-01 g/l

> <JCHEM_TRADITIONAL_IUPAC>
biotin

> <JCHEM_VEBER_RULE>
0

$$$$
