15818
  -OEChem-04081919023D

 53 56  0     1  0  0  0  0  0999 V2000
   -5.1541   -1.1049   -0.3292 O   0  0  0  0  0  0  0  0  0  0  0  0
    4.7125    0.0442   -1.6721 O   0  0  0  0  0  0  0  0  0  0  0  0
    0.2339   -0.4380   -0.2108 C   0  0  1  0  0  0  0  0  0  0  0  0
   -0.5992    0.7888    0.2868 C   0  0  2  0  0  0  0  0  0  0  0  0
   -1.9886    0.7264   -0.3563 C   0  0  1  0  0  0  0  0  0  0  0  0
    1.7006   -0.4224    0.3616 C   0  0  2  0  0  0  0  0  0  0  0  0
   -2.7547   -0.5618    0.0061 C   0  0  2  0  0  0  0  0  0  0  0  0
    2.3443    0.9425   -0.0439 C   0  0  1  0  0  0  0  0  0  0  0  0
   -0.5219   -1.7780   -0.0045 C   0  0  0  0  0  0  0  0  0  0  0  0
   -1.9645   -1.7567   -0.5433 C   0  0  0  0  0  0  0  0  0  0  0  0
    0.1098    2.1123   -0.0339 C   0  0  0  0  0  0  0  0  0  0  0  0
   -2.9964    1.8354   -0.0635 C   0  0  0  0  0  0  0  0  0  0  0  0
   -4.0805   -0.2745   -0.7275 C   0  0  2  0  0  0  0  0  0  0  0  0
    1.5474    2.1430    0.4800 C   0  0  0  0  0  0  0  0  0  0  0  0
    2.5516   -1.5545   -0.2806 C   0  0  0  0  0  0  0  0  0  0  0  0
   -4.3544    1.2157   -0.4413 C   0  0  0  0  0  0  0  0  0  0  0  0
    3.8291    1.0438    0.3447 C   0  0  0  0  0  0  0  0  0  0  0  0
    1.6927   -0.6290    1.8982 C   0  0  0  0  0  0  0  0  0  0  0  0
   -3.0000   -0.7602    1.5233 C   0  0  0  0  0  0  0  0  0  0  0  0
    4.0454   -1.4697    0.0601 C   0  0  0  0  0  0  0  0  0  0  0  0
    4.6470   -0.1025   -0.2537 C   0  0  1  0  0  0  0  0  0  0  0  0
    0.3277   -0.3251   -1.3029 H   0  0  0  0  0  0  0  0  0  0  0  0
   -0.7129    0.7404    1.3745 H   0  0  0  0  0  0  0  0  0  0  0  0
   -1.8313    0.7418   -1.4481 H   0  0  0  0  0  0  0  0  0  0  0  0
    2.3080    1.0075   -1.1425 H   0  0  0  0  0  0  0  0  0  0  0  0
   -0.5415   -2.0467    1.0559 H   0  0  0  0  0  0  0  0  0  0  0  0
    0.0097   -2.5874   -0.5169 H   0  0  0  0  0  0  0  0  0  0  0  0
   -1.9251   -1.7096   -1.6394 H   0  0  0  0  0  0  0  0  0  0  0  0
   -2.4654   -2.6998   -0.2936 H   0  0  0  0  0  0  0  0  0  0  0  0
   -0.4410    2.9511    0.4076 H   0  0  0  0  0  0  0  0  0  0  0  0
    0.1148    2.2762   -1.1193 H   0  0  0  0  0  0  0  0  0  0  0  0
   -2.7947    2.7383   -0.6488 H   0  0  0  0  0  0  0  0  0  0  0  0
   -2.9868    2.1172    0.9953 H   0  0  0  0  0  0  0  0  0  0  0  0
   -3.9523   -0.4103   -1.8088 H   0  0  0  0  0  0  0  0  0  0  0  0
    2.0184    3.0759    0.1467 H   0  0  0  0  0  0  0  0  0  0  0  0
    1.5541    2.1679    1.5756 H   0  0  0  0  0  0  0  0  0  0  0  0
    2.4382   -1.5221   -1.3722 H   0  0  0  0  0  0  0  0  0  0  0  0
    2.1879   -2.5383    0.0388 H   0  0  0  0  0  0  0  0  0  0  0  0
   -5.0840    1.3593    0.3634 H   0  0  0  0  0  0  0  0  0  0  0  0
   -4.7684    1.6985   -1.3338 H   0  0  0  0  0  0  0  0  0  0  0  0
    4.2257    1.9985   -0.0232 H   0  0  0  0  0  0  0  0  0  0  0  0
    3.9428    1.0545    1.4342 H   0  0  0  0  0  0  0  0  0  0  0  0
    1.3351   -1.6298    2.1619 H   0  0  0  0  0  0  0  0  0  0  0  0
    2.6897   -0.5336    2.3371 H   0  0  0  0  0  0  0  0  0  0  0  0
    1.0559    0.0906    2.4184 H   0  0  0  0  0  0  0  0  0  0  0  0
   -3.5342   -1.6996    1.7074 H   0  0  0  0  0  0  0  0  0  0  0  0
   -2.0729   -0.8068    2.1004 H   0  0  0  0  0  0  0  0  0  0  0  0
   -3.6029    0.0436    1.9576 H   0  0  0  0  0  0  0  0  0  0  0  0
    4.1969   -1.7026    1.1199 H   0  0  0  0  0  0  0  0  0  0  0  0
    4.5715   -2.2437   -0.5122 H   0  0  0  0  0  0  0  0  0  0  0  0
    5.6753   -0.0619    0.1221 H   0  0  0  0  0  0  0  0  0  0  0  0
   -5.4172   -0.8599    0.5734 H   0  0  0  0  0  0  0  0  0  0  0  0
    5.1192    0.9074   -1.8591 H   0  0  0  0  0  0  0  0  0  0  0  0
  1 13  1  0  0  0  0
  1 52  1  0  0  0  0
  2 21  1  0  0  0  0
  2 53  1  0  0  0  0
  3  4  1  0  0  0  0
  3  6  1  0  0  0  0
  3  9  1  0  0  0  0
  3 22  1  0  0  0  0
  4  5  1  0  0  0  0
  4 11  1  0  0  0  0
  4 23  1  0  0  0  0
  5  7  1  0  0  0  0
  5 12  1  0  0  0  0
  5 24  1  0  0  0  0
  6  8  1  0  0  0  0
  6 15  1  0  0  0  0
  6 18  1  0  0  0  0
  7 10  1  0  0  0  0
  7 13  1  0  0  0  0
  7 19  1  0  0  0  0
  8 14  1  0  0  0  0
  8 17  1  0  0  0  0
  8 25  1  0  0  0  0
  9 10  1  0  0  0  0
  9 26  1  0  0  0  0
  9 27  1  0  0  0  0
 10 28  1  0  0  0  0
 10 29  1  0  0  0  0
 11 14  1  0  0  0  0
 11 30  1  0  0  0  0
 11 31  1  0  0  0  0
 12 16  1  0  0  0  0
 12 32  1  0  0  0  0
 12 33  1  0  0  0  0
 13 16  1  0  0  0  0
 13 34  1  0  0  0  0
 14 35  1  0  0  0  0
 14 36  1  0  0  0  0
 15 20  1  0  0  0  0
 15 37  1  0  0  0  0
 15 38  1  0  0  0  0
 16 39  1  0  0  0  0
 16 40  1  0  0  0  0
 17 21  1  0  0  0  0
 17 41  1  0  0  0  0
 17 42  1  0  0  0  0
 18 43  1  0  0  0  0
 18 44  1  0  0  0  0
 18 45  1  0  0  0  0
 19 46  1  0  0  0  0
 19 47  1  0  0  0  0
 19 48  1  0  0  0  0
 20 21  1  0  0  0  0
 20 49  1  0  0  0  0
 20 50  1  0  0  0  0
 21 51  1  0  0  0  0
M  END
> <DATABASE_ID>
DB01530

> <DATABASE_NAME>
drugbank

> <ORIGINAL_SOURCE>
PUBCHEM

> <ORIGINAL_SOURCE_URL>
https://pubchem.ncbi.nlm.nih.gov/rest/pug/compound/inchikey/CBMYJHIOYJEBSB-KHOSGYARSA-N/SDF?record_type=3d

> <SMILES>
[H][C@]1(O)CC[C@@]2([H])[C@]3([H])CC[C@@]4([H])C[C@]([H])(O)CC[C@]4(C)[C@@]3([H])CC[C@]12C

> <INCHI_IDENTIFIER>
InChI=1S/C19H32O2/c1-18-9-7-13(20)11-12(18)3-4-14-15-5-6-17(21)19(15,2)10-8-16(14)18/h12-17,20-21H,3-11H2,1-2H3/t12-,13+,14-,15-,16-,17-,18-,19-/m0/s1

> <INCHI_KEY>
CBMYJHIOYJEBSB-KHOSGYARSA-N

> <FORMULA>
C19H32O2

> <MOLECULAR_WEIGHT>
292.4562

> <EXACT_MASS>
292.240230268

> <JCHEM_ACCEPTOR_COUNT>
2

> <JCHEM_ATOM_COUNT>
53

> <JCHEM_AVERAGE_POLARIZABILITY>
35.24736542564138

> <JCHEM_BIOAVAILABILITY>
1

> <JCHEM_DONOR_COUNT>
2

> <JCHEM_FORMAL_CHARGE>
0

> <JCHEM_GHOSE_FILTER>
1

> <JCHEM_IUPAC>
(1S,3aS,3bR,5aS,7R,9aS,9bS,11aS)-9a,11a-dimethyl-hexadecahydro-1H-cyclopenta[a]phenanthrene-1,7-diol

> <ALOGPS_LOGP>
3.56

> <JCHEM_LOGP>
3.2037568309999997

> <ALOGPS_LOGS>
-4.18

> <JCHEM_MDDR_LIKE_RULE>
0

> <JCHEM_NUMBER_OF_RINGS>
4

> <JCHEM_PHYSIOLOGICAL_CHARGE>
0

> <JCHEM_PKA>
19.377705356554483

> <JCHEM_PKA_STRONGEST_ACIDIC>
18.2963963211217

> <JCHEM_PKA_STRONGEST_BASIC>
-0.7580100340749988

> <JCHEM_POLAR_SURFACE_AREA>
40.46

> <JCHEM_REFRACTIVITY>
84.63119999999999

> <JCHEM_ROTATABLE_BOND_COUNT>
0

> <JCHEM_RULE_OF_FIVE>
1

> <ALOGPS_SOLUBILITY>
1.93e-02 g/l

> <JCHEM_TRADITIONAL_IUPAC>
6-acetyl-2-({5-[(2-aminoethyl)amino]pyridin-2-yl}amino)-8-cyclopentyl-5-methylpyrido[2,3-d]pyrimidin-7-one

> <JCHEM_VEBER_RULE>
0

$$$$
