3033968
  -OEChem-10051720513D

 49 52  0     1  0  0  0  0  0999 V2000
   -4.6191    0.6254   -0.4908 O   0  0  0  0  0  0  0  0  0  0  0  0
    6.1982    0.1384    0.8871 O   0  0  0  0  0  0  0  0  0  0  0  0
   -2.1737    0.3433   -0.2533 C   0  0  2  0  0  0  0  0  0  0  0  0
    0.0634   -0.8722   -0.4892 C   0  0  1  0  0  0  0  0  0  0  0  0
   -1.3547   -0.9338    0.0860 C   0  0  2  0  0  0  0  0  0  0  0  0
    0.8002    0.3419    0.1579 C   0  0  2  0  0  0  0  0  0  0  0  0
   -1.4941    1.5249    0.4579 C   0  0  0  0  0  0  0  0  0  0  0  0
   -0.0127    1.6606    0.0506 C   0  0  0  0  0  0  0  0  0  0  0  0
    2.2468    0.4839   -0.4074 C   0  0  2  0  0  0  0  0  0  0  0  0
   -3.6056   -0.0717    0.2181 C   0  0  2  0  0  0  0  0  0  0  0  0
    0.8552   -2.1579   -0.2133 C   0  0  0  0  0  0  0  0  0  0  0  0
   -2.2235    0.6635   -1.7858 C   0  0  0  0  0  0  0  0  0  0  0  0
   -2.3341   -2.0049   -0.2887 C   0  0  0  0  0  0  0  0  0  0  0  0
    3.0004   -0.8376   -0.3256 C   0  0  0  0  0  0  0  0  0  0  0  0
    2.2587   -2.0620   -0.8021 C   0  0  0  0  0  0  0  0  0  0  0  0
   -3.5878   -1.5382   -0.1622 C   0  0  0  0  0  0  0  0  0  0  0  0
    3.0007    1.6178    0.3176 C   0  0  0  0  0  0  0  0  0  0  0  0
   -2.9796    1.9406   -2.0191 C   0  0  0  0  0  0  0  0  0  0  0  0
    4.4938    1.5962    0.0419 C   0  0  0  0  0  0  0  0  0  0  0  0
    4.2689   -0.9501    0.1000 C   0  0  0  0  0  0  0  0  0  0  0  0
   -3.8399    0.0634    1.6632 C   0  0  0  0  0  0  0  0  0  0  0  0
    5.0700    0.2551    0.4142 C   0  0  0  0  0  0  0  0  0  0  0  0
   -4.0315    0.1733    2.8431 C   0  0  0  0  0  0  0  0  0  0  0  0
    0.0296   -0.7471   -1.5773 H   0  0  0  0  0  0  0  0  0  0  0  0
   -1.2363   -1.0230    1.1789 H   0  0  0  0  0  0  0  0  0  0  0  0
    0.8891    0.1265    1.2346 H   0  0  0  0  0  0  0  0  0  0  0  0
   -1.5065    1.3585    1.5430 H   0  0  0  0  0  0  0  0  0  0  0  0
   -2.0036    2.4812    0.3142 H   0  0  0  0  0  0  0  0  0  0  0  0
    0.0577    2.0547   -0.9696 H   0  0  0  0  0  0  0  0  0  0  0  0
    0.4352    2.4220    0.6999 H   0  0  0  0  0  0  0  0  0  0  0  0
    2.1778    0.7471   -1.4724 H   0  0  0  0  0  0  0  0  0  0  0  0
    0.3475   -3.0212   -0.6582 H   0  0  0  0  0  0  0  0  0  0  0  0
    0.9159   -2.3437    0.8667 H   0  0  0  0  0  0  0  0  0  0  0  0
   -2.7000   -0.1502   -2.3462 H   0  0  0  0  0  0  0  0  0  0  0  0
   -1.2279    0.7689   -2.2253 H   0  0  0  0  0  0  0  0  0  0  0  0
   -2.0844   -3.0287   -0.5220 H   0  0  0  0  0  0  0  0  0  0  0  0
    2.1891   -2.0185   -1.8967 H   0  0  0  0  0  0  0  0  0  0  0  0
    2.8068   -2.9808   -0.5605 H   0  0  0  0  0  0  0  0  0  0  0  0
   -4.4755   -2.1365   -0.3141 H   0  0  0  0  0  0  0  0  0  0  0  0
    2.8403    1.5346    1.4012 H   0  0  0  0  0  0  0  0  0  0  0  0
    2.6037    2.5919    0.0097 H   0  0  0  0  0  0  0  0  0  0  0  0
   -3.7694    1.7806   -2.7629 H   0  0  0  0  0  0  0  0  0  0  0  0
   -3.4344    2.4330   -1.1578 H   0  0  0  0  0  0  0  0  0  0  0  0
   -2.3051    2.6842   -2.4624 H   0  0  0  0  0  0  0  0  0  0  0  0
    4.9864    2.3699    0.6407 H   0  0  0  0  0  0  0  0  0  0  0  0
    4.7075    1.7885   -1.0150 H   0  0  0  0  0  0  0  0  0  0  0  0
    4.7749   -1.9074    0.1609 H   0  0  0  0  0  0  0  0  0  0  0  0
   -5.4728    0.1982   -0.3039 H   0  0  0  0  0  0  0  0  0  0  0  0
   -4.2007    0.2710    3.8899 H   0  0  0  0  0  0  0  0  0  0  0  0
  1 10  1  0  0  0  0
  1 48  1  0  0  0  0
  2 22  2  0  0  0  0
  3  5  1  0  0  0  0
  3  7  1  0  0  0  0
  3 10  1  0  0  0  0
  3 12  1  0  0  0  0
  4  5  1  0  0  0  0
  4  6  1  0  0  0  0
  4 11  1  0  0  0  0
  4 24  1  0  0  0  0
  5 13  1  0  0  0  0
  5 25  1  0  0  0  0
  6  8  1  0  0  0  0
  6  9  1  0  0  0  0
  6 26  1  0  0  0  0
  7  8  1  0  0  0  0
  7 27  1  0  0  0  0
  7 28  1  0  0  0  0
  8 29  1  0  0  0  0
  8 30  1  0  0  0  0
  9 14  1  0  0  0  0
  9 17  1  0  0  0  0
  9 31  1  0  0  0  0
 10 16  1  0  0  0  0
 10 21  1  0  0  0  0
 11 15  1  0  0  0  0
 11 32  1  0  0  0  0
 11 33  1  0  0  0  0
 12 18  1  0  0  0  0
 12 34  1  0  0  0  0
 12 35  1  0  0  0  0
 13 16  2  0  0  0  0
 13 36  1  0  0  0  0
 14 15  1  0  0  0  0
 14 20  2  0  0  0  0
 15 37  1  0  0  0  0
 15 38  1  0  0  0  0
 16 39  1  0  0  0  0
 17 19  1  0  0  0  0
 17 40  1  0  0  0  0
 17 41  1  0  0  0  0
 18 42  1  0  0  0  0
 18 43  1  0  0  0  0
 18 44  1  0  0  0  0
 19 22  1  0  0  0  0
 19 45  1  0  0  0  0
 19 46  1  0  0  0  0
 20 22  1  0  0  0  0
 20 47  1  0  0  0  0
 21 23  3  0  0  0  0
 23 49  1  0  0  0  0
M  END
> <DATABASE_ID>
DB06730

> <DATABASE_NAME>
drugbank

> <ORIGINAL_SOURCE>
PUBCHEM

> <ORIGINAL_SOURCE_URL>
https://pubchem.ncbi.nlm.nih.gov/rest/pug/compound/inchikey/SIGSPDASOTUPFS-XUDSTZEESA-N/SDF?record_type=3d

> <SMILES>
CC[C@]12CC[C@H]3[C@@H](CCC4=CC(=O)CC[C@H]34)[C@@H]1C=C[C@@]2(O)C#C

> <INCHI_IDENTIFIER>
InChI=1S/C21H26O2/c1-3-20-11-9-17-16-8-6-15(22)13-14(16)5-7-18(17)19(20)10-12-21(20,23)4-2/h2,10,12-13,16-19,23H,3,5-9,11H2,1H3/t16-,17+,18+,19-,20-,21-/m0/s1

> <INCHI_KEY>
SIGSPDASOTUPFS-XUDSTZEESA-N

> <FORMULA>
C21H26O2

> <MOLECULAR_WEIGHT>
310.4299

> <EXACT_MASS>
310.193280076

> <JCHEM_ACCEPTOR_COUNT>
2

> <JCHEM_ATOM_COUNT>
49

> <JCHEM_AVERAGE_NEUTRAL_MICROSPECIES_CHARGE>
1.20384832070083e-09

> <JCHEM_AVERAGE_POLARIZABILITY>
35.96169557864677

> <JCHEM_BIOAVAILABILITY>
1

> <JCHEM_DONOR_COUNT>
1

> <JCHEM_FORMAL_CHARGE>
0

> <JCHEM_GHOSE_FILTER>
1

> <JCHEM_IUPAC>
(1R,3aS,3bR,9aR,9bS,11aS)-11a-ethyl-1-ethynyl-1-hydroxy-1H,3aH,3bH,4H,5H,7H,8H,9H,9aH,9bH,10H,11H,11aH-cyclopenta[a]phenanthren-7-one

> <ALOGPS_LOGP>
3.15

> <JCHEM_LOGP>
3.455782405666666

> <ALOGPS_LOGS>
-4.73

> <JCHEM_MDDR_LIKE_RULE>
0

> <JCHEM_NEUTRAL_CHARGE>
0

> <JCHEM_NUMBER_OF_RINGS>
4

> <JCHEM_PHYSIOLOGICAL_CHARGE>
0

> <JCHEM_PKA>
18.231802607407875

> <JCHEM_PKA_STRONGEST_ACIDIC>
17.083543560554844

> <JCHEM_PKA_STRONGEST_BASIC>
-1.8868319681468224

> <JCHEM_POLAR_SURFACE_AREA>
37.3

> <JCHEM_REFRACTIVITY>
92.98809999999999

> <JCHEM_ROTATABLE_BOND_COUNT>
1

> <JCHEM_RULE_OF_FIVE>
1

> <ALOGPS_SOLUBILITY>
5.81e-03 g/l

> <JCHEM_TRADITIONAL_IUPAC>
biotin

> <JCHEM_VEBER_RULE>
1

$$$$
