119202
  -OEChem-10051721243D

 60 63  0     1  0  0  0  0  0999 V2000
   -3.1085    0.1107    0.0102 O   0  0  0  0  0  0  0  0  0  0  0  0
    7.6583    0.5834    1.2269 O   0  0  0  0  0  0  0  0  0  0  0  0
   -4.4093   -1.3230    1.2638 O   0  0  0  0  0  0  0  0  0  0  0  0
   -9.1250    0.5573    0.4277 O   0  0  0  0  0  0  0  0  0  0  0  0
   -7.7238    1.8127   -0.8462 O   0  0  0  0  0  0  0  0  0  0  0  0
    0.3066   -1.1613    0.1053 C   0  0  2  0  0  0  0  0  0  0  0  0
   -0.6545    0.0033   -0.2009 C   0  0  2  0  0  0  0  0  0  0  0  0
    1.7063   -0.9409   -0.4764 C   0  0  1  0  0  0  0  0  0  0  0  0
    2.3058    0.3638    0.1372 C   0  0  1  0  0  0  0  0  0  0  0  0
    3.7713    0.6598   -0.3661 C   0  0  2  0  0  0  0  0  0  0  0  0
   -0.0977    1.2664    0.4677 C   0  0  0  0  0  0  0  0  0  0  0  0
    1.3358    1.5700   -0.0042 C   0  0  0  0  0  0  0  0  0  0  0  0
   -1.9380   -0.5547    0.4436 C   0  0  2  0  0  0  0  0  0  0  0  0
   -0.4867   -2.3968   -0.3128 C   0  0  0  0  0  0  0  0  0  0  0  0
    2.6276   -2.1319   -0.1845 C   0  0  0  0  0  0  0  0  0  0  0  0
   -1.9428   -2.0418    0.0391 C   0  0  0  0  0  0  0  0  0  0  0  0
    4.6277   -0.6050   -0.2221 C   0  0  0  0  0  0  0  0  0  0  0  0
   -0.8830    0.2739   -1.7099 C   0  0  0  0  0  0  0  0  0  0  0  0
    4.0275   -1.8928   -0.7351 C   0  0  0  0  0  0  0  0  0  0  0  0
    4.3646    1.8061    0.5041 C   0  0  0  0  0  0  0  0  0  0  0  0
    3.7970    1.0928   -1.8495 C   0  0  0  0  0  0  0  0  0  0  0  0
    5.8746    1.9414    0.3872 C   0  0  0  0  0  0  0  0  0  0  0  0
    5.8641   -0.6191    0.3037 C   0  0  0  0  0  0  0  0  0  0  0  0
    6.5447    0.6321    0.7087 C   0  0  0  0  0  0  0  0  0  0  0  0
   -4.2973   -0.3758    0.4981 C   0  0  0  0  0  0  0  0  0  0  0  0
   -5.4423    0.4407   -0.0614 C   0  0  0  0  0  0  0  0  0  0  0  0
   -6.7999    0.0268    0.4938 C   0  0  0  0  0  0  0  0  0  0  0  0
   -7.9030    0.9019   -0.0480 C   0  0  0  0  0  0  0  0  0  0  0  0
    0.4264   -1.2348    1.1995 H   0  0  0  0  0  0  0  0  0  0  0  0
    1.6317   -0.8380   -1.5645 H   0  0  0  0  0  0  0  0  0  0  0  0
    2.3825    0.1762    1.2209 H   0  0  0  0  0  0  0  0  0  0  0  0
   -0.0854    1.1413    1.5583 H   0  0  0  0  0  0  0  0  0  0  0  0
   -0.7438    2.1289    0.2640 H   0  0  0  0  0  0  0  0  0  0  0  0
    1.3029    1.9106   -1.0438 H   0  0  0  0  0  0  0  0  0  0  0  0
    1.7046    2.4170    0.5848 H   0  0  0  0  0  0  0  0  0  0  0  0
   -1.8689   -0.4706    1.5374 H   0  0  0  0  0  0  0  0  0  0  0  0
   -0.1564   -3.2956    0.2180 H   0  0  0  0  0  0  0  0  0  0  0  0
   -0.3897   -2.5913   -1.3867 H   0  0  0  0  0  0  0  0  0  0  0  0
    2.2222   -3.0435   -0.6388 H   0  0  0  0  0  0  0  0  0  0  0  0
    2.6815   -2.3124    0.8970 H   0  0  0  0  0  0  0  0  0  0  0  0
   -2.6022   -2.2461   -0.8121 H   0  0  0  0  0  0  0  0  0  0  0  0
   -2.2846   -2.6666    0.8719 H   0  0  0  0  0  0  0  0  0  0  0  0
   -1.3295   -0.5825   -2.2251 H   0  0  0  0  0  0  0  0  0  0  0  0
   -1.5627    1.1225   -1.8502 H   0  0  0  0  0  0  0  0  0  0  0  0
    0.0408    0.5165   -2.2415 H   0  0  0  0  0  0  0  0  0  0  0  0
    3.9893   -1.8555   -1.8308 H   0  0  0  0  0  0  0  0  0  0  0  0
    4.6561   -2.7548   -0.4798 H   0  0  0  0  0  0  0  0  0  0  0  0
    4.1217    1.6259    1.5608 H   0  0  0  0  0  0  0  0  0  0  0  0
    3.9090    2.7683    0.2411 H   0  0  0  0  0  0  0  0  0  0  0  0
    3.2662    0.3879   -2.4969 H   0  0  0  0  0  0  0  0  0  0  0  0
    3.3384    2.0771   -1.9905 H   0  0  0  0  0  0  0  0  0  0  0  0
    4.8226    1.1623   -2.2307 H   0  0  0  0  0  0  0  0  0  0  0  0
    6.2236    2.6952    1.1016 H   0  0  0  0  0  0  0  0  0  0  0  0
    6.1792    2.2562   -0.6158 H   0  0  0  0  0  0  0  0  0  0  0  0
    6.4351   -1.5365    0.4009 H   0  0  0  0  0  0  0  0  0  0  0  0
   -5.4358    0.3285   -1.1520 H   0  0  0  0  0  0  0  0  0  0  0  0
   -5.2515    1.4935    0.1791 H   0  0  0  0  0  0  0  0  0  0  0  0
   -6.7995    0.1097    1.5863 H   0  0  0  0  0  0  0  0  0  0  0  0
   -7.0149   -1.0124    0.2214 H   0  0  0  0  0  0  0  0  0  0  0  0
   -9.8348    1.1264    0.0608 H   0  0  0  0  0  0  0  0  0  0  0  0
  1 13  1  0  0  0  0
  1 25  1  0  0  0  0
  2 24  2  0  0  0  0
  3 25  2  0  0  0  0
  4 28  1  0  0  0  0
  4 60  1  0  0  0  0
  5 28  2  0  0  0  0
  6  7  1  0  0  0  0
  6  8  1  0  0  0  0
  6 14  1  0  0  0  0
  6 29  1  0  0  0  0
  7 11  1  0  0  0  0
  7 13  1  0  0  0  0
  7 18  1  0  0  0  0
  8  9  1  0  0  0  0
  8 15  1  0  0  0  0
  8 30  1  0  0  0  0
  9 10  1  0  0  0  0
  9 12  1  0  0  0  0
  9 31  1  0  0  0  0
 10 17  1  0  0  0  0
 10 20  1  0  0  0  0
 10 21  1  0  0  0  0
 11 12  1  0  0  0  0
 11 32  1  0  0  0  0
 11 33  1  0  0  0  0
 12 34  1  0  0  0  0
 12 35  1  0  0  0  0
 13 16  1  0  0  0  0
 13 36  1  0  0  0  0
 14 16  1  0  0  0  0
 14 37  1  0  0  0  0
 14 38  1  0  0  0  0
 15 19  1  0  0  0  0
 15 39  1  0  0  0  0
 15 40  1  0  0  0  0
 16 41  1  0  0  0  0
 16 42  1  0  0  0  0
 17 19  1  0  0  0  0
 17 23  2  0  0  0  0
 18 43  1  0  0  0  0
 18 44  1  0  0  0  0
 18 45  1  0  0  0  0
 19 46  1  0  0  0  0
 19 47  1  0  0  0  0
 20 22  1  0  0  0  0
 20 48  1  0  0  0  0
 20 49  1  0  0  0  0
 21 50  1  0  0  0  0
 21 51  1  0  0  0  0
 21 52  1  0  0  0  0
 22 24  1  0  0  0  0
 22 53  1  0  0  0  0
 22 54  1  0  0  0  0
 23 24  1  0  0  0  0
 23 55  1  0  0  0  0
 25 26  1  0  0  0  0
 26 27  1  0  0  0  0
 26 56  1  0  0  0  0
 26 57  1  0  0  0  0
 27 28  1  0  0  0  0
 27 58  1  0  0  0  0
 27 59  1  0  0  0  0
M  END
> <DATABASE_ID>
DB08619

> <DATABASE_NAME>
drugbank

> <ORIGINAL_SOURCE>
PUBCHEM

> <ORIGINAL_SOURCE_URL>
https://pubchem.ncbi.nlm.nih.gov/rest/pug/compound/inchikey/CJQNBXFUHQZFOE-VYAQIDIUSA-N/SDF?record_type=3d

> <SMILES>
[H][C@@]1(CC[C@@]2([H])[C@]3([H])CCC4=CC(=O)CC[C@]4(C)[C@@]3([H])CC[C@]12C)OC(=O)CCC(O)=O

> <INCHI_IDENTIFIER>
InChI=1S/C23H32O5/c1-22-11-9-15(24)13-14(22)3-4-16-17-5-6-19(23(17,2)12-10-18(16)22)28-21(27)8-7-20(25)26/h13,16-19H,3-12H2,1-2H3,(H,25,26)/t16-,17-,18-,19-,22-,23-/m0/s1

> <INCHI_KEY>
CJQNBXFUHQZFOE-VYAQIDIUSA-N

> <FORMULA>
C23H32O5

> <MOLECULAR_WEIGHT>
388.4972

> <EXACT_MASS>
388.224974134

> <JCHEM_ACCEPTOR_COUNT>
4

> <JCHEM_ATOM_COUNT>
60

> <JCHEM_AVERAGE_NEUTRAL_MICROSPECIES_CHARGE>
-0.9979602279312092

> <JCHEM_AVERAGE_POLARIZABILITY>
43.73671070365399

> <JCHEM_BIOAVAILABILITY>
1

> <JCHEM_DONOR_COUNT>
1

> <JCHEM_FORMAL_CHARGE>
0

> <JCHEM_GHOSE_FILTER>
1

> <JCHEM_IUPAC>
4-{[(1S,3aS,3bR,9aR,9bS,11aS)-9a,11a-dimethyl-7-oxo-1H,2H,3H,3aH,3bH,4H,5H,7H,8H,9H,9aH,9bH,10H,11H,11aH-cyclopenta[a]phenanthren-1-yl]oxy}-4-oxobutanoic acid

> <ALOGPS_LOGP>
3.41

> <JCHEM_LOGP>
3.631411455000001

> <ALOGPS_LOGS>
-4.66

> <JCHEM_MDDR_LIKE_RULE>
0

> <JCHEM_NEUTRAL_CHARGE>
-1

> <JCHEM_NUMBER_OF_RINGS>
4

> <JCHEM_PHYSIOLOGICAL_CHARGE>
-1

> <JCHEM_PKA>
18.523795671292948

> <JCHEM_PKA_STRONGEST_ACIDIC>
4.310468407665996

> <JCHEM_PKA_STRONGEST_BASIC>
-4.814896811552646

> <JCHEM_POLAR_SURFACE_AREA>
80.67

> <JCHEM_REFRACTIVITY>
104.47459999999997

> <JCHEM_ROTATABLE_BOND_COUNT>
5

> <JCHEM_RULE_OF_FIVE>
1

> <ALOGPS_SOLUBILITY>
8.44e-03 g/l

> <JCHEM_TRADITIONAL_IUPAC>
biotin

> <JCHEM_VEBER_RULE>
0

$$$$
