107985
  -OEChem-10051722393D

 50 56  0     1  0  0  0  0  0999 V2000
    1.2438   -1.3232   -1.5804 O   0  0  0  0  0  0  0  0  0  0  0  0
    0.8780    1.9903   -1.4705 O   0  0  0  0  0  0  0  0  0  0  0  0
    2.6559   -0.5592    1.6078 O   0  0  0  0  0  0  0  0  0  0  0  0
    3.4410    1.1022   -1.5752 O   0  0  0  0  0  0  0  0  0  0  0  0
   -5.1223    0.8527    1.2207 O   0  0  0  0  0  0  0  0  0  0  0  0
   -5.9828   -1.1349    0.4404 O   0  0  0  0  0  0  0  0  0  0  0  0
    0.5814   -0.4107   -0.6882 C   0  0  2  0  0  0  0  0  0  0  0  0
    1.2830    0.9748   -0.5312 C   0  0  2  0  0  0  0  0  0  0  0  0
    1.3415   -1.6499   -0.1889 C   0  0  2  0  0  0  0  0  0  0  0  0
   -0.9646   -0.4144   -0.7784 C   0  0  2  0  0  0  0  0  0  0  0  0
    3.3803   -0.1166    0.4594 C   0  0  1  0  0  0  0  0  0  0  0  0
    2.6857   -1.4504    0.4723 C   0  0  1  0  0  0  0  0  0  0  0  0
    0.4371    2.1792   -0.1266 C   0  0  2  0  0  0  0  0  0  0  0  0
    2.7891    1.0305   -0.3010 C   0  0  1  0  0  0  0  0  0  0  0  0
   -1.4893    0.6112    0.3098 C   0  0  1  0  0  0  0  0  0  0  0  0
   -1.0498    2.0600    0.0247 C   0  0  0  0  0  0  0  0  0  0  0  0
   -1.5982   -1.8077   -0.4540 C   0  0  0  0  0  0  0  0  0  0  0  0
    4.8500   -0.0776    0.6988 C   0  0  0  0  0  0  0  0  0  0  0  0
   -1.3893   -0.0293   -2.2212 C   0  0  0  0  0  0  0  0  0  0  0  0
   -2.9706    0.4822    0.5336 C   0  0  0  0  0  0  0  0  0  0  0  0
   -3.1377   -1.8101   -0.4711 C   0  0  0  0  0  0  0  0  0  0  0  0
   -3.6726   -0.5914    0.1784 C   0  0  0  0  0  0  0  0  0  0  0  0
    5.1890    0.4512    2.1055 C   0  0  0  0  0  0  0  0  0  0  0  0
    5.4997   -1.4616    0.5092 C   0  0  0  0  0  0  0  0  0  0  0  0
   -3.8255    1.4673    1.2223 C   0  0  0  0  0  0  0  0  0  0  0  0
   -5.0527   -0.3649    0.6035 C   0  0  0  0  0  0  0  0  0  0  0  0
    0.8014   -2.5287    0.1352 H   0  0  0  0  0  0  0  0  0  0  0  0
    3.2292   -2.3730    0.6219 H   0  0  0  0  0  0  0  0  0  0  0  0
    0.8738    2.9902    0.4383 H   0  0  0  0  0  0  0  0  0  0  0  0
    3.0379    1.9593    0.2256 H   0  0  0  0  0  0  0  0  0  0  0  0
   -1.0200    0.3317    1.2668 H   0  0  0  0  0  0  0  0  0  0  0  0
   -1.5549    2.4594   -0.8631 H   0  0  0  0  0  0  0  0  0  0  0  0
   -1.3514    2.7032    0.8610 H   0  0  0  0  0  0  0  0  0  0  0  0
   -1.2818   -2.1228    0.5497 H   0  0  0  0  0  0  0  0  0  0  0  0
   -1.2354   -2.5730   -1.1514 H   0  0  0  0  0  0  0  0  0  0  0  0
    5.3262    0.5964   -0.0239 H   0  0  0  0  0  0  0  0  0  0  0  0
   -2.4684    0.1248   -2.3140 H   0  0  0  0  0  0  0  0  0  0  0  0
   -0.9129    0.8852   -2.5790 H   0  0  0  0  0  0  0  0  0  0  0  0
   -1.1076   -0.8197   -2.9270 H   0  0  0  0  0  0  0  0  0  0  0  0
    3.2287    0.2868   -2.0614 H   0  0  0  0  0  0  0  0  0  0  0  0
   -3.4989   -2.7074    0.0442 H   0  0  0  0  0  0  0  0  0  0  0  0
   -3.5026   -1.8649   -1.5029 H   0  0  0  0  0  0  0  0  0  0  0  0
    4.8395   -0.2260    2.8924 H   0  0  0  0  0  0  0  0  0  0  0  0
    6.2723    0.5647    2.2209 H   0  0  0  0  0  0  0  0  0  0  0  0
    4.7272    1.4301    2.2730 H   0  0  0  0  0  0  0  0  0  0  0  0
    5.2304   -2.1630    1.3061 H   0  0  0  0  0  0  0  0  0  0  0  0
    6.5913   -1.3621    0.5376 H   0  0  0  0  0  0  0  0  0  0  0  0
    5.2420   -1.8974   -0.4621 H   0  0  0  0  0  0  0  0  0  0  0  0
   -3.5143    1.6385    2.2566 H   0  0  0  0  0  0  0  0  0  0  0  0
   -3.8891    2.4180    0.6858 H   0  0  0  0  0  0  0  0  0  0  0  0
  1  7  1  0  0  0  0
  1  9  1  0  0  0  0
  2  8  1  0  0  0  0
  2 13  1  0  0  0  0
  3 11  1  0  0  0  0
  3 12  1  0  0  0  0
  4 14  1  0  0  0  0
  4 40  1  0  0  0  0
  5 25  1  0  0  0  0
  5 26  1  0  0  0  0
  6 26  2  0  0  0  0
  7  8  1  0  0  0  0
  7  9  1  0  0  0  0
  7 10  1  0  0  0  0
  8 13  1  0  0  0  0
  8 14  1  0  0  0  0
  9 12  1  0  0  0  0
  9 27  1  0  0  0  0
 10 15  1  0  0  0  0
 10 17  1  0  0  0  0
 10 19  1  0  0  0  0
 11 12  1  0  0  0  0
 11 14  1  0  0  0  0
 11 18  1  0  0  0  0
 12 28  1  0  0  0  0
 13 16  1  0  0  0  0
 13 29  1  0  0  0  0
 14 30  1  0  0  0  0
 15 16  1  0  0  0  0
 15 20  1  0  0  0  0
 15 31  1  0  0  0  0
 16 32  1  0  0  0  0
 16 33  1  0  0  0  0
 17 21  1  0  0  0  0
 17 34  1  0  0  0  0
 17 35  1  0  0  0  0
 18 23  1  0  0  0  0
 18 24  1  0  0  0  0
 18 36  1  0  0  0  0
 19 37  1  0  0  0  0
 19 38  1  0  0  0  0
 19 39  1  0  0  0  0
 20 22  2  0  0  0  0
 20 25  1  0  0  0  0
 21 22  1  0  0  0  0
 21 41  1  0  0  0  0
 21 42  1  0  0  0  0
 22 26  1  0  0  0  0
 23 43  1  0  0  0  0
 23 44  1  0  0  0  0
 23 45  1  0  0  0  0
 24 46  1  0  0  0  0
 24 47  1  0  0  0  0
 24 48  1  0  0  0  0
 25 49  1  0  0  0  0
 25 50  1  0  0  0  0
M  END
> <DATABASE_ID>
DB12025

> <DATABASE_NAME>
drugbank

> <ORIGINAL_SOURCE>
PUBCHEM

> <ORIGINAL_SOURCE_URL>
https://pubchem.ncbi.nlm.nih.gov/rest/pug/compound/inchikey/DFBIRQPKNDILPW-CIVMWXNOSA-N/SDF?record_type=3d

> <SMILES>
CC(C)[C@]12O[C@H]1[C@@H]1O[C@]11[C@]3(O[C@H]3C[C@H]3C4=C(CC[C@]13C)C(=O)OC4)[C@@H]2O

> <INCHI_IDENTIFIER>
InChI=1S/C20H24O6/c1-8(2)18-13(25-18)14-20(26-14)17(3)5-4-9-10(7-23-15(9)21)11(17)6-12-19(20,24-12)16(18)22/h8,11-14,16,22H,4-7H2,1-3H3/t11-,12-,13-,14-,16+,17-,18-,19+,20+/m0/s1

> <INCHI_KEY>
DFBIRQPKNDILPW-CIVMWXNOSA-N

> <FORMULA>
C20H24O6

> <MOLECULAR_WEIGHT>
360.406

> <EXACT_MASS>
360.157288493

> <JCHEM_ACCEPTOR_COUNT>
5

> <JCHEM_ATOM_COUNT>
50

> <JCHEM_AVERAGE_POLARIZABILITY>
37.144387451074806

> <JCHEM_BIOAVAILABILITY>
1

> <JCHEM_DONOR_COUNT>
1

> <JCHEM_FORMAL_CHARGE>
0

> <JCHEM_GHOSE_FILTER>
1

> <JCHEM_IUPAC>
(1S,2S,4S,5S,7R,8R,9S,11S,13S)-8-hydroxy-1-methyl-7-(propan-2-yl)-3,6,10,16-tetraoxaheptacyclo[11.7.0.0^{2,4}.0^{2,9}.0^{5,7}.0^{9,11}.0^{14,18}]icos-14(18)-en-17-one

> <ALOGPS_LOGP>
1.22

> <JCHEM_LOGP>
1.3276725586666664

> <ALOGPS_LOGS>
-2.61

> <JCHEM_MDDR_LIKE_RULE>
0

> <JCHEM_NUMBER_OF_RINGS>
7

> <JCHEM_PHYSIOLOGICAL_CHARGE>
0

> <JCHEM_PKA>
13.30460978611875

> <JCHEM_PKA_STRONGEST_ACIDIC>
12.54275367923714

> <JCHEM_PKA_STRONGEST_BASIC>
-3.79249501560952

> <JCHEM_POLAR_SURFACE_AREA>
84.12

> <JCHEM_REFRACTIVITY>
87.26059999999998

> <JCHEM_ROTATABLE_BOND_COUNT>
1

> <JCHEM_RULE_OF_FIVE>
1

> <ALOGPS_SOLUBILITY>
8.86e-01 g/l

> <JCHEM_TRADITIONAL_IUPAC>
(1S,2S,4S,5S,7R,8R,9S,11S,13S)-8-hydroxy-7-isopropyl-1-methyl-3,6,10,16-tetraoxaheptacyclo[11.7.0.0^{2,4}.0^{2,9}.0^{5,7}.0^{9,11}.0^{14,18}]icos-14(18)-en-17-one

> <JCHEM_VEBER_RULE>
0

$$$$
