68926
  -OEChem-10051722593D

 55 58  0     1  0  0  0  0  0999 V2000
    4.9701    0.8517   -0.0099 O   0  0  0  0  0  0  0  0  0  0  0  0
    4.5775   -1.7286   -1.3243 O   0  0  0  0  0  0  0  0  0  0  0  0
   -6.4405   -0.9314    1.1503 O   0  0  0  0  0  0  0  0  0  0  0  0
    1.5858    0.1449   -0.2622 C   0  0  1  0  0  0  0  0  0  0  0  0
    0.5170    1.1616    0.2049 C   0  0  2  0  0  0  0  0  0  0  0  0
    2.7421    0.4592    0.7453 C   0  0  1  0  0  0  0  0  0  0  0  0
   -0.7491    1.1786   -0.6662 C   0  0  1  0  0  0  0  0  0  0  0  0
    1.3051    2.4573    0.3578 C   0  0  0  0  0  0  0  0  0  0  0  0
    2.6834    2.0090    0.8784 C   0  0  0  0  0  0  0  0  0  0  0  0
    0.9455   -1.2522   -0.1831 C   0  0  0  0  0  0  0  0  0  0  0  0
   -1.3547   -0.2380   -0.7053 C   0  0  0  0  0  0  0  0  0  0  0  0
   -0.3471   -1.3406   -1.0169 C   0  0  0  0  0  0  0  0  0  0  0  0
    2.0623    0.4075   -1.7229 C   0  0  0  0  0  0  0  0  0  0  0  0
   -1.7278    2.2516   -0.1566 C   0  0  0  0  0  0  0  0  0  0  0  0
    2.5978   -0.1943    2.1301 C   0  0  0  0  0  0  0  0  0  0  0  0
    4.0933    0.0236    0.2384 C   0  0  0  0  0  0  0  0  0  0  0  0
   -2.6797   -0.4530   -0.5077 C   0  0  0  0  0  0  0  0  0  0  0  0
   -3.1200    2.0272   -0.7240 C   0  0  0  0  0  0  0  0  0  0  0  0
   -3.6112    0.6659   -0.3091 C   0  0  0  0  0  0  0  0  0  0  0  0
    4.3136   -1.4705    0.0452 C   0  0  2  0  0  0  0  0  0  0  0  0
   -3.3662   -1.8026   -0.5345 C   0  0  0  0  0  0  0  0  0  0  0  0
   -4.8414    0.5145    0.2089 C   0  0  0  0  0  0  0  0  0  0  0  0
   -4.3398   -1.9632    0.6273 C   0  0  0  0  0  0  0  0  0  0  0  0
    5.4959   -1.9676    0.8572 C   0  0  0  0  0  0  0  0  0  0  0  0
   -5.3120   -0.8108    0.6789 C   0  0  0  0  0  0  0  0  0  0  0  0
    0.1859    0.8786    1.2167 H   0  0  0  0  0  0  0  0  0  0  0  0
   -0.4965    1.4516   -1.6978 H   0  0  0  0  0  0  0  0  0  0  0  0
    0.8251    3.1505    1.0562 H   0  0  0  0  0  0  0  0  0  0  0  0
    1.4096    2.9757   -0.6021 H   0  0  0  0  0  0  0  0  0  0  0  0
    3.4510    2.5432    0.3089 H   0  0  0  0  0  0  0  0  0  0  0  0
    2.8044    2.3210    1.9229 H   0  0  0  0  0  0  0  0  0  0  0  0
    0.6930   -1.5130    0.8510 H   0  0  0  0  0  0  0  0  0  0  0  0
    1.6216   -2.0257   -0.5559 H   0  0  0  0  0  0  0  0  0  0  0  0
   -0.7554   -2.3413   -0.8648 H   0  0  0  0  0  0  0  0  0  0  0  0
   -0.1040   -1.2851   -2.0848 H   0  0  0  0  0  0  0  0  0  0  0  0
    2.6822   -0.4104   -2.0956 H   0  0  0  0  0  0  0  0  0  0  0  0
    1.2343    0.4937   -2.4306 H   0  0  0  0  0  0  0  0  0  0  0  0
    2.6444    1.3303   -1.8143 H   0  0  0  0  0  0  0  0  0  0  0  0
   -1.3703    3.2474   -0.4455 H   0  0  0  0  0  0  0  0  0  0  0  0
   -1.7756    2.2401    0.9408 H   0  0  0  0  0  0  0  0  0  0  0  0
    3.4539    0.0590    2.7684 H   0  0  0  0  0  0  0  0  0  0  0  0
    1.7019    0.1565    2.6528 H   0  0  0  0  0  0  0  0  0  0  0  0
    2.5439   -1.2858    2.1003 H   0  0  0  0  0  0  0  0  0  0  0  0
   -3.0998    2.0943   -1.8192 H   0  0  0  0  0  0  0  0  0  0  0  0
   -3.7871    2.8210   -0.3672 H   0  0  0  0  0  0  0  0  0  0  0  0
    3.4458   -2.0583    0.3294 H   0  0  0  0  0  0  0  0  0  0  0  0
   -3.9125   -1.8915   -1.4834 H   0  0  0  0  0  0  0  0  0  0  0  0
   -2.6715   -2.6433   -0.4989 H   0  0  0  0  0  0  0  0  0  0  0  0
   -5.5195    1.3516    0.3344 H   0  0  0  0  0  0  0  0  0  0  0  0
   -3.8088   -2.0091    1.5848 H   0  0  0  0  0  0  0  0  0  0  0  0
   -4.9062   -2.8921    0.4986 H   0  0  0  0  0  0  0  0  0  0  0  0
    6.4209   -1.4548    0.5698 H   0  0  0  0  0  0  0  0  0  0  0  0
    5.6608   -3.0364    0.6834 H   0  0  0  0  0  0  0  0  0  0  0  0
    5.3384   -1.8051    1.9280 H   0  0  0  0  0  0  0  0  0  0  0  0
    5.4131   -1.2902   -1.5595 H   0  0  0  0  0  0  0  0  0  0  0  0
  1 16  2  0  0  0  0
  2 20  1  0  0  0  0
  2 55  1  0  0  0  0
  3 25  2  0  0  0  0
  4  5  1  0  0  0  0
  4  6  1  0  0  0  0
  4 10  1  0  0  0  0
  4 13  1  0  0  0  0
  5  7  1  0  0  0  0
  5  8  1  0  0  0  0
  5 26  1  0  0  0  0
  6  9  1  0  0  0  0
  6 15  1  0  0  0  0
  6 16  1  0  0  0  0
  7 11  1  0  0  0  0
  7 14  1  0  0  0  0
  7 27  1  0  0  0  0
  8  9  1  0  0  0  0
  8 28  1  0  0  0  0
  8 29  1  0  0  0  0
  9 30  1  0  0  0  0
  9 31  1  0  0  0  0
 10 12  1  0  0  0  0
 10 32  1  0  0  0  0
 10 33  1  0  0  0  0
 11 12  1  0  0  0  0
 11 17  2  0  0  0  0
 12 34  1  0  0  0  0
 12 35  1  0  0  0  0
 13 36  1  0  0  0  0
 13 37  1  0  0  0  0
 13 38  1  0  0  0  0
 14 18  1  0  0  0  0
 14 39  1  0  0  0  0
 14 40  1  0  0  0  0
 15 41  1  0  0  0  0
 15 42  1  0  0  0  0
 15 43  1  0  0  0  0
 16 20  1  0  0  0  0
 17 19  1  0  0  0  0
 17 21  1  0  0  0  0
 18 19  1  0  0  0  0
 18 44  1  0  0  0  0
 18 45  1  0  0  0  0
 19 22  2  0  0  0  0
 20 24  1  0  0  0  0
 20 46  1  0  0  0  0
 21 23  1  0  0  0  0
 21 47  1  0  0  0  0
 21 48  1  0  0  0  0
 22 25  1  0  0  0  0
 22 49  1  0  0  0  0
 23 25  1  0  0  0  0
 23 50  1  0  0  0  0
 23 51  1  0  0  0  0
 24 52  1  0  0  0  0
 24 53  1  0  0  0  0
 24 54  1  0  0  0  0
M  END
> <DATABASE_ID>
DB13129

> <DATABASE_NAME>
drugbank

> <ORIGINAL_SOURCE>
PUBCHEM

> <ORIGINAL_SOURCE_URL>
https://pubchem.ncbi.nlm.nih.gov/rest/pug/compound/inchikey/JUNDJWOLDSCTFK-MTZCLOFQSA-N/SDF?record_type=3d

> <SMILES>
C[C@H](O)C(=O)[C@@]1(C)CC[C@H]2[C@@H]3CCC4=CC(=O)CCC4=C3CC[C@]12C

> <INCHI_IDENTIFIER>
InChI=1S/C22H30O3/c1-13(23)20(25)22(3)11-9-19-18-6-4-14-12-15(24)5-7-16(14)17(18)8-10-21(19,22)2/h12-13,18-19,23H,4-11H2,1-3H3/t13-,18+,19-,21-,22+/m0/s1

> <INCHI_KEY>
JUNDJWOLDSCTFK-MTZCLOFQSA-N

> <FORMULA>
C22H30O3

> <MOLECULAR_WEIGHT>
342.479

> <EXACT_MASS>
342.219494826

> <JCHEM_ACCEPTOR_COUNT>
3

> <JCHEM_ATOM_COUNT>
55

> <JCHEM_AVERAGE_POLARIZABILITY>
39.44194702149859

> <JCHEM_BIOAVAILABILITY>
1

> <JCHEM_DONOR_COUNT>
1

> <JCHEM_FORMAL_CHARGE>
0

> <JCHEM_GHOSE_FILTER>
1

> <JCHEM_IUPAC>
(10S,11S,14S,15S)-14-[(2S)-2-hydroxypropanoyl]-14,15-dimethyltetracyclo[8.7.0.0^{2,7}.0^{11,15}]heptadeca-1,6-dien-5-one

> <ALOGPS_LOGP>
3.18

> <JCHEM_LOGP>
3.7068504730000003

> <ALOGPS_LOGS>
-4.26

> <JCHEM_MDDR_LIKE_RULE>
0

> <JCHEM_NUMBER_OF_RINGS>
4

> <JCHEM_PHYSIOLOGICAL_CHARGE>
0

> <JCHEM_PKA>
19.07076739143706

> <JCHEM_PKA_STRONGEST_ACIDIC>
13.697683582277396

> <JCHEM_PKA_STRONGEST_BASIC>
-3.3684080944392614

> <JCHEM_POLAR_SURFACE_AREA>
54.370000000000005

> <JCHEM_REFRACTIVITY>
99.51069999999999

> <JCHEM_ROTATABLE_BOND_COUNT>
2

> <JCHEM_RULE_OF_FIVE>
1

> <ALOGPS_SOLUBILITY>
1.88e-02 g/l

> <JCHEM_TRADITIONAL_IUPAC>
(10S,11S,14S,15S)-14-[(2S)-2-hydroxypropanoyl]-14,15-dimethyltetracyclo[8.7.0.0^{2,7}.0^{11,15}]heptadeca-1,6-dien-5-one

> <JCHEM_VEBER_RULE>
0

$$$$
