
     RDKit          2D

 67 74  0  0  0  0  0  0  0  0999 V2000
    8.0388   -6.0280    0.0000 C   0  0  0  0  0  0  0  0  0  0  0  0
    6.8307   -5.1389    0.0000 C   0  0  0  0  0  0  0  0  0  0  0  0
    5.4566   -5.7406    0.0000 C   0  0  0  0  0  0  0  0  0  0  0  0
    4.2485   -4.8515    0.0000 C   0  0  0  0  0  0  0  0  0  0  0  0
    4.4145   -3.3607    0.0000 C   0  0  0  0  0  0  0  0  0  0  0  0
    3.0404   -3.9624    0.0000 C   0  0  0  0  0  0  0  0  0  0  0  0
    2.8745   -5.4532    0.0000 O   0  0  0  0  0  0  0  0  0  0  0  0
    1.8323   -3.0733    0.0000 O   0  0  0  0  0  0  0  0  0  0  0  0
    0.4583   -3.6750    0.0000 C   0  0  0  0  0  0  0  0  0  0  0  0
   -0.7498   -2.7859    0.0000 O   0  0  0  0  0  0  0  0  0  0  0  0
   -2.1238   -3.3876    0.0000 C   0  0  0  0  0  0  0  0  0  0  0  0
   -3.3319   -2.4985    0.0000 C   0  0  0  0  0  0  0  0  0  0  0  0
   -3.1660   -1.0078    0.0000 O   0  0  0  0  0  0  0  0  0  0  0  0
   -4.3741   -0.1187    0.0000 C   0  0  0  0  0  0  0  0  0  0  0  0
   -4.2082    1.3721    0.0000 O   0  0  0  0  0  0  0  0  0  0  0  0
   -5.4163    2.2612    0.0000 C   0  0  0  0  0  0  0  0  0  0  0  0
   -5.2504    3.7520    0.0000 C   0  0  0  0  0  0  0  0  0  0  0  0
   -3.8764    4.3537    0.0000 O   0  0  0  0  0  0  0  0  0  0  0  0
   -6.7903    1.6595    0.0000 C   0  0  0  0  0  0  0  0  0  0  0  0
   -7.9984    2.5486    0.0000 O   0  0  0  0  0  0  0  0  0  0  0  0
   -9.3725    1.9469    0.0000 C   0  0  0  0  0  0  0  0  0  0  0  0
   -9.5384    0.4561    0.0000 O   0  0  0  0  0  0  0  0  0  0  0  0
  -10.9124   -0.1456    0.0000 C   0  0  0  0  0  0  0  0  0  0  0  0
  -11.0783   -1.6364    0.0000 C   0  0  0  0  0  0  0  0  0  0  0  0
  -12.1205    0.7435    0.0000 C   0  0  0  0  0  0  0  0  0  0  0  0
  -13.4945    0.1418    0.0000 O   0  0  0  0  0  0  0  0  0  0  0  0
  -11.9546    2.2343    0.0000 C   0  0  0  0  0  0  0  0  0  0  0  0
  -13.1627    3.1234    0.0000 O   0  0  0  0  0  0  0  0  0  0  0  0
  -10.5806    2.8360    0.0000 C   0  0  0  0  0  0  0  0  0  0  0  0
  -10.4146    4.3268    0.0000 O   0  0  0  0  0  0  0  0  0  0  0  0
   -6.9563    0.1687    0.0000 C   0  0  0  0  0  0  0  0  0  0  0  0
   -8.3303   -0.4330    0.0000 O   0  0  0  0  0  0  0  0  0  0  0  0
   -5.7482   -0.7204    0.0000 C   0  0  0  0  0  0  0  0  0  0  0  0
   -5.9141   -2.2112    0.0000 O   0  0  0  0  0  0  0  0  0  0  0  0
   -2.2898   -4.8784    0.0000 C   0  0  0  0  0  0  0  0  0  0  0  0
   -3.6638   -5.4801    0.0000 O   0  0  0  0  0  0  0  0  0  0  0  0
   -1.0817   -5.7675    0.0000 C   0  0  0  0  0  0  0  0  0  0  0  0
   -1.2476   -7.2583    0.0000 O   0  0  0  0  0  0  0  0  0  0  0  0
    0.2924   -5.1658    0.0000 C   0  0  0  0  0  0  0  0  0  0  0  0
    1.5005   -6.0549    0.0000 O   0  0  0  0  0  0  0  0  0  0  0  0
    3.2064   -2.4716    0.0000 C   0  0  0  0  0  0  0  0  0  0  0  0
    3.3723   -0.9808    0.0000 C   0  0  0  0  0  0  0  0  0  0  0  0
    4.7463   -0.3791    0.0000 C   0  0  0  0  0  0  0  0  0  0  0  0
    3.8885    0.1032    0.0000 C   0  0  0  0  0  0  0  0  0  0  0  0
    5.9544   -1.2682    0.0000 C   0  0  0  0  0  0  0  0  0  0  0  0
    7.3284   -0.6665    0.0000 C   0  0  0  0  0  0  0  0  0  0  0  0
    7.4944    0.8243    0.0000 C   0  0  0  0  0  0  0  0  0  0  0  0
    6.2863    1.7134    0.0000 C   0  0  0  0  0  0  0  0  0  0  0  0
    6.4522    3.2042    0.0000 C   0  0  0  0  0  0  0  0  0  0  0  0
    7.6603    2.3151    0.0000 C   0  0  0  0  0  0  0  0  0  0  0  0
    7.8262    3.8059    0.0000 C   0  0  0  0  0  0  0  0  0  0  0  0
    7.9921    5.2967    0.0000 C   0  0  0  0  0  0  0  0  0  0  0  0
    9.3662    5.8984    0.0000 O   0  0  0  0  0  0  0  0  0  0  0  0
    6.7840    6.1858    0.0000 C   0  0  0  0  0  0  0  0  0  0  0  0
    6.9499    7.6766    0.0000 O   0  0  0  0  0  0  0  0  0  0  0  0
    5.4100    5.5841    0.0000 C   0  0  0  0  0  0  0  0  0  0  0  0
    3.9130    5.4886    0.0000 C   0  0  0  0  0  0  0  0  0  0  0  0
    5.0560    7.0417    0.0000 C   0  0  0  0  0  0  0  0  0  0  0  0
    3.6167    7.4640    0.0000 O   0  0  0  0  0  0  0  0  0  0  0  0
    5.2441    4.0933    0.0000 C   0  0  0  0  0  0  0  0  0  0  0  0
    3.8700    3.4916    0.0000 C   0  0  0  0  0  0  0  0  0  0  0  0
    3.7041    2.0008    0.0000 C   0  0  0  0  0  0  0  0  0  0  0  0
    4.9122    1.1117    0.0000 C   0  0  0  0  0  0  0  0  0  0  0  0
    3.9693    0.8297    0.0000 C   0  0  0  0  0  0  0  0  0  0  0  0
    5.7885   -2.7590    0.0000 C   0  0  0  0  0  0  0  0  0  0  0  0
    6.9966   -3.6481    0.0000 C   0  0  0  0  0  0  0  0  0  0  0  0
    8.3706   -3.0464    0.0000 C   0  0  0  0  0  0  0  0  0  0  0  0
  2  1  1  6
  2  3  1  0
  3  4  1  0
  4  5  1  0
  5  6  1  1
  6  7  2  0
  6  8  1  0
  9  8  1  1
  9 10  1  0
 10 11  1  0
 11 12  1  1
 12 13  1  0
 14 13  1  1
 14 15  1  0
 15 16  1  0
 16 17  1  1
 17 18  1  0
 16 19  1  0
 19 20  1  6
 21 20  1  6
 21 22  1  0
 22 23  1  0
 23 24  1  1
 23 25  1  0
 25 26  1  6
 25 27  1  0
 27 28  1  1
 27 29  1  0
 29 30  1  1
 19 31  1  0
 31 32  1  1
 31 33  1  0
 33 34  1  6
 11 35  1  0
 35 36  1  6
 35 37  1  0
 37 38  1  1
 37 39  1  0
 39 40  1  6
  5 41  1  0
 41 42  1  0
 42 43  1  0
 43 44  1  6
 43 45  1  0
 45 46  2  0
 46 47  1  0
 48 47  1  1
 48 49  1  0
 49 50  1  1
 49 51  1  0
 51 52  1  0
 52 53  1  6
 52 54  1  0
 54 55  1  1
 54 56  1  0
 56 57  1  1
 56 58  1  0
 58 59  1  0
 56 60  1  0
 60 61  1  1
 61 62  1  0
 62 63  1  0
 63 64  1  1
 65 45  1  6
 65 66  1  0
 66 67  1  1
 66  2  1  0
 65  5  1  0
 39  9  1  0
 63 43  1  0
 33 14  1  0
 63 48  1  0
 29 21  1  0
 60 49  1  0
M  END
>  <zinc_id>  (1) 
ZINC000253529453

>  <smiles>  (1) 
C[C@@H]1[C@H]2C3=CC[C@@H]4[C@@]5(C)C[C@@H](O)[C@H](O)[C@@](C)(CO)[C@@H]5CC[C@@]4(C)[C@]3(C)CC[C@@]2(C(=O)O[C@@H]2O[C@H](CO[C@@H]3O[C@H](CO)[C@@H](O[C@@H]4O[C@@H](C)[C@H](O)[C@@H](O)[C@H]4O)[C@H](O)[C@H]3O)[C@@H](O)[C@H](O)[C@H]2O)CC[C@H]1C

$$$$
