54707177
  -OEChem-06112217103D

 81 84  0     1  0  0  0  0  0999 V2000
   -4.9707    0.1853   -1.0679 O   0  0  0  0  0  0  0  0  0  0  0  0
   -0.9475   -3.3215    2.4649 O   0  0  0  0  0  0  0  0  0  0  0  0
   -3.5959   -1.5962   -2.5087 O   0  0  0  0  0  0  0  0  0  0  0  0
   -2.5590    1.2893   -2.2989 O   0  0  0  0  0  0  0  0  0  0  0  0
   -0.6805   -1.4665   -2.8178 O   0  0  0  0  0  0  0  0  0  0  0  0
   -2.4515    2.7236    2.2554 O   0  0  0  0  0  0  0  0  0  0  0  0
    1.9296   -1.4488   -2.5502 O   0  0  0  0  0  0  0  0  0  0  0  0
   -1.9022    4.3604   -0.2253 O   0  0  0  0  0  0  0  0  0  0  0  0
    8.2613    1.9736    0.7507 O   0  0  0  0  0  0  0  0  0  0  0  0
    7.2233    1.1714    2.5985 O   0  0  0  0  0  0  0  0  0  0  0  0
   -5.1889    1.4641    1.5867 N   0  0  0  0  0  0  0  0  0  0  0  0
   -0.3334    2.7932   -0.9348 N   0  0  0  0  0  0  0  0  0  0  0  0
    1.8208    2.9898   -1.8618 N   0  0  0  0  0  0  0  0  0  0  0  0
    6.1577   -0.9293    1.3701 N   0  0  0  0  0  0  0  0  0  0  0  0
   -3.6599   -0.3974    0.9082 C   0  0  2  0  0  0  0  0  0  0  0  0
   -2.1284   -2.4061    0.5507 C   0  0  2  0  0  0  0  0  0  0  0  0
   -2.3844   -1.1481    1.3988 C   0  0  0  0  0  0  0  0  0  0  0  0
   -3.6422   -0.0604   -0.6069 C   0  0  1  0  0  0  0  0  0  0  0  0
   -3.8686    0.8646    1.7618 C   0  0  1  0  0  0  0  0  0  0  0  0
   -0.9828   -3.3446    1.0338 C   0  0  1  0  0  0  0  0  0  0  0  0
   -1.9335   -1.9348   -0.8570 C   0  0  0  0  0  0  0  0  0  0  0  0
   -3.1183   -1.2471   -1.4333 C   0  0  0  0  0  0  0  0  0  0  0  0
   -2.8236    1.1736   -0.9428 C   0  0  0  0  0  0  0  0  0  0  0  0
    0.3782   -2.9877    0.4373 C   0  0  0  0  0  0  0  0  0  0  0  0
   -2.8589    1.9357    1.4006 C   0  0  0  0  0  0  0  0  0  0  0  0
   -0.7709   -1.9402   -1.5241 C   0  0  0  0  0  0  0  0  0  0  0  0
   -2.4095    2.0709   -0.0238 C   0  0  0  0  0  0  0  0  0  0  0  0
    0.4660   -2.3481   -0.8210 C   0  0  0  0  0  0  0  0  0  0  0  0
   -1.3002   -4.7998    0.6375 C   0  0  0  0  0  0  0  0  0  0  0  0
    1.5602   -3.3611    1.1067 C   0  0  0  0  0  0  0  0  0  0  0  0
   -5.3400    2.6265    2.4598 C   0  0  0  0  0  0  0  0  0  0  0  0
   -6.2348    0.4795    1.8576 C   0  0  0  0  0  0  0  0  0  0  0  0
    1.7405   -2.0643   -1.3440 C   0  0  0  0  0  0  0  0  0  0  0  0
   -1.5392    3.2004   -0.3973 C   0  0  0  0  0  0  0  0  0  0  0  0
    2.8114   -3.0812    0.5634 C   0  0  0  0  0  0  0  0  0  0  0  0
    2.9009   -2.4295   -0.6590 C   0  0  0  0  0  0  0  0  0  0  0  0
    0.6737    3.7373   -1.3714 C   0  0  0  0  0  0  0  0  0  0  0  0
    2.6686    2.5559   -0.7599 C   0  0  0  0  0  0  0  0  0  0  0  0
    3.8743    1.7806   -1.2909 C   0  0  0  0  0  0  0  0  0  0  0  0
    4.7731    1.3091   -0.1450 C   0  0  0  0  0  0  0  0  0  0  0  0
    6.0172    0.5435   -0.6155 C   0  0  0  0  0  0  0  0  0  0  0  0
    6.8997   -0.0024    0.5142 C   0  0  1  0  0  0  0  0  0  0  0  0
    7.4683    1.0864    1.4005 C   0  0  0  0  0  0  0  0  0  0  0  0
   -4.4716   -1.1131    1.0858 H   0  0  0  0  0  0  0  0  0  0  0  0
   -3.0577   -2.9939    0.5923 H   0  0  0  0  0  0  0  0  0  0  0  0
   -2.5391   -1.4282    2.4477 H   0  0  0  0  0  0  0  0  0  0  0  0
   -1.5060   -0.4907    1.3747 H   0  0  0  0  0  0  0  0  0  0  0  0
   -3.7053    0.5979    2.8161 H   0  0  0  0  0  0  0  0  0  0  0  0
   -1.3525   -4.9309   -0.4489 H   0  0  0  0  0  0  0  0  0  0  0  0
   -0.5412   -5.4904    1.0252 H   0  0  0  0  0  0  0  0  0  0  0  0
   -2.2536   -5.1269    1.0690 H   0  0  0  0  0  0  0  0  0  0  0  0
   -4.9273    0.4838   -1.9928 H   0  0  0  0  0  0  0  0  0  0  0  0
   -1.8086   -3.6322    2.7933 H   0  0  0  0  0  0  0  0  0  0  0  0
    1.5136   -3.8816    2.0602 H   0  0  0  0  0  0  0  0  0  0  0  0
   -6.3768    2.9851    2.4409 H   0  0  0  0  0  0  0  0  0  0  0  0
   -4.7527    3.4837    2.1164 H   0  0  0  0  0  0  0  0  0  0  0  0
   -5.0904    2.4068    3.5044 H   0  0  0  0  0  0  0  0  0  0  0  0
   -7.2182    0.9658    1.8811 H   0  0  0  0  0  0  0  0  0  0  0  0
   -6.0962   -0.0221    2.8226 H   0  0  0  0  0  0  0  0  0  0  0  0
   -6.3274   -0.2733    1.0707 H   0  0  0  0  0  0  0  0  0  0  0  0
   -2.0578    2.1063   -2.4559 H   0  0  0  0  0  0  0  0  0  0  0  0
   -1.5653   -1.2570   -3.1574 H   0  0  0  0  0  0  0  0  0  0  0  0
    3.7126   -3.3737    1.0937 H   0  0  0  0  0  0  0  0  0  0  0  0
    3.8845   -2.2177   -1.0702 H   0  0  0  0  0  0  0  0  0  0  0  0
   -0.1292    1.8026   -1.0303 H   0  0  0  0  0  0  0  0  0  0  0  0
    2.8810   -1.3568   -2.7289 H   0  0  0  0  0  0  0  0  0  0  0  0
    0.2392    4.3222   -2.1888 H   0  0  0  0  0  0  0  0  0  0  0  0
    0.9136    4.4315   -0.5581 H   0  0  0  0  0  0  0  0  0  0  0  0
    1.5071    2.1916   -2.4116 H   0  0  0  0  0  0  0  0  0  0  0  0
    3.0262    3.4265   -0.1966 H   0  0  0  0  0  0  0  0  0  0  0  0
    2.1084    1.9158   -0.0675 H   0  0  0  0  0  0  0  0  0  0  0  0
    4.4553    2.4159   -1.9712 H   0  0  0  0  0  0  0  0  0  0  0  0
    3.5377    0.9119   -1.8691 H   0  0  0  0  0  0  0  0  0  0  0  0
    5.0858    2.1799    0.4440 H   0  0  0  0  0  0  0  0  0  0  0  0
    4.1788    0.6731    0.5220 H   0  0  0  0  0  0  0  0  0  0  0  0
    6.6151    1.2077   -1.2524 H   0  0  0  0  0  0  0  0  0  0  0  0
    5.7001   -0.2908   -1.2546 H   0  0  0  0  0  0  0  0  0  0  0  0
    7.7479   -0.5458    0.0814 H   0  0  0  0  0  0  0  0  0  0  0  0
    6.7951   -1.3676    2.0341 H   0  0  0  0  0  0  0  0  0  0  0  0
    5.7753   -1.6849    0.8030 H   0  0  0  0  0  0  0  0  0  0  0  0
    8.6037    2.6683    1.3527 H   0  0  0  0  0  0  0  0  0  0  0  0
  1 18  1  0  0  0  0
  1 52  1  0  0  0  0
  2 20  1  0  0  0  0
  2 53  1  0  0  0  0
  3 22  2  0  0  0  0
  4 23  1  0  0  0  0
  4 61  1  0  0  0  0
  5 26  1  0  0  0  0
  5 62  1  0  0  0  0
  6 25  2  0  0  0  0
  7 33  1  0  0  0  0
  7 66  1  0  0  0  0
  8 34  2  0  0  0  0
  9 43  1  0  0  0  0
  9 81  1  0  0  0  0
 10 43  2  0  0  0  0
 11 19  1  0  0  0  0
 11 31  1  0  0  0  0
 11 32  1  0  0  0  0
 12 34  1  0  0  0  0
 12 37  1  0  0  0  0
 12 65  1  0  0  0  0
 13 37  1  0  0  0  0
 13 38  1  0  0  0  0
 13 69  1  0  0  0  0
 14 42  1  0  0  0  0
 14 79  1  0  0  0  0
 14 80  1  0  0  0  0
 15 17  1  0  0  0  0
 15 18  1  0  0  0  0
 15 19  1  0  0  0  0
 15 44  1  0  0  0  0
 16 17  1  0  0  0  0
 16 20  1  0  0  0  0
 16 21  1  0  0  0  0
 16 45  1  0  0  0  0
 17 46  1  0  0  0  0
 17 47  1  0  0  0  0
 18 22  1  0  0  0  0
 18 23  1  0  0  0  0
 19 25  1  0  0  0  0
 19 48  1  0  0  0  0
 20 24  1  0  0  0  0
 20 29  1  0  0  0  0
 21 22  1  0  0  0  0
 21 26  2  0  0  0  0
 23 27  2  0  0  0  0
 24 28  2  0  0  0  0
 24 30  1  0  0  0  0
 25 27  1  0  0  0  0
 26 28  1  0  0  0  0
 27 34  1  0  0  0  0
 28 33  1  0  0  0  0
 29 49  1  0  0  0  0
 29 50  1  0  0  0  0
 29 51  1  0  0  0  0
 30 35  2  0  0  0  0
 30 54  1  0  0  0  0
 31 55  1  0  0  0  0
 31 56  1  0  0  0  0
 31 57  1  0  0  0  0
 32 58  1  0  0  0  0
 32 59  1  0  0  0  0
 32 60  1  0  0  0  0
 33 36  2  0  0  0  0
 35 36  1  0  0  0  0
 35 63  1  0  0  0  0
 36 64  1  0  0  0  0
 37 67  1  0  0  0  0
 37 68  1  0  0  0  0
 38 39  1  0  0  0  0
 38 70  1  0  0  0  0
 38 71  1  0  0  0  0
 39 40  1  0  0  0  0
 39 72  1  0  0  0  0
 39 73  1  0  0  0  0
 40 41  1  0  0  0  0
 40 74  1  0  0  0  0
 40 75  1  0  0  0  0
 41 42  1  0  0  0  0
 41 76  1  0  0  0  0
 41 77  1  0  0  0  0
 42 43  1  0  0  0  0
 42 78  1  0  0  0  0
M  END
> <PUBCHEM_COMPOUND_CID>
54707177

> <PUBCHEM_CONFORMER_RMSD>
1.2

> <PUBCHEM_CONFORMER_DIVERSEORDER>
1
55
48
4
79
66
25
42
69
64
7
9
67
18
58
49
13
56
20
34
40
32
59
51
37
29
36
23
12
17
38
76
35
57
33
63
47
19
2
46
80
70
26
30
21
10
15
31
54
6
78
41
50
14
43
27
45
16
82
3
24
39
75
62
77
5
71
28
52
44
53
22
68
81
72
8
73
61
74
65
11
60

> <PUBCHEM_MMFF94_PARTIAL_CHARGES>
50
1 -0.68
10 -0.57
11 -0.81
12 -0.73
13 -0.9
14 -0.99
16 0.14
18 0.48
19 0.33
2 -0.68
20 0.42
21 -0.12
22 0.49
23 -0.06
24 -0.14
25 0.49
26 0.05
27 0.03
28 0.03
3 -0.57
30 -0.15
31 0.27
32 0.27
33 0.08
34 0.62
35 -0.15
36 -0.15
37 0.57
38 0.27
4 -0.53
42 0.33
43 0.66
5 -0.53
52 0.4
53 0.4
54 0.15
6 -0.57
61 0.45
62 0.45
63 0.15
64 0.15
65 0.37
66 0.45
69 0.36
7 -0.53
79 0.36
8 -0.57
80 0.36
81 0.5
9 -0.65

> <PUBCHEM_EFFECTIVE_ROTOR_COUNT>
11.6

> <PUBCHEM_PHARMACOPHORE_FEATURES>
23
1 1 acceptor
1 1 donor
1 10 acceptor
1 11 cation
1 12 donor
1 13 cation
1 13 donor
1 14 cation
1 14 donor
1 2 acceptor
1 2 donor
1 3 acceptor
1 4 donor
1 5 donor
1 6 acceptor
1 7 donor
1 8 acceptor
1 9 acceptor
3 9 10 43 anion
6 15 16 17 18 21 22 rings
6 15 18 19 23 25 27 rings
6 16 20 21 24 26 28 rings
6 24 28 30 33 35 36 rings

> <PUBCHEM_HEAVY_ATOM_COUNT>
43

> <PUBCHEM_ATOM_DEF_STEREO_COUNT>
6

> <PUBCHEM_ATOM_UDEF_STEREO_COUNT>
0

> <PUBCHEM_BOND_DEF_STEREO_COUNT>
0

> <PUBCHEM_BOND_UDEF_STEREO_COUNT>
0

> <PUBCHEM_ISOTOPIC_ATOM_COUNT>
0

> <PUBCHEM_COMPONENT_COUNT>
1

> <PUBCHEM_CACTVS_TAUTO_COUNT>
168

> <PUBCHEM_CONFORMER_ID>
0342C3E900000001

> <PUBCHEM_MMFF94_ENERGY>
107.5487

> <PUBCHEM_FEATURE_SELFOVERLAP>
116.987

> <PUBCHEM_SHAPE_FINGERPRINT>
10305334 12 18409454721175146975
12422481 6 18339070481556962054
13947930 73 17242202186132418305
14279260 333 17240752957921687448
14395042 24 18267592484713610251
14747281 78 14764080995557954859
15968369 153 18059029331431199977
16067690 210 16486415348448057432
16112460 7 18197789803912694048
18393751 57 18340772533672746043
19438510 23 18272938206614715130
20764821 26 18117863168047058444
229767 44 18408608080363669920
392239 28 18259990365938160727
50677037 204 18337099130033107688

> <PUBCHEM_SHAPE_MULTIPOLES>
806.3
14.56
5.74
2.53
28.9
0.98
0.06
-10.05
-9.83
-0.82
-0.41
-1.04
-0.21
-1.23

> <PUBCHEM_SHAPE_SELFOVERLAP>
1727.373

> <PUBCHEM_SHAPE_VOLUME>
439.3

> <PUBCHEM_COORDINATE_TYPE>
2
5
10

$$$$
