9865442
  -OEChem-08241812073D

 54 57  0     1  0  0  0  0  0999 V2000
   -5.2770    3.4429    0.3990 Cl  0  0  0  0  0  0  0  0  0  0  0  0
   -2.8217   -0.5545    2.0057 O   0  0  0  0  0  0  0  0  0  0  0  0
    0.1210    1.6737   -1.6868 O   0  0  0  0  0  0  0  0  0  0  0  0
   -4.2482    1.0430    0.3982 O   0  0  0  0  0  0  0  0  0  0  0  0
   -5.1776   -0.9770   -0.2279 O   0  0  0  0  0  0  0  0  0  0  0  0
    6.2329    0.7938    1.6373 O   0  0  0  0  0  0  0  0  0  0  0  0
   -1.7112   -0.3274   -0.1769 C   0  0  1  0  0  0  0  0  0  0  0  0
   -0.6561   -1.3862    0.2134 C   0  0  2  0  0  0  0  0  0  0  0  0
    0.7039   -1.1797   -0.4699 C   0  0  1  0  0  0  0  0  0  0  0  0
    1.2675    0.2256   -0.0570 C   0  0  2  0  0  0  0  0  0  0  0  0
   -2.9266   -0.8741    0.6214 C   0  0  1  0  0  0  0  0  0  0  0  0
   -1.1723    1.0477    0.2657 C   0  0  0  0  0  0  0  0  0  0  0  0
    0.2285    1.3649   -0.3043 C   0  0  2  0  0  0  0  0  0  0  0  0
   -1.3905   -2.7091    0.0115 C   0  0  0  0  0  0  0  0  0  0  0  0
    2.7202    0.4766   -0.6262 C   0  0  1  0  0  0  0  0  0  0  0  0
   -2.8412   -2.4068    0.4409 C   0  0  0  0  0  0  0  0  0  0  0  0
    1.6778   -2.3063   -0.0802 C   0  0  0  0  0  0  0  0  0  0  0  0
   -2.0451   -0.3247   -1.6946 C   0  0  0  0  0  0  0  0  0  0  0  0
    3.0798   -2.0759   -0.6302 C   0  0  0  0  0  0  0  0  0  0  0  0
    3.5859   -0.7189   -0.2131 C   0  0  0  0  0  0  0  0  0  0  0  0
   -4.2514   -0.3071    0.2084 C   0  0  0  0  0  0  0  0  0  0  0  0
    2.7796    0.6043   -2.1652 C   0  0  0  0  0  0  0  0  0  0  0  0
    3.2796    1.7785   -0.0707 C   0  0  0  0  0  0  0  0  0  0  0  0
    4.7085   -0.6112    0.5148 C   0  0  0  0  0  0  0  0  0  0  0  0
    4.3956    1.8923    0.6559 C   0  0  0  0  0  0  0  0  0  0  0  0
    5.1974    0.7002    0.9870 C   0  0  0  0  0  0  0  0  0  0  0  0
   -5.4595    1.7152    0.0439 C   0  0  0  0  0  0  0  0  0  0  0  0
   -0.4683   -1.3079    1.2973 H   0  0  0  0  0  0  0  0  0  0  0  0
    0.5787   -1.2192   -1.5567 H   0  0  0  0  0  0  0  0  0  0  0  0
    1.3772    0.1873    1.0407 H   0  0  0  0  0  0  0  0  0  0  0  0
   -1.0997    1.0896    1.3594 H   0  0  0  0  0  0  0  0  0  0  0  0
   -1.8699    1.8373   -0.0360 H   0  0  0  0  0  0  0  0  0  0  0  0
    0.5769    2.2777    0.1916 H   0  0  0  0  0  0  0  0  0  0  0  0
   -0.9606   -3.5140    0.6163 H   0  0  0  0  0  0  0  0  0  0  0  0
   -1.3591   -3.0291   -1.0362 H   0  0  0  0  0  0  0  0  0  0  0  0
   -3.5200   -2.7914   -0.3280 H   0  0  0  0  0  0  0  0  0  0  0  0
   -3.0690   -2.9352    1.3738 H   0  0  0  0  0  0  0  0  0  0  0  0
    1.3079   -3.2680   -0.4552 H   0  0  0  0  0  0  0  0  0  0  0  0
    1.7274   -2.3928    1.0135 H   0  0  0  0  0  0  0  0  0  0  0  0
   -2.6875    0.5268   -1.9473 H   0  0  0  0  0  0  0  0  0  0  0  0
   -1.1610   -0.2582   -2.3310 H   0  0  0  0  0  0  0  0  0  0  0  0
   -2.5783   -1.2281   -2.0085 H   0  0  0  0  0  0  0  0  0  0  0  0
    3.0751   -2.1529   -1.7234 H   0  0  0  0  0  0  0  0  0  0  0  0
    3.7375   -2.8767   -0.2708 H   0  0  0  0  0  0  0  0  0  0  0  0
    2.3968    1.5678   -2.5189 H   0  0  0  0  0  0  0  0  0  0  0  0
    3.8142    0.5377   -2.5272 H   0  0  0  0  0  0  0  0  0  0  0  0
    2.2116   -0.1797   -2.6750 H   0  0  0  0  0  0  0  0  0  0  0  0
    2.7453    2.6965   -0.3049 H   0  0  0  0  0  0  0  0  0  0  0  0
   -3.5106   -1.0454    2.4856 H   0  0  0  0  0  0  0  0  0  0  0  0
   -0.4972    2.4186   -1.7777 H   0  0  0  0  0  0  0  0  0  0  0  0
    5.2916   -1.4810    0.7984 H   0  0  0  0  0  0  0  0  0  0  0  0
    4.7437    2.8564    1.0080 H   0  0  0  0  0  0  0  0  0  0  0  0
   -6.2965    1.3319    0.6350 H   0  0  0  0  0  0  0  0  0  0  0  0
   -5.6551    1.6047   -1.0267 H   0  0  0  0  0  0  0  0  0  0  0  0
  1 27  1  0  0  0  0
  2 11  1  0  0  0  0
  2 49  1  0  0  0  0
  3 13  1  0  0  0  0
  3 50  1  0  0  0  0
  4 21  1  0  0  0  0
  4 27  1  0  0  0  0
  5 21  2  0  0  0  0
  6 26  2  0  0  0  0
  7  8  1  0  0  0  0
  7 11  1  0  0  0  0
  7 12  1  0  0  0  0
  7 18  1  0  0  0  0
  8  9  1  0  0  0  0
  8 14  1  0  0  0  0
  8 28  1  0  0  0  0
  9 10  1  0  0  0  0
  9 17  1  0  0  0  0
  9 29  1  0  0  0  0
 10 13  1  0  0  0  0
 10 15  1  0  0  0  0
 10 30  1  0  0  0  0
 11 16  1  0  0  0  0
 11 21  1  0  0  0  0
 12 13  1  0  0  0  0
 12 31  1  0  0  0  0
 12 32  1  0  0  0  0
 13 33  1  0  0  0  0
 14 16  1  0  0  0  0
 14 34  1  0  0  0  0
 14 35  1  0  0  0  0
 15 20  1  0  0  0  0
 15 22  1  0  0  0  0
 15 23  1  0  0  0  0
 16 36  1  0  0  0  0
 16 37  1  0  0  0  0
 17 19  1  0  0  0  0
 17 38  1  0  0  0  0
 17 39  1  0  0  0  0
 18 40  1  0  0  0  0
 18 41  1  0  0  0  0
 18 42  1  0  0  0  0
 19 20  1  0  0  0  0
 19 43  1  0  0  0  0
 19 44  1  0  0  0  0
 20 24  2  0  0  0  0
 22 45  1  0  0  0  0
 22 46  1  0  0  0  0
 22 47  1  0  0  0  0
 23 25  2  0  0  0  0
 23 48  1  0  0  0  0
 24 26  1  0  0  0  0
 24 51  1  0  0  0  0
 25 26  1  0  0  0  0
 25 52  1  0  0  0  0
 27 53  1  0  0  0  0
 27 54  1  0  0  0  0
M  END
> <DATABASE_ID>
DB00873

> <DATABASE_NAME>
drugbank

> <ORIGINAL_SOURCE>
PUBCHEM

> <ORIGINAL_SOURCE_URL>
https://pubchem.ncbi.nlm.nih.gov/rest/pug/compound/inchikey/YPZVAYHNBBHPTO-MXRBDKCISA-N/SDF?record_type=3d

> <SMILES>
[H][C@@]12CC[C@](O)(C(=O)OCCl)[C@@]1(C)C[C@H](O)[C@@]1([H])[C@@]2([H])CCC2=CC(=O)C=C[C@]12C

> <INCHI_IDENTIFIER>
InChI=1S/C21H27ClO5/c1-19-7-5-13(23)9-12(19)3-4-14-15-6-8-21(26,18(25)27-11-22)20(15,2)10-16(24)17(14)19/h5,7,9,14-17,24,26H,3-4,6,8,10-11H2,1-2H3/t14-,15-,16-,17+,19-,20-,21-/m0/s1

> <INCHI_KEY>
YPZVAYHNBBHPTO-MXRBDKCISA-N

> <FORMULA>
C21H27ClO5

> <MOLECULAR_WEIGHT>
394.889

> <EXACT_MASS>
394.154701681

> <JCHEM_ACCEPTOR_COUNT>
4

> <JCHEM_ATOM_COUNT>
54

> <JCHEM_AVERAGE_POLARIZABILITY>
41.29492112487631

> <JCHEM_BIOAVAILABILITY>
1

> <JCHEM_DONOR_COUNT>
2

> <JCHEM_FORMAL_CHARGE>
0

> <JCHEM_GHOSE_FILTER>
1

> <JCHEM_IUPAC>
chloromethyl (1R,3aS,3bS,9aR,9bS,10S,11aS)-1,10-dihydroxy-9a,11a-dimethyl-7-oxo-1H,2H,3H,3aH,3bH,4H,5H,7H,9aH,9bH,10H,11H,11aH-cyclopenta[a]phenanthrene-1-carboxylate

> <ALOGPS_LOGP>
2.20

> <JCHEM_LOGP>
2.5202634643333335

> <ALOGPS_LOGS>
-4.07

> <JCHEM_MDDR_LIKE_RULE>
0

> <JCHEM_NUMBER_OF_RINGS>
4

> <JCHEM_PHYSIOLOGICAL_CHARGE>
0

> <JCHEM_PKA>
14.886486131842489

> <JCHEM_PKA_STRONGEST_ACIDIC>
12.012492367374193

> <JCHEM_PKA_STRONGEST_BASIC>
-2.8514024872015327

> <JCHEM_POLAR_SURFACE_AREA>
83.83000000000001

> <JCHEM_REFRACTIVITY>
102.64849999999998

> <JCHEM_ROTATABLE_BOND_COUNT>
3

> <JCHEM_RULE_OF_FIVE>
1

> <ALOGPS_SOLUBILITY>
3.36e-02 g/l

> <JCHEM_TRADITIONAL_IUPAC>
loteprednol

> <JCHEM_VEBER_RULE>
0

$$$$
