9867361
  -OEChem-03022009523D

 62 67  0     1  0  0  0  0  0999 V2000
    2.9569    3.7054   -0.1105 O   0  0  0  0  0  0  0  0  0  0  0  0
   -4.1212    1.8584    1.5506 O   0  0  0  0  0  0  0  0  0  0  0  0
   -0.5179   -6.2765   -0.8589 O   0  0  0  0  0  0  0  0  0  0  0  0
   -5.1915    2.6305   -0.4659 O   0  0  0  0  0  0  0  0  0  0  0  0
    1.6666    1.6172    0.2766 C   0  0  1  0  0  0  0  0  0  0  0  0
    2.0478    0.3461    1.0615 C   0  0  2  0  0  0  0  0  0  0  0  0
    0.8426   -0.5290    1.4204 C   0  0  1  0  0  0  0  0  0  0  0  0
    3.0616    2.3198    0.1840 C   0  0  2  0  0  0  0  0  0  0  0  0
    1.0328    1.1691   -1.0532 C   0  0  0  0  0  0  0  0  0  0  0  0
    2.9211    0.8784    2.1984 C   0  0  0  0  0  0  0  0  0  0  0  0
   -0.1515    0.1616   -0.9049 C   0  0  1  0  0  0  0  0  0  0  0  0
    3.6635    2.0892    1.5962 C   0  0  0  0  0  0  0  0  0  0  0  0
    0.0931   -0.9498    0.1382 C   0  0  0  0  0  0  0  0  0  0  0  0
    1.2937   -1.7196    2.2863 C   0  0  0  0  0  0  0  0  0  0  0  0
    0.6732    2.5447    1.0284 C   0  0  0  0  0  0  0  0  0  0  0  0
   -0.3380   -2.2280   -0.0348 C   0  0  0  0  0  0  0  0  0  0  0  0
    0.1964   -2.7667    2.3758 C   0  0  0  0  0  0  0  0  0  0  0  0
   -1.5223    0.8378   -0.8230 C   0  0  0  0  0  0  0  0  0  0  0  0
   -0.1301   -3.2572    0.9922 C   0  0  0  0  0  0  0  0  0  0  0  0
    3.9546    1.7273   -0.8323 C   0  0  0  0  0  0  0  0  0  0  0  0
   -1.1349   -2.7369   -1.2199 C   0  0  0  0  0  0  0  0  0  0  0  0
   -0.2123   -4.5735    0.7361 C   0  0  0  0  0  0  0  0  0  0  0  0
   -0.5709   -4.0496   -1.7485 C   0  0  0  0  0  0  0  0  0  0  0  0
   -2.1363    0.9998    0.4181 C   0  0  0  0  0  0  0  0  0  0  0  0
   -2.1419    1.2857   -1.9997 C   0  0  0  0  0  0  0  0  0  0  0  0
   -0.4629   -5.0684   -0.6401 C   0  0  0  0  0  0  0  0  0  0  0  0
    4.6812    1.2458   -1.6583 C   0  0  0  0  0  0  0  0  0  0  0  0
   -3.3712    1.6149    0.4413 C   0  0  0  0  0  0  0  0  0  0  0  0
   -3.3926    1.9057   -1.9483 C   0  0  0  0  0  0  0  0  0  0  0  0
   -3.9825    2.0557   -0.7100 C   0  0  0  0  0  0  0  0  0  0  0  0
    5.5659    0.6596   -2.6641 C   0  0  0  0  0  0  0  0  0  0  0  0
   -5.2728    2.5026    0.9683 C   0  0  0  0  0  0  0  0  0  0  0  0
    2.7049   -0.2765    0.4324 H   0  0  0  0  0  0  0  0  0  0  0  0
    0.1528    0.0369    2.0513 H   0  0  0  0  0  0  0  0  0  0  0  0
    1.7883    0.6532   -1.6597 H   0  0  0  0  0  0  0  0  0  0  0  0
    0.7309    2.0432   -1.6444 H   0  0  0  0  0  0  0  0  0  0  0  0
    3.6253    0.1218    2.5596 H   0  0  0  0  0  0  0  0  0  0  0  0
    2.3119    1.1994    3.0512 H   0  0  0  0  0  0  0  0  0  0  0  0
   -0.1499   -0.3362   -1.8838 H   0  0  0  0  0  0  0  0  0  0  0  0
    3.5237    2.9666    2.2392 H   0  0  0  0  0  0  0  0  0  0  0  0
    4.7430    1.8983    1.5634 H   0  0  0  0  0  0  0  0  0  0  0  0
    1.5482   -1.3725    3.2952 H   0  0  0  0  0  0  0  0  0  0  0  0
    2.2030   -2.1748    1.8704 H   0  0  0  0  0  0  0  0  0  0  0  0
    0.2153    3.2659    0.3420 H   0  0  0  0  0  0  0  0  0  0  0  0
   -0.1171    2.0223    1.5547 H   0  0  0  0  0  0  0  0  0  0  0  0
    1.1769    3.1363    1.8014 H   0  0  0  0  0  0  0  0  0  0  0  0
   -0.7022   -2.3384    2.8376 H   0  0  0  0  0  0  0  0  0  0  0  0
    0.5306   -3.5853    3.0243 H   0  0  0  0  0  0  0  0  0  0  0  0
    3.8258    4.1143    0.0444 H   0  0  0  0  0  0  0  0  0  0  0  0
   -2.1720   -2.8929   -0.8910 H   0  0  0  0  0  0  0  0  0  0  0  0
   -1.1885   -2.0312   -2.0506 H   0  0  0  0  0  0  0  0  0  0  0  0
   -0.0636   -5.3200    1.5088 H   0  0  0  0  0  0  0  0  0  0  0  0
    0.4236   -3.9067   -2.1858 H   0  0  0  0  0  0  0  0  0  0  0  0
   -1.2388   -4.4454   -2.5213 H   0  0  0  0  0  0  0  0  0  0  0  0
   -1.7270    0.6349    1.3478 H   0  0  0  0  0  0  0  0  0  0  0  0
   -1.6553    1.1572   -2.9633 H   0  0  0  0  0  0  0  0  0  0  0  0
   -3.8774    2.2544   -2.8529 H   0  0  0  0  0  0  0  0  0  0  0  0
    6.3733    0.0938   -2.1896 H   0  0  0  0  0  0  0  0  0  0  0  0
    5.0133   -0.0213   -3.3185 H   0  0  0  0  0  0  0  0  0  0  0  0
    6.0169    1.4379   -3.2869 H   0  0  0  0  0  0  0  0  0  0  0  0
   -5.3734    3.5030    1.4047 H   0  0  0  0  0  0  0  0  0  0  0  0
   -6.1657    1.9181    1.2184 H   0  0  0  0  0  0  0  0  0  0  0  0
  1  8  1  0  0  0  0
  1 49  1  0  0  0  0
  2 28  1  0  0  0  0
  2 32  1  0  0  0  0
  3 26  2  0  0  0  0
  4 30  1  0  0  0  0
  4 32  1  0  0  0  0
  5  6  1  0  0  0  0
  5  8  1  0  0  0  0
  5  9  1  0  0  0  0
  5 15  1  0  0  0  0
  6  7  1  0  0  0  0
  6 10  1  0  0  0  0
  6 33  1  0  0  0  0
  7 13  1  0  0  0  0
  7 14  1  0  0  0  0
  7 34  1  0  0  0  0
  8 12  1  0  0  0  0
  8 20  1  0  0  0  0
  9 11  1  0  0  0  0
  9 35  1  0  0  0  0
  9 36  1  0  0  0  0
 10 12  1  0  0  0  0
 10 37  1  0  0  0  0
 10 38  1  0  0  0  0
 11 13  1  0  0  0  0
 11 18  1  0  0  0  0
 11 39  1  0  0  0  0
 12 40  1  0  0  0  0
 12 41  1  0  0  0  0
 13 16  2  0  0  0  0
 14 17  1  0  0  0  0
 14 42  1  0  0  0  0
 14 43  1  0  0  0  0
 15 44  1  0  0  0  0
 15 45  1  0  0  0  0
 15 46  1  0  0  0  0
 16 19  1  0  0  0  0
 16 21  1  0  0  0  0
 17 19  1  0  0  0  0
 17 47  1  0  0  0  0
 17 48  1  0  0  0  0
 18 24  2  0  0  0  0
 18 25  1  0  0  0  0
 19 22  2  0  0  0  0
 20 27  3  0  0  0  0
 21 23  1  0  0  0  0
 21 50  1  0  0  0  0
 21 51  1  0  0  0  0
 22 26  1  0  0  0  0
 22 52  1  0  0  0  0
 23 26  1  0  0  0  0
 23 53  1  0  0  0  0
 23 54  1  0  0  0  0
 24 28  1  0  0  0  0
 24 55  1  0  0  0  0
 25 29  2  0  0  0  0
 25 56  1  0  0  0  0
 27 31  1  0  0  0  0
 28 30  2  0  0  0  0
 29 30  1  0  0  0  0
 29 57  1  0  0  0  0
 31 58  1  0  0  0  0
 31 59  1  0  0  0  0
 31 60  1  0  0  0  0
 32 61  1  0  0  0  0
 32 62  1  0  0  0  0
M  END
> <DATABASE_ID>
DB05423

> <DATABASE_NAME>
drugbank

> <ORIGINAL_SOURCE>
PUBCHEM

> <ORIGINAL_SOURCE_URL>
https://pubchem.ncbi.nlm.nih.gov/rest/pug/compound/inchikey/DFELGYQKEOCHOA-BZAFBGKRSA-N/SDF?record_type=3d

> <SMILES>
[H][C@@]12CC[C@@](O)(C#CC)[C@@]1(C)C[C@H](C1=CC=C3OCOC3=C1)C1=C3CCC(=O)C=C3CC[C@@]21[H]

> <INCHI_IDENTIFIER>
InChI=1S/C28H30O4/c1-3-11-28(30)12-10-23-21-7-4-17-13-19(29)6-8-20(17)26(21)22(15-27(23,28)2)18-5-9-24-25(14-18)32-16-31-24/h5,9,13-14,21-23,30H,4,6-8,10,12,15-16H2,1-2H3/t21-,22+,23-,27-,28-/m0/s1

> <INCHI_KEY>
DFELGYQKEOCHOA-BZAFBGKRSA-N

> <FORMULA>
C28H30O4

> <MOLECULAR_WEIGHT>
430.544

> <EXACT_MASS>
430.214409446

> <JCHEM_ACCEPTOR_COUNT>
4

> <JCHEM_ATOM_COUNT>
62

> <JCHEM_AVERAGE_NEUTRAL_MICROSPECIES_CHARGE>
0.00020160099734229146

> <JCHEM_AVERAGE_POLARIZABILITY>
48.358167873117054

> <JCHEM_BIOAVAILABILITY>
1

> <JCHEM_DONOR_COUNT>
1

> <JCHEM_FORMAL_CHARGE>
0

> <JCHEM_GHOSE_FILTER>
1

> <JCHEM_IUPAC>
(1S,3aS,3bS,10R,11aS)-10-(2H-1,3-benzodioxol-5-yl)-1-hydroxy-11a-methyl-1-(prop-1-yn-1-yl)-1H,2H,3H,3aH,3bH,4H,5H,7H,8H,9H,10H,11H,11aH-cyclopenta[a]phenanthren-7-one

> <ALOGPS_LOGP>
4.56

> <JCHEM_LOGP>
4.648477261333334

> <ALOGPS_LOGS>
-5.11

> <JCHEM_MDDR_LIKE_RULE>
0

> <JCHEM_NEUTRAL_CHARGE>
0

> <JCHEM_NUMBER_OF_RINGS>
6

> <JCHEM_PHYSIOLOGICAL_CHARGE>
0

> <JCHEM_PKA>
18.463167174297755

> <JCHEM_PKA_STRONGEST_ACIDIC>
12.865693444440895

> <JCHEM_PKA_STRONGEST_BASIC>
-3.7323452064951463

> <JCHEM_POLAR_SURFACE_AREA>
55.760000000000005

> <JCHEM_REFRACTIVITY>
123.91919999999999

> <JCHEM_ROTATABLE_BOND_COUNT>
2

> <JCHEM_RULE_OF_FIVE>
1

> <ALOGPS_SOLUBILITY>
3.37e-03 g/l

> <JCHEM_TRADITIONAL_IUPAC>
(1S,3aS,3bS,10R,11aS)-10-(2H-1,3-benzodioxol-5-yl)-1-hydroxy-11a-methyl-1-(prop-1-yn-1-yl)-2H,3H,3aH,3bH,4H,5H,8H,9H,10H,11H-cyclopenta[a]phenanthren-7-one

> <JCHEM_VEBER_RULE>
0

$$$$
