10245972
  -OEChem-10051722403D

 56 56  0     0  0  0  0  0  0999 V2000
    6.5804   -0.1576    0.2256 O   0  0  0  0  0  0  0  0  0  0  0  0
    7.9538   -1.7519   -0.7275 O   0  0  0  0  0  0  0  0  0  0  0  0
   -5.3005   -0.2974   -0.4903 C   0  0  0  0  0  0  0  0  0  0  0  0
   -6.0458   -1.6417   -0.2665 C   0  0  0  0  0  0  0  0  0  0  0  0
   -5.1148   -2.8372   -0.3590 C   0  0  0  0  0  0  0  0  0  0  0  0
   -3.9642   -0.2513    0.2875 C   0  0  0  0  0  0  0  0  0  0  0  0
   -4.0292   -2.7356    0.7018 C   0  0  0  0  0  0  0  0  0  0  0  0
   -3.4127   -1.3586    0.8450 C   0  0  0  0  0  0  0  0  0  0  0  0
   -6.2784    0.8131   -0.0346 C   0  0  0  0  0  0  0  0  0  0  0  0
   -5.0259   -0.1204   -2.0014 C   0  0  0  0  0  0  0  0  0  0  0  0
   -3.3249    1.0521    0.3610 C   0  0  0  0  0  0  0  0  0  0  0  0
   -2.1435   -1.3960    1.6647 C   0  0  0  0  0  0  0  0  0  0  0  0
   -2.0011    1.2287    0.2261 C   0  0  0  0  0  0  0  0  0  0  0  0
   -1.2758    2.5026    0.2851 C   0  0  0  0  0  0  0  0  0  0  0  0
   -2.0923    3.7491    0.5204 C   0  0  0  0  0  0  0  0  0  0  0  0
    0.0653    2.4823    0.1259 C   0  0  0  0  0  0  0  0  0  0  0  0
    0.9154    1.3289   -0.1038 C   0  0  0  0  0  0  0  0  0  0  0  0
    2.2483    1.4304   -0.2483 C   0  0  0  0  0  0  0  0  0  0  0  0
    3.1915    0.3325   -0.4830 C   0  0  0  0  0  0  0  0  0  0  0  0
    4.5034    0.6260   -0.6033 C   0  0  0  0  0  0  0  0  0  0  0  0
    2.6280   -1.0613   -0.5784 C   0  0  0  0  0  0  0  0  0  0  0  0
    5.6506   -0.3056   -0.8413 C   0  0  0  0  0  0  0  0  0  0  0  0
    7.6946   -0.9465    0.1562 C   0  0  0  0  0  0  0  0  0  0  0  0
    8.5779   -0.6844    1.3382 C   0  0  0  0  0  0  0  0  0  0  0  0
   -6.8581   -1.7562   -0.9955 H   0  0  0  0  0  0  0  0  0  0  0  0
   -6.5210   -1.6465    0.7245 H   0  0  0  0  0  0  0  0  0  0  0  0
   -4.6631   -2.8972   -1.3557 H   0  0  0  0  0  0  0  0  0  0  0  0
   -5.6804   -3.7653   -0.2169 H   0  0  0  0  0  0  0  0  0  0  0  0
   -3.2480   -3.4670    0.4600 H   0  0  0  0  0  0  0  0  0  0  0  0
   -4.4477   -3.0262    1.6742 H   0  0  0  0  0  0  0  0  0  0  0  0
   -5.9489    1.8107   -0.3447 H   0  0  0  0  0  0  0  0  0  0  0  0
   -7.2712    0.6646   -0.4766 H   0  0  0  0  0  0  0  0  0  0  0  0
   -6.3984    0.8165    1.0551 H   0  0  0  0  0  0  0  0  0  0  0  0
   -4.3105   -0.8606   -2.3757 H   0  0  0  0  0  0  0  0  0  0  0  0
   -5.9479   -0.2209   -2.5854 H   0  0  0  0  0  0  0  0  0  0  0  0
   -4.6114    0.8708   -2.2200 H   0  0  0  0  0  0  0  0  0  0  0  0
   -3.9653    1.8968    0.5867 H   0  0  0  0  0  0  0  0  0  0  0  0
   -1.2923   -1.6987    1.0468 H   0  0  0  0  0  0  0  0  0  0  0  0
   -1.9206   -0.4539    2.1718 H   0  0  0  0  0  0  0  0  0  0  0  0
   -2.2429   -2.1329    2.4709 H   0  0  0  0  0  0  0  0  0  0  0  0
   -1.4357    0.3501   -0.0515 H   0  0  0  0  0  0  0  0  0  0  0  0
   -1.4551    4.6403    0.5380 H   0  0  0  0  0  0  0  0  0  0  0  0
   -2.8278    3.8930   -0.2782 H   0  0  0  0  0  0  0  0  0  0  0  0
   -2.6101    3.7025    1.4842 H   0  0  0  0  0  0  0  0  0  0  0  0
    0.5850    3.4391    0.1724 H   0  0  0  0  0  0  0  0  0  0  0  0
    0.4764    0.3428   -0.1536 H   0  0  0  0  0  0  0  0  0  0  0  0
    2.6933    2.4241   -0.1917 H   0  0  0  0  0  0  0  0  0  0  0  0
    4.8088    1.6703   -0.5263 H   0  0  0  0  0  0  0  0  0  0  0  0
    1.9085   -1.1293   -1.4022 H   0  0  0  0  0  0  0  0  0  0  0  0
    3.3805   -1.8302   -0.7610 H   0  0  0  0  0  0  0  0  0  0  0  0
    2.1221   -1.3356    0.3542 H   0  0  0  0  0  0  0  0  0  0  0  0
    5.3488   -1.3525   -0.9112 H   0  0  0  0  0  0  0  0  0  0  0  0
    6.1367   -0.0236   -1.7829 H   0  0  0  0  0  0  0  0  0  0  0  0
    8.0430   -0.9240    2.2606 H   0  0  0  0  0  0  0  0  0  0  0  0
    8.8967    0.3609    1.3380 H   0  0  0  0  0  0  0  0  0  0  0  0
    9.4660   -1.3197    1.2755 H   0  0  0  0  0  0  0  0  0  0  0  0
  1 22  1  0  0  0  0
  1 23  1  0  0  0  0
  2 23  2  0  0  0  0
  3  4  1  0  0  0  0
  3  6  1  0  0  0  0
  3  9  1  0  0  0  0
  3 10  1  0  0  0  0
  4  5  1  0  0  0  0
  4 25  1  0  0  0  0
  4 26  1  0  0  0  0
  5  7  1  0  0  0  0
  5 27  1  0  0  0  0
  5 28  1  0  0  0  0
  6  8  2  0  0  0  0
  6 11  1  0  0  0  0
  7  8  1  0  0  0  0
  7 29  1  0  0  0  0
  7 30  1  0  0  0  0
  8 12  1  0  0  0  0
  9 31  1  0  0  0  0
  9 32  1  0  0  0  0
  9 33  1  0  0  0  0
 10 34  1  0  0  0  0
 10 35  1  0  0  0  0
 10 36  1  0  0  0  0
 11 13  2  0  0  0  0
 11 37  1  0  0  0  0
 12 38  1  0  0  0  0
 12 39  1  0  0  0  0
 12 40  1  0  0  0  0
 13 14  1  0  0  0  0
 13 41  1  0  0  0  0
 14 15  1  0  0  0  0
 14 16  2  0  0  0  0
 15 42  1  0  0  0  0
 15 43  1  0  0  0  0
 15 44  1  0  0  0  0
 16 17  1  0  0  0  0
 16 45  1  0  0  0  0
 17 18  2  0  0  0  0
 17 46  1  0  0  0  0
 18 19  1  0  0  0  0
 18 47  1  0  0  0  0
 19 20  2  0  0  0  0
 19 21  1  0  0  0  0
 20 22  1  0  0  0  0
 20 48  1  0  0  0  0
 21 49  1  0  0  0  0
 21 50  1  0  0  0  0
 21 51  1  0  0  0  0
 22 52  1  0  0  0  0
 22 53  1  0  0  0  0
 23 24  1  0  0  0  0
 24 54  1  0  0  0  0
 24 55  1  0  0  0  0
 24 56  1  0  0  0  0
M  END
> <DATABASE_ID>
DB12112

> <DATABASE_NAME>
drugbank

> <ORIGINAL_SOURCE>
PUBCHEM

> <ORIGINAL_SOURCE_URL>
https://pubchem.ncbi.nlm.nih.gov/rest/pug/compound/inchikey/QGNJRVVDBSJHIZ-AQDFTDIISA-N/SDF?record_type=3d

> <SMILES>
CC(=O)OC\C=C(/C)\C=C\C=C(\C)/C=C/C1=C(C)CCCC1(C)C

> <INCHI_IDENTIFIER>
InChI=1S/C22H32O2/c1-17(9-7-10-18(2)14-16-24-20(4)23)12-13-21-19(3)11-8-15-22(21,5)6/h7,9-10,12-14H,8,11,15-16H2,1-6H3/b10-7+,13-12+,17-9-,18-14+

> <INCHI_KEY>
QGNJRVVDBSJHIZ-AQDFTDIISA-N

> <FORMULA>
C22H32O2

> <MOLECULAR_WEIGHT>
328.4883

> <EXACT_MASS>
328.240230268

> <JCHEM_ACCEPTOR_COUNT>
1

> <JCHEM_ATOM_COUNT>
56

> <JCHEM_AVERAGE_NEUTRAL_MICROSPECIES_CHARGE>
0.0

> <JCHEM_AVERAGE_POLARIZABILITY>
40.49799955673657

> <JCHEM_BIOAVAILABILITY>
1

> <JCHEM_DONOR_COUNT>
0

> <JCHEM_FORMAL_CHARGE>
0

> <JCHEM_GHOSE_FILTER>
1

> <JCHEM_IUPAC>
(2E,4E,6Z,8E)-3,7-dimethyl-9-(2,6,6-trimethylcyclohex-1-en-1-yl)nona-2,4,6,8-tetraen-1-yl acetate

> <ALOGPS_LOGP>
6.56

> <JCHEM_LOGP>
5.135218583333335

> <ALOGPS_LOGS>
-5.14

> <JCHEM_MDDR_LIKE_RULE>
0

> <JCHEM_NEUTRAL_CHARGE>
0

> <JCHEM_NUMBER_OF_RINGS>
1

> <JCHEM_PHYSIOLOGICAL_CHARGE>
0

> <JCHEM_PKA_STRONGEST_BASIC>
-7.004456796498005

> <JCHEM_POLAR_SURFACE_AREA>
26.3

> <JCHEM_REFRACTIVITY>
107.0749

> <JCHEM_ROTATABLE_BOND_COUNT>
7

> <JCHEM_RULE_OF_FIVE>
0

> <ALOGPS_SOLUBILITY>
2.38e-03 g/l

> <JCHEM_TRADITIONAL_IUPAC>
tetrahydrofolic acid

> <JCHEM_VEBER_RULE>
1

$$$$
