5284535
  -OEChem-10061700313D

 52 55  0     1  0  0  0  0  0999 V2000
   -3.5600    3.3531    0.0690 Cl  0  0  0  0  0  0  0  0  0  0  0  0
    3.0945    0.1919    1.9853 O   0  0  0  0  0  0  0  0  0  0  0  0
    0.1273   -1.9178   -1.7745 O   0  0  0  0  0  0  0  0  0  0  0  0
    5.2793    0.3662   -0.6409 O   0  0  0  0  0  0  0  0  0  0  0  0
    6.2068   -1.8542    0.5544 O   0  0  0  0  0  0  0  0  0  0  0  0
   -5.9939   -1.0810    1.5354 O   0  0  0  0  0  0  0  0  0  0  0  0
    2.0348   -0.0081   -0.2225 C   0  0  1  0  0  0  0  0  0  0  0  0
    1.0097    1.0995    0.1373 C   0  0  2  0  0  0  0  0  0  0  0  0
   -0.3331    0.9200   -0.5864 C   0  0  1  0  0  0  0  0  0  0  0  0
   -0.9499   -0.4390   -0.1133 C   0  0  2  0  0  0  0  0  0  0  0  0
    3.2515    0.4970    0.6027 C   0  0  1  0  0  0  0  0  0  0  0  0
    1.4318   -1.3687    0.1900 C   0  0  0  0  0  0  0  0  0  0  0  0
    1.8040    2.3877   -0.0639 C   0  0  0  0  0  0  0  0  0  0  0  0
    0.0191   -1.6227   -0.3911 C   0  0  2  0  0  0  0  0  0  0  0  0
    3.2287    2.0312    0.4081 C   0  0  0  0  0  0  0  0  0  0  0  0
   -2.4376   -0.5769   -0.6040 C   0  0  1  0  0  0  0  0  0  0  0  0
    2.4164   -0.0293   -1.7315 C   0  0  0  0  0  0  0  0  0  0  0  0
   -1.2856    2.0698   -0.3686 C   0  0  0  0  0  0  0  0  0  0  0  0
    4.5642   -0.1244    0.2315 C   0  0  0  0  0  0  0  0  0  0  0  0
   -3.2145    0.5963    0.0380 C   0  0  0  0  0  0  0  0  0  0  0  0
   -2.5904    1.9178   -0.0850 C   0  0  0  0  0  0  0  0  0  0  0  0
   -2.6139   -0.4841   -2.1395 C   0  0  0  0  0  0  0  0  0  0  0  0
   -3.0192   -1.9221   -0.2011 C   0  0  0  0  0  0  0  0  0  0  0  0
    4.9500   -1.3782    0.9872 C   0  0  0  0  0  0  0  0  0  0  0  0
   -4.3531    0.4103    0.7304 C   0  0  0  0  0  0  0  0  0  0  0  0
   -4.1453   -2.0983    0.4950 C   0  0  0  0  0  0  0  0  0  0  0  0
   -4.9216   -0.9361    0.9579 C   0  0  0  0  0  0  0  0  0  0  0  0
    0.7936    1.0449    1.2173 H   0  0  0  0  0  0  0  0  0  0  0  0
   -0.1559    0.8879   -1.6665 H   0  0  0  0  0  0  0  0  0  0  0  0
   -1.0055   -0.3929    0.9890 H   0  0  0  0  0  0  0  0  0  0  0  0
    1.3527   -1.4241    1.2826 H   0  0  0  0  0  0  0  0  0  0  0  0
    2.1033   -2.1777   -0.1203 H   0  0  0  0  0  0  0  0  0  0  0  0
    1.3942    3.2189    0.5191 H   0  0  0  0  0  0  0  0  0  0  0  0
    1.8131    2.6945   -1.1158 H   0  0  0  0  0  0  0  0  0  0  0  0
   -0.3670   -2.5261    0.0939 H   0  0  0  0  0  0  0  0  0  0  0  0
    3.9469    2.3886   -0.3373 H   0  0  0  0  0  0  0  0  0  0  0  0
    3.4471    2.5569    1.3450 H   0  0  0  0  0  0  0  0  0  0  0  0
    3.0599   -0.8886   -1.9534 H   0  0  0  0  0  0  0  0  0  0  0  0
    1.5536   -0.1012   -2.3954 H   0  0  0  0  0  0  0  0  0  0  0  0
    2.9609    0.8679   -2.0429 H   0  0  0  0  0  0  0  0  0  0  0  0
   -0.8811    3.0707   -0.5012 H   0  0  0  0  0  0  0  0  0  0  0  0
   -3.6763   -0.5138   -2.4162 H   0  0  0  0  0  0  0  0  0  0  0  0
   -2.2071    0.4385   -2.5645 H   0  0  0  0  0  0  0  0  0  0  0  0
   -2.1318   -1.3205   -2.6564 H   0  0  0  0  0  0  0  0  0  0  0  0
    3.7416    0.7130    2.4910 H   0  0  0  0  0  0  0  0  0  0  0  0
   -2.5098   -2.8167   -0.5523 H   0  0  0  0  0  0  0  0  0  0  0  0
    0.7115   -2.6891   -1.8695 H   0  0  0  0  0  0  0  0  0  0  0  0
    4.2072   -2.1633    0.8344 H   0  0  0  0  0  0  0  0  0  0  0  0
    5.0492   -1.1637    2.0536 H   0  0  0  0  0  0  0  0  0  0  0  0
   -4.8967    1.2229    1.2004 H   0  0  0  0  0  0  0  0  0  0  0  0
   -4.5230   -3.0893    0.7177 H   0  0  0  0  0  0  0  0  0  0  0  0
    6.1107   -2.1322   -0.3725 H   0  0  0  0  0  0  0  0  0  0  0  0
  1 21  1  0  0  0  0
  2 11  1  0  0  0  0
  2 45  1  0  0  0  0
  3 14  1  0  0  0  0
  3 47  1  0  0  0  0
  4 19  2  0  0  0  0
  5 24  1  0  0  0  0
  5 52  1  0  0  0  0
  6 27  2  0  0  0  0
  7  8  1  0  0  0  0
  7 11  1  0  0  0  0
  7 12  1  0  0  0  0
  7 17  1  0  0  0  0
  8  9  1  0  0  0  0
  8 13  1  0  0  0  0
  8 28  1  0  0  0  0
  9 10  1  0  0  0  0
  9 18  1  0  0  0  0
  9 29  1  0  0  0  0
 10 14  1  0  0  0  0
 10 16  1  0  0  0  0
 10 30  1  0  0  0  0
 11 15  1  0  0  0  0
 11 19  1  0  0  0  0
 12 14  1  0  0  0  0
 12 31  1  0  0  0  0
 12 32  1  0  0  0  0
 13 15  1  0  0  0  0
 13 33  1  0  0  0  0
 13 34  1  0  0  0  0
 14 35  1  0  0  0  0
 15 36  1  0  0  0  0
 15 37  1  0  0  0  0
 16 20  1  0  0  0  0
 16 22  1  0  0  0  0
 16 23  1  0  0  0  0
 17 38  1  0  0  0  0
 17 39  1  0  0  0  0
 17 40  1  0  0  0  0
 18 21  2  0  0  0  0
 18 41  1  0  0  0  0
 19 24  1  0  0  0  0
 20 21  1  0  0  0  0
 20 25  2  0  0  0  0
 22 42  1  0  0  0  0
 22 43  1  0  0  0  0
 22 44  1  0  0  0  0
 23 26  2  0  0  0  0
 23 46  1  0  0  0  0
 24 48  1  0  0  0  0
 24 49  1  0  0  0  0
 25 27  1  0  0  0  0
 25 50  1  0  0  0  0
 26 27  1  0  0  0  0
 26 51  1  0  0  0  0
M  END
> <DATABASE_ID>
DB13843

> <DATABASE_NAME>
drugbank

> <ORIGINAL_SOURCE>
PUBCHEM

> <ORIGINAL_SOURCE_URL>
https://pubchem.ncbi.nlm.nih.gov/rest/pug/compound/inchikey/YTJIBEDMAQUYSZ-FDNPDPBUSA-N/SDF?record_type=3d

> <SMILES>
[H][C@@]12CC[C@](O)(C(=O)CO)[C@@]1(C)C[C@]([H])(O)[C@@]1([H])[C@@]2([H])C=C(Cl)C2=CC(=O)C=C[C@]12C

> <INCHI_IDENTIFIER>
InChI=1S/C21H25ClO5/c1-19-5-3-11(24)7-14(19)15(22)8-12-13-4-6-21(27,17(26)10-23)20(13,2)9-16(25)18(12)19/h3,5,7-8,12-13,16,18,23,25,27H,4,6,9-10H2,1-2H3/t12-,13-,16-,18+,19-,20-,21-/m0/s1

> <INCHI_KEY>
YTJIBEDMAQUYSZ-FDNPDPBUSA-N

> <FORMULA>
C21H25ClO5

> <MOLECULAR_WEIGHT>
392.88

> <EXACT_MASS>
392.1390516

> <JCHEM_ACCEPTOR_COUNT>
5

> <JCHEM_ATOM_COUNT>
52

> <JCHEM_AVERAGE_POLARIZABILITY>
40.42451073788405

> <JCHEM_BIOAVAILABILITY>
1

> <JCHEM_DONOR_COUNT>
3

> <JCHEM_FORMAL_CHARGE>
0

> <JCHEM_GHOSE_FILTER>
1

> <JCHEM_IUPAC>
(1S,2R,10S,11S,14R,15S,17S)-8-chloro-14,17-dihydroxy-14-(2-hydroxyacetyl)-2,15-dimethyltetracyclo[8.7.0.0^{2,7}.0^{11,15}]heptadeca-3,6,8-trien-5-one

> <ALOGPS_LOGP>
1.94

> <JCHEM_LOGP>
1.1478313666666655

> <ALOGPS_LOGS>
-3.60

> <JCHEM_MDDR_LIKE_RULE>
0

> <JCHEM_NUMBER_OF_RINGS>
4

> <JCHEM_PHYSIOLOGICAL_CHARGE>
0

> <JCHEM_PKA>
13.86331540000544

> <JCHEM_PKA_STRONGEST_ACIDIC>
12.584111615213818

> <JCHEM_PKA_STRONGEST_BASIC>
-2.856097984290063

> <JCHEM_POLAR_SURFACE_AREA>
94.83

> <JCHEM_REFRACTIVITY>
104.32609999999995

> <JCHEM_ROTATABLE_BOND_COUNT>
2

> <JCHEM_RULE_OF_FIVE>
1

> <ALOGPS_SOLUBILITY>
9.90e-02 g/l

> <JCHEM_TRADITIONAL_IUPAC>
(1S,2R,10S,11S,14R,15S,17S)-8-chloro-14,17-dihydroxy-14-(2-hydroxyacetyl)-2,15-dimethyltetracyclo[8.7.0.0^{2,7}.0^{11,15}]heptadeca-3,6,8-trien-5-one

> <JCHEM_VEBER_RULE>
0

$$$$
