
     RDKit          3D

 47 47  0  0  0  0  0  0  0  0999 V2000
   14.2053    2.1837   -1.1412 C   0  0  0  0  0  0  0  0  0  0  0  0
   12.7581    1.8262   -1.2998 C   0  0  0  0  0  0  0  0  0  0  0  0
   12.3180    1.2491   -2.6113 C   0  0  0  0  0  0  0  0  0  0  0  0
   12.1667    1.3160   -0.2175 C   0  0  0  0  0  0  0  0  0  0  0  0
   11.5143    2.1346    0.8262 C   0  0  0  0  0  0  0  0  0  0  0  0
   10.0150    2.0480    0.7580 C   0  0  0  0  0  0  0  0  0  0  0  0
    9.5010    0.6648    0.8377 C   0  0  0  0  0  0  0  0  0  0  0  0
    8.0760    0.4595    1.2554 C   0  0  0  0  0  0  0  0  0  0  0  0
   10.1106   -0.3947    0.3197 C   0  0  0  0  0  0  0  0  0  0  0  0
    9.3798   -1.4388   -0.4697 C   0  0  0  0  0  0  0  0  0  0  0  0
    9.0166   -2.6344    0.3672 C   0  0  0  0  0  0  0  0  0  0  0  0
    7.6199   -3.0242   -0.0124 C   0  0  0  0  0  0  0  0  0  0  0  0
    7.2395   -2.8447   -1.4506 C   0  0  0  0  0  0  0  0  0  0  0  0
    6.6350   -3.1378    0.8563 C   0  0  0  0  0  0  0  0  0  0  0  0
    5.2787   -2.5384    0.6348 C   0  0  0  0  0  0  0  0  0  0  0  0
    5.3247   -1.1052    1.1470 C   0  0  0  0  0  0  0  0  0  0  0  0
    4.4152   -0.2453    0.3388 C   0  0  0  0  0  0  0  0  0  0  0  0
    4.8536    1.0227   -0.2839 C   0  0  0  0  0  0  0  0  0  0  0  0
    3.1190   -0.4671    0.4490 C   0  0  0  0  0  0  0  0  0  0  0  0
    2.0807    0.5217    0.0798 C   0  0  0  0  0  0  0  0  0  0  0  0
    0.7373   -0.1632    0.2245 C   0  0  0  0  0  0  0  0  0  0  0  0
    0.9401   -1.6137   -0.0961 C   0  0  0  0  0  0  0  0  0  0  0  0
    1.3169   -2.4936    1.0558 C   0  0  0  0  0  0  0  0  0  0  0  0
    0.1388   -2.1128   -1.0452 C   0  0  0  0  0  0  0  0  0  0  0  0
    0.1376   -3.5818   -1.2420 C   0  0  0  0  0  0  0  0  0  0  0  0
   -1.2664   -4.0424   -1.5276 C   0  0  0  0  0  0  0  0  0  0  0  0
   -2.2127   -3.4833   -0.5221 C   0  0  0  0  0  0  0  0  0  0  0  0
   -3.0483   -4.4188    0.2981 C   0  0  0  0  0  0  0  0  0  0  0  0
   -2.5532   -2.2028   -0.4791 C   0  0  0  0  0  0  0  0  0  0  0  0
   -2.8666   -1.6007    0.8521 C   0  0  0  0  0  0  0  0  0  0  0  0
   -2.7977   -0.0886    0.6785 C   0  0  0  0  0  0  0  0  0  0  0  0
   -4.1347    0.3640    0.1826 C   0  0  0  0  0  0  0  0  0  0  0  0
   -4.7196   -0.3454   -0.9928 C   0  0  0  0  0  0  0  0  0  0  0  0
   -5.0084    0.9983    0.9744 C   0  0  0  0  0  0  0  0  0  0  0  0
   -6.4843    0.7913    0.8104 C   0  0  0  0  0  0  0  0  0  0  0  0
   -7.1566    2.0455    1.2947 C   0  0  0  0  0  0  0  0  0  0  0  0
   -8.6035    2.0996    0.9078 C   0  0  0  0  0  0  0  0  0  0  0  0
   -9.4490    0.8742    0.8144 C   0  0  0  0  0  0  0  0  0  0  0  0
   -9.2430    3.2614    0.7246 C   0  0  0  0  0  0  0  0  0  0  0  0
  -10.6224    3.4727    1.2155 C   0  0  0  0  0  0  0  0  0  0  0  0
  -11.6062    2.5530    0.6087 C   0  0  0  0  0  0  0  0  0  0  0  0
  -12.5147    1.9485    1.4687 C   0  0  0  0  0  0  0  0  0  0  0  0
  -13.6287    1.3151    0.9339 C   0  0  0  0  0  0  0  0  0  0  0  0
  -14.2249    1.8736   -0.1837 C   0  0  0  0  0  0  0  0  0  0  0  0
  -13.3797    2.5472   -1.0509 C   0  0  0  0  0  0  0  0  0  0  0  0
  -12.1097    2.9056   -0.6372 C   0  0  0  0  0  0  0  0  0  0  0  0
  -11.2681    3.5011   -1.5513 O   0  0  0  0  0  0  0  0  0  0  0  0
  1  2  1  0
  2  3  1  0
  2  4  2  3
  4  5  1  0
  5  6  1  0
  6  7  1  0
  7  8  1  0
  7  9  2  0
  9 10  1  0
 10 11  1  0
 11 12  1  0
 12 13  1  0
 12 14  2  0
 14 15  1  0
 15 16  1  0
 16 17  1  0
 17 18  1  0
 17 19  2  0
 19 20  1  0
 20 21  1  0
 21 22  1  0
 22 23  1  0
 22 24  2  0
 24 25  1  0
 25 26  1  0
 26 27  1  0
 27 28  1  0
 27 29  2  0
 29 30  1  0
 30 31  1  0
 31 32  1  0
 32 33  1  0
 32 34  2  0
 34 35  1  0
 35 36  1  0
 36 37  1  0
 37 38  1  0
 37 39  2  0
 39 40  1  0
 40 41  1  0
 41 42  2  0
 42 43  1  0
 43 44  2  0
 44 45  1  0
 45 46  2  0
 46 47  1  0
 46 41  1  0
M  END
>  <zinc_id>  (1) 
ZINC000004096912

>  <smiles>  (1) 
CC(C)=CCC/C(C)=C/CC/C(C)=C/CC/C(C)=C/CC/C(C)=C/CC/C(C)=C/CC/C(C)=C/CC/C(C)=C/Cc1ccccc1O

$$$$
