447278
  -OEChem-10051721163D

 66 65  0     1  0  0  0  0  0999 V2000
   -4.6489   -0.7979    0.7300 P   0  0  2  0  0  0  0  0  0  0  0  0
   -2.7578    1.3743    1.3294 P   0  0  0  0  0  0  0  0  0  0  0  0
   -3.8167   -1.3156   -0.5549 O   0  0  0  0  0  0  0  0  0  0  0  0
   -3.5657    0.0055    1.6216 O   0  0  0  0  0  0  0  0  0  0  0  0
   -4.9263   -2.1340    1.5989 O   0  0  0  0  0  0  0  0  0  0  0  0
   -5.8816   -0.0072    0.3997 O   0  0  0  0  0  0  0  0  0  0  0  0
   -3.7749    2.5236    1.8361 O   0  0  0  0  0  0  0  0  0  0  0  0
   -1.6025    1.3664    2.4597 O   0  0  0  0  0  0  0  0  0  0  0  0
   -2.2712    1.5249   -0.0818 O   0  0  0  0  0  0  0  0  0  0  0  0
   -0.5577   -2.7627   -1.4927 N   0  0  1  0  0  0  0  0  0  0  0  0
    0.3945   -2.0256   -0.6696 C   0  0  0  0  0  0  0  0  0  0  0  0
    1.3931   -2.9865   -0.0275 C   0  0  0  0  0  0  0  0  0  0  0  0
    4.5331   -1.3495    1.6704 C   0  0  0  0  0  0  0  0  0  0  0  0
    3.7114   -2.1909    0.7118 C   0  0  0  0  0  0  0  0  0  0  0  0
    5.2731   -0.1895    0.9907 C   0  0  0  0  0  0  0  0  0  0  0  0
   -1.8019   -2.0063   -1.6433 C   0  0  0  0  0  0  0  0  0  0  0  0
    2.3716   -2.2476    0.8415 C   0  0  0  0  0  0  0  0  0  0  0  0
    3.7019    1.8177    0.6496 C   0  0  0  0  0  0  0  0  0  0  0  0
    4.3426    0.7111    0.2245 C   0  0  0  0  0  0  0  0  0  0  0  0
    2.7505    2.6490   -0.1842 C   0  0  0  0  0  0  0  0  0  0  0  0
    0.0181   -3.0598   -2.8052 C   0  0  0  0  0  0  0  0  0  0  0  0
   -2.6296   -2.0756   -0.3699 C   0  0  0  0  0  0  0  0  0  0  0  0
    4.4955   -2.8843   -0.3680 C   0  0  0  0  0  0  0  0  0  0  0  0
    1.2883    2.2045   -0.0376 C   0  0  0  0  0  0  0  0  0  0  0  0
    3.8875    2.2862    2.0714 C   0  0  0  0  0  0  0  0  0  0  0  0
    0.3789    3.0713   -0.8654 C   0  0  0  0  0  0  0  0  0  0  0  0
    0.0278    2.9178   -2.1563 C   0  0  0  0  0  0  0  0  0  0  0  0
   -0.8895    3.8256   -2.9246 C   0  0  0  0  0  0  0  0  0  0  0  0
    0.5566    1.7550   -2.9543 C   0  0  0  0  0  0  0  0  0  0  0  0
    0.9185   -1.2602   -1.2588 H   0  0  0  0  0  0  0  0  0  0  0  0
   -0.0953   -1.4788    0.1434 H   0  0  0  0  0  0  0  0  0  0  0  0
    0.8563   -3.7037    0.6071 H   0  0  0  0  0  0  0  0  0  0  0  0
    1.9040   -3.5769   -0.7896 H   0  0  0  0  0  0  0  0  0  0  0  0
    5.2665   -1.9981    2.1662 H   0  0  0  0  0  0  0  0  0  0  0  0
    3.9009   -0.9480    2.4731 H   0  0  0  0  0  0  0  0  0  0  0  0
    6.0248   -0.5782    0.2921 H   0  0  0  0  0  0  0  0  0  0  0  0
    5.8479    0.3692    1.7370 H   0  0  0  0  0  0  0  0  0  0  0  0
   -2.4148   -2.4295   -2.4506 H   0  0  0  0  0  0  0  0  0  0  0  0
   -1.6158   -0.9628   -1.9309 H   0  0  0  0  0  0  0  0  0  0  0  0
    1.9141   -1.6979    1.6634 H   0  0  0  0  0  0  0  0  0  0  0  0
    4.1624    0.4040   -0.8056 H   0  0  0  0  0  0  0  0  0  0  0  0
    3.0505    2.5785   -1.2382 H   0  0  0  0  0  0  0  0  0  0  0  0
    2.8600    3.7079    0.0839 H   0  0  0  0  0  0  0  0  0  0  0  0
    0.2638   -2.1493   -3.3646 H   0  0  0  0  0  0  0  0  0  0  0  0
    0.9230   -3.6696   -2.7256 H   0  0  0  0  0  0  0  0  0  0  0  0
   -0.6865   -3.6465   -3.4060 H   0  0  0  0  0  0  0  0  0  0  0  0
   -2.0957   -1.6902    0.5009 H   0  0  0  0  0  0  0  0  0  0  0  0
   -2.9184   -3.1106   -0.1558 H   0  0  0  0  0  0  0  0  0  0  0  0
    3.9525   -3.7040   -0.8424 H   0  0  0  0  0  0  0  0  0  0  0  0
    5.4057   -3.3259    0.0529 H   0  0  0  0  0  0  0  0  0  0  0  0
    4.7874   -2.1753   -1.1487 H   0  0  0  0  0  0  0  0  0  0  0  0
    1.1711    1.1459   -0.2939 H   0  0  0  0  0  0  0  0  0  0  0  0
    0.9749    2.2869    1.0103 H   0  0  0  0  0  0  0  0  0  0  0  0
    4.4456    3.2284    2.0814 H   0  0  0  0  0  0  0  0  0  0  0  0
    2.9121    2.4655    2.5369 H   0  0  0  0  0  0  0  0  0  0  0  0
    4.4094    1.5797    2.7198 H   0  0  0  0  0  0  0  0  0  0  0  0
   -0.0242    3.9341   -0.3366 H   0  0  0  0  0  0  0  0  0  0  0  0
   -1.2573    4.6465   -2.3005 H   0  0  0  0  0  0  0  0  0  0  0  0
   -1.7580    3.2691   -3.2912 H   0  0  0  0  0  0  0  0  0  0  0  0
   -0.3661    4.2639   -3.7803 H   0  0  0  0  0  0  0  0  0  0  0  0
    1.0210    2.1187   -3.8777 H   0  0  0  0  0  0  0  0  0  0  0  0
    1.3121    1.1569   -2.4408 H   0  0  0  0  0  0  0  0  0  0  0  0
   -0.2663    1.0857   -3.2276 H   0  0  0  0  0  0  0  0  0  0  0  0
   -5.5367   -2.0833    2.3651 H   0  0  0  0  0  0  0  0  0  0  0  0
   -3.5393    3.4644    1.6891 H   0  0  0  0  0  0  0  0  0  0  0  0
   -0.9234    2.0739    2.4498 H   0  0  0  0  0  0  0  0  0  0  0  0
  1  3  1  0  0  0  0
  1  4  1  0  0  0  0
  1  5  1  0  0  0  0
  1  6  2  0  0  0  0
  2  4  1  0  0  0  0
  2  7  1  0  0  0  0
  2  8  1  0  0  0  0
  2  9  2  0  0  0  0
  3 22  1  0  0  0  0
  5 64  1  0  0  0  0
  7 65  1  0  0  0  0
  8 66  1  0  0  0  0
 10 11  1  0  0  0  0
 10 16  1  0  0  0  0
 10 21  1  0  0  0  0
 11 12  1  0  0  0  0
 11 30  1  0  0  0  0
 11 31  1  0  0  0  0
 12 17  1  0  0  0  0
 12 32  1  0  0  0  0
 12 33  1  0  0  0  0
 13 14  1  0  0  0  0
 13 15  1  0  0  0  0
 13 34  1  0  0  0  0
 13 35  1  0  0  0  0
 14 17  2  0  0  0  0
 14 23  1  0  0  0  0
 15 19  1  0  0  0  0
 15 36  1  0  0  0  0
 15 37  1  0  0  0  0
 16 22  1  0  0  0  0
 16 38  1  0  0  0  0
 16 39  1  0  0  0  0
 17 40  1  0  0  0  0
 18 19  2  0  0  0  0
 18 20  1  0  0  0  0
 18 25  1  0  0  0  0
 19 41  1  0  0  0  0
 20 24  1  0  0  0  0
 20 42  1  0  0  0  0
 20 43  1  0  0  0  0
 21 44  1  0  0  0  0
 21 45  1  0  0  0  0
 21 46  1  0  0  0  0
 22 47  1  0  0  0  0
 22 48  1  0  0  0  0
 23 49  1  0  0  0  0
 23 50  1  0  0  0  0
 23 51  1  0  0  0  0
 24 26  1  0  0  0  0
 24 52  1  0  0  0  0
 24 53  1  0  0  0  0
 25 54  1  0  0  0  0
 25 55  1  0  0  0  0
 25 56  1  0  0  0  0
 26 27  2  0  0  0  0
 26 57  1  0  0  0  0
 27 28  1  0  0  0  0
 27 29  1  0  0  0  0
 28 58  1  0  0  0  0
 28 59  1  0  0  0  0
 28 60  1  0  0  0  0
 29 61  1  0  0  0  0
 29 62  1  0  0  0  0
 29 63  1  0  0  0  0
M  END
> <DATABASE_ID>
DB08180

> <DATABASE_NAME>
drugbank

> <ORIGINAL_SOURCE>
PUBCHEM

> <ORIGINAL_SOURCE_URL>
https://pubchem.ncbi.nlm.nih.gov/rest/pug/compound/inchikey/OEMBPHBKZPOPBN-NWLVNBMCSA-N/SDF?record_type=3d

> <SMILES>
CN(CCO[P@@](O)(=O)OP(O)(O)=O)CC\C=C(/C)CC\C=C(/C)CCC=C(C)C

> <INCHI_IDENTIFIER>
InChI=1S/C19H37NO7P2/c1-17(2)9-6-10-18(3)11-7-12-19(4)13-8-14-20(5)15-16-26-29(24,25)27-28(21,22)23/h9,11,13H,6-8,10,12,14-16H2,1-5H3,(H,24,25)(H2,21,22,23)/b18-11+,19-13+

> <INCHI_KEY>
OEMBPHBKZPOPBN-NWLVNBMCSA-N

> <FORMULA>
C19H37NO7P2

> <MOLECULAR_WEIGHT>
453.4471

> <EXACT_MASS>
453.204525567

> <JCHEM_ACCEPTOR_COUNT>
6

> <JCHEM_ATOM_COUNT>
66

> <JCHEM_AVERAGE_NEUTRAL_MICROSPECIES_CHARGE>
-1.433347664002021

> <JCHEM_AVERAGE_POLARIZABILITY>
48.00426764325645

> <JCHEM_BIOAVAILABILITY>
1

> <JCHEM_DONOR_COUNT>
3

> <JCHEM_FORMAL_CHARGE>
0

> <JCHEM_GHOSE_FILTER>
1

> <JCHEM_IUPAC>
{[hydroxy(2-{methyl[(3E,7E)-4,8,12-trimethyltrideca-3,7,11-trien-1-yl]amino}ethoxy)phosphoryl]oxy}phosphonic acid

> <ALOGPS_LOGP>
2.83

> <JCHEM_LOGP>
2.2351421753707146

> <ALOGPS_LOGS>
-4.36

> <JCHEM_MDDR_LIKE_RULE>
0

> <JCHEM_NEUTRAL_CHARGE>
-1

> <JCHEM_NUMBER_OF_RINGS>
0

> <JCHEM_PHYSIOLOGICAL_CHARGE>
-2

> <JCHEM_PKA>
3.18799422249865

> <JCHEM_PKA_STRONGEST_ACIDIC>
1.7561045453223363

> <JCHEM_PKA_STRONGEST_BASIC>
9.598216878603965

> <JCHEM_POLAR_SURFACE_AREA>
116.53

> <JCHEM_REFRACTIVITY>
119.50459999999994

> <JCHEM_ROTATABLE_BOND_COUNT>
15

> <JCHEM_RULE_OF_FIVE>
1

> <ALOGPS_SOLUBILITY>
1.98e-02 g/l

> <JCHEM_TRADITIONAL_IUPAC>
biotin

> <JCHEM_VEBER_RULE>
0

$$$$
