
     RDKit          3D

 30 30  0  0  0  0  0  0  0  0999 V2000
    9.2703    0.1705    2.1898 C   0  0  0  0  0  0  0  0  0  0  0  0
    7.8183    0.4345    1.8086 C   0  0  0  0  0  0  0  0  0  0  0  0
    7.7199    0.1507    0.3195 C   0  0  0  0  0  0  0  0  0  0  0  0
    6.5901   -0.8376    0.0935 C   0  0  0  0  0  0  0  0  0  0  0  0
    5.3061   -0.0964    0.2617 C   0  0  0  0  0  0  0  0  0  0  0  0
    4.5867   -0.1005    1.5739 C   0  0  0  0  0  0  0  0  0  0  0  0
    4.7893    0.6730   -0.6916 C   0  0  0  0  0  0  0  0  0  0  0  0
    3.3350    0.6091   -0.8902 C   0  0  0  0  0  0  0  0  0  0  0  0
    2.9413   -0.0562   -1.9777 C   0  0  0  0  0  0  0  0  0  0  0  0
    3.5466    0.4375   -3.2550 C   0  0  0  0  0  0  0  0  0  0  0  0
    1.6738   -0.7981   -1.9637 C   0  0  0  0  0  0  0  0  0  0  0  0
    1.3971   -1.4449   -3.0083 O   0  0  0  0  0  0  0  0  0  0  0  0
    0.5784   -0.1849   -1.2196 C   0  0  0  0  0  0  0  0  0  0  0  0
    0.4279   -0.3576    0.1505 C   0  0  0  0  0  0  0  0  0  0  0  0
    0.9682   -1.4920    0.7227 O   0  0  0  0  0  0  0  0  0  0  0  0
   -0.6553    0.2815    0.7396 C   0  0  0  0  0  0  0  0  0  0  0  0
   -1.3803    1.2427    0.0464 C   0  0  0  0  0  0  0  0  0  0  0  0
   -2.8518    1.3632    0.2892 C   0  0  0  0  0  0  0  0  0  0  0  0
   -3.4785    0.1543   -0.3962 C   0  0  0  0  0  0  0  0  0  0  0  0
   -3.4529   -1.0342    0.5525 C   0  0  0  0  0  0  0  0  0  0  0  0
   -4.5931   -0.8645    1.5058 C   0  0  0  0  0  0  0  0  0  0  0  0
   -5.0071    0.3376    1.8995 C   0  0  0  0  0  0  0  0  0  0  0  0
   -6.3603    0.4636    2.3533 N   0  0  0  0  0  0  0  0  0  0  0  0
   -7.4006    0.4370    1.3698 C   0  0  0  0  0  0  0  0  0  0  0  0
   -7.1255   -0.1939    0.3048 O   0  0  0  0  0  0  0  0  0  0  0  0
   -8.7239    0.4354    1.8202 O   0  0  0  0  0  0  0  0  0  0  0  0
   -9.7244   -0.1312    0.9879 C   0  0  0  0  0  0  0  0  0  0  0  0
   -0.8140    1.7092   -1.0539 O   0  0  0  0  0  0  0  0  0  0  0  0
    0.0833    1.0108   -1.7289 C   0  0  0  0  0  0  0  0  0  0  0  0
    0.5355    1.5080   -2.8043 O   0  0  0  0  0  0  0  0  0  0  0  0
  1  2  1  0
  2  3  1  0
  3  4  1  0
  4  5  1  0
  5  6  1  0
  5  7  2  0
  7  8  1  0
  8  9  2  0
  9 10  1  0
  9 11  1  0
 11 12  2  0
 11 13  1  0
 13 14  2  0
 14 15  1  0
 14 16  1  0
 16 17  2  0
 17 18  1  0
 18 19  1  0
 19 20  1  0
 20 21  1  0
 21 22  2  0
 22 23  1  0
 23 24  1  0
 24 25  2  0
 24 26  1  0
 26 27  1  0
 17 28  1  0
 28 29  1  0
 29 30  2  0
 29 13  1  0
M  END
>  <zinc_id>  (1) 
ZINC000028382402

>  <smiles>  (1) 
CCCC/C(C)=C/C=C(\C)C(=O)c1c(O)cc(CCC/C=C/NC(=O)OC)oc1=O

$$$$
