5315659
  -OEChem-02011917143D

 55 55  0     0  0  0  0  0  0999 V2000
   -1.0685   -1.0345   -2.2656 O   0  0  0  0  0  0  0  0  0  0  0  0
   -0.4525   -2.7105    2.1844 O   0  0  0  0  0  0  0  0  0  0  0  0
    3.9083    0.1290    0.0683 C   0  0  0  0  0  0  0  0  0  0  0  0
    3.4289   -1.2606   -0.3897 C   0  0  0  0  0  0  0  0  0  0  0  0
    5.4126    0.3351   -0.1344 C   0  0  0  0  0  0  0  0  0  0  0  0
    1.9583   -1.4761   -0.2675 C   0  0  0  0  0  0  0  0  0  0  0  0
    5.8441    1.7340    0.3077 C   0  0  0  0  0  0  0  0  0  0  0  0
   -0.7797   -1.8748   -0.0389 C   0  0  0  0  0  0  0  0  0  0  0  0
   -2.2672   -2.0919    0.0852 C   0  0  0  0  0  0  0  0  0  0  0  0
    1.1153   -1.1540   -1.3312 C   0  0  0  0  0  0  0  0  0  0  0  0
    1.4256   -1.9984    0.9111 C   0  0  0  0  0  0  0  0  0  0  0  0
   -0.2603   -1.3543   -1.2162 C   0  0  0  0  0  0  0  0  0  0  0  0
    0.0500   -2.1988    1.0259 C   0  0  0  0  0  0  0  0  0  0  0  0
   -3.9358   -0.1486    0.0465 C   0  0  0  0  0  0  0  0  0  0  0  0
   -4.6331    1.0338    0.6859 C   0  0  0  0  0  0  0  0  0  0  0  0
   -2.9755   -0.8866    0.6375 C   0  0  0  0  0  0  0  0  0  0  0  0
   -4.0035    2.3883    0.3342 C   0  0  0  0  0  0  0  0  0  0  0  0
    7.3295    1.9586    0.0732 C   0  0  0  0  0  0  0  0  0  0  0  0
   -4.4164   -0.5065   -1.3367 C   0  0  0  0  0  0  0  0  0  0  0  0
   -2.6118    2.5381    0.8834 C   0  0  0  0  0  0  0  0  0  0  0  0
   -1.4700    2.7633    0.2065 C   0  0  0  0  0  0  0  0  0  0  0  0
   -0.1069    2.9029    0.8220 C   0  0  0  0  0  0  0  0  0  0  0  0
   -1.4916    2.9125   -1.2917 C   0  0  0  0  0  0  0  0  0  0  0  0
    3.3592    0.9014   -0.4858 H   0  0  0  0  0  0  0  0  0  0  0  0
    3.6585    0.2687    1.1278 H   0  0  0  0  0  0  0  0  0  0  0  0
    3.7315   -1.4214   -1.4332 H   0  0  0  0  0  0  0  0  0  0  0  0
    3.9601   -2.0323    0.1831 H   0  0  0  0  0  0  0  0  0  0  0  0
    5.6610    0.1904   -1.1928 H   0  0  0  0  0  0  0  0  0  0  0  0
    5.9667   -0.4208    0.4349 H   0  0  0  0  0  0  0  0  0  0  0  0
    5.6212    1.8732    1.3719 H   0  0  0  0  0  0  0  0  0  0  0  0
    5.2760    2.4915   -0.2448 H   0  0  0  0  0  0  0  0  0  0  0  0
   -2.4835   -2.9511    0.7325 H   0  0  0  0  0  0  0  0  0  0  0  0
   -2.6625   -2.4271   -0.8776 H   0  0  0  0  0  0  0  0  0  0  0  0
    1.5317   -0.7441   -2.2484 H   0  0  0  0  0  0  0  0  0  0  0  0
    2.0775   -2.2491    1.7445 H   0  0  0  0  0  0  0  0  0  0  0  0
   -4.6344    0.9074    1.7771 H   0  0  0  0  0  0  0  0  0  0  0  0
   -5.6900    1.0348    0.3910 H   0  0  0  0  0  0  0  0  0  0  0  0
   -2.6820   -0.6002    1.6471 H   0  0  0  0  0  0  0  0  0  0  0  0
   -4.6180    3.1757    0.7898 H   0  0  0  0  0  0  0  0  0  0  0  0
   -4.0646    2.5591   -0.7434 H   0  0  0  0  0  0  0  0  0  0  0  0
    7.5785    1.8599   -0.9882 H   0  0  0  0  0  0  0  0  0  0  0  0
    7.6167    2.9637    0.3974 H   0  0  0  0  0  0  0  0  0  0  0  0
    7.9289    1.2356    0.6357 H   0  0  0  0  0  0  0  0  0  0  0  0
   -5.3629   -1.0532   -1.2720 H   0  0  0  0  0  0  0  0  0  0  0  0
   -3.7176   -1.0927   -1.9328 H   0  0  0  0  0  0  0  0  0  0  0  0
   -4.5975    0.4070   -1.9148 H   0  0  0  0  0  0  0  0  0  0  0  0
   -2.5404    2.4537    1.9674 H   0  0  0  0  0  0  0  0  0  0  0  0
   -0.5247   -0.6799   -2.9897 H   0  0  0  0  0  0  0  0  0  0  0  0
   -1.3797   -2.4518    2.3000 H   0  0  0  0  0  0  0  0  0  0  0  0
    0.5617    2.1181    0.4536 H   0  0  0  0  0  0  0  0  0  0  0  0
   -0.1483    2.8207    1.9132 H   0  0  0  0  0  0  0  0  0  0  0  0
    0.3255    3.8780    0.5758 H   0  0  0  0  0  0  0  0  0  0  0  0
   -2.2990    2.3610   -1.7787 H   0  0  0  0  0  0  0  0  0  0  0  0
   -0.5655    2.5146   -1.7231 H   0  0  0  0  0  0  0  0  0  0  0  0
   -1.5622    3.9698   -1.5659 H   0  0  0  0  0  0  0  0  0  0  0  0
  1 12  1  0  0  0  0
  1 48  1  0  0  0  0
  2 13  1  0  0  0  0
  2 49  1  0  0  0  0
  3  4  1  0  0  0  0
  3  5  1  0  0  0  0
  3 24  1  0  0  0  0
  3 25  1  0  0  0  0
  4  6  1  0  0  0  0
  4 26  1  0  0  0  0
  4 27  1  0  0  0  0
  5  7  1  0  0  0  0
  5 28  1  0  0  0  0
  5 29  1  0  0  0  0
  6 10  2  0  0  0  0
  6 11  1  0  0  0  0
  7 18  1  0  0  0  0
  7 30  1  0  0  0  0
  7 31  1  0  0  0  0
  8  9  1  0  0  0  0
  8 12  2  0  0  0  0
  8 13  1  0  0  0  0
  9 16  1  0  0  0  0
  9 32  1  0  0  0  0
  9 33  1  0  0  0  0
 10 12  1  0  0  0  0
 10 34  1  0  0  0  0
 11 13  2  0  0  0  0
 11 35  1  0  0  0  0
 14 15  1  0  0  0  0
 14 16  2  0  0  0  0
 14 19  1  0  0  0  0
 15 17  1  0  0  0  0
 15 36  1  0  0  0  0
 15 37  1  0  0  0  0
 16 38  1  0  0  0  0
 17 20  1  0  0  0  0
 17 39  1  0  0  0  0
 17 40  1  0  0  0  0
 18 41  1  0  0  0  0
 18 42  1  0  0  0  0
 18 43  1  0  0  0  0
 19 44  1  0  0  0  0
 19 45  1  0  0  0  0
 19 46  1  0  0  0  0
 20 21  2  0  0  0  0
 20 47  1  0  0  0  0
 21 22  1  0  0  0  0
 21 23  1  0  0  0  0
 22 50  1  0  0  0  0
 22 51  1  0  0  0  0
 22 52  1  0  0  0  0
 23 53  1  0  0  0  0
 23 54  1  0  0  0  0
 23 55  1  0  0  0  0
M  END
> <DATABASE_ID>
DB14734

> <DATABASE_NAME>
drugbank

> <ORIGINAL_SOURCE>
PUBCHEM

> <ORIGINAL_SOURCE_URL>
https://pubchem.ncbi.nlm.nih.gov/rest/pug/compound/inchikey/QXACEHWTBCFNSA-SFQUDFHCSA-N/SDF?record_type=3d

> <SMILES>
CCCCCC1=CC(O)=C(C\C=C(/C)CCC=C(C)C)C(O)=C1

> <INCHI_IDENTIFIER>
InChI=1S/C21H32O2/c1-5-6-7-11-18-14-20(22)19(21(23)15-18)13-12-17(4)10-8-9-16(2)3/h9,12,14-15,22-23H,5-8,10-11,13H2,1-4H3/b17-12+

> <INCHI_KEY>
QXACEHWTBCFNSA-SFQUDFHCSA-N

> <FORMULA>
C21H32O2

> <MOLECULAR_WEIGHT>
316.485

> <EXACT_MASS>
316.24023027

> <JCHEM_ACCEPTOR_COUNT>
2

> <JCHEM_ATOM_COUNT>
55

> <JCHEM_AVERAGE_POLARIZABILITY>
39.40873302019459

> <JCHEM_BIOAVAILABILITY>
1

> <JCHEM_DONOR_COUNT>
2

> <JCHEM_FORMAL_CHARGE>
0

> <JCHEM_GHOSE_FILTER>
0

> <JCHEM_IUPAC>
2-[(2E)-3,7-dimethylocta-2,6-dien-1-yl]-5-pentylbenzene-1,3-diol

> <ALOGPS_LOGP>
6.99

> <JCHEM_LOGP>
7.046092496333333

> <ALOGPS_LOGS>
-4.79

> <JCHEM_MDDR_LIKE_RULE>
0

> <JCHEM_NUMBER_OF_RINGS>
1

> <JCHEM_PHYSIOLOGICAL_CHARGE>
0

> <JCHEM_PKA>
10.618444679742177

> <JCHEM_PKA_STRONGEST_ACIDIC>
9.16394053076466

> <JCHEM_PKA_STRONGEST_BASIC>
-5.717147751878594

> <JCHEM_POLAR_SURFACE_AREA>
40.46

> <JCHEM_REFRACTIVITY>
101.51039999999999

> <JCHEM_ROTATABLE_BOND_COUNT>
9

> <JCHEM_RULE_OF_FIVE>
0

> <ALOGPS_SOLUBILITY>
5.12e-03 g/l

> <JCHEM_TRADITIONAL_IUPAC>
cannabigerol

> <JCHEM_VEBER_RULE>
0

$$$$
