
     RDKit          3D

 43 44  0  0  0  0  0  0  0  0999 V2000
   14.0455    1.2773    1.0660 C   0  0  0  0  0  0  0  0  0  0  0  0
   12.9129    2.1310    0.5791 C   0  0  0  0  0  0  0  0  0  0  0  0
   11.9951    2.6492    1.6459 C   0  0  0  0  0  0  0  0  0  0  0  0
   12.3018    1.6938   -0.5297 C   0  0  0  0  0  0  0  0  0  0  0  0
   11.8509    0.2641   -0.4849 C   0  0  0  0  0  0  0  0  0  0  0  0
   10.8133    0.0948    0.6061 C   0  0  0  0  0  0  0  0  0  0  0  0
    9.5807   -0.5016   -0.0042 C   0  0  0  0  0  0  0  0  0  0  0  0
    9.6363   -1.9639   -0.3321 C   0  0  0  0  0  0  0  0  0  0  0  0
    8.9400    0.2853   -0.8779 C   0  0  0  0  0  0  0  0  0  0  0  0
    7.7558   -0.2215   -1.6350 C   0  0  0  0  0  0  0  0  0  0  0  0
    6.5090    0.4108   -1.0309 C   0  0  0  0  0  0  0  0  0  0  0  0
    5.6698   -0.6567   -0.4050 C   0  0  0  0  0  0  0  0  0  0  0  0
    5.7866   -2.0391   -0.9574 C   0  0  0  0  0  0  0  0  0  0  0  0
    5.1036   -0.5086    0.7765 C   0  0  0  0  0  0  0  0  0  0  0  0
    4.5781   -1.6156    1.6072 C   0  0  0  0  0  0  0  0  0  0  0  0
    3.7094   -2.5566    0.7801 C   0  0  0  0  0  0  0  0  0  0  0  0
    2.3936   -1.8519    0.6316 C   0  0  0  0  0  0  0  0  0  0  0  0
    1.8574   -1.2314    1.8867 C   0  0  0  0  0  0  0  0  0  0  0  0
    1.9654   -1.3505   -0.5097 C   0  0  0  0  0  0  0  0  0  0  0  0
    1.3735   -0.0091   -0.6765 C   0  0  0  0  0  0  0  0  0  0  0  0
    0.9801    0.6444    0.6176 C   0  0  0  0  0  0  0  0  0  0  0  0
   -0.5158    0.7367    0.6902 C   0  0  0  0  0  0  0  0  0  0  0  0
   -1.1199    1.2884    1.9467 C   0  0  0  0  0  0  0  0  0  0  0  0
   -1.3153   -0.0169   -0.0593 C   0  0  0  0  0  0  0  0  0  0  0  0
   -2.4516   -0.8105    0.5057 C   0  0  0  0  0  0  0  0  0  0  0  0
   -3.3735   -1.1896   -0.6440 C   0  0  0  0  0  0  0  0  0  0  0  0
   -4.4771   -0.1748   -0.6331 C   0  0  0  0  0  0  0  0  0  0  0  0
   -4.3189    0.9824   -1.5733 C   0  0  0  0  0  0  0  0  0  0  0  0
   -4.9620    0.1300    0.5765 C   0  0  0  0  0  0  0  0  0  0  0  0
   -6.0023    1.1718    0.7082 C   0  0  0  0  0  0  0  0  0  0  0  0
   -7.2725    0.5918    0.1956 C   0  0  0  0  0  0  0  0  0  0  0  0
   -7.5618   -0.6632    0.5327 C   0  0  0  0  0  0  0  0  0  0  0  0
   -6.7802   -1.4034    1.5633 C   0  0  0  0  0  0  0  0  0  0  0  0
   -8.8256   -1.2022    0.0304 C   0  0  0  0  0  0  0  0  0  0  0  0
   -9.0883   -2.4297    0.1890 O   0  0  0  0  0  0  0  0  0  0  0  0
   -9.8798   -0.2793   -0.4060 C   0  0  0  0  0  0  0  0  0  0  0  0
  -11.1938   -0.6976   -0.5522 C   0  0  0  0  0  0  0  0  0  0  0  0
  -12.2160    0.2129   -0.4951 C   0  0  0  0  0  0  0  0  0  0  0  0
  -11.9616    1.5673   -0.4975 C   0  0  0  0  0  0  0  0  0  0  0  0
  -10.6604    1.9834   -0.6886 C   0  0  0  0  0  0  0  0  0  0  0  0
   -9.6222    1.0676   -0.6200 C   0  0  0  0  0  0  0  0  0  0  0  0
   -8.2473    1.5021   -0.3835 C   0  0  0  0  0  0  0  0  0  0  0  0
   -7.9127    2.6884   -0.6461 O   0  0  0  0  0  0  0  0  0  0  0  0
  1  2  1  0
  2  3  1  0
  2  4  2  3
  4  5  1  0
  5  6  1  0
  6  7  1  0
  7  8  1  0
  7  9  2  0
  9 10  1  0
 10 11  1  0
 11 12  1  0
 12 13  1  0
 12 14  2  0
 14 15  1  0
 15 16  1  0
 16 17  1  0
 17 18  1  0
 17 19  2  0
 19 20  1  0
 20 21  1  0
 21 22  1  0
 22 23  1  0
 22 24  2  0
 24 25  1  0
 25 26  1  0
 26 27  1  0
 27 28  1  0
 27 29  2  0
 29 30  1  0
 30 31  1  0
 31 32  2  0
 32 33  1  0
 32 34  1  0
 34 35  2  0
 34 36  1  0
 36 37  2  0
 37 38  1  0
 38 39  2  0
 39 40  1  0
 40 41  2  0
 41 42  1  0
 42 43  2  0
 42 31  1  0
 41 36  1  0
M  END
>  <zinc_id>  (1) 
ZINC000072131515

>  <smiles>  (1) 
CC(C)=CCC/C(C)=C/CC/C(C)=C/CC/C(C)=C/CC/C(C)=C/CC/C(C)=C/CC1=C(C)C(=O)c2ccccc2C1=O

$$$$
