5281249
  -OEChem-05201910593D

 56 55  0     0  0  0  0  0  0999 V2000
  -11.6531    2.6075    0.4435 O   0  0  0  0  0  0  0  0  0  0  0  0
   12.4576    1.0372    0.2600 O   0  0  0  0  0  0  0  0  0  0  0  0
  -11.6737    0.5170   -0.4525 O   0  0  0  0  0  0  0  0  0  0  0  0
   11.5181   -0.9540    0.8299 O   0  0  0  0  0  0  0  0  0  0  0  0
   -3.1258   -2.3029   -0.0847 C   0  0  0  0  0  0  0  0  0  0  0  0
    2.6279    0.1161   -0.3724 C   0  0  0  0  0  0  0  0  0  0  0  0
   -2.1703   -1.3743   -0.2944 C   0  0  0  0  0  0  0  0  0  0  0  0
    1.6581   -0.8024   -0.1669 C   0  0  0  0  0  0  0  0  0  0  0  0
   -4.5560   -2.1033   -0.2592 C   0  0  0  0  0  0  0  0  0  0  0  0
    4.0200   -0.2811   -0.1331 C   0  0  0  0  0  0  0  0  0  0  0  0
   -0.7384   -1.5421   -0.1294 C   0  0  0  0  0  0  0  0  0  0  0  0
    0.2274   -0.6294   -0.3333 C   0  0  0  0  0  0  0  0  0  0  0  0
   -2.7610   -3.7022    0.3373 C   0  0  0  0  0  0  0  0  0  0  0  0
    2.3888    1.5305   -0.8395 C   0  0  0  0  0  0  0  0  0  0  0  0
   -7.3836    0.2926    0.2412 C   0  0  0  0  0  0  0  0  0  0  0  0
    7.6208    0.7379   -0.1153 C   0  0  0  0  0  0  0  0  0  0  0  0
   -5.2144   -0.9877    0.0930 C   0  0  0  0  0  0  0  0  0  0  0  0
    5.1125    0.4870   -0.2815 C   0  0  0  0  0  0  0  0  0  0  0  0
   -6.6377   -0.7864   -0.0797 C   0  0  0  0  0  0  0  0  0  0  0  0
    6.4652    0.0491    0.0003 C   0  0  0  0  0  0  0  0  0  0  0  0
   -6.6955    1.4985    0.8348 C   0  0  0  0  0  0  0  0  0  0  0  0
    7.5694    2.1561   -0.6320 C   0  0  0  0  0  0  0  0  0  0  0  0
   -8.8277    0.3742    0.0143 C   0  0  0  0  0  0  0  0  0  0  0  0
    8.9345    0.1759    0.2042 C   0  0  0  0  0  0  0  0  0  0  0  0
   -9.6157    1.4193    0.3132 C   0  0  0  0  0  0  0  0  0  0  0  0
   10.1107    0.8160    0.1071 C   0  0  0  0  0  0  0  0  0  0  0  0
  -11.0715    1.4513    0.0570 C   0  0  0  0  0  0  0  0  0  0  0  0
   11.4132    0.1994    0.4380 C   0  0  0  0  0  0  0  0  0  0  0  0
   -2.4713   -0.3801   -0.6224 H   0  0  0  0  0  0  0  0  0  0  0  0
    1.9418   -1.8006    0.1677 H   0  0  0  0  0  0  0  0  0  0  0  0
   -5.1010   -2.9346   -0.7019 H   0  0  0  0  0  0  0  0  0  0  0  0
    4.1636   -1.3063    0.2084 H   0  0  0  0  0  0  0  0  0  0  0  0
   -0.4087   -2.5291    0.1887 H   0  0  0  0  0  0  0  0  0  0  0  0
   -0.1055    0.3531   -0.6562 H   0  0  0  0  0  0  0  0  0  0  0  0
   -2.3664   -4.2688   -0.5129 H   0  0  0  0  0  0  0  0  0  0  0  0
   -3.6288   -4.2501    0.7242 H   0  0  0  0  0  0  0  0  0  0  0  0
   -2.0236   -3.7065    1.1468 H   0  0  0  0  0  0  0  0  0  0  0  0
    2.9052    1.7140   -1.7885 H   0  0  0  0  0  0  0  0  0  0  0  0
    2.7533    2.2473   -0.0950 H   0  0  0  0  0  0  0  0  0  0  0  0
    1.3376    1.7698   -1.0102 H   0  0  0  0  0  0  0  0  0  0  0  0
   -4.6344   -0.1951    0.5502 H   0  0  0  0  0  0  0  0  0  0  0  0
    4.9731    1.5070   -0.6130 H   0  0  0  0  0  0  0  0  0  0  0  0
   -7.1560   -1.6377   -0.5230 H   0  0  0  0  0  0  0  0  0  0  0  0
    6.5325   -0.9785    0.3604 H   0  0  0  0  0  0  0  0  0  0  0  0
   -5.6115    1.4471    0.9250 H   0  0  0  0  0  0  0  0  0  0  0  0
   -7.0802    1.6887    1.8438 H   0  0  0  0  0  0  0  0  0  0  0  0
   -6.8943    2.3845    0.2196 H   0  0  0  0  0  0  0  0  0  0  0  0
    7.9367    2.8468    0.1363 H   0  0  0  0  0  0  0  0  0  0  0  0
    6.5934    2.5295   -0.9387 H   0  0  0  0  0  0  0  0  0  0  0  0
    8.2092    2.2562   -1.5171 H   0  0  0  0  0  0  0  0  0  0  0  0
   -9.2765   -0.5073   -0.4404 H   0  0  0  0  0  0  0  0  0  0  0  0
    8.9265   -0.8568    0.5484 H   0  0  0  0  0  0  0  0  0  0  0  0
   -9.2117    2.3176    0.7704 H   0  0  0  0  0  0  0  0  0  0  0  0
   10.1655    1.8472   -0.2286 H   0  0  0  0  0  0  0  0  0  0  0  0
  -12.6181    2.6112    0.2670 H   0  0  0  0  0  0  0  0  0  0  0  0
   13.3131    0.6120    0.4831 H   0  0  0  0  0  0  0  0  0  0  0  0
  1 27  1  0  0  0  0
  1 55  1  0  0  0  0
  2 28  1  0  0  0  0
  2 56  1  0  0  0  0
  3 27  2  0  0  0  0
  4 28  2  0  0  0  0
  5  7  2  0  0  0  0
  5  9  1  0  0  0  0
  5 13  1  0  0  0  0
  6  8  2  0  0  0  0
  6 10  1  0  0  0  0
  6 14  1  0  0  0  0
  7 11  1  0  0  0  0
  7 29  1  0  0  0  0
  8 12  1  0  0  0  0
  8 30  1  0  0  0  0
  9 17  2  0  0  0  0
  9 31  1  0  0  0  0
 10 18  2  0  0  0  0
 10 32  1  0  0  0  0
 11 12  2  0  0  0  0
 11 33  1  0  0  0  0
 12 34  1  0  0  0  0
 13 35  1  0  0  0  0
 13 36  1  0  0  0  0
 13 37  1  0  0  0  0
 14 38  1  0  0  0  0
 14 39  1  0  0  0  0
 14 40  1  0  0  0  0
 15 19  2  0  0  0  0
 15 21  1  0  0  0  0
 15 23  1  0  0  0  0
 16 20  2  0  0  0  0
 16 22  1  0  0  0  0
 16 24  1  0  0  0  0
 17 19  1  0  0  0  0
 17 41  1  0  0  0  0
 18 20  1  0  0  0  0
 18 42  1  0  0  0  0
 19 43  1  0  0  0  0
 20 44  1  0  0  0  0
 21 45  1  0  0  0  0
 21 46  1  0  0  0  0
 21 47  1  0  0  0  0
 22 48  1  0  0  0  0
 22 49  1  0  0  0  0
 22 50  1  0  0  0  0
 23 25  2  0  0  0  0
 23 51  1  0  0  0  0
 24 26  2  0  0  0  0
 24 52  1  0  0  0  0
 25 27  1  0  0  0  0
 25 53  1  0  0  0  0
 26 28  1  0  0  0  0
 26 54  1  0  0  0  0
M  END
> <DATABASE_ID>
DB15201

> <DATABASE_NAME>
drugbank

> <ORIGINAL_SOURCE>
PUBCHEM

> <ORIGINAL_SOURCE_URL>
https://pubchem.ncbi.nlm.nih.gov/rest/pug/compound/inchikey/ZVKOASAVGLETCT-UOGKPENDSA-N/SDF?record_type=3d

> <SMILES>
C\C(\C=C\C=C(/C)\C=C\C(O)=O)=C/C=C/C=C(\C)/C=C/C=C(\C)/C=C/C(O)=O

> <INCHI_IDENTIFIER>
InChI=1S/C24H28O4/c1-19(11-7-13-21(3)15-17-23(25)26)9-5-6-10-20(2)12-8-14-22(4)16-18-24(27)28/h5-18H,1-4H3,(H,25,26)(H,27,28)/b6-5+,11-7+,12-8+,17-15+,18-16+,19-9+,20-10+,21-13+,22-14+

> <INCHI_KEY>
ZVKOASAVGLETCT-UOGKPENDSA-N

> <FORMULA>
C24H28O4

> <MOLECULAR_WEIGHT>
380.484

> <EXACT_MASS>
380.198759382

> <JCHEM_ACCEPTOR_COUNT>
4

> <JCHEM_ATOM_COUNT>
56

> <JCHEM_AVERAGE_POLARIZABILITY>
45.91567365821665

> <JCHEM_BIOAVAILABILITY>
1

> <JCHEM_DONOR_COUNT>
2

> <JCHEM_FORMAL_CHARGE>
0

> <JCHEM_GHOSE_FILTER>
1

> <JCHEM_IUPAC>
(2E,4E,6E,8E,10E,12E,14E,16E,18E)-4,8,13,17-tetramethylicosa-2,4,6,8,10,12,14,16,18-nonaenedioic acid

> <ALOGPS_LOGP>
5.52

> <JCHEM_LOGP>
5.150256142

> <ALOGPS_LOGS>
-5.26

> <JCHEM_MDDR_LIKE_RULE>
0

> <JCHEM_NUMBER_OF_RINGS>
0

> <JCHEM_PHYSIOLOGICAL_CHARGE>
-2

> <JCHEM_PKA>
5.067596938406401

> <JCHEM_PKA_STRONGEST_ACIDIC>
4.465536947078439

> <JCHEM_POLAR_SURFACE_AREA>
74.6

> <JCHEM_REFRACTIVITY>
124.28379999999999

> <JCHEM_ROTATABLE_BOND_COUNT>
10

> <JCHEM_RULE_OF_FIVE>
0

> <ALOGPS_SOLUBILITY>
2.09e-03 g/l

> <JCHEM_TRADITIONAL_IUPAC>
(2R)-14-fluoro-2-methyl-6,9,10,19-tetraazapentacyclo[14.2.1.0^{2,6}.0^{8,18}.0^{12,17}]nonadeca-1(18),8,12(17),13,15-pentaen-11-one

> <JCHEM_VEBER_RULE>
0

$$$$
