
     RDKit          3D

 40 39  0  0  0  0  0  0  0  0999 V2000
   -9.8413    3.2308    0.5546 C   0  0  0  0  0  0  0  0  0  0  0  0
  -11.1722    2.6553    0.2277 C   0  0  0  0  0  0  0  0  0  0  0  0
  -12.1948    3.5254   -0.4392 C   0  0  0  0  0  0  0  0  0  0  0  0
  -11.5524    1.4358    0.5551 C   0  0  0  0  0  0  0  0  0  0  0  0
  -10.6355    0.3074    0.8249 C   0  0  0  0  0  0  0  0  0  0  0  0
  -10.6855   -0.7126   -0.3000 C   0  0  0  0  0  0  0  0  0  0  0  0
   -9.2879   -1.0937   -0.6652 C   0  0  0  0  0  0  0  0  0  0  0  0
   -8.6076   -0.5114   -1.8623 C   0  0  0  0  0  0  0  0  0  0  0  0
   -8.5583   -1.9201    0.0781 C   0  0  0  0  0  0  0  0  0  0  0  0
   -7.1343   -1.6369    0.2972 C   0  0  0  0  0  0  0  0  0  0  0  0
   -6.7667   -0.8125    1.2509 C   0  0  0  0  0  0  0  0  0  0  0  0
   -5.7016    0.1610    1.1431 C   0  0  0  0  0  0  0  0  0  0  0  0
   -4.5572    0.0971    2.1040 C   0  0  0  0  0  0  0  0  0  0  0  0
   -5.5184    0.9441    0.0855 C   0  0  0  0  0  0  0  0  0  0  0  0
   -4.2263    1.2197   -0.5026 C   0  0  0  0  0  0  0  0  0  0  0  0
   -3.0673    0.9192    0.0320 C   0  0  0  0  0  0  0  0  0  0  0  0
   -1.9866    0.2400   -0.6937 C   0  0  0  0  0  0  0  0  0  0  0  0
   -1.7185    0.6663   -2.1002 C   0  0  0  0  0  0  0  0  0  0  0  0
   -1.8733   -1.0676   -0.4594 C   0  0  0  0  0  0  0  0  0  0  0  0
   -0.6277   -1.6916   -0.9186 C   0  0  0  0  0  0  0  0  0  0  0  0
    0.3739   -1.6853   -0.0406 C   0  0  0  0  0  0  0  0  0  0  0  0
    1.7755   -1.7019   -0.4514 C   0  0  0  0  0  0  0  0  0  0  0  0
    2.5225   -0.6272   -0.5563 C   0  0  0  0  0  0  0  0  0  0  0  0
    1.9032    0.6962   -0.2955 C   0  0  0  0  0  0  0  0  0  0  0  0
    3.9390   -0.7650   -0.1953 C   0  0  0  0  0  0  0  0  0  0  0  0
    4.2888   -0.7477    1.0802 C   0  0  0  0  0  0  0  0  0  0  0  0
    5.6089   -1.1875    1.5017 C   0  0  0  0  0  0  0  0  0  0  0  0
    6.1546   -2.3186    1.0537 C   0  0  0  0  0  0  0  0  0  0  0  0
    5.4425   -3.1033    0.0129 C   0  0  0  0  0  0  0  0  0  0  0  0
    7.5815   -2.4850    1.3356 C   0  0  0  0  0  0  0  0  0  0  0  0
    8.4799   -2.7812    0.4260 C   0  0  0  0  0  0  0  0  0  0  0  0
    9.7049   -1.9972    0.2132 C   0  0  0  0  0  0  0  0  0  0  0  0
    9.7395   -1.0509   -0.7251 C   0  0  0  0  0  0  0  0  0  0  0  0
    8.6849   -1.1583   -1.7802 C   0  0  0  0  0  0  0  0  0  0  0  0
   10.2656    0.3229   -0.4553 C   0  0  0  0  0  0  0  0  0  0  0  0
    9.1693    1.1895    0.1404 C   0  0  0  0  0  0  0  0  0  0  0  0
    9.0188    2.4791   -0.5662 C   0  0  0  0  0  0  0  0  0  0  0  0
    9.9563    3.4072   -0.3412 C   0  0  0  0  0  0  0  0  0  0  0  0
   10.8225    3.7655   -1.4938 C   0  0  0  0  0  0  0  0  0  0  0  0
   10.2814    3.7927    1.0490 C   0  0  0  0  0  0  0  0  0  0  0  0
  1  2  1  0
  2  3  1  0
  2  4  2  3
  4  5  1  0
  5  6  1  0
  6  7  1  0
  7  8  1  0
  7  9  2  0
  9 10  1  0
 10 11  2  0
 11 12  1  0
 12 13  1  0
 12 14  2  0
 14 15  1  0
 15 16  2  0
 16 17  1  0
 17 18  1  0
 17 19  2  0
 19 20  1  0
 20 21  2  0
 21 22  1  0
 22 23  2  0
 23 24  1  0
 23 25  1  0
 25 26  2  0
 26 27  1  0
 27 28  2  0
 28 29  1  0
 28 30  1  0
 30 31  2  0
 31 32  1  0
 32 33  2  0
 33 34  1  0
 33 35  1  0
 35 36  1  0
 36 37  1  0
 37 38  2  3
 38 39  1  0
 38 40  1  0
M  END
>  <zinc_id>  (1) 
ZINC000008214943

>  <smiles>  (1) 
CC(C)=CCC/C(C)=C/C=C/C(C)=C/C=C/C(C)=C/C=C/C=C(C)/C=C/C=C(C)/C=C/C=C(\C)CCC=C(C)C

$$$$
