
     RDKit          3D

 40 39  0  0  0  0  0  0  0  0999 V2000
  -11.2284   -0.8322    2.6612 C   0  0  0  0  0  0  0  0  0  0  0  0
  -11.3225   -0.3593    1.2419 C   0  0  0  0  0  0  0  0  0  0  0  0
  -12.2916   -1.0288    0.3476 C   0  0  0  0  0  0  0  0  0  0  0  0
  -10.6481    0.7329    0.9418 C   0  0  0  0  0  0  0  0  0  0  0  0
  -10.3442    1.1953   -0.4277 C   0  0  0  0  0  0  0  0  0  0  0  0
  -10.6067    0.1501   -1.4824 C   0  0  0  0  0  0  0  0  0  0  0  0
   -9.2786   -0.2258   -2.0565 C   0  0  0  0  0  0  0  0  0  0  0  0
   -8.8714    0.1180   -3.4375 C   0  0  0  0  0  0  0  0  0  0  0  0
   -8.3559   -0.8043   -1.2868 C   0  0  0  0  0  0  0  0  0  0  0  0
   -6.9269   -0.6556   -1.5537 C   0  0  0  0  0  0  0  0  0  0  0  0
   -6.4513    0.5602   -1.8133 C   0  0  0  0  0  0  0  0  0  0  0  0
   -5.0308    0.8635   -1.8602 C   0  0  0  0  0  0  0  0  0  0  0  0
   -4.4452    1.8266   -0.8925 C   0  0  0  0  0  0  0  0  0  0  0  0
   -4.2444    0.5061   -2.8765 C   0  0  0  0  0  0  0  0  0  0  0  0
   -2.8596    0.1345   -2.5580 C   0  0  0  0  0  0  0  0  0  0  0  0
   -2.5458   -1.1096   -2.2012 C   0  0  0  0  0  0  0  0  0  0  0  0
   -1.6113   -1.3785   -1.1033 C   0  0  0  0  0  0  0  0  0  0  0  0
   -0.1937   -1.7722   -1.3648 C   0  0  0  0  0  0  0  0  0  0  0  0
   -1.9058   -1.0947    0.1632 C   0  0  0  0  0  0  0  0  0  0  0  0
   -0.9343   -0.5377    1.0956 C   0  0  0  0  0  0  0  0  0  0  0  0
    0.1805    0.0317    0.7052 C   0  0  0  0  0  0  0  0  0  0  0  0
    0.8183    1.1352    1.4335 C   0  0  0  0  0  0  0  0  0  0  0  0
    1.6105    2.0066    0.8542 C   0  0  0  0  0  0  0  0  0  0  0  0
    1.4151    2.2189   -0.6144 C   0  0  0  0  0  0  0  0  0  0  0  0
    2.9226    2.3916    1.3840 C   0  0  0  0  0  0  0  0  0  0  0  0
    3.4752    1.8438    2.4404 C   0  0  0  0  0  0  0  0  0  0  0  0
    4.8586    1.3506    2.4644 C   0  0  0  0  0  0  0  0  0  0  0  0
    5.0685    0.0504    2.2683 C   0  0  0  0  0  0  0  0  0  0  0  0
    4.1395   -0.8775    2.9856 C   0  0  0  0  0  0  0  0  0  0  0  0
    6.2311   -0.4525    1.5327 C   0  0  0  0  0  0  0  0  0  0  0  0
    6.2217   -0.5296    0.2056 C   0  0  0  0  0  0  0  0  0  0  0  0
    7.4601   -0.6544   -0.5720 C   0  0  0  0  0  0  0  0  0  0  0  0
    8.4581    0.1843   -0.2907 C   0  0  0  0  0  0  0  0  0  0  0  0
    8.4759    0.7358    1.0998 C   0  0  0  0  0  0  0  0  0  0  0  0
    9.7792    0.0267   -0.9730 C   0  0  0  0  0  0  0  0  0  0  0  0
   10.7101   -0.6773   -0.0225 C   0  0  0  0  0  0  0  0  0  0  0  0
   11.1536    0.1913    1.1004 C   0  0  0  0  0  0  0  0  0  0  0  0
   11.9742    1.2145    0.9644 C   0  0  0  0  0  0  0  0  0  0  0  0
   11.9578    1.9821   -0.3106 C   0  0  0  0  0  0  0  0  0  0  0  0
   13.1859    1.2918    1.8077 C   0  0  0  0  0  0  0  0  0  0  0  0
  1  2  1  0
  2  3  1  0
  2  4  2  3
  4  5  1  0
  5  6  1  0
  6  7  1  0
  7  8  1  0
  7  9  2  0
  9 10  1  0
 10 11  2  0
 11 12  1  0
 12 13  1  0
 12 14  2  0
 14 15  1  0
 15 16  2  0
 16 17  1  0
 17 18  1  0
 17 19  2  0
 19 20  1  0
 20 21  2  0
 21 22  1  0
 22 23  2  0
 23 24  1  0
 23 25  1  0
 25 26  2  0
 26 27  1  0
 27 28  2  0
 28 29  1  0
 28 30  1  0
 30 31  2  0
 31 32  1  0
 32 33  2  0
 33 34  1  0
 33 35  1  0
 35 36  1  0
 36 37  1  0
 37 38  2  3
 38 39  1  0
 38 40  1  0
M  END
>  <zinc_id>  (1) 
ZINC000008214943

>  <smiles>  (1) 
CC(C)=CCC/C(C)=C/C=C/C(C)=C/C=C/C(C)=C/C=C/C=C(C)/C=C/C=C(C)/C=C/C=C(\C)CCC=C(C)C

$$$$
