
     RDKit          3D

 40 39  0  0  0  0  0  0  0  0999 V2000
  -10.8235    4.4661   -0.2529 C   0  0  0  0  0  0  0  0  0  0  0  0
   -9.4244    3.9976   -0.4552 C   0  0  0  0  0  0  0  0  0  0  0  0
   -8.3225    4.4944    0.4256 C   0  0  0  0  0  0  0  0  0  0  0  0
   -9.1129    3.2798   -1.5240 C   0  0  0  0  0  0  0  0  0  0  0  0
   -9.0051    1.8046   -1.4976 C   0  0  0  0  0  0  0  0  0  0  0  0
   -9.6890    1.2436   -0.2716 C   0  0  0  0  0  0  0  0  0  0  0  0
   -9.2407   -0.1542   -0.1175 C   0  0  0  0  0  0  0  0  0  0  0  0
   -9.0963   -1.0809   -1.2688 C   0  0  0  0  0  0  0  0  0  0  0  0
   -8.8517   -0.5986    1.0784 C   0  0  0  0  0  0  0  0  0  0  0  0
   -7.8309   -1.6154    1.2347 C   0  0  0  0  0  0  0  0  0  0  0  0
   -7.5489   -2.5355    0.3319 C   0  0  0  0  0  0  0  0  0  0  0  0
   -6.1433   -2.9124    0.1337 C   0  0  0  0  0  0  0  0  0  0  0  0
   -5.2588   -3.0341    1.3347 C   0  0  0  0  0  0  0  0  0  0  0  0
   -5.5233   -2.7875   -1.0252 C   0  0  0  0  0  0  0  0  0  0  0  0
   -4.2002   -2.1790   -1.1687 C   0  0  0  0  0  0  0  0  0  0  0  0
   -3.5680   -1.5523   -0.2067 C   0  0  0  0  0  0  0  0  0  0  0  0
   -3.0359   -0.2006   -0.3040 C   0  0  0  0  0  0  0  0  0  0  0  0
   -2.9710    0.5590   -1.5861 C   0  0  0  0  0  0  0  0  0  0  0  0
   -2.8719    0.5368    0.7955 C   0  0  0  0  0  0  0  0  0  0  0  0
   -1.7693    1.5047    0.8284 C   0  0  0  0  0  0  0  0  0  0  0  0
   -0.7595    1.4962   -0.0018 C   0  0  0  0  0  0  0  0  0  0  0  0
    0.6499    1.5235    0.4087 C   0  0  0  0  0  0  0  0  0  0  0  0
    1.4096    0.5679   -0.1286 C   0  0  0  0  0  0  0  0  0  0  0  0
    0.8463   -0.4149   -1.1066 C   0  0  0  0  0  0  0  0  0  0  0  0
    2.8117    0.4160    0.2725 C   0  0  0  0  0  0  0  0  0  0  0  0
    3.4715   -0.7148    0.1705 C   0  0  0  0  0  0  0  0  0  0  0  0
    4.9228   -0.7917   -0.0117 C   0  0  0  0  0  0  0  0  0  0  0  0
    5.4510   -1.9697   -0.2944 C   0  0  0  0  0  0  0  0  0  0  0  0
    4.6061   -2.9381   -1.0580 C   0  0  0  0  0  0  0  0  0  0  0  0
    6.8979   -2.1280   -0.4299 C   0  0  0  0  0  0  0  0  0  0  0  0
    7.7125   -2.3158    0.5832 C   0  0  0  0  0  0  0  0  0  0  0  0
    8.9549   -1.5686    0.7789 C   0  0  0  0  0  0  0  0  0  0  0  0
    9.8778   -1.5603   -0.1750 C   0  0  0  0  0  0  0  0  0  0  0  0
   10.0714   -2.8132   -0.9357 C   0  0  0  0  0  0  0  0  0  0  0  0
   10.7091   -0.3670   -0.4597 C   0  0  0  0  0  0  0  0  0  0  0  0
   11.5149    0.0361    0.7527 C   0  0  0  0  0  0  0  0  0  0  0  0
   11.9796    1.4326    0.5307 C   0  0  0  0  0  0  0  0  0  0  0  0
   11.2541    2.4965    0.8495 C   0  0  0  0  0  0  0  0  0  0  0  0
    9.9856    2.7089    0.0882 C   0  0  0  0  0  0  0  0  0  0  0  0
   11.9205    3.6683    1.5043 C   0  0  0  0  0  0  0  0  0  0  0  0
  1  2  1  0
  2  3  1  0
  2  4  2  3
  4  5  1  0
  5  6  1  0
  6  7  1  0
  7  8  1  0
  7  9  2  0
  9 10  1  0
 10 11  2  0
 11 12  1  0
 12 13  1  0
 12 14  2  0
 14 15  1  0
 15 16  2  0
 16 17  1  0
 17 18  1  0
 17 19  2  0
 19 20  1  0
 20 21  2  0
 21 22  1  0
 22 23  2  0
 23 24  1  0
 23 25  1  0
 25 26  2  0
 26 27  1  0
 27 28  2  0
 28 29  1  0
 28 30  1  0
 30 31  2  0
 31 32  1  0
 32 33  2  0
 33 34  1  0
 33 35  1  0
 35 36  1  0
 36 37  1  0
 37 38  2  3
 38 39  1  0
 38 40  1  0
M  END
>  <zinc_id>  (1) 
ZINC000008214943

>  <smiles>  (1) 
CC(C)=CCC/C(C)=C/C=C/C(C)=C/C=C/C(C)=C/C=C/C=C(C)/C=C/C=C(C)/C=C/C=C(\C)CCC=C(C)C

$$$$
