
     RDKit          3D

 54 56  0  0  0  0  0  0  0  0999 V2000
    0.7715    1.0351   -3.6454 C   0  0  0  0  0  0  0  0  0  0  0  0
    1.1430    1.1027   -2.7711 S   0  0  0  0  0  0  0  0  0  0  0  0
    0.5960    1.7072   -1.1644 C   0  0  0  0  0  0  0  0  0  0  0  0
    0.7691    0.6205   -0.1061 C   0  0  0  0  0  0  0  0  0  0  0  0
    0.5107   -0.7580   -1.0075 C   0  0  2  0  0  0  0  0  0  0  0  0
   -0.3215   -1.4192    0.1791 N   0  0  0  0  0  0  0  0  0  0  0  0
   -1.5289   -0.6428    0.2980 C   0  0  0  0  0  0  0  0  0  0  0  0
   -1.2935    0.4426    0.8664 O   0  0  0  0  0  0  0  0  0  0  0  0
   -2.5916   -1.6001    1.0902 C   0  0  2  0  0  0  0  0  0  0  0  0
   -3.2771   -2.0883   -0.3462 C   0  0  0  0  0  0  0  0  0  0  0  0
   -3.7848   -3.4398   -0.0983 C   0  0  0  0  0  0  0  0  0  0  0  0
   -4.8795   -3.9706   -0.7705 C   0  0  0  0  0  0  0  0  0  0  0  0
   -4.9565   -5.2918   -0.4790 N   0  0  0  0  0  0  0  0  0  0  0  0
   -3.9121   -5.6184    0.2897 C   0  0  0  0  0  0  0  0  0  0  0  0
   -3.5391   -6.7059    1.0719 C   0  0  0  0  0  0  0  0  0  0  0  0
   -2.3703   -6.6316    1.8213 C   0  0  0  0  0  0  0  0  0  0  0  0
   -1.4055   -5.6700    1.5483 C   0  0  0  0  0  0  0  0  0  0  0  0
   -1.7184   -4.8113    0.5049 C   0  0  0  0  0  0  0  0  0  0  0  0
   -3.0281   -4.5506    0.2352 C   0  0  0  0  0  0  0  0  0  0  0  0
   -3.6668   -0.4436    1.2951 N   0  0  0  0  0  0  0  0  0  0  0  0
   -3.8749    0.4443    0.2493 C   0  0  0  0  0  0  0  0  0  0  0  0
   -3.5748    0.0595   -0.9219 O   0  0  0  0  0  0  0  0  0  0  0  0
   -5.0900    1.3228    0.3182 C   0  0  0  0  0  0  0  0  0  0  0  0
   -6.1813    0.4300   -0.2618 C   0  0  0  0  0  0  0  0  0  0  0  0
   -7.4169    1.1307   -0.4715 N   0  0  0  0  0  0  0  0  0  0  0  0
   -7.5085    2.5358   -0.5641 C   0  0  0  0  0  0  0  0  0  0  0  0
   -6.4425    3.1786   -0.7195 O   0  0  0  0  0  0  0  0  0  0  0  0
   -8.6269    3.2567   -0.1821 O   0  0  0  0  0  0  0  0  0  0  0  0
   -8.5553    4.4752    0.5447 C   0  0  0  0  0  0  0  0  0  0  0  0
   -8.7457    4.1770    2.0231 C   0  0  0  0  0  0  0  0  0  0  0  0
   -9.5783    5.4827    0.0747 C   0  0  0  0  0  0  0  0  0  0  0  0
   -7.1704    5.0254    0.3787 C   0  0  0  0  0  0  0  0  0  0  0  0
    1.8769   -1.5261   -0.5399 C   0  0  0  0  0  0  0  0  0  0  0  0
    2.1627   -2.4160   -1.3978 O   0  0  0  0  0  0  0  0  0  0  0  0
    2.8587   -0.8260    0.0371 N   0  0  0  0  0  0  0  0  0  0  0  0
    4.3957   -1.1655   -0.1495 C   0  0  1  0  0  0  0  0  0  0  0  0
    4.2428   -1.5391   -1.7701 C   0  0  0  0  0  0  0  0  0  0  0  0
    5.3361   -2.5488   -1.9485 C   0  0  0  0  0  0  0  0  0  0  0  0
    5.2728   -3.6930   -1.4548 O   0  0  0  0  0  0  0  0  0  0  0  0
    6.3254   -2.3267   -2.8975 O   0  0  0  0  0  0  0  0  0  0  0  0
    4.7745    0.3909   -0.4573 C   0  0  0  0  0  0  0  0  0  0  0  0
    4.1114    0.9757   -1.2875 O   0  0  0  0  0  0  0  0  0  0  0  0
    5.4027    1.1586    0.4980 N   0  0  0  0  0  0  0  0  0  0  0  0
    4.5380    2.2585    1.2672 C   0  0  1  0  0  0  0  0  0  0  0  0
    5.7623    2.5814    2.3461 C   0  0  0  0  0  0  0  0  0  0  0  0
    7.0247    2.4416    1.6527 C   0  0  0  0  0  0  0  0  0  0  0  0
    7.6196    3.2736    0.7492 C   0  0  0  0  0  0  0  0  0  0  0  0
    8.9463    3.2721    0.4403 C   0  0  0  0  0  0  0  0  0  0  0  0
    9.7432    2.3999    1.1715 C   0  0  0  0  0  0  0  0  0  0  0  0
    9.1211    1.2330    1.6017 C   0  0  0  0  0  0  0  0  0  0  0  0
    7.8101    1.3517    2.0181 C   0  0  0  0  0  0  0  0  0  0  0  0
    4.9634    3.5219    0.3157 C   0  0  0  0  0  0  0  0  0  0  0  0
    4.9425    4.7640    1.0599 N   0  0  0  0  0  0  0  0  0  0  0  0
    4.0184    3.6332   -0.5339 O   0  0  0  0  0  0  0  0  0  0  0  0
  1  2  1  0
  2  3  1  0
  3  4  1  0
  5  4  1  1
  5  6  1  0
  6  7  1  0
  7  8  2  0
  9  7  1  6
  9 10  1  0
 10 11  1  0
 11 12  2  0
 12 13  1  0
 13 14  1  0
 14 15  2  0
 15 16  1  0
 16 17  2  0
 17 18  1  0
 18 19  2  0
  9 20  1  0
 20 21  1  0
 21 22  2  0
 21 23  1  0
 23 24  1  0
 24 25  1  0
 25 26  1  0
 26 27  2  0
 26 28  1  0
 28 29  1  0
 29 30  1  0
 29 31  1  0
 29 32  1  0
  5 33  1  0
 33 34  2  0
 33 35  1  0
 36 35  1  1
 36 37  1  0
 37 38  1  0
 38 39  2  0
 38 40  1  0
 36 41  1  0
 41 42  2  0
 41 43  1  0
 44 43  1  6
 44 45  1  0
 45 46  1  0
 46 47  2  0
 47 48  1  0
 48 49  2  0
 49 50  1  0
 50 51  2  0
 44 52  1  0
 52 53  1  0
 52 54  2  0
 19 11  1  0
 51 46  1  0
 19 14  1  0
M  END
>  <zinc_id>  (1) 
ZINC000008214644

>  <smiles>  (1) 
CSCC[C@H](NC(=O)[C@H](Cc1c[nH]c2ccccc12)NC(=O)CCNC(=O)OC(C)(C)C)C(=O)N[C@@H](CC(=O)O)C(=O)N[C@@H](Cc1ccccc1)C(N)=O

$$$$
