
     RDKit          3D

 50 53  0  0  0  0  0  0  0  0999 V2000
    8.4982    0.8953    0.6398 C   0  0  0  0  0  0  0  0  0  0  0  0
    8.8762   -0.4917    0.3618 C   0  0  0  0  0  0  0  0  0  0  0  0
   10.2979   -0.8168    0.1837 C   0  0  0  0  0  0  0  0  0  0  0  0
    7.9046   -1.3376   -0.3272 C   0  0  0  0  0  0  0  0  0  0  0  0
    7.0988   -2.2673    0.2418 N   0  0  0  0  0  0  0  0  0  0  0  0
    6.3053   -2.8669   -0.6403 C   0  0  0  0  0  0  0  0  0  0  0  0
    4.9664   -3.4736   -0.3401 C   0  0  0  0  0  0  0  0  0  0  0  0
    4.5329   -3.1963    0.9986 N   0  0  0  0  0  0  0  0  0  0  0  0
    4.4286   -4.2468    1.9988 C   0  0  0  0  0  0  0  0  0  0  0  0
    4.2367   -1.8376    1.3248 C   0  0  0  0  0  0  0  0  0  0  0  0
    4.7741   -1.4457    2.4053 O   0  0  0  0  0  0  0  0  0  0  0  0
    3.7201   -0.9178    0.3611 N   0  0  0  0  0  0  0  0  0  0  0  0
    4.1268    0.5614    0.7277 C   0  0  2  0  0  0  0  0  0  0  0  0
    2.6330    1.1538    0.7386 C   0  0  0  0  0  0  0  0  0  0  0  0
    2.4031    1.4299    1.9581 O   0  0  0  0  0  0  0  0  0  0  0  0
    1.6369    0.8384   -0.1272 N   0  0  0  0  0  0  0  0  0  0  0  0
    0.3009    0.4277    0.6096 C   0  0  1  0  0  0  0  0  0  0  0  0
    0.1194    1.8717    1.3298 C   0  0  0  0  0  0  0  0  0  0  0  0
   -0.1373    2.9609    0.4101 C   0  0  0  0  0  0  0  0  0  0  0  0
   -1.3602    3.2949   -0.1366 C   0  0  0  0  0  0  0  0  0  0  0  0
   -2.0972    4.4034    0.1208 C   0  0  0  0  0  0  0  0  0  0  0  0
   -1.4807    5.4351    0.8040 C   0  0  0  0  0  0  0  0  0  0  0  0
   -0.1003    5.3501    0.9392 C   0  0  0  0  0  0  0  0  0  0  0  0
    0.5459    4.1564    0.6609 C   0  0  0  0  0  0  0  0  0  0  0  0
   -0.7036    0.7147   -0.6653 C   0  0  0  0  0  0  0  0  0  0  0  0
   -1.9875    0.0932    0.1542 C   0  0  2  0  0  0  0  0  0  0  0  0
   -1.3595   -1.2748    0.2744 O   0  0  0  0  0  0  0  0  0  0  0  0
   -2.8677   -0.4577   -1.2167 C   0  0  2  0  0  0  0  0  0  0  0  0
   -3.5533    0.9553   -1.6061 C   0  0  0  0  0  0  0  0  0  0  0  0
   -3.8665    1.7362   -0.4465 C   0  0  0  0  0  0  0  0  0  0  0  0
   -4.0608    1.4266    0.8617 C   0  0  0  0  0  0  0  0  0  0  0  0
   -4.5330    2.2348    1.8477 C   0  0  0  0  0  0  0  0  0  0  0  0
   -5.3180    3.2946    1.4074 C   0  0  0  0  0  0  0  0  0  0  0  0
   -4.9648    3.8148    0.1669 C   0  0  0  0  0  0  0  0  0  0  0  0
   -4.2841    3.0296   -0.7566 C   0  0  0  0  0  0  0  0  0  0  0  0
   -4.0500   -0.8714   -0.2830 N   0  0  0  0  0  0  0  0  0  0  0  0
   -5.2853   -1.1655   -0.9296 C   0  0  0  0  0  0  0  0  0  0  0  0
   -5.1276   -2.1439   -1.7259 O   0  0  0  0  0  0  0  0  0  0  0  0
   -6.4712   -1.0309   -0.1978 O   0  0  0  0  0  0  0  0  0  0  0  0
   -7.6676   -1.3985   -0.8245 C   0  0  0  0  0  0  0  0  0  0  0  0
   -8.2682   -2.4206    0.0549 C   0  0  0  0  0  0  0  0  0  0  0  0
   -8.3394   -3.7810   -0.2281 C   0  0  0  0  0  0  0  0  0  0  0  0
   -9.3203   -4.3610    0.4611 N   0  0  0  0  0  0  0  0  0  0  0  0
   -9.2543   -4.0709    1.7835 C   0  0  0  0  0  0  0  0  0  0  0  0
   -8.5620   -2.4978    1.7440 S   0  0  0  0  0  0  0  0  0  0  0  0
    4.4318    0.9826   -0.8255 C   0  0  0  0  0  0  0  0  0  0  0  0
    3.6126    0.2551   -1.7597 C   0  0  0  0  0  0  0  0  0  0  0  0
    4.3506    2.4590   -0.7837 C   0  0  0  0  0  0  0  0  0  0  0  0
    7.0160   -3.3216   -1.7484 C   0  0  0  0  0  0  0  0  0  0  0  0
    8.2038   -2.0818   -1.8458 S   0  0  0  0  0  0  0  0  0  0  0  0
  1  2  1  0
  2  3  1  0
  2  4  1  0
  4  5  2  0
  5  6  1  0
  6  7  1  0
  7  8  1  0
  8  9  1  0
  8 10  1  0
 10 11  2  0
 10 12  1  0
 13 12  1  6
 13 14  1  0
 14 15  2  0
 14 16  1  0
 17 16  1  6
 17 18  1  0
 18 19  1  0
 19 20  2  0
 20 21  1  0
 21 22  2  0
 22 23  1  0
 23 24  2  0
 17 25  1  0
 26 25  1  6
 26 27  1  0
 26 28  1  0
 28 29  1  6
 29 30  1  0
 30 31  2  0
 31 32  1  0
 32 33  2  0
 33 34  1  0
 34 35  2  0
 28 36  1  0
 36 37  1  0
 37 38  2  0
 37 39  1  0
 39 40  1  0
 40 41  1  0
 41 42  2  0
 42 43  1  0
 43 44  2  0
 44 45  1  0
 13 46  1  0
 46 47  1  0
 46 48  1  0
  6 49  2  0
 49 50  1  0
 50  4  1  0
 24 19  1  0
 35 30  1  0
 45 41  1  0
M  END
>  <zinc_id>  (1) 
ZINC000003944422

>  <smiles>  (1) 
CC(C)c1nc(CN(C)C(=O)N[C@H](C(=O)N[C@@H](Cc2ccccc2)C[C@H](O)[C@H](Cc2ccccc2)NC(=O)OCc2cncs2)C(C)C)cs1

$$$$
