
     RDKit          3D

 49 53  0  0  0  0  0  0  0  0999 V2000
   -6.7544   -1.7825    3.6731 C   0  0  0  0  0  0  0  0  0  0  0  0
   -7.0050   -1.9850    3.3667 C   0  0  0  0  0  0  0  0  0  0  0  0
   -8.4866   -1.6169    3.4125 C   0  0  0  0  0  0  0  0  0  0  0  0
   -7.0170   -3.5091    3.2604 C   0  0  0  0  0  0  0  0  0  0  0  0
   -6.4968   -1.4975    2.1058 N   0  0  0  0  0  0  0  0  0  0  0  0
   -5.3033   -0.7137    1.9695 C   0  0  0  0  0  0  0  0  0  0  0  0
   -5.0038   -0.1028    3.0439 O   0  0  0  0  0  0  0  0  0  0  0  0
   -5.4608    0.4145    0.8229 C   0  0  2  0  0  0  0  0  0  0  0  0
   -5.8780   -0.6958   -0.3182 C   0  0  0  0  0  0  0  0  0  0  0  0
   -6.4064    0.2159   -1.5446 C   0  0  2  0  0  0  0  0  0  0  0  0
   -5.3725   -0.4461   -2.6099 C   0  0  0  0  0  0  0  0  0  0  0  0
   -5.7722    0.1220   -3.9691 C   0  0  0  0  0  0  0  0  0  0  0  0
   -6.1406    1.5622   -3.6144 C   0  0  0  0  0  0  0  0  0  0  0  0
   -5.1076    2.0261   -2.6706 C   0  0  0  0  0  0  0  0  0  0  0  0
   -5.4758    1.5848   -1.1572 C   0  0  2  0  0  0  0  0  0  0  0  0
   -4.1073    0.7512   -0.9769 C   0  0  0  0  0  0  0  0  0  0  0  0
   -3.9593    0.3238    0.3738 N   0  0  0  0  0  0  0  0  0  0  0  0
   -3.1273    1.1872    1.0437 C   0  0  0  0  0  0  0  0  0  0  0  0
   -1.9362    0.4080    1.8555 C   0  0  1  0  0  0  0  0  0  0  0  0
   -2.0918   -0.9043    1.1279 O   0  0  0  0  0  0  0  0  0  0  0  0
   -0.6568    1.0379    0.8822 C   0  0  2  0  0  0  0  0  0  0  0  0
   -0.9368    0.1657   -0.4571 C   0  0  0  0  0  0  0  0  0  0  0  0
   -0.4215    0.8521   -1.6220 C   0  0  0  0  0  0  0  0  0  0  0  0
    0.8654    1.2250   -1.8993 C   0  0  0  0  0  0  0  0  0  0  0  0
    1.1487    2.0555   -2.9696 C   0  0  0  0  0  0  0  0  0  0  0  0
    0.1450    2.2652   -3.9079 C   0  0  0  0  0  0  0  0  0  0  0  0
   -1.0196    1.5144   -3.7966 C   0  0  0  0  0  0  0  0  0  0  0  0
   -1.0146    0.5025   -2.8408 C   0  0  0  0  0  0  0  0  0  0  0  0
    0.3491   -0.0047    1.4637 N   0  0  0  0  0  0  0  0  0  0  0  0
    1.6109    0.4586    1.9685 C   0  0  0  0  0  0  0  0  0  0  0  0
    1.6549    1.7048    2.2004 O   0  0  0  0  0  0  0  0  0  0  0  0
    2.7555   -0.0436    0.9386 C   0  0  2  0  0  0  0  0  0  0  0  0
    2.6194   -1.6069    1.4238 C   0  0  0  0  0  0  0  0  0  0  0  0
    2.7343   -1.5923    2.9013 C   0  0  0  0  0  0  0  0  0  0  0  0
    1.6874   -2.2488    3.6203 N   0  0  0  0  0  0  0  0  0  0  0  0
    3.9115   -1.8257    3.3165 O   0  0  0  0  0  0  0  0  0  0  0  0
    4.0134    0.2121    1.8634 N   0  0  0  0  0  0  0  0  0  0  0  0
    5.0656    0.7966    1.0904 C   0  0  0  0  0  0  0  0  0  0  0  0
    4.6651    1.8946    0.5853 O   0  0  0  0  0  0  0  0  0  0  0  0
    6.2844    0.1416    0.6233 C   0  0  0  0  0  0  0  0  0  0  0  0
    6.3510   -1.1565    0.1221 C   0  0  0  0  0  0  0  0  0  0  0  0
    6.6606   -1.4053   -1.2144 C   0  0  0  0  0  0  0  0  0  0  0  0
    7.4895   -0.4852   -1.8450 C   0  0  0  0  0  0  0  0  0  0  0  0
    7.8638   -0.5643   -3.1594 C   0  0  0  0  0  0  0  0  0  0  0  0
    9.0822    0.0289   -3.4739 C   0  0  0  0  0  0  0  0  0  0  0  0
    9.7973    0.7472   -2.5227 C   0  0  0  0  0  0  0  0  0  0  0  0
    9.0805    1.2121   -1.4402 C   0  0  0  0  0  0  0  0  0  0  0  0
    7.9544    0.5425   -1.0318 C   0  0  0  0  0  0  0  0  0  0  0  0
    7.1620    0.9607   -0.0137 N   0  0  0  0  0  0  0  0  0  0  0  0
  1  2  1  0
  2  3  1  0
  2  4  1  0
  2  5  1  0
  5  6  1  0
  6  7  2  0
  8  6  1  1
  8  9  1  0
 10  9  1  1
 10 11  1  0
 11 12  1  0
 12 13  1  0
 13 14  1  0
 15 14  1  6
 15 16  1  0
 16 17  1  0
 17 18  1  0
 19 18  1  6
 19 20  1  0
 19 21  1  0
 21 22  1  6
 22 23  1  0
 23 24  2  0
 24 25  1  0
 25 26  2  0
 26 27  1  0
 27 28  2  0
 21 29  1  0
 29 30  1  0
 30 31  2  0
 32 30  1  1
 32 33  1  0
 33 34  1  0
 34 35  1  0
 34 36  2  0
 32 37  1  0
 37 38  1  0
 38 39  2  0
 38 40  1  0
 40 41  2  0
 41 42  1  0
 42 43  2  0
 43 44  1  0
 44 45  2  0
 45 46  1  0
 46 47  2  0
 47 48  1  0
 48 49  2  0
 17  8  1  0
 28 23  1  0
 49 40  1  0
 15 10  1  0
 48 43  1  0
M  END
>  <zinc_id>  (1) 
ZINC000003914596

>  <smiles>  (1) 
CC(C)(C)NC(=O)[C@@H]1C[C@@H]2CCCC[C@@H]2CN1C[C@@H](O)[C@H](Cc1ccccc1)NC(=O)[C@H](CC(N)=O)NC(=O)c1ccc2ccccc2n1

$$$$
