
     RDKit          3D

 46 49  0  0  0  0  0  0  0  0999 V2000
    5.6742    0.7991    3.5051 C   0  0  0  0  0  0  0  0  0  0  0  0
    6.1621    0.0501    3.2398 C   0  0  0  0  0  0  0  0  0  0  0  0
    6.9785   -0.6508    4.1170 C   0  0  0  0  0  0  0  0  0  0  0  0
    7.7257   -1.7500    3.7076 C   0  0  0  0  0  0  0  0  0  0  0  0
    7.4776   -2.3473    2.4924 C   0  0  0  0  0  0  0  0  0  0  0  0
    6.4584   -1.8304    1.7152 C   0  0  0  0  0  0  0  0  0  0  0  0
    5.9156   -2.5807    0.5367 C   0  0  0  0  0  0  0  0  0  0  0  0
    6.0508   -0.5272    1.9810 C   0  0  0  0  0  0  0  0  0  0  0  0
    5.0349    0.0547    1.2417 O   0  0  0  0  0  0  0  0  0  0  0  0
    3.6799   -0.3073    1.3419 C   0  0  0  0  0  0  0  0  0  0  0  0
    3.0549    0.3825    0.1842 C   0  0  0  0  0  0  0  0  0  0  0  0
    3.7194    0.8805   -0.7756 O   0  0  0  0  0  0  0  0  0  0  0  0
    1.6723    0.4249    0.0447 N   0  0  0  0  0  0  0  0  0  0  0  0
    0.9793    1.6915   -0.5376 C   0  0  1  0  0  0  0  0  0  0  0  0
    2.1255    1.9230   -1.6683 C   0  0  0  0  0  0  0  0  0  0  0  0
    2.0049    3.2854   -2.1623 C   0  0  0  0  0  0  0  0  0  0  0  0
    2.8453    3.6261   -3.1831 C   0  0  0  0  0  0  0  0  0  0  0  0
    2.7367    4.8719   -3.7731 C   0  0  0  0  0  0  0  0  0  0  0  0
    1.9252    5.7928   -3.1238 C   0  0  0  0  0  0  0  0  0  0  0  0
    1.2432    5.4834   -1.9578 C   0  0  0  0  0  0  0  0  0  0  0  0
    1.1585    4.1696   -1.5608 C   0  0  0  0  0  0  0  0  0  0  0  0
   -0.1910    0.8959   -1.5325 C   0  0  1  0  0  0  0  0  0  0  0  0
    0.6937    0.6157   -2.7176 O   0  0  0  0  0  0  0  0  0  0  0  0
    0.0406   -0.6126   -0.9522 C   0  0  0  0  0  0  0  0  0  0  0  0
   -1.4542   -1.2628   -0.9755 C   0  0  2  0  0  0  0  0  0  0  0  0
   -1.6376   -1.0277   -2.5892 C   0  0  0  0  0  0  0  0  0  0  0  0
   -1.9270   -2.4389   -3.0086 C   0  0  0  0  0  0  0  0  0  0  0  0
   -1.6970   -3.5454   -2.2146 C   0  0  0  0  0  0  0  0  0  0  0  0
   -2.3820   -4.7450   -2.3818 C   0  0  0  0  0  0  0  0  0  0  0  0
   -3.5697   -4.6678   -3.0903 C   0  0  0  0  0  0  0  0  0  0  0  0
   -3.5941   -3.7214   -4.1081 C   0  0  0  0  0  0  0  0  0  0  0  0
   -2.6419   -2.7099   -4.1690 C   0  0  0  0  0  0  0  0  0  0  0  0
   -2.1989    0.0611   -0.5583 N   0  0  0  0  0  0  0  0  0  0  0  0
   -3.3370   -0.3299    0.2075 C   0  0  0  0  0  0  0  0  0  0  0  0
   -4.2326   -0.8696   -0.3563 O   0  0  0  0  0  0  0  0  0  0  0  0
   -3.4058    0.1903    1.7257 C   0  0  2  0  0  0  0  0  0  0  0  0
   -3.3050   -1.3230    2.3590 C   0  0  0  0  0  0  0  0  0  0  0  0
   -3.2127   -1.2088    3.8247 C   0  0  0  0  0  0  0  0  0  0  0  0
   -4.3292   -2.1741    1.7758 C   0  0  0  0  0  0  0  0  0  0  0  0
   -4.9826    0.2022    1.8127 N   0  0  0  0  0  0  0  0  0  0  0  0
   -5.3450    0.3020    3.2348 C   0  0  0  0  0  0  0  0  0  0  0  0
   -6.7872   -0.0461    3.4280 C   0  0  0  0  0  0  0  0  0  0  0  0
   -7.5435    0.3130    2.1753 C   0  0  0  0  0  0  0  0  0  0  0  0
   -6.9532    1.4648    1.4933 N   0  0  0  0  0  0  0  0  0  0  0  0
   -5.6076    1.2439    1.0461 C   0  0  0  0  0  0  0  0  0  0  0  0
   -5.0228    1.9524    0.2062 O   0  0  0  0  0  0  0  0  0  0  0  0
  1  2  1  0
  2  3  2  0
  3  4  1  0
  4  5  2  0
  5  6  1  0
  6  7  1  0
  6  8  2  0
  8  9  1  0
  9 10  1  0
 10 11  1  0
 11 12  2  0
 11 13  1  0
 14 13  1  1
 14 15  1  0
 15 16  1  0
 16 17  2  0
 17 18  1  0
 18 19  2  0
 19 20  1  0
 20 21  2  0
 14 22  1  0
 22 23  1  6
 22 24  1  0
 25 24  1  6
 25 26  1  0
 26 27  1  0
 27 28  2  0
 28 29  1  0
 29 30  2  0
 30 31  1  0
 31 32  2  0
 25 33  1  0
 33 34  1  0
 34 35  2  0
 36 34  1  6
 36 37  1  0
 37 38  1  0
 37 39  1  0
 36 40  1  0
 40 41  1  0
 41 42  1  0
 42 43  1  0
 43 44  1  0
 44 45  1  0
 45 46  2  0
  8  2  1  0
 21 16  1  0
 32 27  1  0
 45 40  1  0
M  END
>  <zinc_id>  (1) 
ZINC000003951740

>  <smiles>  (1) 
Cc1cccc(C)c1OCC(=O)N[C@@H](Cc1ccccc1)[C@@H](O)C[C@H](Cc1ccccc1)NC(=O)[C@H](C(C)C)N1CCCNC1=O

$$$$
