
     RDKit          3D

 33 33  0  0  0  0  0  0  0  0999 V2000
   -4.9406   -3.5522    0.8585 C   0  0  0  0  0  0  0  0  0  0  0  0
   -4.8550   -3.1184    0.6557 C   0  0  0  0  0  0  0  0  0  0  0  0
   -4.4125   -2.1718   -0.3647 N   0  0  0  0  0  0  0  0  0  0  0  0
   -4.1747   -0.7914   -0.0634 C   0  0  0  0  0  0  0  0  0  0  0  0
   -5.1339    0.1512   -0.2327 N   0  0  0  0  0  0  0  0  0  0  0  0
   -4.8139    1.4440   -0.0342 C   0  0  0  0  0  0  0  0  0  0  0  0
   -5.7723    2.4682   -0.3069 N   0  0  0  0  0  0  0  0  0  0  0  0
   -5.4229    3.8614   -0.3426 C   0  0  0  0  0  0  0  0  0  0  0  0
   -5.0249    4.3267   -1.7328 C   0  0  0  0  0  0  0  0  0  0  0  0
   -4.3522    4.2341    0.6568 C   0  0  0  0  0  0  0  0  0  0  0  0
   -3.6514    1.6964    0.5732 N   0  0  0  0  0  0  0  0  0  0  0  0
   -2.6002    0.9092    0.2805 C   0  0  0  0  0  0  0  0  0  0  0  0
   -1.0029    1.4368    0.8738 S   0  0  0  0  0  0  0  0  0  0  0  0
    0.3281    0.6457   -0.0489 C   0  0  0  0  0  0  0  0  0  0  0  0
    1.0836   -0.3238    1.0938 C   0  0  2  0  0  0  0  0  0  0  0  0
    2.5632    0.1666    0.7261 N   0  0  0  0  0  0  0  0  0  0  0  0
    2.8690    0.3750   -0.6136 C   0  0  0  0  0  0  0  0  0  0  0  0
    2.0100    1.1138   -1.1962 O   0  0  0  0  0  0  0  0  0  0  0  0
    4.2691    0.8769   -0.8481 C   0  0  0  0  0  0  0  0  0  0  0  0
    5.2589   -0.1246   -0.3460 C   0  0  0  0  0  0  0  0  0  0  0  0
    6.4647    0.7790    0.3830 C   0  0  2  0  0  0  0  0  0  0  0  0
    6.6690   -0.3544    1.5009 N   0  0  0  0  0  0  0  0  0  0  0  0
    5.3878    1.5879    1.3276 C   0  0  0  0  0  0  0  0  0  0  0  0
    5.8814    1.8586    2.4707 O   0  0  0  0  0  0  0  0  0  0  0  0
    5.0942    2.7808    0.6455 O   0  0  0  0  0  0  0  0  0  0  0  0
    1.1267   -1.5940    0.0464 C   0  0  0  0  0  0  0  0  0  0  0  0
    0.0681   -2.2568    0.3061 O   0  0  0  0  0  0  0  0  0  0  0  0
    2.2989   -2.4098    0.2179 N   0  0  0  0  0  0  0  0  0  0  0  0
    2.3366   -3.6184   -0.6014 C   0  0  0  0  0  0  0  0  0  0  0  0
    1.9094   -3.3695   -1.9888 C   0  0  0  0  0  0  0  0  0  0  0  0
    1.0604   -2.5024   -2.3361 O   0  0  0  0  0  0  0  0  0  0  0  0
    2.3665   -4.1568   -3.0503 O   0  0  0  0  0  0  0  0  0  0  0  0
   -2.8881   -0.3681   -0.0278 N   0  0  0  0  0  0  0  0  0  0  0  0
  1  2  1  0
  2  3  1  0
  3  4  1  0
  4  5  2  0
  5  6  1  0
  6  7  1  0
  7  8  1  0
  8  9  1  0
  8 10  1  0
  6 11  2  0
 11 12  1  0
 12 13  1  0
 13 14  1  0
 15 14  1  6
 15 16  1  0
 16 17  1  0
 17 18  2  0
 17 19  1  0
 19 20  1  0
 21 20  1  6
 21 22  1  0
 21 23  1  0
 23 24  2  0
 23 25  1  0
 15 26  1  0
 26 27  2  0
 26 28  1  0
 28 29  1  0
 29 30  1  0
 30 31  2  0
 30 32  1  0
 12 33  2  0
 33  4  1  0
M  END
>  <zinc_id>  (1) 
ZINC000012501645

>  <smiles>  (1) 
CCNc1nc(NC(C)C)nc(SC[C@H](NC(=O)CC[C@H](N)C(=O)O)C(=O)NCC(=O)O)n1

$$$$
