
     RDKit          3D

 30 30  0  0  0  0  0  0  0  0999 V2000
   -6.7195    1.8821    0.6123 O   0  0  0  0  0  0  0  0  0  0  0  0
   -7.0512    1.5290    0.4354 C   0  0  0  0  0  0  0  0  0  0  0  0
   -8.3550    2.0483    0.3810 O   0  0  0  0  0  0  0  0  0  0  0  0
   -6.6570    0.3957   -0.4224 C   0  0  0  0  0  0  0  0  0  0  0  0
   -6.2752    0.6913   -1.5960 O   0  0  0  0  0  0  0  0  0  0  0  0
   -6.1194   -0.8210    0.0581 N   0  0  0  0  0  0  0  0  0  0  0  0
   -4.7643   -1.2442   -0.1836 C   0  0  0  0  0  0  0  0  0  0  0  0
   -4.0545   -0.8116   -1.2978 C   0  0  0  0  0  0  0  0  0  0  0  0
   -2.7406   -0.3630   -1.2068 C   0  0  0  0  0  0  0  0  0  0  0  0
   -2.1832   -0.1104    0.0391 C   0  0  0  0  0  0  0  0  0  0  0  0
   -1.4377    1.1543    0.3397 C   0  0  0  0  0  0  0  0  0  0  0  0
   -0.4085    0.7355    1.3865 C   0  0  0  0  0  0  0  0  0  0  0  0
    0.2111   -0.4618    0.8180 N   0  0  0  0  0  0  0  0  0  0  0  0
    1.5358   -0.4036    0.3275 C   0  0  0  0  0  0  0  0  0  0  0  0
    2.1684    0.6647    0.5646 O   0  0  0  0  0  0  0  0  0  0  0  0
    1.7495   -0.9717   -1.1714 C   0  0  2  0  0  0  0  0  0  0  0  0
    1.6030   -2.5362   -0.6782 C   0  0  0  0  0  0  0  0  0  0  0  0
    0.7065   -3.0169   -1.6108 O   0  0  0  0  0  0  0  0  0  0  0  0
    3.3208   -0.9903   -1.0593 N   0  0  0  0  0  0  0  0  0  0  0  0
    3.9040   -1.5263    0.0720 C   0  0  0  0  0  0  0  0  0  0  0  0
    3.1640   -2.0813    0.9309 O   0  0  0  0  0  0  0  0  0  0  0  0
    5.3629   -1.3547    0.3408 C   0  0  0  0  0  0  0  0  0  0  0  0
    6.0117   -0.5777   -0.7662 C   0  0  0  0  0  0  0  0  0  0  0  0
    5.9344    0.8537   -0.5913 N   0  0  0  0  0  0  0  0  0  0  0  0
    6.7566    1.5749    0.3270 C   0  0  0  0  0  0  0  0  0  0  0  0
    7.2248    0.8922    1.2876 O   0  0  0  0  0  0  0  0  0  0  0  0
    7.3498    2.8954    0.0241 C   0  0  0  0  0  0  0  0  0  0  0  0
    6.4652    4.2333    1.1220 Br  0  0  0  0  0  0  0  0  0  0  0  0
   -2.7067   -0.8839    1.0693 C   0  0  0  0  0  0  0  0  0  0  0  0
   -3.9956   -1.3959    0.9660 C   0  0  0  0  0  0  0  0  0  0  0  0
  1  2  2  0
  2  3  1  0
  2  4  1  0
  4  5  2  0
  4  6  1  0
  6  7  1  0
  7  8  2  0
  8  9  1  0
  9 10  2  0
 10 11  1  0
 11 12  1  0
 12 13  1  0
 13 14  1  0
 14 15  2  0
 16 14  1  1
 16 17  1  0
 17 18  1  0
 16 19  1  0
 19 20  1  0
 20 21  2  0
 20 22  1  0
 22 23  1  0
 23 24  1  0
 24 25  1  0
 25 26  2  0
 25 27  1  0
 27 28  1  0
 10 29  1  0
 29 30  2  0
 30  7  1  0
M  END
>  <zinc_id>  (1) 
ZINC000012502600

>  <smiles>  (1) 
O=C(CBr)NCCC(=O)N[C@@H](CO)C(=O)NCCc1ccc(NC(=O)C(=O)O)cc1

$$$$
