
     RDKit          3D

 47 49  0  0  0  0  0  0  0  0999 V2000
    6.4367   -1.3943   -4.6425 C   0  0  0  0  0  0  0  0  0  0  0  0
    6.3219   -0.1653   -5.2264 O   0  0  0  0  0  0  0  0  0  0  0  0
    5.6345    0.8258   -4.5147 C   0  0  0  0  0  0  0  0  0  0  0  0
    4.2593    1.0058   -4.6443 C   0  0  0  0  0  0  0  0  0  0  0  0
    3.4570    1.1246   -3.5107 C   0  0  0  0  0  0  0  0  0  0  0  0
    3.9986    1.1804   -2.2352 C   0  0  0  0  0  0  0  0  0  0  0  0
    3.4100    0.3156   -1.1579 C   0  0  0  0  0  0  0  0  0  0  0  0
    3.7568    1.1809    0.2370 C   0  0  2  0  0  0  0  0  0  0  0  0
    3.6397   -0.1478    1.1342 N   0  0  0  0  0  0  0  0  0  0  0  0
    4.2605    0.0504    2.4159 C   0  0  0  0  0  0  0  0  0  0  0  0
    3.7474    1.0065    3.0798 O   0  0  0  0  0  0  0  0  0  0  0  0
    4.4302   -1.2019    3.2276 C   0  0  0  0  0  0  0  0  0  0  0  0
    5.7170   -1.0328    4.0146 C   0  0  0  0  0  0  0  0  0  0  0  0
    5.3714   -0.2115    5.2418 C   0  0  0  0  0  0  0  0  0  0  0  0
    6.7513   -0.3490    3.1598 C   0  0  0  0  0  0  0  0  0  0  0  0
    6.1978   -2.3518    4.3524 N   0  0  0  0  0  0  0  0  0  0  0  0
    2.1844    1.5800    0.4812 C   0  0  0  0  0  0  0  0  0  0  0  0
    2.0107    2.8036    0.6487 O   0  0  0  0  0  0  0  0  0  0  0  0
    1.2332    0.5830    0.3712 N   0  0  0  0  0  0  0  0  0  0  0  0
   -0.1773    1.2860    0.0470 C   0  0  1  0  0  0  0  0  0  0  0  0
   -0.1371    0.7212   -1.5272 C   0  0  0  0  0  0  0  0  0  0  0  0
   -0.3352   -0.6943   -1.5400 C   0  0  0  0  0  0  0  0  0  0  0  0
   -1.0066   -1.2255   -2.6425 C   0  0  0  0  0  0  0  0  0  0  0  0
   -1.0402   -2.5480   -2.5216 N   0  0  0  0  0  0  0  0  0  0  0  0
    0.0866   -2.8436   -1.8266 C   0  0  0  0  0  0  0  0  0  0  0  0
    0.2552   -1.7779   -1.0015 N   0  0  0  0  0  0  0  0  0  0  0  0
   -1.0139    0.0105    0.6690 C   0  0  0  0  0  0  0  0  0  0  0  0
   -1.0157    0.2524    1.9165 O   0  0  0  0  0  0  0  0  0  0  0  0
   -2.2429   -0.3238    0.1928 N   0  0  0  0  0  0  0  0  0  0  0  0
   -3.5394    0.5049    0.5371 C   0  0  1  0  0  0  0  0  0  0  0  0
   -4.2311   -0.0112   -0.8742 C   0  0  0  0  0  0  0  0  0  0  0  0
   -5.3654   -0.8680   -0.6416 C   0  0  0  0  0  0  0  0  0  0  0  0
   -5.1384   -2.3501   -0.6799 C   0  0  0  0  0  0  0  0  0  0  0  0
   -6.3378   -3.1160   -0.1999 C   0  0  0  0  0  0  0  0  0  0  0  0
   -7.6496   -2.5222   -0.6264 C   0  0  0  0  0  0  0  0  0  0  0  0
   -7.4323   -1.5903   -1.7876 C   0  0  0  0  0  0  0  0  0  0  0  0
   -6.5557   -0.4266   -1.4331 C   0  0  0  0  0  0  0  0  0  0  0  0
   -4.2373   -0.7671    1.4932 C   0  0  1  0  0  0  0  0  0  0  0  0
   -3.5688   -0.3317    2.7724 O   0  0  0  0  0  0  0  0  0  0  0  0
   -5.6767    0.1966    1.7594 C   0  0  1  0  0  0  0  0  0  0  0  0
   -5.8757   -0.3255    3.1893 O   0  0  0  0  0  0  0  0  0  0  0  0
   -4.8511    1.5393    2.3088 C   0  0  0  0  0  0  0  0  0  0  0  0
   -5.8543    2.6258    2.0707 C   0  0  0  0  0  0  0  0  0  0  0  0
   -5.3960    3.8500    2.8358 C   0  0  0  0  0  0  0  0  0  0  0  0
   -5.9803    3.0362    0.6337 C   0  0  0  0  0  0  0  0  0  0  0  0
    5.3461    1.5249   -2.2153 C   0  0  0  0  0  0  0  0  0  0  0  0
    6.1523    1.3716   -3.3408 C   0  0  0  0  0  0  0  0  0  0  0  0
  1  2  1  0
  2  3  1  0
  3  4  2  0
  4  5  1  0
  5  6  2  0
  6  7  1  0
  8  7  1  6
  8  9  1  0
  9 10  1  0
 10 11  2  0
 10 12  1  0
 12 13  1  0
 13 14  1  0
 13 15  1  0
 13 16  1  0
  8 17  1  0
 17 18  2  0
 17 19  1  0
 20 19  1  1
 20 21  1  0
 21 22  1  0
 22 23  2  0
 23 24  1  0
 24 25  1  0
 25 26  2  0
 20 27  1  0
 27 28  2  0
 27 29  1  0
 30 29  1  6
 30 31  1  0
 31 32  1  0
 32 33  1  0
 33 34  1  0
 34 35  1  0
 35 36  1  0
 36 37  1  0
 30 38  1  0
 38 39  1  1
 38 40  1  0
 40 41  1  1
 40 42  1  0
 42 43  1  0
 43 44  1  0
 43 45  1  0
  6 46  1  0
 46 47  2  0
 47  3  1  0
 26 22  1  0
 37 32  1  0
M  END
>  <zinc_id>  (1) 
ZINC000003920420

>  <smiles>  (1) 
COc1ccc(C[C@H](NC(=O)CC(C)(C)N)C(=O)N[C@@H](Cc2c[nH]cn2)C(=O)N[C@@H](CC2CCCCC2)[C@@H](O)[C@@H](O)CC(C)C)cc1

$$$$
