
     RDKit          3D

 43 45  0  0  0  0  0  0  0  0999 V2000
   -3.9421   -4.3745   -0.3859 C   0  0  0  0  0  0  0  0  0  0  0  0
   -5.1111   -3.5359   -0.8689 C   0  0  0  0  0  0  0  0  0  0  0  0
   -6.3320   -4.3659   -0.5889 C   0  0  0  0  0  0  0  0  0  0  0  0
   -5.1693   -2.1602   -0.2700 C   0  0  0  0  0  0  0  0  0  0  0  0
   -3.7846   -2.1502    0.6188 C   0  0  2  0  0  0  0  0  0  0  0  0
   -4.2352   -0.9163    1.4832 N   0  0  0  0  0  0  0  0  0  0  0  0
   -4.5432    0.2876    0.9117 C   0  0  0  0  0  0  0  0  0  0  0  0
   -5.0521    0.2931   -0.2126 O   0  0  0  0  0  0  0  0  0  0  0  0
   -4.6160    1.4634    1.6657 O   0  0  0  0  0  0  0  0  0  0  0  0
   -5.2928    2.5940    1.1149 C   0  0  0  0  0  0  0  0  0  0  0  0
   -6.6644    2.1664    0.7532 C   0  0  0  0  0  0  0  0  0  0  0  0
   -7.3125    1.3334    1.6494 C   0  0  0  0  0  0  0  0  0  0  0  0
   -8.3646    0.5078    1.2707 C   0  0  0  0  0  0  0  0  0  0  0  0
   -8.6659    0.4767   -0.0838 C   0  0  0  0  0  0  0  0  0  0  0  0
   -8.2873    1.5672   -0.8591 C   0  0  0  0  0  0  0  0  0  0  0  0
   -7.2653    2.4204   -0.4551 C   0  0  0  0  0  0  0  0  0  0  0  0
   -2.9328   -1.2842   -0.4370 C   0  0  0  0  0  0  0  0  0  0  0  0
   -3.2427   -1.1669   -1.6080 O   0  0  0  0  0  0  0  0  0  0  0  0
   -1.5865   -1.7751   -0.6098 N   0  0  0  0  0  0  0  0  0  0  0  0
   -0.7093   -0.4964   -0.3316 C   0  0  2  0  0  0  0  0  0  0  0  0
    0.2278   -0.7062   -1.6608 C   0  0  0  0  0  0  0  0  0  0  0  0
    1.3325   -1.4684   -1.1844 N   0  0  0  0  0  0  0  0  0  0  0  0
    2.6378   -1.0292   -0.7634 C   0  0  0  0  0  0  0  0  0  0  0  0
    3.3173   -1.9591   -0.2609 O   0  0  0  0  0  0  0  0  0  0  0  0
    2.6313    0.3734    0.0351 C   0  0  2  0  0  0  0  0  0  0  0  0
    3.1309    1.2250   -1.2822 C   0  0  0  0  0  0  0  0  0  0  0  0
    3.3948    2.6018   -0.8610 C   0  0  0  0  0  0  0  0  0  0  0  0
    2.9967    3.7131   -1.7247 C   0  0  0  0  0  0  0  0  0  0  0  0
    3.8197    2.8747    0.5141 C   0  0  0  0  0  0  0  0  0  0  0  0
    4.0996    0.2447    0.5834 N   0  0  0  0  0  0  0  0  0  0  0  0
    5.1135   -0.2083   -0.2552 C   0  0  0  0  0  0  0  0  0  0  0  0
    5.0025    0.0541   -1.4890 O   0  0  0  0  0  0  0  0  0  0  0  0
    6.2555   -0.8666    0.2243 O   0  0  0  0  0  0  0  0  0  0  0  0
    7.4149   -0.8825   -0.5764 C   0  0  0  0  0  0  0  0  0  0  0  0
    7.9911    0.4866   -0.6129 C   0  0  0  0  0  0  0  0  0  0  0  0
    7.3883    1.4954    0.1285 C   0  0  0  0  0  0  0  0  0  0  0  0
    7.9189    2.7520    0.1979 C   0  0  0  0  0  0  0  0  0  0  0  0
    9.2173    2.9253   -0.2502 C   0  0  0  0  0  0  0  0  0  0  0  0
    9.6320    2.0799   -1.2577 C   0  0  0  0  0  0  0  0  0  0  0  0
    8.9848    0.8702   -1.4728 C   0  0  0  0  0  0  0  0  0  0  0  0
    0.6345   -2.4481   -0.3364 C   0  0  0  0  0  0  0  0  0  0  0  0
    0.2413   -1.3750    0.6430 C   0  0  0  0  0  0  0  0  0  0  0  0
   -0.2732   -1.6368    1.7177 O   0  0  0  0  0  0  0  0  0  0  0  0
  1  2  1  0
  2  3  1  0
  2  4  1  0
  5  4  1  6
  5  6  1  0
  6  7  1  0
  7  8  2  0
  7  9  1  0
  9 10  1  0
 10 11  1  0
 11 12  2  0
 12 13  1  0
 13 14  2  0
 14 15  1  0
 15 16  2  0
  5 17  1  0
 17 18  2  0
 17 19  1  0
 20 19  1  6
 20 21  1  0
 21 22  1  0
 22 23  1  0
 23 24  2  0
 25 23  1  6
 25 26  1  0
 26 27  1  0
 27 28  1  0
 27 29  1  0
 25 30  1  0
 30 31  1  0
 31 32  2  0
 31 33  1  0
 33 34  1  0
 34 35  1  0
 35 36  2  0
 36 37  1  0
 37 38  2  0
 38 39  1  0
 39 40  2  0
 22 41  1  0
 41 42  1  0
 42 43  2  0
 16 11  1  0
 42 20  1  0
 40 35  1  0
M  END
>  <zinc_id>  (1) 
ZINC000014096696

>  <smiles>  (1) 
CC(C)C[C@H](NC(=O)OCc1ccccc1)C(=O)N[C@@H]1CN(C(=O)[C@H](CC(C)C)NC(=O)OCc2ccccc2)CC1=O

$$$$
