
     RDKit          3D

 48 47  0  0  0  0  0  0  0  0999 V2000
   11.8896    1.6949    1.6363 N   0  0  0  0  0  0  0  0  0  0  0  0
   10.7869    0.7256    0.9998 C   0  0  1  0  0  0  0  0  0  0  0  0
   11.9037    0.1229   -0.0862 C   0  0  0  0  0  0  0  0  0  0  0  0
   11.3102    0.4046   -1.4398 C   0  0  0  0  0  0  0  0  0  0  0  0
    9.8253    0.2124   -1.4546 C   0  0  0  0  0  0  0  0  0  0  0  0
    9.1657    1.2584   -1.5992 O   0  0  0  0  0  0  0  0  0  0  0  0
    9.3674   -0.9263   -2.0372 N   0  0  0  0  0  0  0  0  0  0  0  0
    7.8110   -1.1972   -2.2534 C   0  0  1  0  0  0  0  0  0  0  0  0
    7.6744   -1.9432   -0.7600 C   0  0  0  0  0  0  0  0  0  0  0  0
    8.2762   -0.8902    0.4883 S   0  0  0  0  0  0  0  0  0  0  0  0
    7.2883    0.2857   -1.7572 C   0  0  0  0  0  0  0  0  0  0  0  0
    6.7677    0.7350   -2.8391 O   0  0  0  0  0  0  0  0  0  0  0  0
    6.2991    0.2824   -0.7632 N   0  0  0  0  0  0  0  0  0  0  0  0
    5.2274    1.2225   -0.6003 C   0  0  0  0  0  0  0  0  0  0  0  0
    3.9982    0.3627   -0.6411 C   0  0  0  0  0  0  0  0  0  0  0  0
    4.0285   -0.8107   -0.1582 O   0  0  0  0  0  0  0  0  0  0  0  0
    3.1855    0.5341   -1.8057 N   0  0  0  0  0  0  0  0  0  0  0  0
    2.6274   -0.5657   -2.5591 C   0  0  0  0  0  0  0  0  0  0  0  0
    1.1630   -0.2510   -2.8288 C   0  0  0  0  0  0  0  0  0  0  0  0
    0.4124   -0.5627   -1.5424 C   0  0  0  0  0  0  0  0  0  0  0  0
    0.6912    0.4856   -0.4922 C   0  0  0  0  0  0  0  0  0  0  0  0
    0.5767   -0.1853    0.8022 N   0  0  0  0  0  0  0  0  0  0  0  0
   -0.8533   -0.1758    1.0994 C   0  0  0  0  0  0  0  0  0  0  0  0
   -1.3655    1.1638    0.6328 C   0  0  0  0  0  0  0  0  0  0  0  0
   -2.8597    1.2522    0.5980 C   0  0  0  0  0  0  0  0  0  0  0  0
   -3.4334    0.1166   -0.0965 N   0  0  0  0  0  0  0  0  0  0  0  0
   -3.7934   -1.0970    0.5388 C   0  0  0  0  0  0  0  0  0  0  0  0
   -3.7036   -1.1084    1.8028 O   0  0  0  0  0  0  0  0  0  0  0  0
   -4.9581   -1.8492   -0.0054 C   0  0  0  0  0  0  0  0  0  0  0  0
   -6.1334   -0.9831    0.0384 N   0  0  0  0  0  0  0  0  0  0  0  0
   -6.3116   -0.0864   -1.0166 C   0  0  0  0  0  0  0  0  0  0  0  0
   -5.9021   -0.2867   -2.1886 O   0  0  0  0  0  0  0  0  0  0  0  0
   -7.7262    0.7373   -1.0493 C   0  0  2  0  0  0  0  0  0  0  0  0
   -7.5977    1.1618    0.5628 C   0  0  0  0  0  0  0  0  0  0  0  0
   -6.0677    2.1353    0.6294 S   0  0  0  0  0  0  0  0  0  0  0  0
   -8.5883   -0.5661   -0.7010 N   0  0  0  0  0  0  0  0  0  0  0  0
   -9.9428   -0.3129   -0.4365 C   0  0  0  0  0  0  0  0  0  0  0  0
  -10.4636    0.6847   -0.9555 O   0  0  0  0  0  0  0  0  0  0  0  0
  -10.7977   -1.2362    0.3653 C   0  0  0  0  0  0  0  0  0  0  0  0
  -10.6546   -0.7068    1.7912 C   0  0  0  0  0  0  0  0  0  0  0  0
  -11.7196    0.5771    1.6880 C   0  0  2  0  0  0  0  0  0  0  0  0
  -11.0683    1.2827    2.9702 N   0  0  0  0  0  0  0  0  0  0  0  0
  -12.8494   -0.2140    2.5724 C   0  0  0  0  0  0  0  0  0  0  0  0
  -13.4935   -0.9979    1.8065 O   0  0  0  0  0  0  0  0  0  0  0  0
  -12.4158   -0.7605    3.7493 O   0  0  0  0  0  0  0  0  0  0  0  0
   11.1203   -0.4552    2.0893 C   0  0  0  0  0  0  0  0  0  0  0  0
   10.3655   -1.4376    1.8006 O   0  0  0  0  0  0  0  0  0  0  0  0
   10.9379   -0.0025    3.4051 O   0  0  0  0  0  0  0  0  0  0  0  0
  2  1  1  1
  2  3  1  0
  3  4  1  0
  4  5  1  0
  5  6  2  0
  5  7  1  0
  8  7  1  1
  8  9  1  0
  9 10  1  0
  8 11  1  0
 11 12  2  0
 11 13  1  0
 13 14  1  0
 14 15  1  0
 15 16  2  0
 15 17  1  0
 17 18  1  0
 18 19  1  0
 19 20  1  0
 20 21  1  0
 21 22  1  0
 22 23  1  0
 23 24  1  0
 24 25  1  0
 25 26  1  0
 26 27  1  0
 27 28  2  0
 27 29  1  0
 29 30  1  0
 30 31  1  0
 31 32  2  0
 33 31  1  1
 33 34  1  0
 34 35  1  0
 33 36  1  0
 36 37  1  0
 37 38  2  0
 37 39  1  0
 39 40  1  0
 41 40  1  1
 41 42  1  0
 41 43  1  0
 43 44  2  0
 43 45  1  0
  2 46  1  0
 46 47  2  0
 46 48  1  0
M  END
>  <zinc_id>  (1) 
ZINC000008217540

>  <smiles>  (1) 
N[C@@H](CCC(=O)N[C@@H](CS)C(=O)NCC(=O)NCCCCNCCCNC(=O)CNC(=O)[C@H](CS)NC(=O)CC[C@H](N)C(=O)O)C(=O)O

$$$$
