
     RDKit          3D

 40 41  0  0  0  0  0  0  0  0999 V2000
   -0.2515   -1.7954    1.1962 C   0  0  0  0  0  0  0  0  0  0  0  0
   -0.5289   -0.5814    0.9196 C   0  0  0  0  0  0  0  0  0  0  0  0
   -0.8131    0.4128    1.8945 C   0  0  0  0  0  0  0  0  0  0  0  0
    0.7400   -0.2487   -0.0623 C   0  0  2  0  0  0  0  0  0  0  0  0
    1.0937    1.1730    0.5329 N   0  0  0  0  0  0  0  0  0  0  0  0
    2.2211    1.2546    1.3636 C   0  0  0  0  0  0  0  0  0  0  0  0
    1.9684    0.6014    2.4276 O   0  0  0  0  0  0  0  0  0  0  0  0
    3.6385    1.2983    1.0309 C   0  0  0  0  0  0  0  0  0  0  0  0
    4.5977    0.6083    1.7775 C   0  0  0  0  0  0  0  0  0  0  0  0
    5.4240   -0.3332    1.1689 C   0  0  0  0  0  0  0  0  0  0  0  0
    5.5829   -0.2730   -0.2119 C   0  0  0  0  0  0  0  0  0  0  0  0
    6.7487   -1.0127   -0.7032 C   0  0  0  0  0  0  0  0  0  0  0  0
    6.6927   -2.2782   -0.7934 O   0  0  0  0  0  0  0  0  0  0  0  0
    8.0379   -0.4730   -0.5254 N   0  0  0  0  0  0  0  0  0  0  0  0
    9.1641   -1.1831    0.0802 C   0  0  0  0  0  0  0  0  0  0  0  0
    9.3527   -0.5061    1.4037 C   0  0  0  0  0  0  0  0  0  0  0  0
    8.9723   -1.0219    2.4894 O   0  0  0  0  0  0  0  0  0  0  0  0
    9.3676    0.8915    1.3638 O   0  0  0  0  0  0  0  0  0  0  0  0
    5.0441    0.8342   -0.8460 C   0  0  0  0  0  0  0  0  0  0  0  0
    4.1820    1.7080   -0.1812 C   0  0  0  0  0  0  0  0  0  0  0  0
   -0.1914    0.3713   -1.2231 C   0  0  0  0  0  0  0  0  0  0  0  0
    0.1905    1.3693   -1.8211 O   0  0  0  0  0  0  0  0  0  0  0  0
   -1.3518   -0.3873   -1.5945 N   0  0  0  0  0  0  0  0  0  0  0  0
   -1.8771   -0.4292   -2.9329 C   0  0  0  0  0  0  0  0  0  0  0  0
   -2.7981    0.7438   -3.0708 C   0  0  0  0  0  0  0  0  0  0  0  0
   -2.7367    1.4394   -1.7592 C   0  0  0  0  0  0  0  0  0  0  0  0
   -2.5300    0.1889   -0.7175 C   0  0  1  0  0  0  0  0  0  0  0  0
   -3.6914   -0.6984   -1.4114 C   0  0  0  0  0  0  0  0  0  0  0  0
   -3.4555   -1.9273   -1.3231 O   0  0  0  0  0  0  0  0  0  0  0  0
   -4.8487   -0.2344   -0.6936 N   0  0  0  0  0  0  0  0  0  0  0  0
   -5.8940   -1.3391   -0.2908 C   0  0  2  0  0  0  0  0  0  0  0  0
   -7.1311   -0.3859   -0.6809 C   0  0  0  0  0  0  0  0  0  0  0  0
   -7.1924   -0.4634   -1.9121 O   0  0  0  0  0  0  0  0  0  0  0  0
   -7.4803    0.8443   -0.0989 C   0  0  0  0  0  0  0  0  0  0  0  0
   -8.8814    0.8801   -0.1025 F   0  0  0  0  0  0  0  0  0  0  0  0
   -7.1510    1.1971    1.1591 F   0  0  0  0  0  0  0  0  0  0  0  0
   -7.1229    1.9376   -0.8905 F   0  0  0  0  0  0  0  0  0  0  0  0
   -5.8926   -0.8943    1.2911 C   0  0  0  0  0  0  0  0  0  0  0  0
   -6.7317   -1.9032    2.0094 C   0  0  0  0  0  0  0  0  0  0  0  0
   -4.4673   -0.8575    1.7381 C   0  0  0  0  0  0  0  0  0  0  0  0
  1  2  1  0
  2  3  1  0
  4  2  1  1
  4  5  1  0
  5  6  1  0
  6  7  2  0
  6  8  1  0
  8  9  2  0
  9 10  1  0
 10 11  2  0
 11 12  1  0
 12 13  2  0
 12 14  1  0
 14 15  1  0
 15 16  1  0
 16 17  2  0
 16 18  1  0
 11 19  1  0
 19 20  2  0
  4 21  1  0
 21 22  2  0
 21 23  1  0
 23 24  1  0
 24 25  1  0
 25 26  1  0
 26 27  1  0
 27 28  1  6
 28 29  2  0
 28 30  1  0
 31 30  1  6
 31 32  1  0
 32 33  2  0
 32 34  1  0
 34 35  1  0
 34 36  1  0
 34 37  1  0
 31 38  1  0
 38 39  1  0
 38 40  1  0
 20  8  1  0
 27 23  1  0
M  END
>  <zinc_id>  (1) 
ZINC000003951728

>  <smiles>  (1) 
CC(C)[C@H](NC(=O)c1ccc(C(=O)NCC(=O)O)cc1)C(=O)N1CCC[C@H]1C(=O)N[C@H](C(=O)C(F)(F)F)C(C)C

$$$$
