
     RDKit          3D

 56 59  0  0  0  0  0  0  0  0999 V2000
   -4.7610    2.7386    2.6225 C   0  0  0  0  0  0  0  0  0  0  0  0
   -4.9579    2.7629    1.4614 C   0  0  0  0  0  0  0  0  0  0  0  0
   -4.1321    3.6096    0.6208 C   0  0  0  0  0  0  0  0  0  0  0  0
   -4.8462    1.1801    1.0404 C   0  0  2  0  0  0  0  0  0  0  0  0
   -3.4200    1.3052    0.3773 N   0  0  0  0  0  0  0  0  0  0  0  0
   -2.7246    0.0457    0.3387 C   0  0  0  0  0  0  0  0  0  0  0  0
   -2.7321   -0.6380    1.3420 O   0  0  0  0  0  0  0  0  0  0  0  0
   -1.3887    0.2685   -0.5279 C   0  0  2  0  0  0  0  0  0  0  0  0
   -1.4138   -1.0882   -1.1968 O   0  0  0  0  0  0  0  0  0  0  0  0
   -2.6958   -1.4614   -1.4237 C   0  0  0  0  0  0  0  0  0  0  0  0
   -2.8639   -2.9260   -1.1958 C   0  0  0  0  0  0  0  0  0  0  0  0
   -4.0695   -3.5440   -1.5028 C   0  0  0  0  0  0  0  0  0  0  0  0
   -4.5964   -4.5236   -0.6696 C   0  0  0  0  0  0  0  0  0  0  0  0
   -3.9236   -4.9105    0.4837 C   0  0  0  0  0  0  0  0  0  0  0  0
   -2.5787   -4.5648    0.5206 C   0  0  0  0  0  0  0  0  0  0  0  0
   -2.0126   -3.6739   -0.3864 C   0  0  0  0  0  0  0  0  0  0  0  0
   -0.3278   -0.3660    0.6634 C   0  0  2  0  0  0  0  0  0  0  0  0
   -0.3807    0.8825    1.4850 O   0  0  0  0  0  0  0  0  0  0  0  0
    1.0073    0.0628   -0.3103 C   0  0  1  0  0  0  0  0  0  0  0  0
    0.6989    1.5239   -0.4240 O   0  0  0  0  0  0  0  0  0  0  0  0
    1.9597    0.2742    1.0981 C   0  0  1  0  0  0  0  0  0  0  0  0
    2.3704   -1.1763    1.1267 O   0  0  0  0  0  0  0  0  0  0  0  0
    2.4970   -1.6614   -0.1294 C   0  0  0  0  0  0  0  0  0  0  0  0
    2.4270   -3.1333   -0.0808 C   0  0  0  0  0  0  0  0  0  0  0  0
    1.3053   -3.8634    0.2866 C   0  0  0  0  0  0  0  0  0  0  0  0
    1.3018   -5.2542    0.2447 C   0  0  0  0  0  0  0  0  0  0  0  0
    2.4328   -5.9659   -0.1307 C   0  0  0  0  0  0  0  0  0  0  0  0
    3.4206   -5.2437   -0.7841 C   0  0  0  0  0  0  0  0  0  0  0  0
    3.3838   -3.8746   -0.7560 C   0  0  0  0  0  0  0  0  0  0  0  0
    3.2447    0.7244    0.2323 C   0  0  0  0  0  0  0  0  0  0  0  0
    4.2722    0.6341    0.9446 O   0  0  0  0  0  0  0  0  0  0  0  0
    3.1186    1.8014   -0.5960 N   0  0  0  0  0  0  0  0  0  0  0  0
    4.2289    2.8889   -0.7959 C   0  0  2  0  0  0  0  0  0  0  0  0
    5.4462    1.9172   -0.3559 C   0  0  0  0  0  0  0  0  0  0  0  0
    6.4081    2.5186    0.2010 O   0  0  0  0  0  0  0  0  0  0  0  0
    5.8265    1.2284   -1.5567 N   0  0  0  0  0  0  0  0  0  0  0  0
    7.0455    0.5848   -1.8037 C   0  0  0  0  0  0  0  0  0  0  0  0
    8.1398    0.7863   -0.8425 C   0  0  0  0  0  0  0  0  0  0  0  0
    9.0645    1.7864   -1.1403 C   0  0  0  0  0  0  0  0  0  0  0  0
   10.3171    1.8215   -0.5347 C   0  0  0  0  0  0  0  0  0  0  0  0
   10.9218    0.5718   -0.4495 C   0  0  0  0  0  0  0  0  0  0  0  0
   10.0510   -0.4941   -0.2689 C   0  0  0  0  0  0  0  0  0  0  0  0
    8.7088   -0.3563   -0.3745 N   0  0  0  0  0  0  0  0  0  0  0  0
    4.0541    3.5154    0.7162 C   0  0  0  0  0  0  0  0  0  0  0  0
    2.5978    3.9622    0.7834 C   0  0  0  0  0  0  0  0  0  0  0  0
    4.9190    4.7382    0.7218 C   0  0  0  0  0  0  0  0  0  0  0  0
   -5.6238    1.3796   -0.3564 C   0  0  0  0  0  0  0  0  0  0  0  0
   -5.2840    2.2532   -1.1305 O   0  0  0  0  0  0  0  0  0  0  0  0
   -6.1512    0.1490   -0.8659 N   0  0  0  0  0  0  0  0  0  0  0  0
   -7.1725    0.2765   -1.9021 C   0  0  0  0  0  0  0  0  0  0  0  0
   -8.3186    0.9959   -1.2635 C   0  0  0  0  0  0  0  0  0  0  0  0
   -8.3784    2.3805   -1.3077 C   0  0  0  0  0  0  0  0  0  0  0  0
   -8.7750    3.1391   -0.2146 C   0  0  0  0  0  0  0  0  0  0  0  0
   -9.2338    2.4617    0.9090 C   0  0  0  0  0  0  0  0  0  0  0  0
   -9.5719    1.1283    0.7389 C   0  0  0  0  0  0  0  0  0  0  0  0
   -8.8347    0.4225   -0.1530 N   0  0  0  0  0  0  0  0  0  0  0  0
  1  2  1  0
  2  3  1  0
  4  2  1  1
  4  5  1  0
  5  6  1  0
  6  7  2  0
  8  6  1  1
  8  9  1  0
  9 10  1  0
 10 11  1  0
 11 12  2  0
 12 13  1  0
 13 14  2  0
 14 15  1  0
 15 16  2  0
  8 17  1  0
 17 18  1  1
 17 19  1  0
 19 20  1  1
 19 21  1  0
 21 22  1  6
 22 23  1  0
 23 24  1  0
 24 25  2  0
 25 26  1  0
 26 27  2  0
 27 28  1  0
 28 29  2  0
 21 30  1  0
 30 31  2  0
 30 32  1  0
 33 32  1  1
 33 34  1  0
 34 35  2  0
 34 36  1  0
 36 37  1  0
 37 38  1  0
 38 39  2  0
 39 40  1  0
 40 41  2  0
 41 42  1  0
 42 43  2  0
 33 44  1  0
 44 45  1  0
 44 46  1  0
  4 47  1  0
 47 48  2  0
 47 49  1  0
 49 50  1  0
 50 51  1  0
 51 52  2  0
 52 53  1  0
 53 54  2  0
 54 55  1  0
 55 56  2  0
 16 11  1  0
 29 24  1  0
 43 38  1  0
 56 51  1  0
M  END
>  <zinc_id>  (1) 
ZINC000096210382

>  <smiles>  (1) 
CC(C)[C@H](NC(=O)[C@H](OCc1ccccc1)[C@H](O)[C@@H](O)[C@@H](OCc1ccccc1)C(=O)N[C@H](C(=O)NCc1ccccn1)C(C)C)C(=O)NCc1ccccn1

$$$$
