
     RDKit          3D

 43 45  0  0  0  0  0  0  0  0999 V2000
   -1.6070   -2.6431   -3.2179 C   0  0  0  0  0  0  0  0  0  0  0  0
   -1.4876   -2.0147   -2.0215 C   0  0  0  0  0  0  0  0  0  0  0  0
   -2.1912   -2.4820   -1.0777 O   0  0  0  0  0  0  0  0  0  0  0  0
   -1.2237   -0.6483   -1.9720 N   0  0  0  0  0  0  0  0  0  0  0  0
   -0.9618    0.0291   -0.5670 C   0  0  1  0  0  0  0  0  0  0  0  0
   -2.2297   -0.7435    0.1567 C   0  0  0  0  0  0  0  0  0  0  0  0
   -3.3529    0.2452    0.1343 C   0  0  0  0  0  0  0  0  0  0  0  0
   -3.8144    0.8042   -1.0519 C   0  0  0  0  0  0  0  0  0  0  0  0
   -5.1796    0.8559   -1.3140 C   0  0  0  0  0  0  0  0  0  0  0  0
   -6.1055    0.6305   -0.3027 C   0  0  0  0  0  0  0  0  0  0  0  0
   -7.4469    0.6398   -0.6146 O   0  0  0  0  0  0  0  0  0  0  0  0
   -8.2255    1.8066   -0.5214 C   0  0  0  0  0  0  0  0  0  0  0  0
   -7.3794    3.0139   -0.4856 C   0  0  0  0  0  0  0  0  0  0  0  0
   -6.4960    3.1136    0.3886 O   0  0  0  0  0  0  0  0  0  0  0  0
   -7.7388    4.1041   -1.2611 O   0  0  0  0  0  0  0  0  0  0  0  0
   -5.6599    0.1741    0.9180 C   0  0  0  0  0  0  0  0  0  0  0  0
   -6.8179   -0.5265    2.1024 P   0  0  0  0  0  0  0  0  0  0  0  0
   -7.7823    0.5262    2.5534 O   0  0  0  0  0  0  0  0  0  0  0  0
   -5.9347   -1.1260    3.4274 O   0  0  0  0  0  0  0  0  0  0  0  0
   -7.5619   -1.8487    1.3800 O   0  0  0  0  0  0  0  0  0  0  0  0
   -4.2962    0.2040    1.1543 C   0  0  0  0  0  0  0  0  0  0  0  0
    0.0611   -1.1064   -0.0584 C   0  0  0  0  0  0  0  0  0  0  0  0
    0.7548   -1.7191   -0.8348 O   0  0  0  0  0  0  0  0  0  0  0  0
    0.4009   -0.8953    1.2760 N   0  0  0  0  0  0  0  0  0  0  0  0
    1.3859   -1.9345    1.9394 C   0  0  1  0  0  0  0  0  0  0  0  0
    0.6450   -3.2371    1.2443 C   0  0  0  0  0  0  0  0  0  0  0  0
    2.4603   -1.8124    0.7307 C   0  0  0  0  0  0  0  0  0  0  0  0
    3.3650   -2.8684    0.7127 C   0  0  0  0  0  0  0  0  0  0  0  0
    4.5799   -2.6546    0.0729 C   0  0  0  0  0  0  0  0  0  0  0  0
    5.0245   -1.3568   -0.1466 C   0  0  0  0  0  0  0  0  0  0  0  0
    6.4014   -1.1108   -0.1552 O   0  0  0  0  0  0  0  0  0  0  0  0
    6.8933    0.1816   -0.3861 C   0  0  0  0  0  0  0  0  0  0  0  0
    8.2903    0.3648    0.1701 C   0  0  0  0  0  0  0  0  0  0  0  0
    9.1817    0.9608   -0.8803 C   0  0  0  0  0  0  0  0  0  0  0  0
    9.4979    2.4074   -0.6228 C   0  0  0  0  0  0  0  0  0  0  0  0
    8.2708    3.1259   -0.1284 C   0  0  0  0  0  0  0  0  0  0  0  0
    7.8405    2.6015    1.2159 C   0  0  0  0  0  0  0  0  0  0  0  0
    8.2576    1.1681    1.4409 C   0  0  0  0  0  0  0  0  0  0  0  0
    4.1150   -0.3137   -0.0253 C   0  0  0  0  0  0  0  0  0  0  0  0
    4.5476    1.0840   -0.1634 C   0  0  0  0  0  0  0  0  0  0  0  0
    3.9244    1.7998   -1.2402 N   0  0  0  0  0  0  0  0  0  0  0  0
    4.5709    1.7434    0.9225 O   0  0  0  0  0  0  0  0  0  0  0  0
    3.0241   -0.5426    0.8050 C   0  0  0  0  0  0  0  0  0  0  0  0
  1  2  1  0
  2  3  2  0
  2  4  1  0
  5  4  1  6
  5  6  1  0
  6  7  1  0
  7  8  2  0
  8  9  1  0
  9 10  2  0
 10 11  1  0
 11 12  1  0
 12 13  1  0
 13 14  2  0
 13 15  1  0
 10 16  1  0
 16 17  1  0
 17 18  2  0
 17 19  1  0
 17 20  1  0
 16 21  2  0
  5 22  1  0
 22 23  2  0
 22 24  1  0
 25 24  1  6
 25 26  1  0
 25 27  1  0
 27 28  2  0
 28 29  1  0
 29 30  2  0
 30 31  1  0
 31 32  1  0
 32 33  1  0
 33 34  1  0
 34 35  1  0
 35 36  1  0
 36 37  1  0
 37 38  1  0
 30 39  1  0
 39 40  1  0
 40 41  1  0
 40 42  2  0
 39 43  2  0
 21  7  1  0
 43 27  1  0
 38 33  1  0
M  END
>  <zinc_id>  (1) 
ZINC000014880990

>  <smiles>  (1) 
CC(=O)N[C@@H](Cc1ccc(OCC(=O)O)c(P(=O)(O)O)c1)C(=O)N[C@@H](C)c1ccc(OCC2CCCCC2)c(C(N)=O)c1

$$$$
