44195571
  -OEChem-06112217053D

 67 70  0     0  0  0  0  0  0999 V2000
    6.0451   -2.2939   -0.9110 F   0  0  0  0  0  0  0  0  0  0  0  0
    6.0002   -0.5816   -2.2502 F   0  0  0  0  0  0  0  0  0  0  0  0
    6.6869   -0.3393   -0.2073 F   0  0  0  0  0  0  0  0  0  0  0  0
   -5.2751   -1.8203   -0.4025 O   0  0  0  0  0  0  0  0  0  0  0  0
    4.3233   -3.7271   -0.1255 O   0  0  0  0  0  0  0  0  0  0  0  0
   -7.3523   -0.8931   -0.0245 O   0  0  0  0  0  0  0  0  0  0  0  0
   -0.8206    5.8087   -0.5607 O   0  0  0  0  0  0  0  0  0  0  0  0
   -1.7430    2.5344   -0.1863 N   0  0  0  0  0  0  0  0  0  0  0  0
    2.6289    0.4683   -0.0866 N   0  0  0  0  0  0  0  0  0  0  0  0
    3.8965    0.5823   -0.5299 N   0  0  0  0  0  0  0  0  0  0  0  0
   -1.0561    5.4001    1.6834 N   0  0  0  0  0  0  0  0  0  0  0  0
   -8.5813   -3.2587   -0.5830 N   0  0  0  0  0  0  0  0  0  0  0  0
    1.1085   -2.6751    1.3691 C   0  0  0  0  0  0  0  0  0  0  0  0
   -2.3928    1.2794   -0.4926 C   0  0  0  0  0  0  0  0  0  0  0  0
   -2.5233    0.4461    0.7848 C   0  0  0  0  0  0  0  0  0  0  0  0
   -3.7596    1.5528   -1.1252 C   0  0  0  0  0  0  0  0  0  0  0  0
    0.9552   -1.2753    0.6992 C   0  0  0  0  0  0  0  0  0  0  0  0
   -4.6582   -0.5739   -0.0992 C   0  0  0  0  0  0  0  0  0  0  0  0
   -3.2940   -0.8458    0.5314 C   0  0  0  0  0  0  0  0  0  0  0  0
   -4.5287    0.2589   -1.3738 C   0  0  0  0  0  0  0  0  0  0  0  0
    1.9963   -3.6234    0.5069 C   0  0  0  0  0  0  0  0  0  0  0  0
    2.2699   -0.8151    0.1912 C   0  0  0  0  0  0  0  0  0  0  0  0
    3.3656   -1.5916   -0.0930 C   0  0  0  0  0  0  0  0  0  0  0  0
    1.7186   -2.5284    2.7797 C   0  0  0  0  0  0  0  0  0  0  0  0
   -0.2884   -3.3054    1.5191 C   0  0  0  0  0  0  0  0  0  0  0  0
    3.3423   -3.0225    0.0926 C   0  0  0  0  0  0  0  0  0  0  0  0
    4.3414   -0.6801   -0.5293 C   0  0  0  0  0  0  0  0  0  0  0  0
   -0.3461    2.6503   -0.0101 C   0  0  0  0  0  0  0  0  0  0  0  0
    1.8319    1.6055    0.0379 C   0  0  0  0  0  0  0  0  0  0  0  0
    0.4507    1.5121   -0.1336 C   0  0  0  0  0  0  0  0  0  0  0  0
    0.2384    3.8822    0.2847 C   0  0  0  0  0  0  0  0  0  0  0  0
    2.4163    2.8374    0.3327 C   0  0  0  0  0  0  0  0  0  0  0  0
    5.7218   -0.9615   -0.9602 C   0  0  0  0  0  0  0  0  0  0  0  0
    1.6196    3.9756    0.4558 C   0  0  0  0  0  0  0  0  0  0  0  0
   -6.6434   -1.8436   -0.3267 C   0  0  0  0  0  0  0  0  0  0  0  0
   -0.5664    5.0900    0.4197 C   0  0  0  0  0  0  0  0  0  0  0  0
   -7.1283   -3.2284   -0.6768 C   0  0  0  0  0  0  0  0  0  0  0  0
   -1.8344    0.7203   -1.2534 H   0  0  0  0  0  0  0  0  0  0  0  0
   -3.0521    1.0299    1.5508 H   0  0  0  0  0  0  0  0  0  0  0  0
   -1.5523    0.2018    1.2196 H   0  0  0  0  0  0  0  0  0  0  0  0
   -3.6351    2.0941   -2.0712 H   0  0  0  0  0  0  0  0  0  0  0  0
   -4.3543    2.2051   -0.4719 H   0  0  0  0  0  0  0  0  0  0  0  0
    0.5379   -0.5866    1.4395 H   0  0  0  0  0  0  0  0  0  0  0  0
    0.2615   -1.3841   -0.1426 H   0  0  0  0  0  0  0  0  0  0  0  0
   -5.2525   -0.0187    0.6393 H   0  0  0  0  0  0  0  0  0  0  0  0
   -2.7083   -1.5070   -0.1204 H   0  0  0  0  0  0  0  0  0  0  0  0
   -3.4244   -1.3959    1.4712 H   0  0  0  0  0  0  0  0  0  0  0  0
   -5.5226    0.4896   -1.7753 H   0  0  0  0  0  0  0  0  0  0  0  0
   -4.0256   -0.3313   -2.1509 H   0  0  0  0  0  0  0  0  0  0  0  0
    1.4722   -3.8872   -0.4208 H   0  0  0  0  0  0  0  0  0  0  0  0
    2.1932   -4.5543    1.0524 H   0  0  0  0  0  0  0  0  0  0  0  0
    1.8061   -3.5033    3.2726 H   0  0  0  0  0  0  0  0  0  0  0  0
    1.0911   -1.8931    3.4152 H   0  0  0  0  0  0  0  0  0  0  0  0
    2.7182   -2.0828    2.7543 H   0  0  0  0  0  0  0  0  0  0  0  0
   -0.2300   -4.2865    2.0037 H   0  0  0  0  0  0  0  0  0  0  0  0
   -0.7683   -3.4454    0.5440 H   0  0  0  0  0  0  0  0  0  0  0  0
   -0.9450   -2.6711    2.1253 H   0  0  0  0  0  0  0  0  0  0  0  0
   -2.3148    3.3503   -0.0001 H   0  0  0  0  0  0  0  0  0  0  0  0
    0.0154    0.5910   -0.4802 H   0  0  0  0  0  0  0  0  0  0  0  0
    3.4882    2.9409    0.4823 H   0  0  0  0  0  0  0  0  0  0  0  0
    2.0866    4.9296    0.6875 H   0  0  0  0  0  0  0  0  0  0  0  0
   -6.6946   -3.9520    0.0197 H   0  0  0  0  0  0  0  0  0  0  0  0
   -6.8229   -3.4629   -1.7005 H   0  0  0  0  0  0  0  0  0  0  0  0
   -0.8646    4.8190    2.4933 H   0  0  0  0  0  0  0  0  0  0  0  0
   -1.6271    6.2251    1.8339 H   0  0  0  0  0  0  0  0  0  0  0  0
   -8.8657   -3.0929    0.3820 H   0  0  0  0  0  0  0  0  0  0  0  0
   -8.9142   -4.1931   -0.8176 H   0  0  0  0  0  0  0  0  0  0  0  0
  1 33  1  0  0  0  0
  2 33  1  0  0  0  0
  3 33  1  0  0  0  0
  4 18  1  0  0  0  0
  4 35  1  0  0  0  0
  5 26  2  0  0  0  0
  6 35  2  0  0  0  0
  7 36  2  0  0  0  0
  8 14  1  0  0  0  0
  8 28  1  0  0  0  0
  8 58  1  0  0  0  0
  9 10  1  0  0  0  0
  9 22  1  0  0  0  0
  9 29  1  0  0  0  0
 10 27  2  0  0  0  0
 11 36  1  0  0  0  0
 11 64  1  0  0  0  0
 11 65  1  0  0  0  0
 12 37  1  0  0  0  0
 12 66  1  0  0  0  0
 12 67  1  0  0  0  0
 13 17  1  0  0  0  0
 13 21  1  0  0  0  0
 13 24  1  0  0  0  0
 13 25  1  0  0  0  0
 14 15  1  0  0  0  0
 14 16  1  0  0  0  0
 14 38  1  0  0  0  0
 15 19  1  0  0  0  0
 15 39  1  0  0  0  0
 15 40  1  0  0  0  0
 16 20  1  0  0  0  0
 16 41  1  0  0  0  0
 16 42  1  0  0  0  0
 17 22  1  0  0  0  0
 17 43  1  0  0  0  0
 17 44  1  0  0  0  0
 18 19  1  0  0  0  0
 18 20  1  0  0  0  0
 18 45  1  0  0  0  0
 19 46  1  0  0  0  0
 19 47  1  0  0  0  0
 20 48  1  0  0  0  0
 20 49  1  0  0  0  0
 21 26  1  0  0  0  0
 21 50  1  0  0  0  0
 21 51  1  0  0  0  0
 22 23  2  0  0  0  0
 23 26  1  0  0  0  0
 23 27  1  0  0  0  0
 24 52  1  0  0  0  0
 24 53  1  0  0  0  0
 24 54  1  0  0  0  0
 25 55  1  0  0  0  0
 25 56  1  0  0  0  0
 25 57  1  0  0  0  0
 27 33  1  0  0  0  0
 28 30  1  0  0  0  0
 28 31  2  0  0  0  0
 29 30  2  0  0  0  0
 29 32  1  0  0  0  0
 30 59  1  0  0  0  0
 31 34  1  0  0  0  0
 31 36  1  0  0  0  0
 32 34  2  0  0  0  0
 32 60  1  0  0  0  0
 34 61  1  0  0  0  0
 35 37  1  0  0  0  0
 37 62  1  0  0  0  0
 37 63  1  0  0  0  0
M  END
> <PUBCHEM_COMPOUND_CID>
44195571

> <PUBCHEM_CONFORMER_RMSD>
1

> <PUBCHEM_CONFORMER_DIVERSEORDER>
1
88
111
33
73
95
84
77
79
112
107
24
55
3
36
51
47
94
66
86
44
8
32
63
43
7
25
45
13
37
109
81
52
21
65
89
57
39
103
91
69
59
15
83
82
18
68
40
42
71
49
50
76
30
22
34
74
87
27
102
78
26
38
16
46
48
96
28
56
72
17
98
67
23
93
61
58
10
85
60
92
101
11
106
41
70
64
75
105
97
20
104
53
6
62
2
99
14
80
35
4
108
19
9
31
100
54
5
29
90
110
12

> <PUBCHEM_MMFF94_PARTIAL_CHARGES>
38
1 -0.34
10 -0.71
11 -0.8
12 -0.99
14 0.37
17 0.18
18 0.28
2 -0.34
21 0.06
22 -0.33
23 -0.09
26 0.6
27 0.11
28 0.1
29 -0.02
3 -0.34
30 -0.15
31 0.09
32 -0.15
33 1.2
34 -0.15
35 0.66
36 0.54
37 0.33
4 -0.43
5 -0.57
58 0.4
59 0.15
6 -0.57
60 0.15
61 0.15
64 0.37
65 0.37
66 0.36
67 0.36
7 -0.57
8 -0.87
9 0.59

> <PUBCHEM_EFFECTIVE_ROTOR_COUNT>
9.8

> <PUBCHEM_PHARMACOPHORE_FEATURES>
14
1 10 acceptor
1 11 donor
1 12 cation
1 12 donor
1 5 acceptor
1 6 acceptor
1 7 acceptor
1 8 cation
1 8 donor
3 13 24 25 hydrophobe
5 9 10 22 23 27 rings
6 13 17 21 22 23 26 rings
6 14 15 16 18 19 20 rings
6 28 29 30 31 32 34 rings

> <PUBCHEM_HEAVY_ATOM_COUNT>
37

> <PUBCHEM_ATOM_DEF_STEREO_COUNT>
0

> <PUBCHEM_ATOM_UDEF_STEREO_COUNT>
0

> <PUBCHEM_BOND_DEF_STEREO_COUNT>
0

> <PUBCHEM_BOND_UDEF_STEREO_COUNT>
0

> <PUBCHEM_ISOTOPIC_ATOM_COUNT>
0

> <PUBCHEM_COMPONENT_COUNT>
1

> <PUBCHEM_CACTVS_TAUTO_COUNT>
14

> <PUBCHEM_CONFORMER_ID>
02A25EF300000001

> <PUBCHEM_MMFF94_ENERGY>
103.3042

> <PUBCHEM_FEATURE_SELFOVERLAP>
71.128

> <PUBCHEM_SHAPE_FINGERPRINT>
10032420 55 17822557383463906651
10190206 1 18263945267315541574
10411042 1 18413109463418793332
10653451 467 18195802101897380024
10864689 126 18261106413986968563
11227688 84 18338514149489384767
114674 6 18190452951730845825
11513181 2 18052267189388187190
12107183 9 18271819982632023633
12124843 1 18187651279807262702
12788726 201 17981034224675786265
13383661 66 17416705548345972286
13533116 47 18125441058869896393
1361 2 18265892652373647611
13631057 29 18338520733964126844
13692114 37 17260453199023229385
13773456 30 17689712382656665337
13989917 61 18194683898519371943
14068700 675 18411138026095488368
14394314 77 18411423878145196017
14681490 219 18337111176661881899
14790565 3 17042328234083608976
14931854 50 18187366501958424783
15250474 111 17902791856456670306
15351339 4 18041269989792553219
15776043 110 18338252470939724969
15968369 26 17902222644077142525
17909252 39 18128253394591361954
18681886 176 18342452677391551875
20775438 99 17908404098602012719
21133410 171 17394680118522931043
221357 26 18408040714904475135
23845131 108 17116344621229654849
24893989 43 17485371406419871791
255183 451 18271250516342691797
283562 15 18335707083645377176
404807 78 16734121209408443971
44880168 125 17060052575891305350
463206 1 18336266842300901787
484989 97 18115320010516328442
5309563 4 18412263939203601069
57527295 17 17968089781903620969
5776283 40 18119538880014106436
5912855 24 18123757447951907416
6004065 56 18339358690346067346
6058803 2 17827641344683880730
6697151 62 18128229312973536357
6700243 42 17771644368058114535
70251023 43 18411982459663105881
86090 222 17896030117796931819
9777508 108 16682875403152117953

> <PUBCHEM_SHAPE_MULTIPOLES>
691.24
15.44
7.28
1.36
22.68
9.16
-0.44
-19.84
7.76
0.55
-2.21
-0.85
-0.6
-0.39

> <PUBCHEM_SHAPE_SELFOVERLAP>
1490

> <PUBCHEM_SHAPE_VOLUME>
381.6

> <PUBCHEM_COORDINATE_TYPE>
2
5
10

$$$$
