
     RDKit          3D

 45 47  0  0  0  0  0  0  0  0999 V2000
   -0.0221    2.2767   -1.2126 C   0  0  0  0  0  0  0  0  0  0  0  0
    0.0910    1.9449   -1.0165 C   0  0  0  0  0  0  0  0  0  0  0  0
    1.5132    1.2419   -0.6958 C   0  0  1  0  0  0  0  0  0  0  0  0
    1.2654    1.1012    0.8937 C   0  0  0  0  0  0  0  0  0  0  0  0
    1.1512   -0.3533   -1.2326 C   0  0  1  0  0  0  0  0  0  0  0  0
    2.5218   -0.9366   -0.6789 N   0  0  0  0  0  0  0  0  0  0  0  0
    3.5127   -0.1082   -0.8106 C   0  0  0  0  0  0  0  0  0  0  0  0
    3.3596    0.8441   -1.6256 O   0  0  0  0  0  0  0  0  0  0  0  0
    5.0884   -0.3469   -0.6030 C   0  0  2  0  0  0  0  0  0  0  0  0
    4.8571   -1.5449    0.3257 O   0  0  0  0  0  0  0  0  0  0  0  0
    5.0740    0.7070    0.6907 C   0  0  0  0  0  0  0  0  0  0  0  0
    5.8792    1.8505    0.2813 C   0  0  0  0  0  0  0  0  0  0  0  0
    6.2353    2.7263    1.2722 C   0  0  0  0  0  0  0  0  0  0  0  0
    7.1289    3.7711    1.0940 C   0  0  0  0  0  0  0  0  0  0  0  0
    7.6526    3.9963   -0.1572 C   0  0  0  0  0  0  0  0  0  0  0  0
    8.3438    5.1626   -0.3939 O   0  0  0  0  0  0  0  0  0  0  0  0
    7.3302    3.1186   -1.1688 C   0  0  0  0  0  0  0  0  0  0  0  0
    6.4800    2.0452   -0.9312 C   0  0  0  0  0  0  0  0  0  0  0  0
    0.3542   -0.9631    0.0091 C   0  0  0  0  0  0  0  0  0  0  0  0
    1.1104   -1.1507    1.0559 O   0  0  0  0  0  0  0  0  0  0  0  0
   -0.9068   -1.5530   -0.3535 N   0  0  0  0  0  0  0  0  0  0  0  0
   -2.0545   -0.5331    0.2886 C   0  0  2  0  0  0  0  0  0  0  0  0
   -3.4767   -1.4270    0.3719 C   0  0  0  0  0  0  0  0  0  0  0  0
   -4.0020   -1.3668    1.5087 O   0  0  0  0  0  0  0  0  0  0  0  0
   -4.3238   -1.3134   -0.7328 N   0  0  0  0  0  0  0  0  0  0  0  0
   -5.6883   -0.9662   -0.4955 C   0  0  0  0  0  0  0  0  0  0  0  0
   -5.7859    0.4365   -1.0094 C   0  0  0  0  0  0  0  0  0  0  0  0
   -6.2673    1.3694    0.0827 C   0  0  0  0  0  0  0  0  0  0  0  0
   -7.3553    2.1735   -0.5279 C   0  0  0  0  0  0  0  0  0  0  0  0
   -7.0830    3.5315   -0.8167 N   0  0  0  0  0  0  0  0  0  0  0  0
   -7.9118    4.4309   -0.3762 C   0  0  0  0  0  0  0  0  0  0  0  0
   -7.4278    5.7700   -0.5206 N   0  0  0  0  0  0  0  0  0  0  0  0
   -8.8659    4.1898    0.6314 N   0  0  0  0  0  0  0  0  0  0  0  0
   -2.0940   -0.2981   -1.2128 C   0  0  0  0  0  0  0  0  0  0  0  0
   -2.4138   -0.8111    0.3110 C   0  0  2  0  0  0  0  0  0  0  0  0
   -1.0084   -1.1716    1.0668 C   0  0  0  0  0  0  0  0  0  0  0  0
   -0.4336   -2.2871    0.0828 C   0  0  0  0  0  0  0  0  0  0  0  0
   -0.8331   -3.7027    0.3700 C   0  0  1  0  0  0  0  0  0  0  0  0
    0.4494   -3.7864    1.2464 O   0  0  0  0  0  0  0  0  0  0  0  0
    0.6612   -5.2464    0.5676 S   0  0  0  0  0  0  0  0  0  0  0  0
   -0.4511   -5.7927   -0.3054 O   0  0  0  0  0  0  0  0  0  0  0  0
    1.8903   -5.8657    0.2694 O   0  0  0  0  0  0  0  0  0  0  0  0
    0.3604   -5.7978    2.1856 O   0  0  0  0  0  0  0  0  0  0  0  0
   -1.7803   -2.9400    1.5025 C   0  0  0  0  0  0  0  0  0  0  0  0
   -2.1248   -2.4251   -0.1078 C   0  0  2  0  0  0  0  0  0  0  0  0
  1  2  1  0
  3  2  1  6
  3  4  1  0
  3  5  1  0
  5  6  1  1
  6  7  1  0
  7  8  2  0
  9  7  1  6
  9 10  1  0
  9 11  1  0
 11 12  1  0
 12 13  2  0
 13 14  1  0
 14 15  2  0
 15 16  1  0
 15 17  1  0
 17 18  2  0
  5 19  1  0
 19 20  2  0
 19 21  1  0
 21 22  1  0
 22 23  1  6
 23 24  2  0
 23 25  1  0
 25 26  1  0
 26 27  1  0
 27 28  1  0
 28 29  1  0
 29 30  1  0
 30 31  2  3
 31 32  1  0
 31 33  1  0
 22 34  1  0
 35 34  1  6
 35 36  1  0
 36 37  1  0
 37 38  1  0
 38 39  1  1
 39 40  1  0
 40 41  2  0
 40 42  2  0
 40 43  1  0
 38 44  1  0
 45 44  1  1
 18 12  1  0
 45 21  1  0
 45 35  1  0
M  END
>  <zinc_id>  (1) 
ZINC000024420133

>  <smiles>  (1) 
CC[C@@H](C)[C@@H](NC(=O)[C@H](O)Cc1ccc(O)cc1)C(=O)N1[C@H](C(=O)NCCCCN=C(N)N)C[C@@H]2CC[C@@H](OS(=O)(=O)O)C[C@@H]21

$$$$
