
     RDKit          3D

 49 51  0  0  0  0  0  0  0  0999 V2000
   11.6672    2.2279    1.2930 C   0  0  0  0  0  0  0  0  0  0  0  0
   10.4500    1.9716    0.4973 C   0  0  0  0  0  0  0  0  0  0  0  0
    9.2992    1.2934    0.8395 C   0  0  0  0  0  0  0  0  0  0  0  0
    8.5856    1.0356   -0.3224 C   0  0  0  0  0  0  0  0  0  0  0  0
    7.7414   -0.1516   -0.5243 C   0  0  0  0  0  0  0  0  0  0  0  0
    7.6158   -1.0558    0.3363 O   0  0  0  0  0  0  0  0  0  0  0  0
    7.1390   -0.2904   -1.7736 N   0  0  0  0  0  0  0  0  0  0  0  0
    6.3573   -1.6130   -2.1115 C   0  0  1  0  0  0  0  0  0  0  0  0
    7.5926   -2.5779   -1.6115 C   0  0  0  0  0  0  0  0  0  0  0  0
    5.6299   -1.6620   -0.6720 C   0  0  0  0  0  0  0  0  0  0  0  0
    5.3517   -2.8058   -0.2462 O   0  0  0  0  0  0  0  0  0  0  0  0
    4.7560   -0.5371   -0.5236 N   0  0  0  0  0  0  0  0  0  0  0  0
    3.6103   -0.8252    0.5192 C   0  0  2  0  0  0  0  0  0  0  0  0
    2.5282    0.1460   -0.1843 C   0  0  0  0  0  0  0  0  0  0  0  0
    2.5551    0.2203   -1.4267 O   0  0  0  0  0  0  0  0  0  0  0  0
    1.2010    0.0343    0.3522 N   0  0  0  0  0  0  0  0  0  0  0  0
    0.1340   -0.6618   -0.5781 C   0  0  1  0  0  0  0  0  0  0  0  0
   -0.3117   -1.8074    0.5021 C   0  0  0  0  0  0  0  0  0  0  0  0
    0.3195   -1.6614    1.7764 C   0  0  0  0  0  0  0  0  0  0  0  0
   -0.1955   -2.8341    2.6015 C   0  0  0  0  0  0  0  0  0  0  0  0
   -0.0205   -0.4426    2.5999 C   0  0  0  0  0  0  0  0  0  0  0  0
   -1.0253    0.3823   -0.1549 C   0  0  0  0  0  0  0  0  0  0  0  0
   -0.9854    1.3380   -0.9932 O   0  0  0  0  0  0  0  0  0  0  0  0
   -2.2483   -0.0841    0.2698 N   0  0  0  0  0  0  0  0  0  0  0  0
   -3.5552    0.2393   -0.5432 C   0  0  2  0  0  0  0  0  0  0  0  0
   -4.4088    0.4200    0.8173 C   0  0  0  0  0  0  0  0  0  0  0  0
   -5.5376    1.0511    0.7417 C   0  0  0  0  0  0  0  0  0  0  0  0
   -6.8663    0.5199    1.0830 C   0  0  0  0  0  0  0  0  0  0  0  0
   -7.3395    0.5048    2.2256 O   0  0  0  0  0  0  0  0  0  0  0  0
   -7.7014   -0.0316    0.0985 O   0  0  0  0  0  0  0  0  0  0  0  0
   -9.0526    0.4073    0.0182 C   0  0  0  0  0  0  0  0  0  0  0  0
   -9.1406    1.7423   -0.6562 C   0  0  0  0  0  0  0  0  0  0  0  0
   -7.9801    2.2441   -1.2261 C   0  0  0  0  0  0  0  0  0  0  0  0
   -7.7346    3.6024   -1.3686 C   0  0  0  0  0  0  0  0  0  0  0  0
   -8.4492    4.4751   -0.5755 C   0  0  0  0  0  0  0  0  0  0  0  0
   -9.7057    4.0336   -0.1671 C   0  0  0  0  0  0  0  0  0  0  0  0
  -10.0667    2.6949   -0.2464 C   0  0  0  0  0  0  0  0  0  0  0  0
   -3.9491   -1.3520   -0.6380 C   0  0  0  0  0  0  0  0  0  0  0  0
   -3.7253   -1.6548   -2.2262 C   0  0  2  0  0  0  0  0  0  0  0  0
   -5.2047   -1.1254   -2.6587 C   0  0  0  0  0  0  0  0  0  0  0  0
   -6.1488   -2.0388   -2.0135 C   0  0  0  0  0  0  0  0  0  0  0  0
   -5.4349   -3.0860   -1.3268 N   0  0  0  0  0  0  0  0  0  0  0  0
   -4.2168   -3.1746   -2.0765 C   0  0  0  0  0  0  0  0  0  0  0  0
   -3.2935   -3.9350   -1.6481 O   0  0  0  0  0  0  0  0  0  0  0  0
    4.1739    0.3585    1.5104 C   0  0  0  0  0  0  0  0  0  0  0  0
    2.9952    1.0345    2.1168 C   0  0  0  0  0  0  0  0  0  0  0  0
    4.9644   -0.4963    2.4957 C   0  0  0  0  0  0  0  0  0  0  0  0
    9.3024    1.6643   -1.2839 N   0  0  0  0  0  0  0  0  0  0  0  0
   10.3282    2.2633   -0.7680 O   0  0  0  0  0  0  0  0  0  0  0  0
  1  2  1  0
  2  3  2  0
  3  4  1  0
  4  5  1  0
  5  6  2  0
  5  7  1  0
  8  7  1  1
  8  9  1  0
  8 10  1  0
 10 11  2  0
 10 12  1  0
 13 12  1  6
 13 14  1  0
 14 15  2  0
 14 16  1  0
 17 16  1  1
 17 18  1  0
 18 19  1  0
 19 20  1  0
 19 21  1  0
 17 22  1  0
 22 23  2  0
 22 24  1  0
 25 24  1  1
 25 26  1  0
 26 27  2  0
 27 28  1  0
 28 29  2  0
 28 30  1  0
 30 31  1  0
 31 32  1  0
 32 33  2  0
 33 34  1  0
 34 35  2  0
 35 36  1  0
 36 37  2  0
 25 38  1  0
 39 38  1  1
 39 40  1  0
 40 41  1  0
 41 42  1  0
 42 43  1  0
 43 44  2  0
 13 45  1  0
 45 46  1  0
 45 47  1  0
  4 48  2  0
 48 49  1  0
 49  2  1  0
 37 32  1  0
 43 39  1  0
M  END
>  <zinc_id>  (1) 
ZINC000053683585

>  <smiles>  (1) 
Cc1cc(C(=O)N[C@@H](C)C(=O)N[C@H](C(=O)N[C@@H](CC(C)C)C(=O)N[C@H](/C=C/C(=O)OCc2ccccc2)C[C@@H]2CCNC2=O)C(C)C)no1

$$$$
