
     RDKit          3D

 43 45  0  0  0  0  0  0  0  0999 V2000
   -5.5811    4.7280   -0.1402 C   0  0  0  0  0  0  0  0  0  0  0  0
   -5.8271    4.0292   -1.4018 C   0  0  0  0  0  0  0  0  0  0  0  0
   -6.8244    2.9108   -1.2595 C   0  0  0  0  0  0  0  0  0  0  0  0
   -6.8744    2.1397   -2.4472 O   0  0  0  0  0  0  0  0  0  0  0  0
   -5.8213    1.3041   -2.8372 C   0  0  0  0  0  0  0  0  0  0  0  0
   -5.2466    1.6038   -4.0578 C   0  0  0  0  0  0  0  0  0  0  0  0
   -3.9582    1.1418   -4.2582 C   0  0  0  0  0  0  0  0  0  0  0  0
   -3.4399    0.1722   -3.4221 C   0  0  0  0  0  0  0  0  0  0  0  0
   -2.3024   -0.5270   -3.4970 N   0  0  0  0  0  0  0  0  0  0  0  0
   -2.0318   -1.0007   -2.2549 C   0  0  0  0  0  0  0  0  0  0  0  0
   -3.2005   -1.0133   -1.4946 C   0  0  0  0  0  0  0  0  0  0  0  0
   -3.2868   -1.3214   -0.0186 C   0  0  0  0  0  0  0  0  0  0  0  0
   -2.3546   -0.0604    0.4870 C   0  0  1  0  0  0  0  0  0  0  0  0
   -2.7655   -0.1586    1.9888 N   0  0  0  0  0  0  0  0  0  0  0  0
   -3.4634   -1.4380    2.6146 S   0  0  0  0  0  0  0  0  0  0  0  0
   -4.9130   -1.1725    2.9912 O   0  0  0  0  0  0  0  0  0  0  0  0
   -3.4994   -2.8038    2.0795 O   0  0  0  0  0  0  0  0  0  0  0  0
   -2.6435   -1.5428    4.2210 C   0  0  0  0  0  0  0  0  0  0  0  0
   -2.5814   -2.9213    4.7506 C   0  0  0  0  0  0  0  0  0  0  0  0
   -1.0440   -0.9716    0.6512 C   0  0  0  0  0  0  0  0  0  0  0  0
   -0.9576   -1.8658    1.4580 O   0  0  0  0  0  0  0  0  0  0  0  0
    0.2054   -0.4403    0.2186 N   0  0  0  0  0  0  0  0  0  0  0  0
    1.2273   -0.0179    1.3388 C   0  0  1  0  0  0  0  0  0  0  0  0
    0.9361   -1.3370    2.2732 C   0  0  0  0  0  0  0  0  0  0  0  0
    2.2816   -1.7177    2.8807 C   0  0  0  0  0  0  0  0  0  0  0  0
    1.8825   -2.7555    3.8877 C   0  0  0  0  0  0  0  0  0  0  0  0
    2.3655   -4.0806    3.8292 N   0  0  0  0  0  0  0  0  0  0  0  0
    0.8039   -2.5885    4.5387 O   0  0  0  0  0  0  0  0  0  0  0  0
    2.4886   -0.7373    0.6412 C   0  0  0  0  0  0  0  0  0  0  0  0
    2.4969   -0.9761   -0.5512 O   0  0  0  0  0  0  0  0  0  0  0  0
    3.6554   -0.0685    1.1432 N   0  0  0  0  0  0  0  0  0  0  0  0
    4.9743   -0.4356    0.7611 C   0  0  0  0  0  0  0  0  0  0  0  0
    5.4265    0.0971   -0.5286 C   0  0  0  0  0  0  0  0  0  0  0  0
    5.0808    1.3270   -1.0671 C   0  0  0  0  0  0  0  0  0  0  0  0
    6.0541    2.1257   -1.6611 C   0  0  0  0  0  0  0  0  0  0  0  0
    7.3884    1.7369   -1.7189 C   0  0  0  0  0  0  0  0  0  0  0  0
    8.4815    2.6656   -1.4000 C   0  0  0  0  0  0  0  0  0  0  0  0
    9.6793    2.1609   -1.4695 N   0  0  0  0  0  0  0  0  0  0  0  0
    8.3469    3.6723   -0.3872 N   0  0  0  0  0  0  0  0  0  0  0  0
    7.5581    0.3566   -1.6596 C   0  0  0  0  0  0  0  0  0  0  0  0
    6.5894   -0.4467   -1.0640 C   0  0  0  0  0  0  0  0  0  0  0  0
   -4.0512   -0.1825   -2.2218 C   0  0  0  0  0  0  0  0  0  0  0  0
   -5.2540    0.4096   -1.9362 C   0  0  0  0  0  0  0  0  0  0  0  0
  1  2  1  0
  2  3  1  0
  3  4  1  0
  4  5  1  0
  5  6  2  0
  6  7  1  0
  7  8  2  0
  8  9  1  0
  9 10  1  0
 10 11  2  0
 11 12  1  0
 13 12  1  6
 13 14  1  0
 14 15  1  0
 15 16  2  0
 15 17  2  0
 15 18  1  0
 18 19  1  0
 13 20  1  0
 20 21  2  0
 20 22  1  0
 23 22  1  6
 23 24  1  0
 24 25  1  0
 25 26  1  0
 26 27  1  0
 26 28  2  0
 23 29  1  0
 29 30  2  0
 29 31  1  0
 31 32  1  0
 32 33  1  0
 33 34  2  0
 34 35  1  0
 35 36  2  0
 36 37  1  0
 37 38  2  0
 37 39  1  0
 36 40  1  0
 40 41  2  0
 11 42  1  0
 42 43  2  0
 43  5  1  0
 42  8  1  0
 41 33  1  0
M  END
>  <zinc_id>  (1) 
ZINC000003989246

>  <smiles>  (1) 
CCCOc1ccc2[nH]cc(C[C@@H](NS(=O)(=O)CC)C(=O)N[C@@H](CCC(N)=O)C(=O)NCc3ccc(C(=N)N)cc3)c2c1

$$$$
