
     RDKit          3D

 45 46  0  0  0  0  0  0  0  0999 V2000
   -7.1031    5.5807   -0.5713 C   0  0  0  0  0  0  0  0  0  0  0  0
   -7.4220    4.5907    0.3136 C   0  0  0  0  0  0  0  0  0  0  0  0
   -6.7820    3.3584    0.0125 O   0  0  0  0  0  0  0  0  0  0  0  0
   -5.5805    2.9816    0.5926 C   0  0  0  0  0  0  0  0  0  0  0  0
   -5.2842    3.5860    1.6677 O   0  0  0  0  0  0  0  0  0  0  0  0
   -4.9389    1.7087    0.3523 C   0  0  0  0  0  0  0  0  0  0  0  0
   -5.5796    0.5637    0.1053 C   0  0  0  0  0  0  0  0  0  0  0  0
   -4.5803   -0.2743   -0.8841 C   0  0  2  0  0  0  0  0  0  0  0  0
   -5.5380   -1.6315   -0.8334 C   0  0  0  0  0  0  0  0  0  0  0  0
   -5.1954   -2.2747    0.6381 C   0  0  2  0  0  0  0  0  0  0  0  0
   -5.2280   -3.8253    0.0664 C   0  0  0  0  0  0  0  0  0  0  0  0
   -6.5129   -3.7970   -0.7101 C   0  0  0  0  0  0  0  0  0  0  0  0
   -7.4117   -2.9648    0.0313 N   0  0  0  0  0  0  0  0  0  0  0  0
   -6.7541   -2.3424    1.0707 C   0  0  0  0  0  0  0  0  0  0  0  0
   -7.0561   -1.6601    2.0640 O   0  0  0  0  0  0  0  0  0  0  0  0
   -3.6156   -0.6524    0.3301 N   0  0  0  0  0  0  0  0  0  0  0  0
   -2.3393   -0.8676   -0.2886 C   0  0  0  0  0  0  0  0  0  0  0  0
   -2.2270   -1.9271   -0.8587 O   0  0  0  0  0  0  0  0  0  0  0  0
   -1.0849   -0.2217    0.5215 C   0  0  2  0  0  0  0  0  0  0  0  0
   -0.7647    0.8860   -0.6815 C   0  0  0  0  0  0  0  0  0  0  0  0
   -1.0625    0.2364   -1.9755 C   0  0  0  0  0  0  0  0  0  0  0  0
   -1.6562    1.2478   -2.9388 C   0  0  0  0  0  0  0  0  0  0  0  0
    0.0418   -0.5529   -2.5959 C   0  0  0  0  0  0  0  0  0  0  0  0
    0.0194   -1.2253   -0.0448 N   0  0  0  0  0  0  0  0  0  0  0  0
    1.0017   -1.5821    0.9588 C   0  0  0  0  0  0  0  0  0  0  0  0
    0.4543   -2.2196    1.8601 O   0  0  0  0  0  0  0  0  0  0  0  0
    2.1704   -2.3233    0.0912 C   0  0  1  0  0  0  0  0  0  0  0  0
    3.3424   -1.4735    0.7554 N   0  0  0  0  0  0  0  0  0  0  0  0
    3.6908   -0.2558    0.3095 C   0  0  0  0  0  0  0  0  0  0  0  0
    2.7834    0.4460   -0.2369 O   0  0  0  0  0  0  0  0  0  0  0  0
    5.0551    0.0195   -0.5399 C   0  0  1  0  0  0  0  0  0  0  0  0
    5.6891    0.9079    0.6260 N   0  0  0  0  0  0  0  0  0  0  0  0
    6.1460    2.1843    0.1940 C   0  0  0  0  0  0  0  0  0  0  0  0
    5.1800    2.8619   -0.2799 O   0  0  0  0  0  0  0  0  0  0  0  0
    7.4996    2.6779    0.2388 C   0  0  0  0  0  0  0  0  0  0  0  0
    8.6918    2.1705   -0.2665 C   0  0  0  0  0  0  0  0  0  0  0  0
    9.3571    3.2124   -0.9056 C   0  0  0  0  0  0  0  0  0  0  0  0
    8.9531    4.2718   -0.2528 O   0  0  0  0  0  0  0  0  0  0  0  0
    7.7999    4.0340    0.3493 C   0  0  0  0  0  0  0  0  0  0  0  0
    5.8246   -1.3730   -0.0587 C   0  0  0  0  0  0  0  0  0  0  0  0
    6.9226   -1.0761    0.8368 C   0  0  0  0  0  0  0  0  0  0  0  0
    6.4423   -1.7462   -1.4054 C   0  0  0  0  0  0  0  0  0  0  0  0
    2.4402   -3.5724    1.1536 C   0  0  0  0  0  0  0  0  0  0  0  0
    1.4887   -4.6274    0.8823 C   0  0  0  0  0  0  0  0  0  0  0  0
    2.7228   -3.0598    2.4635 C   0  0  0  0  0  0  0  0  0  0  0  0
  1  2  1  0
  2  3  1  0
  3  4  1  0
  4  5  2  0
  4  6  1  0
  6  7  2  0
  8  7  1  1
  8  9  1  0
 10  9  1  6
 10 11  1  0
 11 12  1  0
 12 13  1  0
 13 14  1  0
 14 15  2  0
  8 16  1  0
 16 17  1  0
 17 18  2  0
 19 17  1  6
 19 20  1  0
 20 21  1  0
 21 22  1  0
 21 23  1  0
 19 24  1  0
 24 25  1  0
 25 26  2  0
 27 25  1  1
 27 28  1  0
 28 29  1  0
 29 30  2  0
 31 29  1  1
 31 32  1  0
 32 33  1  0
 33 34  2  0
 33 35  1  0
 35 36  1  0
 36 37  2  0
 37 38  1  0
 38 39  1  0
 31 40  1  0
 40 41  1  0
 40 42  1  0
 27 43  1  0
 43 44  1  0
 43 45  1  0
 14 10  1  0
 39 35  2  0
M  END
>  <zinc_id>  (1) 
ZINC000014881283

>  <smiles>  (1) 
CCOC(=O)/C=C/[C@H](C[C@@H]1CCNC1=O)NC(=O)[C@H](CC(C)C)NC(=O)[C@@H](NC(=O)[C@@H](NC(=O)c1ccoc1)C(C)C)C(C)C

$$$$
