
     RDKit          3D

 41 41  0  0  0  0  0  0  0  0999 V2000
    2.6107   -0.7347   -2.2944 C   0  0  0  0  0  0  0  0  0  0  0  0
    1.3589   -0.8978   -3.3222 C   0  0  1  0  0  0  0  0  0  0  0  0
    0.4002   -0.0673   -2.4095 N   0  0  0  0  0  0  0  0  0  0  0  0
   -0.4348   -0.8980   -1.6824 C   0  0  0  0  0  0  0  0  0  0  0  0
   -0.3257   -2.1494   -1.6123 O   0  0  0  0  0  0  0  0  0  0  0  0
   -1.1369   -0.3540   -0.3407 C   0  0  2  0  0  0  0  0  0  0  0  0
   -1.5710    1.0717   -1.0386 C   0  0  0  0  0  0  0  0  0  0  0  0
   -3.0043    0.7216   -1.4274 C   0  0  0  0  0  0  0  0  0  0  0  0
   -3.1334   -0.6750   -1.9421 C   0  0  0  0  0  0  0  0  0  0  0  0
   -3.8442   -1.6218   -1.0271 C   0  0  0  0  0  0  0  0  0  0  0  0
   -4.2678   -1.0430    0.2172 N   0  0  0  0  0  0  0  0  0  0  0  0
   -5.2723   -0.0380    0.1663 C   0  0  0  0  0  0  0  0  0  0  0  0
   -5.9971    0.0256   -0.8562 O   0  0  0  0  0  0  0  0  0  0  0  0
   -5.3220    0.9147    1.1770 O   0  0  0  0  0  0  0  0  0  0  0  0
   -6.4976    1.7186    1.2213 C   0  0  0  0  0  0  0  0  0  0  0  0
   -7.6410    0.7537    1.2555 C   0  0  0  0  0  0  0  0  0  0  0  0
   -8.7090    0.8554    0.4028 C   0  0  0  0  0  0  0  0  0  0  0  0
   -9.9031    0.1997    0.6630 C   0  0  0  0  0  0  0  0  0  0  0  0
   -9.9806   -0.4792    1.8650 C   0  0  0  0  0  0  0  0  0  0  0  0
   -8.8539   -0.8840    2.5378 C   0  0  0  0  0  0  0  0  0  0  0  0
   -7.6618   -0.2647    2.1890 C   0  0  0  0  0  0  0  0  0  0  0  0
    0.1999    0.2528    0.2306 N   0  0  0  0  0  0  0  0  0  0  0  0
    0.7787   -0.5673    1.2548 C   0  0  0  0  0  0  0  0  0  0  0  0
    0.2446   -1.6609    1.6131 O   0  0  0  0  0  0  0  0  0  0  0  0
    2.2450   -0.4912    1.5550 C   0  0  0  0  0  0  0  0  0  0  0  0
    2.9228    0.0333    0.3711 C   0  0  0  0  0  0  0  0  0  0  0  0
    4.1105    1.0889    0.7853 C   0  0  2  0  0  0  0  0  0  0  0  0
    5.0417   -0.0824    1.2875 N   0  0  0  0  0  0  0  0  0  0  0  0
    6.3361    0.0374    0.6871 C   0  0  0  0  0  0  0  0  0  0  0  0
    6.5309    0.7024   -0.3743 O   0  0  0  0  0  0  0  0  0  0  0  0
    7.3840   -0.6282    1.3286 O   0  0  0  0  0  0  0  0  0  0  0  0
    8.7105   -0.5002    0.8769 C   0  0  0  0  0  0  0  0  0  0  0  0
    9.3933   -1.8521    0.9041 C   0  0  0  0  0  0  0  0  0  0  0  0
    9.5105    0.4219    1.7568 C   0  0  0  0  0  0  0  0  0  0  0  0
    8.6842    0.0324   -0.5298 C   0  0  0  0  0  0  0  0  0  0  0  0
    3.4965    1.4228    2.2373 C   0  0  0  0  0  0  0  0  0  0  0  0
    3.0093    2.5976    2.2479 O   0  0  0  0  0  0  0  0  0  0  0  0
    4.1308    1.0376    3.3602 O   0  0  0  0  0  0  0  0  0  0  0  0
    1.8055    0.4530   -4.2593 B   0  0  0  0  0  0  0  0  0  0  0  0
    2.4436   -0.0558   -5.4820 O   0  0  0  0  0  0  0  0  0  0  0  0
    2.2083    1.6554   -3.5928 O   0  0  0  0  0  0  0  0  0  0  0  0
  2  1  1  1
  2  3  1  0
  3  4  1  0
  4  5  2  0
  6  4  1  6
  6  7  1  0
  7  8  1  0
  8  9  1  0
  9 10  1  0
 10 11  1  0
 11 12  1  0
 12 13  2  0
 12 14  1  0
 14 15  1  0
 15 16  1  0
 16 17  2  0
 17 18  1  0
 18 19  2  0
 19 20  1  0
 20 21  2  0
  6 22  1  0
 22 23  1  0
 23 24  2  0
 23 25  1  0
 25 26  1  0
 27 26  1  6
 27 28  1  0
 28 29  1  0
 29 30  2  0
 29 31  1  0
 31 32  1  0
 32 33  1  0
 32 34  1  0
 32 35  1  0
 27 36  1  0
 36 37  2  0
 36 38  1  0
  2 39  1  0
 39 40  1  0
 39 41  1  0
 21 16  1  0
M  END
>  <zinc_id>  (1) 
ZINC000169748488

>  <smiles>  (1) 
C[C@@H](NC(=O)[C@H](CCCCNC(=O)OCc1ccccc1)NC(=O)CC[C@H](NC(=O)OC(C)(C)C)C(=O)O)B(O)O

$$$$
