
     RDKit          3D

 40 41  0  0  0  0  0  0  0  0999 V2000
    3.1131   -0.1485    2.7853 C   0  0  0  0  0  0  0  0  0  0  0  0
    2.6982   -0.4723    1.8226 C   0  0  0  0  0  0  0  0  0  0  0  0
    1.9304   -1.7134    1.5545 C   0  0  0  0  0  0  0  0  0  0  0  0
    2.8226    0.4130    0.6391 C   0  0  0  0  0  0  0  0  0  0  0  0
    1.9149   -0.2443   -0.5691 C   0  0  2  0  0  0  0  0  0  0  0  0
    2.9159    0.2725   -1.6791 N   0  0  0  0  0  0  0  0  0  0  0  0
    4.2541   -0.1136   -1.4819 C   0  0  0  0  0  0  0  0  0  0  0  0
    4.7138    0.1781   -0.3352 O   0  0  0  0  0  0  0  0  0  0  0  0
    5.1316   -0.8026   -2.2581 O   0  0  0  0  0  0  0  0  0  0  0  0
    6.0787   -1.7353   -1.8574 C   0  0  0  0  0  0  0  0  0  0  0  0
    7.3723   -1.2692   -1.4074 C   0  0  0  0  0  0  0  0  0  0  0  0
    8.3539   -2.2483   -1.2621 C   0  0  0  0  0  0  0  0  0  0  0  0
    9.5139   -2.0293   -0.5471 C   0  0  0  0  0  0  0  0  0  0  0  0
    9.9591   -0.7148   -0.4747 C   0  0  0  0  0  0  0  0  0  0  0  0
    8.9647    0.2385   -0.3621 C   0  0  0  0  0  0  0  0  0  0  0  0
    7.6844   -0.0825   -0.7963 C   0  0  0  0  0  0  0  0  0  0  0  0
    0.8966    1.0038   -0.6526 C   0  0  0  0  0  0  0  0  0  0  0  0
    1.0048    1.9548    0.1327 O   0  0  0  0  0  0  0  0  0  0  0  0
   -0.4856    0.7604   -0.8224 N   0  0  0  0  0  0  0  0  0  0  0  0
   -1.3532    0.3357    0.4179 C   0  0  1  0  0  0  0  0  0  0  0  0
   -0.6605    1.4034    1.4642 C   0  0  0  0  0  0  0  0  0  0  0  0
   -0.9674    0.6561    2.7590 C   0  0  0  0  0  0  0  0  0  0  0  0
   -0.9179   -0.8505    2.5754 C   0  0  0  0  0  0  0  0  0  0  0  0
    0.0770    0.9822    3.8112 C   0  0  0  0  0  0  0  0  0  0  0  0
   -2.5905    1.3517    0.1379 C   0  0  0  0  0  0  0  0  0  0  0  0
   -3.1881    1.3628    1.2651 O   0  0  0  0  0  0  0  0  0  0  0  0
   -3.3542    1.1302   -0.9599 N   0  0  0  0  0  0  0  0  0  0  0  0
   -4.9211    1.1642   -1.0074 C   0  0  1  0  0  0  0  0  0  0  0  0
   -5.1503    0.8816    0.5995 C   0  0  0  0  0  0  0  0  0  0  0  0
   -5.7476   -0.4923    0.6166 C   0  0  0  0  0  0  0  0  0  0  0  0
   -6.9545   -0.7456   -0.0163 C   0  0  0  0  0  0  0  0  0  0  0  0
   -7.2713   -2.0744   -0.2734 C   0  0  0  0  0  0  0  0  0  0  0  0
   -6.2951   -3.0530   -0.1251 C   0  0  0  0  0  0  0  0  0  0  0  0
   -6.4274   -4.2482   -0.7982 O   0  0  0  0  0  0  0  0  0  0  0  0
   -5.1396   -2.7905    0.6012 C   0  0  0  0  0  0  0  0  0  0  0  0
   -5.1367   -1.5652    1.2549 C   0  0  0  0  0  0  0  0  0  0  0  0
   -5.0115    2.7657   -0.8467 C   0  0  0  0  0  0  0  0  0  0  0  0
   -4.4798    3.3535    0.0092 O   0  0  0  0  0  0  0  0  0  0  0  0
   -6.2689    3.3817   -1.3431 C   0  0  0  0  0  0  0  0  0  0  0  0
   -7.0786    3.8039   -0.3110 F   0  0  0  0  0  0  0  0  0  0  0  0
  1  2  1  0
  2  3  1  0
  2  4  1  0
  5  4  1  1
  5  6  1  0
  6  7  1  0
  7  8  2  0
  7  9  1  0
  9 10  1  0
 10 11  1  0
 11 12  2  0
 12 13  1  0
 13 14  2  0
 14 15  1  0
 15 16  2  0
  5 17  1  0
 17 18  2  0
 17 19  1  0
 20 19  1  6
 20 21  1  0
 21 22  1  0
 22 23  1  0
 22 24  1  0
 20 25  1  0
 25 26  2  0
 25 27  1  0
 28 27  1  1
 28 29  1  0
 29 30  1  0
 30 31  2  0
 31 32  1  0
 32 33  2  0
 33 34  1  0
 33 35  1  0
 35 36  2  0
 28 37  1  0
 37 38  2  0
 37 39  1  0
 39 40  1  0
 16 11  1  0
 36 30  1  0
M  END
>  <zinc_id>  (1) 
ZINC000026289134

>  <smiles>  (1) 
CC(C)C[C@H](NC(=O)OCc1ccccc1)C(=O)N[C@@H](CC(C)C)C(=O)N[C@@H](Cc1ccc(O)cc1)C(=O)CF

$$$$
