
     RDKit          3D

 64 66  0  0  0  0  0  0  0  0999 V2000
   -5.5050    3.4145   -0.4152 C   0  0  0  0  0  0  0  0  0  0  0  0
   -5.1358    2.0306   -0.5484 C   0  0  0  0  0  0  0  0  0  0  0  0
   -4.9591    1.6755   -1.7608 O   0  0  0  0  0  0  0  0  0  0  0  0
   -5.1040    1.0765    0.5399 N   0  0  0  0  0  0  0  0  0  0  0  0
   -4.0086   -0.0139    0.2406 C   0  0  1  0  0  0  0  0  0  0  0  0
   -4.1080   -0.8421    1.7222 C   0  0  2  0  0  0  0  0  0  0  0  0
   -3.5831   -2.1751    1.2523 O   0  0  0  0  0  0  0  0  0  0  0  0
   -4.3707   -2.8960    0.7400 C   0  0  0  0  0  0  0  0  0  0  0  0
   -5.8498   -2.3513    1.0691 C   0  0  1  0  0  0  0  0  0  0  0  0
   -5.5452   -1.0523    1.6504 O   0  0  0  0  0  0  0  0  0  0  0  0
   -6.1915   -1.6596   -0.4500 C   0  0  1  0  0  0  0  0  0  0  0  0
   -6.8651   -0.4316    0.1158 O   0  0  0  0  0  0  0  0  0  0  0  0
   -8.3408   -0.7218   -0.1081 C   0  0  2  0  0  0  0  0  0  0  0  0
   -8.2710   -0.1100   -1.4383 O   0  0  0  0  0  0  0  0  0  0  0  0
   -9.0333    1.0606   -1.8551 C   0  0  2  0  0  0  0  0  0  0  0  0
   -8.4866    2.2396   -0.8296 C   0  0  0  0  0  0  0  0  0  0  0  0
   -8.2782    3.3522   -1.5931 O   0  0  0  0  0  0  0  0  0  0  0  0
  -10.5773    0.8297   -1.1610 C   0  0  1  0  0  0  0  0  0  0  0  0
  -10.6187   -0.5892   -1.6793 O   0  0  0  0  0  0  0  0  0  0  0  0
  -10.3396    0.2779    0.4095 C   0  0  2  0  0  0  0  0  0  0  0  0
  -10.8020    1.5915    0.9894 O   0  0  0  0  0  0  0  0  0  0  0  0
   -8.7505    0.7565    0.6427 C   0  0  1  0  0  0  0  0  0  0  0  0
   -8.7122    0.3404    2.1100 N   0  0  0  0  0  0  0  0  0  0  0  0
   -8.9462   -0.8399    2.7000 C   0  0  0  0  0  0  0  0  0  0  0  0
   -8.1124   -1.0173    3.9474 C   0  0  0  0  0  0  0  0  0  0  0  0
   -9.2905   -1.7587    1.9596 O   0  0  0  0  0  0  0  0  0  0  0  0
   -4.8611   -0.7773   -0.9757 C   0  0  2  0  0  0  0  0  0  0  0  0
   -3.8172   -1.8819   -1.1067 O   0  0  0  0  0  0  0  0  0  0  0  0
   -3.0517   -1.3348   -2.3082 C   0  0  2  0  0  0  0  0  0  0  0  0
   -1.9322   -2.5446   -2.3110 C   0  0  0  0  0  0  0  0  0  0  0  0
   -2.1100   -0.3544   -1.4435 C   0  0  0  0  0  0  0  0  0  0  0  0
   -2.2198    0.7368   -2.0935 O   0  0  0  0  0  0  0  0  0  0  0  0
   -0.9563   -0.6155   -0.8261 N   0  0  0  0  0  0  0  0  0  0  0  0
    0.1217    0.5333   -1.0302 C   0  0  1  0  0  0  0  0  0  0  0  0
   -0.6595    1.6072   -0.0551 C   0  0  0  0  0  0  0  0  0  0  0  0
    1.1043   -0.0269    0.1202 C   0  0  0  0  0  0  0  0  0  0  0  0
    1.4385    0.7044    1.0928 O   0  0  0  0  0  0  0  0  0  0  0  0
    2.2928    0.1223   -0.6965 N   0  0  0  0  0  0  0  0  0  0  0  0
    3.5212   -0.7646   -0.2927 C   0  0  2  0  0  0  0  0  0  0  0  0
    3.9219    0.0115    1.1081 C   0  0  0  0  0  0  0  0  0  0  0  0
    4.7292   -0.9788    1.9241 C   0  0  0  0  0  0  0  0  0  0  0  0
    5.7639   -1.6931    1.1130 C   0  0  0  0  0  0  0  0  0  0  0  0
    5.3945   -2.4694    0.1601 O   0  0  0  0  0  0  0  0  0  0  0  0
    7.0086   -1.9704    1.6463 N   0  0  0  0  0  0  0  0  0  0  0  0
    8.2231   -2.3497    0.7174 C   0  0  1  0  0  0  0  0  0  0  0  0
    7.6732   -1.5534   -0.5950 C   0  0  0  0  0  0  0  0  0  0  0  0
    8.2808   -0.3656   -0.9317 C   0  0  0  0  0  0  0  0  0  0  0  0
    8.5401    0.1007   -2.2577 C   0  0  0  0  0  0  0  0  0  0  0  0
    9.0461    1.6584   -2.2790 C   0  0  1  0  0  0  0  0  0  0  0  0
    8.9011    1.9103   -0.7293 N   0  0  0  0  0  0  0  0  0  0  0  0
   10.6086    1.3114   -2.1197 C   0  0  0  0  0  0  0  0  0  0  0  0
   11.3175    2.2623   -1.7036 O   0  0  0  0  0  0  0  0  0  0  0  0
   11.0851    0.0825   -2.2453 O   0  0  0  0  0  0  0  0  0  0  0  0
    9.1420   -1.1784    1.3584 C   0  0  0  0  0  0  0  0  0  0  0  0
    9.4525   -1.6903    2.4905 O   0  0  0  0  0  0  0  0  0  0  0  0
    8.5259    0.0711    1.5580 N   0  0  0  0  0  0  0  0  0  0  0  0
    9.4297    0.9793    2.4692 C   0  0  2  0  0  0  0  0  0  0  0  0
    8.6668    2.3498    1.9810 C   0  0  0  0  0  0  0  0  0  0  0  0
   10.6004    1.1585    1.3751 C   0  0  0  0  0  0  0  0  0  0  0  0
   11.3487    2.0939    1.7923 O   0  0  0  0  0  0  0  0  0  0  0  0
   10.2254    1.2533    0.0669 O   0  0  0  0  0  0  0  0  0  0  0  0
    4.4790    0.1475   -1.2321 C   0  0  0  0  0  0  0  0  0  0  0  0
    4.4131    1.3567   -0.9939 O   0  0  0  0  0  0  0  0  0  0  0  0
    4.1374   -0.0890   -2.5780 O   0  0  0  0  0  0  0  0  0  0  0  0
  1  2  1  0
  2  3  2  0
  2  4  1  0
  5  4  1  1
  5  6  1  0
  6  7  1  6
  7  8  1  0
  9  8  1  6
  9 10  1  0
  9 11  1  0
 11 12  1  1
 13 12  1  1
 13 14  1  0
 14 15  1  0
 15 16  1  1
 16 17  1  0
 15 18  1  0
 18 19  1  6
 18 20  1  0
 20 21  1  1
 20 22  1  0
 22 23  1  1
 23 24  1  0
 24 25  1  0
 24 26  2  0
 11 27  1  0
 27 28  1  1
 29 28  1  1
 29 30  1  0
 29 31  1  0
 31 32  2  0
 31 33  1  0
 34 33  1  1
 34 35  1  0
 34 36  1  0
 36 37  2  0
 36 38  1  0
 39 38  1  6
 39 40  1  0
 40 41  1  0
 41 42  1  0
 42 43  2  0
 42 44  1  0
 45 44  1  1
 45 46  1  0
 46 47  1  0
 47 48  1  0
 49 48  1  1
 49 50  1  0
 49 51  1  0
 51 52  2  0
 51 53  1  0
 45 54  1  0
 54 55  2  0
 54 56  1  0
 57 56  1  6
 57 58  1  0
 57 59  1  0
 59 60  2  0
 59 61  1  0
 39 62  1  0
 62 63  2  0
 62 64  1  0
 27  5  1  0
 10  6  1  0
 22 13  1  0
M  END
>  <zinc_id>  (1) 
ZINC000096006131

>  <smiles>  (1) 
CC(=O)N[C@H]1[C@H](O[C@@H]2[C@H]3CO[C@H](O3)[C@H](NC(C)=O)[C@H]2O[C@H](C)C(=O)N[C@@H](C)C(=O)N[C@H](CCC(=O)N[C@@H](CCC[C@@H](N)C(=O)O)C(=O)N[C@H](C)C(=O)O)C(=O)O)O[C@H](CO)[C@@H](O)[C@@H]1O

$$$$
