
     RDKit          3D

 37 38  0  0  0  0  0  0  0  0999 V2000
   -4.9616   -2.8842   -3.3414 C   0  0  0  0  0  0  0  0  0  0  0  0
   -4.3307   -2.3842   -3.5693 C   0  0  0  0  0  0  0  0  0  0  0  0
   -3.7345   -1.8163   -2.4061 O   0  0  0  0  0  0  0  0  0  0  0  0
   -4.2428   -0.6435   -1.9336 C   0  0  0  0  0  0  0  0  0  0  0  0
   -5.5097   -0.5304   -1.9471 O   0  0  0  0  0  0  0  0  0  0  0  0
   -3.7513   -0.2080   -0.4210 C   0  0  2  0  0  0  0  0  0  0  0  0
   -2.2081   -0.5986   -0.7018 N   0  0  0  0  0  0  0  0  0  0  0  0
   -1.3972    0.2252    0.1568 C   0  0  0  0  0  0  0  0  0  0  0  0
   -1.8912    0.4908    1.3038 O   0  0  0  0  0  0  0  0  0  0  0  0
    0.0309   -0.4902    0.5554 C   0  0  2  0  0  0  0  0  0  0  0  0
    0.8377    0.9505    0.8113 C   0  0  0  0  0  0  0  0  0  0  0  0
   -0.2155    2.3186    0.8440 S   0  0  0  0  0  0  0  0  0  0  0  0
    0.1218    3.2959    2.3389 C   0  0  0  0  0  0  0  0  0  0  0  0
    0.3578    4.7250    2.0334 C   0  0  0  0  0  0  0  0  0  0  0  0
    1.4718    5.1985    1.3861 C   0  0  0  0  0  0  0  0  0  0  0  0
    1.8754    6.4866    1.7165 C   0  0  0  0  0  0  0  0  0  0  0  0
    1.0304    7.3483    2.4070 C   0  0  0  0  0  0  0  0  0  0  0  0
   -0.2149    6.9125    2.8474 C   0  0  0  0  0  0  0  0  0  0  0  0
   -0.6038    5.6644    2.3713 C   0  0  0  0  0  0  0  0  0  0  0  0
    0.5134   -0.5377   -0.9768 N   0  0  0  0  0  0  0  0  0  0  0  0
    1.9422   -0.4658   -1.0922 C   0  0  0  0  0  0  0  0  0  0  0  0
    2.3899    0.6018   -0.5695 O   0  0  0  0  0  0  0  0  0  0  0  0
    2.6926   -1.0941   -2.1808 C   0  0  0  0  0  0  0  0  0  0  0  0
    4.1553   -1.1807   -1.9961 C   0  0  0  0  0  0  0  0  0  0  0  0
    4.4318   -1.1674   -0.3447 C   0  0  2  0  0  0  0  0  0  0  0  0
    5.2688    0.2017   -0.4653 N   0  0  0  0  0  0  0  0  0  0  0  0
    5.8153   -2.0420   -0.4338 C   0  0  0  0  0  0  0  0  0  0  0  0
    6.5495   -1.8459    0.5576 O   0  0  0  0  0  0  0  0  0  0  0  0
    5.8776   -3.0702   -1.3101 O   0  0  0  0  0  0  0  0  0  0  0  0
    7.2036   -3.5589   -1.5405 C   0  0  0  0  0  0  0  0  0  0  0  0
    7.2979   -5.0335   -1.6124 C   0  0  0  0  0  0  0  0  0  0  0  0
   -4.1537   -1.6785    0.2058 C   0  0  0  0  0  0  0  0  0  0  0  0
   -5.2797   -1.4305    0.9927 C   0  0  0  0  0  0  0  0  0  0  0  0
   -5.7143   -2.4086    1.8712 C   0  0  0  0  0  0  0  0  0  0  0  0
   -4.8946   -3.5184    2.0361 C   0  0  0  0  0  0  0  0  0  0  0  0
   -3.5914   -3.4710    1.5633 C   0  0  0  0  0  0  0  0  0  0  0  0
   -3.1688   -2.3614    0.8439 C   0  0  0  0  0  0  0  0  0  0  0  0
  1  2  1  0
  2  3  1  0
  3  4  1  0
  4  5  2  0
  6  4  1  6
  6  7  1  0
  7  8  1  0
  8  9  2  0
 10  8  1  6
 10 11  1  0
 11 12  1  0
 12 13  1  0
 13 14  1  0
 14 15  2  0
 15 16  1  0
 16 17  2  0
 17 18  1  0
 18 19  2  0
 10 20  1  0
 20 21  1  0
 21 22  2  0
 21 23  1  0
 23 24  1  0
 25 24  1  6
 25 26  1  0
 25 27  1  0
 27 28  2  0
 27 29  1  0
 29 30  1  0
 30 31  1  0
  6 32  1  0
 32 33  2  0
 33 34  1  0
 34 35  2  0
 35 36  1  0
 36 37  2  0
 19 14  1  0
 37 32  1  0
M  END
>  <zinc_id>  (1) 
ZINC000056898832

>  <smiles>  (1) 
CCOC(=O)[C@@H](N)CCC(=O)N[C@@H](CSCc1ccccc1)C(=O)N[C@@H](C(=O)OCC)c1ccccc1

$$$$
