
     RDKit          3D

 43 45  0  0  0  0  0  0  0  0999 V2000
   -8.3352   -2.2457    0.7083 C   0  0  0  0  0  0  0  0  0  0  0  0
   -8.5327   -0.8993    0.3524 C   0  0  0  0  0  0  0  0  0  0  0  0
   -8.6301    0.1118    1.3063 C   0  0  0  0  0  0  0  0  0  0  0  0
   -8.9331    1.4082    0.9162 C   0  0  0  0  0  0  0  0  0  0  0  0
   -9.4285    1.5912   -0.3478 C   0  0  0  0  0  0  0  0  0  0  0  0
   -9.0727    0.6809   -1.3230 C   0  0  0  0  0  0  0  0  0  0  0  0
   -8.5510   -0.5620   -0.9954 C   0  0  0  0  0  0  0  0  0  0  0  0
   -7.6842   -1.2430   -1.8548 O   0  0  0  0  0  0  0  0  0  0  0  0
   -6.5646   -0.5334   -2.3740 C   0  0  0  0  0  0  0  0  0  0  0  0
   -5.5851   -0.4550   -1.2585 C   0  0  0  0  0  0  0  0  0  0  0  0
   -5.1563   -1.5574   -0.7914 O   0  0  0  0  0  0  0  0  0  0  0  0
   -4.5183    0.4804   -1.2356 N   0  0  0  0  0  0  0  0  0  0  0  0
   -4.0399    0.8755    0.2456 C   0  0  1  0  0  0  0  0  0  0  0  0
   -4.0278   -0.7139    0.7850 C   0  0  0  0  0  0  0  0  0  0  0  0
   -2.8951   -0.7685    1.7684 C   0  0  0  0  0  0  0  0  0  0  0  0
   -3.4322   -1.1552    3.1391 C   0  0  0  0  0  0  0  0  0  0  0  0
   -1.9971   -1.9149    1.3128 C   0  0  0  0  0  0  0  0  0  0  0  0
   -2.4509    0.7897   -0.1450 C   0  0  0  0  0  0  0  0  0  0  0  0
   -2.1532    1.1861   -1.2975 O   0  0  0  0  0  0  0  0  0  0  0  0
   -1.7711    1.7108    0.7297 N   0  0  0  0  0  0  0  0  0  0  0  0
   -0.1818    1.4869    0.7514 C   0  0  1  0  0  0  0  0  0  0  0  0
   -0.0663    1.0139   -0.8586 C   0  0  0  0  0  0  0  0  0  0  0  0
    1.1901    0.2035   -0.8808 C   0  0  0  0  0  0  0  0  0  0  0  0
    1.6037   -0.5490    0.1899 C   0  0  0  0  0  0  0  0  0  0  0  0
    2.9033   -1.0342    0.2539 C   0  0  0  0  0  0  0  0  0  0  0  0
    3.7774   -0.5414   -0.7031 C   0  0  0  0  0  0  0  0  0  0  0  0
    5.1494   -0.6241   -0.4431 O   0  0  0  0  0  0  0  0  0  0  0  0
    5.7798    0.2701    0.4106 C   0  0  0  0  0  0  0  0  0  0  0  0
    5.1219    1.2895    0.7571 O   0  0  0  0  0  0  0  0  0  0  0  0
    7.0696    0.0215    0.9751 N   0  0  0  0  0  0  0  0  0  0  0  0
    8.1580    0.9762    0.7942 C   0  0  0  0  0  0  0  0  0  0  0  0
    9.4479    0.1740    0.8517 C   0  0  0  0  0  0  0  0  0  0  0  0
    9.3588   -0.9553   -0.1667 C   0  0  0  0  0  0  0  0  0  0  0  0
   10.6415   -1.6765   -0.2037 C   0  0  0  0  0  0  0  0  0  0  0  0
   10.6643   -3.0421   -0.5302 N   0  0  0  0  0  0  0  0  0  0  0  0
   11.6890   -1.1402    0.2000 O   0  0  0  0  0  0  0  0  0  0  0  0
    8.2762   -1.9124    0.2559 C   0  0  0  0  0  0  0  0  0  0  0  0
    7.4460   -1.3315    1.3779 C   0  0  0  0  0  0  0  0  0  0  0  0
    3.3096   -0.0141   -1.9023 C   0  0  0  0  0  0  0  0  0  0  0  0
    1.9615    0.2927   -2.0314 C   0  0  0  0  0  0  0  0  0  0  0  0
    0.1032    3.0676    0.4139 C   0  0  0  0  0  0  0  0  0  0  0  0
    0.5800    3.7055    1.3739 O   0  0  0  0  0  0  0  0  0  0  0  0
   -0.2242    3.5330   -0.8067 O   0  0  0  0  0  0  0  0  0  0  0  0
  1  2  1  0
  2  3  2  0
  3  4  1  0
  4  5  2  0
  5  6  1  0
  6  7  2  0
  7  8  1  0
  8  9  1  0
  9 10  1  0
 10 11  2  0
 10 12  1  0
 13 12  1  6
 13 14  1  0
 14 15  1  0
 15 16  1  0
 15 17  1  0
 13 18  1  0
 18 19  2  0
 18 20  1  0
 21 20  1  6
 21 22  1  0
 22 23  1  0
 23 24  2  0
 24 25  1  0
 25 26  2  0
 26 27  1  0
 27 28  1  0
 28 29  2  0
 28 30  1  0
 30 31  1  0
 31 32  1  0
 32 33  1  0
 33 34  1  0
 34 35  1  0
 34 36  2  0
 33 37  1  0
 37 38  1  0
 26 39  1  0
 39 40  2  0
 21 41  1  0
 41 42  2  0
 41 43  1  0
  7  2  1  0
 40 23  1  0
 38 30  1  0
M  END
>  <zinc_id>  (1) 
ZINC000003976535

>  <smiles>  (1) 
Cc1ccccc1OCC(=O)N[C@@H](CC(C)C)C(=O)N[C@@H](Cc1ccc(OC(=O)N2CCC(C(N)=O)CC2)cc1)C(=O)O

$$$$
