
     RDKit          3D

 30 30  0  0  0  0  0  0  0  0999 V2000
   -5.0615    2.3243   -0.1943 C   0  0  0  0  0  0  0  0  0  0  0  0
   -5.6589    2.1833   -0.4781 C   0  0  0  0  0  0  0  0  0  0  0  0
   -6.9021    2.8966    0.0144 C   0  0  0  0  0  0  0  0  0  0  0  0
   -5.9618    0.7015   -0.6643 C   0  0  0  0  0  0  0  0  0  0  0  0
   -4.8037    0.0062   -1.3174 C   0  0  0  0  0  0  0  0  0  0  0  0
   -3.5738    0.0091   -0.4956 C   0  0  0  0  0  0  0  0  0  0  0  0
   -3.1726   -0.9945    0.1754 O   0  0  0  0  0  0  0  0  0  0  0  0
   -2.4293    0.7457   -0.8459 N   0  0  0  0  0  0  0  0  0  0  0  0
   -1.6150    1.4175    0.3466 C   0  0  2  0  0  0  0  0  0  0  0  0
   -0.2639    0.5614    0.0646 C   0  0  0  0  0  0  0  0  0  0  0  0
    0.7488    1.0174    0.6830 O   0  0  0  0  0  0  0  0  0  0  0  0
    0.0514    0.2737   -1.2657 N   0  0  0  0  0  0  0  0  0  0  0  0
    1.1823   -0.8229   -1.4688 C   0  0  1  0  0  0  0  0  0  0  0  0
    2.1993   -0.1469   -0.3393 C   0  0  0  0  0  0  0  0  0  0  0  0
    3.1913    0.5957   -1.2287 C   0  0  0  0  0  0  0  0  0  0  0  0
    4.4422    0.8428   -0.4227 C   0  0  0  0  0  0  0  0  0  0  0  0
    4.5698    2.2711   -0.1845 N   0  0  0  0  0  0  0  0  0  0  0  0
    5.9692    2.6787   -0.0868 C   0  0  0  0  0  0  0  0  0  0  0  0
    6.7315    1.5574    0.4373 N   0  0  0  0  0  0  0  0  0  0  0  0
    6.4488    3.0446   -1.3933 N   0  0  0  0  0  0  0  0  0  0  0  0
    0.5180   -1.8467   -0.3827 C   0  0  0  0  0  0  0  0  0  0  0  0
   -0.5509   -2.2702   -0.9233 O   0  0  0  0  0  0  0  0  0  0  0  0
    1.4928   -2.7807    0.2030 C   0  0  0  0  0  0  0  0  0  0  0  0
    1.4270   -4.1230    0.0145 N   0  0  0  0  0  0  0  0  0  0  0  0
    2.4552   -4.7545    0.5770 C   0  0  0  0  0  0  0  0  0  0  0  0
    2.5974   -4.4006    1.9155 C   0  0  0  0  0  0  0  0  0  0  0  0
    2.1144   -2.7543    1.8058 S   0  0  0  0  0  0  0  0  0  0  0  0
   -2.0969    0.3368    1.5248 C   0  0  0  0  0  0  0  0  0  0  0  0
   -3.1403    1.1418    2.3031 C   0  0  0  0  0  0  0  0  0  0  0  0
   -0.9086    0.2883    2.4787 C   0  0  0  0  0  0  0  0  0  0  0  0
  1  2  1  0
  2  3  1  0
  2  4  1  0
  4  5  1  0
  5  6  1  0
  6  7  2  0
  6  8  1  0
  9  8  1  6
  9 10  1  0
 10 11  2  0
 10 12  1  0
 13 12  1  1
 13 14  1  0
 14 15  1  0
 15 16  1  0
 16 17  1  0
 17 18  1  0
 18 19  1  0
 18 20  1  0
 13 21  1  0
 21 22  2  0
 21 23  1  0
 23 24  2  0
 24 25  1  0
 25 26  2  0
 26 27  1  0
  9 28  1  0
 28 29  1  0
 28 30  1  0
 27 23  1  0
M  END
>  <zinc_id>  (1) 
ZINC000038190858

>  <smiles>  (1) 
CC(C)CCC(=O)N[C@H](C(=O)N[C@@H](CCCNC(N)N)C(=O)c1nccs1)C(C)C

$$$$
