
     RDKit          3D

 41 41  0  0  0  0  0  0  0  0999 V2000
   12.1334   -0.1733    2.0185 C   0  0  0  0  0  0  0  0  0  0  0  0
   10.7609    0.0479    1.9083 C   0  0  0  0  0  0  0  0  0  0  0  0
   10.1741   -0.5268    0.6240 C   0  0  0  0  0  0  0  0  0  0  0  0
   10.5568    0.3564   -0.5315 C   0  0  0  0  0  0  0  0  0  0  0  0
   10.1511   -0.3290   -1.8256 C   0  0  0  0  0  0  0  0  0  0  0  0
    9.4125    0.6409   -2.7099 C   0  0  0  0  0  0  0  0  0  0  0  0
    8.2356   -0.0360   -3.3592 C   0  0  0  0  0  0  0  0  0  0  0  0
    7.4713   -0.8196   -2.3198 C   0  0  0  0  0  0  0  0  0  0  0  0
    6.0579   -0.2852   -2.2519 C   0  0  0  0  0  0  0  0  0  0  0  0
    6.0554    0.8986   -1.3186 C   0  0  0  0  0  0  0  0  0  0  0  0
    5.2797    0.6343   -0.0552 C   0  0  0  0  0  0  0  0  0  0  0  0
    3.8634    1.1474   -0.2564 C   0  0  0  0  0  0  0  0  0  0  0  0
    3.0780    0.0114   -0.8493 C   0  0  0  0  0  0  0  0  0  0  0  0
    2.3043    0.3442   -2.0683 C   0  0  0  0  0  0  0  0  0  0  0  0
    0.8815   -0.0892   -2.0859 C   0  0  0  0  0  0  0  0  0  0  0  0
    0.6209   -1.3300   -1.2985 C   0  0  0  0  0  0  0  0  0  0  0  0
    1.2075   -1.5753   -0.2005 O   0  0  0  0  0  0  0  0  0  0  0  0
   -0.4894   -2.1885   -1.5571 N   0  0  0  0  0  0  0  0  0  0  0  0
   -1.3885   -2.6717   -0.5242 C   0  0  0  0  0  0  0  0  0  0  0  0
   -1.8845   -1.5958    0.3598 C   0  0  0  0  0  0  0  0  0  0  0  0
   -1.2178   -1.3480    1.3930 O   0  0  0  0  0  0  0  0  0  0  0  0
   -2.8383   -0.6028   -0.0386 N   0  0  0  0  0  0  0  0  0  0  0  0
   -2.2860    0.8941    0.1767 C   0  0  1  0  0  0  0  0  0  0  0  0
   -3.0309    1.4099   -1.2336 C   0  0  0  0  0  0  0  0  0  0  0  0
   -4.4411    1.0422   -1.0963 C   0  0  0  0  0  0  0  0  0  0  0  0
   -5.4213    2.0286   -1.0408 C   0  0  0  0  0  0  0  0  0  0  0  0
   -6.6161    1.5322   -1.3587 N   0  0  0  0  0  0  0  0  0  0  0  0
   -6.4513    0.2254   -1.5547 C   0  0  0  0  0  0  0  0  0  0  0  0
   -5.1345   -0.0578   -1.4755 N   0  0  0  0  0  0  0  0  0  0  0  0
   -3.5378    1.4071    1.1081 C   0  0  0  0  0  0  0  0  0  0  0  0
   -3.0362    2.2801    1.8812 O   0  0  0  0  0  0  0  0  0  0  0  0
   -4.4229    0.4722    1.5908 N   0  0  0  0  0  0  0  0  0  0  0  0
   -4.9803    0.7364    3.0673 C   0  0  1  0  0  0  0  0  0  0  0  0
   -6.3602   -0.1592    2.7401 C   0  0  0  0  0  0  0  0  0  0  0  0
   -7.1810    0.8516    1.9682 C   0  0  0  0  0  0  0  0  0  0  0  0
   -7.4011    0.4652    0.5324 C   0  0  0  0  0  0  0  0  0  0  0  0
   -8.8106   -0.0696    0.3518 C   0  0  0  0  0  0  0  0  0  0  0  0
   -9.4358    0.4494   -0.8616 N   0  0  0  0  0  0  0  0  0  0  0  0
   -4.1982   -0.5929    3.6396 C   0  0  0  0  0  0  0  0  0  0  0  0
   -4.8063   -1.0263    4.6664 O   0  0  0  0  0  0  0  0  0  0  0  0
   -2.8740   -0.2283    3.8455 O   0  0  0  0  0  0  0  0  0  0  0  0
  1  2  1  0
  2  3  1  0
  3  4  1  0
  4  5  1  0
  5  6  1  0
  6  7  1  0
  7  8  1  0
  8  9  1  0
  9 10  1  0
 10 11  1  0
 11 12  1  0
 12 13  1  0
 13 14  1  0
 14 15  1  0
 15 16  1  0
 16 17  2  0
 16 18  1  0
 18 19  1  0
 19 20  1  0
 20 21  2  0
 20 22  1  0
 23 22  1  6
 23 24  1  0
 24 25  1  0
 25 26  2  0
 26 27  1  0
 27 28  1  0
 28 29  2  0
 23 30  1  0
 30 31  2  0
 30 32  1  0
 33 32  1  6
 33 34  1  0
 34 35  1  0
 35 36  1  0
 36 37  1  0
 37 38  1  0
 33 39  1  0
 39 40  2  0
 39 41  1  0
 29 25  1  0
M  END
>  <zinc_id>  (1) 
ZINC000113569616

>  <smiles>  (1) 
CCCCCCCCCCCCCCCC(=O)NCC(=O)N[C@@H](Cc1c[nH]cn1)C(=O)N[C@@H](CCCCN)C(=O)O

$$$$
