
  Mrv1909 01132020012D          

 74 78  0  0  0  0            999 V2000
   -3.3425    0.0000    0.0000 C   0  0  0  0  0  0  0  0  0  0  0  0
   -3.7550    0.7145    0.0000 C   0  0  0  0  0  0  0  0  0  0  0  0
   -2.5175    0.0000    0.0000 C   0  0  2  0  0  0  0  0  0  0  0  0
   -4.5755    0.8007    0.0000 C   0  0  0  0  0  0  0  0  0  0  0  0
   -3.4195    1.4681    0.0000 C   0  0  0  0  0  0  0  0  0  0  0  0
   -2.1050   -0.7144    0.0000 N   0  0  0  0  0  0  0  0  0  0  0  0
   -2.1050    0.7145    0.0000 C   0  0  0  0  0  0  0  0  0  0  0  0
   -4.7470    1.6077    0.0000 C   0  0  0  0  0  0  0  0  0  0  0  0
   -5.1886    0.2486    0.0000 C   0  0  0  0  0  0  0  0  0  0  0  0
   -4.0326    2.0202    0.0000 N   0  0  0  0  0  0  0  0  0  0  0  0
   -1.2800    0.7145    0.0000 O   0  0  0  0  0  0  0  0  0  0  0  0
   -2.5175    1.4289    0.0000 N   0  0  0  0  0  0  0  0  0  0  0  0
   -5.5317    1.8626    0.0000 C   0  0  0  0  0  0  0  0  0  0  0  0
   -5.9732    0.5035    0.0000 C   0  0  0  0  0  0  0  0  0  0  0  0
   -0.8675    0.0000    0.0000 O   0  0  0  0  0  0  0  0  0  0  0  0
   -0.8675   -1.4289    0.0000 C   0  0  2  0  0  0  0  0  0  0  0  0
   -2.1050    2.1433    0.0000 C   0  0  1  0  0  0  0  0  0  0  0  0
   -6.1448    1.3105    0.0000 C   0  0  0  0  0  0  0  0  0  0  0  0
   -1.2800   -2.1433    0.0000 C   0  0  0  0  0  0  0  0  0  0  0  0
   -0.0425   -1.4289    0.0000 N   0  0  0  0  0  0  0  0  0  0  0  0
   -2.2232    2.9645    0.0000 C   0  0  0  0  0  0  0  0  0  0  0  0
   -2.1050   -2.1433    0.0000 C   0  0  0  0  0  0  0  0  0  0  0  0
    0.3699   -2.1433    0.0000 C   0  0  0  0  0  0  0  0  0  0  0  0
   -0.8439    1.1492    0.0000 O   0  0  0  0  0  0  0  0  0  0  0  0
   -0.4139    2.4727    0.0000 O   0  0  0  0  0  0  0  0  0  0  0  0
   -1.5087    3.3770    0.0000 C   0  0  0  0  0  0  0  0  0  0  0  0
   -2.5175   -1.4289    0.0000 C   0  0  0  0  0  0  0  0  0  0  0  0
   -0.0425   -2.8579    0.0000 O   0  0  0  0  0  0  0  0  0  0  0  0
    1.1949   -2.1433    0.0000 C   0  0  1  0  0  0  0  0  0  0  0  0
   -0.8675    2.8579    0.0000 C   0  0  0  0  0  0  0  0  0  0  0  0
   -3.3425   -1.4289    0.0000 N   0  0  0  0  0  0  0  0  0  0  0  0
    1.6074   -2.8579    0.0000 C   0  0  0  0  0  0  0  0  0  0  0  0
    1.6074   -1.4289    0.0000 N   0  0  0  0  0  0  0  0  0  0  0  0
   -0.0425    2.8579    0.0000 C   0  0  0  0  0  0  0  0  0  0  0  0
   -3.7550   -2.1433    0.0000 C   0  0  0  0  0  0  0  0  0  0  0  0
    1.1949   -3.5723    0.0000 C   0  0  0  0  0  0  0  0  0  0  0  0
    2.4324   -1.4289    0.0000 C   0  0  0  0  0  0  0  0  0  0  0  0
    0.3699    2.1433    0.0000 N   0  0  0  0  0  0  0  0  0  0  0  0
   -3.3425   -2.8579    0.0000 N   0  0  0  0  0  0  0  0  0  0  0  0
   -4.5800   -2.1433    0.0000 N   0  0  0  0  0  0  0  0  0  0  0  0
    1.6074   -4.2867    0.0000 C   0  0  0  0  0  0  0  0  0  0  0  0
    0.3699   -3.5723    0.0000 C   0  0  0  0  0  0  0  0  0  0  0  0
    2.8449   -2.1433    0.0000 O   0  0  0  0  0  0  0  0  0  0  0  0
    2.8449   -0.7144    0.0000 C   0  0  2  0  0  0  0  0  0  0  0  0
    1.1949    2.1433    0.0000 C   0  0  0  0  0  0  0  0  0  0  0  0
    1.1949   -5.0013    0.0000 C   0  0  0  0  0  0  0  0  0  0  0  0
   -0.0425   -4.2867    0.0000 C   0  0  0  0  0  0  0  0  0  0  0  0
    3.6699   -0.7144    0.0000 C   0  0  0  0  0  0  0  0  0  0  0  0
    2.4324    0.0000    0.0000 N   0  0  0  0  0  0  0  0  0  0  0  0
    1.6074    2.8579    0.0000 O   0  0  0  0  0  0  0  0  0  0  0  0
    1.6074    1.4289    0.0000 C   0  0  0  0  0  0  0  0  0  0  0  0
    0.3699   -5.0013    0.0000 C   0  0  0  0  0  0  0  0  0  0  0  0
    4.0824   -1.4289    0.0000 C   0  0  0  0  0  0  0  0  0  0  0  0
    2.8449    0.7145    0.0000 C   0  0  0  0  0  0  0  0  0  0  0  0
    2.4324    1.4289    0.0000 C   0  0  1  0  0  0  0  0  0  0  0  0
    4.9028   -1.5152    0.0000 C   0  0  0  0  0  0  0  0  0  0  0  0
    3.7468   -2.1825    0.0000 N   0  0  0  0  0  0  0  0  0  0  0  0
    3.6699    0.7145    0.0000 O   0  0  0  0  0  0  0  0  0  0  0  0
    2.8449    2.1433    0.0000 N   0  0  0  0  0  0  0  0  0  0  0  0
    5.0744   -2.3220    0.0000 N   0  0  0  0  0  0  0  0  0  0  0  0
    4.3599   -2.7346    0.0000 C   0  0  0  0  0  0  0  0  0  0  0  0
    3.6699    2.1433    0.0000 C   0  0  0  0  0  0  0  0  0  0  0  0
    4.0824    2.8579    0.0000 C   0  0  2  0  0  0  0  0  0  0  0  0
    4.0824    1.4289    0.0000 O   0  0  0  0  0  0  0  0  0  0  0  0
    3.6699    3.5723    0.0000 C   0  0  0  0  0  0  0  0  0  0  0  0
    4.9073    2.8579    0.0000 N   0  0  0  0  0  0  0  0  0  0  0  0
    4.0824    4.2867    0.0000 C   0  0  0  0  0  0  0  0  0  0  0  0
    5.3198    2.1433    0.0000 C   0  0  0  0  0  0  0  0  0  0  0  0
    4.9073    4.2867    0.0000 C   0  0  0  0  0  0  0  0  0  0  0  0
    4.9073    1.4289    0.0000 C   0  0  0  0  0  0  0  0  0  0  0  0
    6.1448    2.1433    0.0000 O   0  0  0  0  0  0  0  0  0  0  0  0
    5.3198    5.0012    0.0000 C   0  0  0  0  0  0  0  0  0  0  0  0
   -1.0505    1.9479    0.0000 C   0  0  0  0  0  0  0  0  0  0  0  0
   -1.2800   -0.7144    0.0000 C   0  0  0  0  0  0  0  0  0  0  0  0
  1  2  1  0  0  0  0
  2  4  1  0  0  0  0
  2  5  2  0  0  0  0
  3  1  1  1  0  0  0
  3  6  1  0  0  0  0
  3  7  1  0  0  0  0
  4  8  1  0  0  0  0
  4  9  2  0  0  0  0
  5 10  1  0  0  0  0
  6 74  1  0  0  0  0
  7 11  2  0  0  0  0
  7 12  1  0  0  0  0
  8 10  1  0  0  0  0
  8 13  2  0  0  0  0
  9 14  1  0  0  0  0
 74 15  2  0  0  0  0
 74 16  1  0  0  0  0
 12 17  1  0  0  0  0
 13 18  1  0  0  0  0
 14 18  2  0  0  0  0
 16 19  1  1  0  0  0
 16 20  1  0  0  0  0
 17 73  1  1  0  0  0
 17 21  1  0  0  0  0
 19 22  1  0  0  0  0
 20 23  1  0  0  0  0
 73 24  1  0  0  0  0
 73 25  2  0  0  0  0
 21 26  1  0  0  0  0
 22 27  1  0  0  0  0
 23 28  2  0  0  0  0
 23 29  1  0  0  0  0
 26 30  1  0  0  0  0
 27 31  1  0  0  0  0
 29 32  1  6  0  0  0
 29 33  1  0  0  0  0
 30 34  1  0  0  0  0
 31 35  1  0  0  0  0
 32 36  1  0  0  0  0
 33 37  1  0  0  0  0
 34 38  1  0  0  0  0
 35 39  2  0  0  0  0
 35 40  1  0  0  0  0
 36 41  2  0  0  0  0
 36 42  1  0  0  0  0
 37 43  2  0  0  0  0
 37 44  1  0  0  0  0
 38 45  1  0  0  0  0
 41 46  1  0  0  0  0
 42 47  2  0  0  0  0
 44 48  1  1  0  0  0
 44 49  1  0  0  0  0
 45 50  2  0  0  0  0
 45 51  1  0  0  0  0
 46 52  2  0  0  0  0
 47 52  1  0  0  0  0
 48 53  1  0  0  0  0
 49 54  1  0  0  0  0
 51 55  1  0  0  0  0
 53 56  2  0  0  0  0
 53 57  1  0  0  0  0
 54 55  1  0  0  0  0
 54 58  2  0  0  0  0
 55 59  1  6  0  0  0
 56 60  1  0  0  0  0
 57 61  1  0  0  0  0
 59 62  1  0  0  0  0
 60 61  2  0  0  0  0
 62 63  1  0  0  0  0
 62 64  2  0  0  0  0
 63 65  1  0  0  0  0
 63 66  1  6  0  0  0
 65 67  1  0  0  0  0
 66 68  1  0  0  0  0
 67 69  1  0  0  0  0
 68 70  1  0  0  0  0
 68 71  2  0  0  0  0
 69 72  1  0  0  0  0
M  END
> <DATABASE_ID>
DB11653

> <DATABASE_NAME>
drugbank

> <SMILES>
CCCC[C@H](NC(C)=O)C(=O)N[C@H]1CC(=O)NCCCC[C@H](NC(=O)[C@H](CC2=CNC3=CC=CC=C23)NC(=O)[C@H](CCCNC(N)=N)NC(=O)[C@@H](CC2=CC=CC=C2)NC(=O)[C@H](CC2=CN=CN2)NC1=O)C(O)=O

> <INCHI_IDENTIFIER>
InChI=1S/C50H68N14O10/c1-3-4-16-35(58-29(2)65)43(67)64-41-25-42(66)54-20-11-10-18-37(49(73)74)60-46(70)39(23-31-26-56-34-17-9-8-15-33(31)34)62-44(68)36(19-12-21-55-50(51)52)59-45(69)38(22-30-13-6-5-7-14-30)61-47(71)40(63-48(41)72)24-32-27-53-28-57-32/h5-9,13-15,17,26-28,35-41,56H,3-4,10-12,16,18-25H2,1-2H3,(H,53,57)(H,54,66)(H,58,65)(H,59,69)(H,60,70)(H,61,71)(H,62,68)(H,63,72)(H,64,67)(H,73,74)(H4,51,52,55)/t35-,36-,37-,38+,39-,40-,41-/m0/s1

> <INCHI_KEY>
FFHBJDQSGDNCIV-MFVUMRCOSA-N

> <FORMULA>
C50H68N14O10

> <MOLECULAR_WEIGHT>
1025.182

> <EXACT_MASS>
1024.524284446

> <JCHEM_ACCEPTOR_COUNT>
14

> <JCHEM_ATOM_COUNT>
142

> <JCHEM_AVERAGE_NEUTRAL_MICROSPECIES_CHARGE>
0.3568382947491015

> <JCHEM_AVERAGE_POLARIZABILITY>
106.06036103651593

> <JCHEM_BIOAVAILABILITY>
0

> <JCHEM_DONOR_COUNT>
14

> <JCHEM_FORMAL_CHARGE>
0

> <JCHEM_GHOSE_FILTER>
0

> <JCHEM_IUPAC>
(3S,6S,9R,12S,15S,23S)-9-benzyl-6-(3-carbamimidamidopropyl)-15-[(2S)-2-acetamidohexanamido]-12-[(1H-imidazol-5-yl)methyl]-3-[(1H-indol-3-yl)methyl]-2,5,8,11,14,17-hexaoxo-1,4,7,10,13,18-hexaazacyclotricosane-23-carboxylic acid

> <ALOGPS_LOGP>
0.69

> <JCHEM_LOGP>
-3.2164795193674687

> <ALOGPS_LOGS>
-4.61

> <JCHEM_MDDR_LIKE_RULE>
1

> <JCHEM_NEUTRAL_CHARGE>
1

> <JCHEM_NUMBER_OF_RINGS>
5

> <JCHEM_PHYSIOLOGICAL_CHARGE>
0

> <JCHEM_PKA>
11.496030366742179

> <JCHEM_PKA_STRONGEST_ACIDIC>
3.446294115791276

> <JCHEM_PKA_STRONGEST_BASIC>
11.9550014662974

> <JCHEM_POLAR_SURFACE_AREA>
376.46999999999997

> <JCHEM_REFRACTIVITY>
278.91120000000006

> <JCHEM_ROTATABLE_BOND_COUNT>
17

> <JCHEM_RULE_OF_FIVE>
0

> <ALOGPS_SOLUBILITY>
2.51e-02 g/l

> <JCHEM_TRADITIONAL_IUPAC>
incyclinide

> <JCHEM_VEBER_RULE>
0

> <DRUGBANK_ID>
DB11653

> <DRUG_GROUPS>
approved; investigational

> <GENERIC_NAME>
Bremelanotide

> <SYNONYMS>
Bremelanotida; Bremelanotide; BrÃ©melanotide; Bremelanotidum

> <PRODUCTS>
Vyleesi

> <SALTS>
Bremelanotide acetate

$$$$
