
     RDKit          3D

 46 47  0  0  0  0  0  0  0  0999 V2000
    0.2122   -2.3951    1.7450 C   0  0  0  0  0  0  0  0  0  0  0  0
    1.4021   -2.5694    1.3732 C   0  0  0  0  0  0  0  0  0  0  0  0
    1.9077   -3.7940    0.9547 C   0  0  0  0  0  0  0  0  0  0  0  0
    3.2721   -3.9807    0.7598 C   0  0  0  0  0  0  0  0  0  0  0  0
    3.7259   -4.9806   -0.1086 O   0  0  0  0  0  0  0  0  0  0  0  0
    4.1640   -3.0176    1.2244 C   0  0  0  0  0  0  0  0  0  0  0  0
    3.6683   -1.7596    1.5395 C   0  0  0  0  0  0  0  0  0  0  0  0
    4.4947   -0.7097    2.2088 C   0  0  0  0  0  0  0  0  0  0  0  0
    2.3151   -1.5210    1.3249 C   0  0  0  0  0  0  0  0  0  0  0  0
    1.8137   -0.1407    1.1334 C   0  0  0  0  0  0  0  0  0  0  0  0
    1.6833    0.0093   -0.5366 C   0  0  2  0  0  0  0  0  0  0  0  0
    2.4958    1.3949   -0.5240 N   0  0  0  0  0  0  0  0  0  0  0  0
    3.5573    1.4395   -1.4931 C   0  0  0  0  0  0  0  0  0  0  0  0
    3.5484    0.5552   -2.3958 O   0  0  0  0  0  0  0  0  0  0  0  0
    5.0391    1.5928   -0.7937 C   0  0  2  0  0  0  0  0  0  0  0  0
    4.8683    3.1831   -0.6768 N   0  0  0  0  0  0  0  0  0  0  0  0
    5.8071    1.7476   -2.2742 C   0  0  0  0  0  0  0  0  0  0  0  0
    6.2325    0.3128   -2.4651 C   0  0  0  0  0  0  0  0  0  0  0  0
    7.1408   -0.1924   -1.3840 C   0  0  0  0  0  0  0  0  0  0  0  0
    7.9972    0.8209   -0.8238 N   0  0  0  0  0  0  0  0  0  0  0  0
    8.4139    0.6777    0.5164 C   0  0  0  0  0  0  0  0  0  0  0  0
    8.7112   -0.4797    0.9949 N   0  0  0  0  0  0  0  0  0  0  0  0
    8.8247    1.8100    1.2582 N   0  0  0  0  0  0  0  0  0  0  0  0
    0.2437    0.7860   -0.4815 C   0  0  0  0  0  0  0  0  0  0  0  0
   -0.1156    1.2886    0.5596 O   0  0  0  0  0  0  0  0  0  0  0  0
   -0.7621    0.3754   -1.3587 N   0  0  0  0  0  0  0  0  0  0  0  0
   -1.8948   -0.5684   -0.7193 C   0  0  1  0  0  0  0  0  0  0  0  0
   -2.0747    0.3739    0.6621 C   0  0  0  0  0  0  0  0  0  0  0  0
   -2.0660   -0.7631    1.6885 C   0  0  0  0  0  0  0  0  0  0  0  0
   -2.7444   -0.3897    2.9693 C   0  0  0  0  0  0  0  0  0  0  0  0
   -1.9379    0.6628    3.7229 C   0  0  0  0  0  0  0  0  0  0  0  0
   -2.3269    1.9387    3.1168 N   0  0  0  0  0  0  0  0  0  0  0  0
   -3.0757    0.1760   -1.5804 C   0  0  0  0  0  0  0  0  0  0  0  0
   -3.7133   -0.7541   -2.1676 O   0  0  0  0  0  0  0  0  0  0  0  0
   -3.7531    1.2402   -1.0537 N   0  0  0  0  0  0  0  0  0  0  0  0
   -5.3208    1.2899   -1.3911 C   0  0  1  0  0  0  0  0  0  0  0  0
   -5.6869    0.2355   -0.1410 C   0  0  0  0  0  0  0  0  0  0  0  0
   -7.1533    0.0877   -0.1925 C   0  0  0  0  0  0  0  0  0  0  0  0
   -7.8375    0.4581    0.9598 C   0  0  0  0  0  0  0  0  0  0  0  0
   -9.1499    0.1215    1.1337 C   0  0  0  0  0  0  0  0  0  0  0  0
   -9.6415   -0.9275    0.3750 C   0  0  0  0  0  0  0  0  0  0  0  0
   -8.8904   -1.5577   -0.6102 C   0  0  0  0  0  0  0  0  0  0  0  0
   -7.6348   -1.0361   -0.8556 C   0  0  0  0  0  0  0  0  0  0  0  0
   -5.5363    2.6205   -0.4515 C   0  0  0  0  0  0  0  0  0  0  0  0
   -5.1865    3.7800   -1.2233 N   0  0  0  0  0  0  0  0  0  0  0  0
   -5.0370    2.5585    0.6835 O   0  0  0  0  0  0  0  0  0  0  0  0
  1  2  1  0
  2  3  2  0
  3  4  1  0
  4  5  1  0
  4  6  2  0
  6  7  1  0
  7  8  1  0
  7  9  2  0
  9 10  1  0
 11 10  1  1
 11 12  1  0
 12 13  1  0
 13 14  2  0
 15 13  1  6
 15 16  1  0
 15 17  1  0
 17 18  1  0
 18 19  1  0
 19 20  1  0
 20 21  1  0
 21 22  2  0
 21 23  1  0
 11 24  1  0
 24 25  2  0
 24 26  1  0
 27 26  1  6
 27 28  1  0
 28 29  1  0
 29 30  1  0
 30 31  1  0
 31 32  1  0
 27 33  1  0
 33 34  2  0
 33 35  1  0
 36 35  1  1
 36 37  1  0
 37 38  1  0
 38 39  2  0
 39 40  1  0
 40 41  2  0
 41 42  1  0
 42 43  2  0
 36 44  1  0
 44 45  1  0
 44 46  2  0
  9  2  1  0
 43 38  1  0
M  END
>  <zinc_id>  (1) 
ZINC000043130902

>  <smiles>  (1) 
Cc1cc(O)cc(C)c1C[C@H](NC(=O)[C@H](N)CCCNC(=N)N)C(=O)N[C@@H](CCCCN)C(=O)N[C@@H](Cc1ccccc1)C(N)=O

$$$$
