
     RDKit          3D

 58 60  0  0  0  0  0  0  0  0999 V2000
    0.5497    5.6423    2.1003 C   0  0  0  0  0  0  0  0  0  0  0  0
    0.9148    4.6826    1.1424 C   0  0  0  0  0  0  0  0  0  0  0  0
    0.9398    3.2270    1.8299 C   0  0  1  0  0  0  0  0  0  0  0  0
   -0.4039    3.4803    2.7093 C   0  0  0  0  0  0  0  0  0  0  0  0
    0.0105    2.3301    0.7047 C   0  0  2  0  0  0  0  0  0  0  0  0
    1.1225    2.1687   -0.3775 N   0  0  0  0  0  0  0  0  0  0  0  0
    2.0999    1.1464   -0.0754 C   0  0  0  0  0  0  0  0  0  0  0  0
    2.0259    0.3643   -0.9335 O   0  0  0  0  0  0  0  0  0  0  0  0
    3.0787    2.2642    0.4455 C   0  0  2  0  0  0  0  0  0  0  0  0
    4.1773    2.4384   -0.8764 C   0  0  1  0  0  0  0  0  0  0  0  0
    3.9097    1.0993   -1.7185 C   0  0  0  0  0  0  0  0  0  0  0  0
    3.1321    3.3239   -1.7376 C   0  0  0  0  0  0  0  0  0  0  0  0
    3.1775    2.9631   -3.1659 C   0  0  0  0  0  0  0  0  0  0  0  0
    4.1237    1.3637    1.2036 N   0  0  0  0  0  0  0  0  0  0  0  0
    3.5443    0.5591    2.2463 C   0  0  0  0  0  0  0  0  0  0  0  0
    4.1291    0.3439    3.3020 O   0  0  0  0  0  0  0  0  0  0  0  0
    3.1887   -0.6897    1.2918 C   0  0  1  0  0  0  0  0  0  0  0  0
    4.7465   -1.2188    1.3248 C   0  0  0  0  0  0  0  0  0  0  0  0
    4.7720   -2.5134    0.6460 C   0  0  0  0  0  0  0  0  0  0  0  0
    4.8019   -3.7251    1.3095 C   0  0  0  0  0  0  0  0  0  0  0  0
    5.6128   -4.5736    0.6336 N   0  0  0  0  0  0  0  0  0  0  0  0
    6.0616   -3.9834   -0.4964 C   0  0  0  0  0  0  0  0  0  0  0  0
    7.0052   -4.3290   -1.4503 C   0  0  0  0  0  0  0  0  0  0  0  0
    7.2984   -3.3617   -2.3865 C   0  0  0  0  0  0  0  0  0  0  0  0
    6.3561   -2.3999   -2.7153 C   0  0  0  0  0  0  0  0  0  0  0  0
    5.5044   -1.9913   -1.6960 C   0  0  0  0  0  0  0  0  0  0  0  0
    5.4335   -2.7569   -0.5421 C   0  0  0  0  0  0  0  0  0  0  0  0
    2.7691   -1.6407    2.4770 N   0  0  0  0  0  0  0  0  0  0  0  0
    1.7265   -2.5549    2.1506 C   0  0  0  0  0  0  0  0  0  0  0  0
    1.4998   -3.4675    2.9936 O   0  0  0  0  0  0  0  0  0  0  0  0
    0.6494   -2.1945    1.2206 C   0  0  0  0  0  0  0  0  0  0  0  0
    0.9546   -2.5129   -0.2152 C   0  0  0  0  0  0  0  0  0  0  0  0
   -0.2619   -1.6104   -1.2290 S   0  0  0  0  0  0  0  0  0  0  0  0
   -1.9206   -2.0743   -0.6382 C   0  0  0  0  0  0  0  0  0  0  0  0
   -2.4867   -1.0032    0.2893 C   0  0  0  0  0  0  0  0  0  0  0  0
   -2.8905    0.1451   -0.8221 C   0  0  1  0  0  0  0  0  0  0  0  0
   -3.9653   -0.8369   -1.5151 C   0  0  0  0  0  0  0  0  0  0  0  0
   -3.5087   -1.3883   -2.5440 O   0  0  0  0  0  0  0  0  0  0  0  0
   -5.1995   -1.1042   -0.9673 N   0  0  0  0  0  0  0  0  0  0  0  0
   -6.3742   -0.5301   -1.4979 C   0  0  0  0  0  0  0  0  0  0  0  0
   -5.2564   -2.2263    0.1288 C   0  0  2  0  0  0  0  0  0  0  0  0
   -5.5592   -3.4063   -0.9698 C   0  0  0  0  0  0  0  0  0  0  0  0
   -6.6270   -3.0255   -1.7227 O   0  0  0  0  0  0  0  0  0  0  0  0
   -6.8471   -2.0430    0.5081 C   0  0  0  0  0  0  0  0  0  0  0  0
   -6.9651   -3.0207    1.6723 C   0  0  0  0  0  0  0  0  0  0  0  0
   -7.4954   -4.3468    1.1529 C   0  0  0  0  0  0  0  0  0  0  0  0
   -7.1919   -5.3341    2.1864 N   0  0  0  0  0  0  0  0  0  0  0  0
   -3.9627    0.7944    0.1308 N   0  0  0  0  0  0  0  0  0  0  0  0
   -4.0734    2.1672   -0.2975 C   0  0  0  0  0  0  0  0  0  0  0  0
   -5.2333    2.5996   -0.0827 O   0  0  0  0  0  0  0  0  0  0  0  0
   -2.8910    2.8155    0.5890 C   0  0  2  0  0  0  0  0  0  0  0  0
   -3.4375    4.3517    0.3672 C   0  0  0  0  0  0  0  0  0  0  0  0
   -3.2991    4.7509   -1.0177 C   0  0  0  0  0  0  0  0  0  0  0  0
   -2.8934    6.1023   -1.2989 N   0  0  0  0  0  0  0  0  0  0  0  0
   -3.8908    4.2233   -2.0097 O   0  0  0  0  0  0  0  0  0  0  0  0
   -1.8861    2.8831   -0.6234 N   0  0  0  0  0  0  0  0  0  0  0  0
   -0.6968    3.5280   -0.0975 C   0  0  0  0  0  0  0  0  0  0  0  0
   -0.0985    4.1047   -1.0359 O   0  0  0  0  0  0  0  0  0  0  0  0
  1  2  1  0
  3  2  1  6
  3  4  1  0
  3  5  1  0
  5  6  1  6
  6  7  1  0
  7  8  2  0
  9  7  1  6
  9 10  1  0
 10 11  1  6
 10 12  1  0
 12 13  1  0
  9 14  1  0
 14 15  1  0
 15 16  2  0
 15 17  1  0
 17 18  1  1
 18 19  1  0
 19 20  2  0
 20 21  1  0
 21 22  1  0
 22 23  2  0
 23 24  1  0
 24 25  2  0
 25 26  1  0
 26 27  2  0
 17 28  1  0
 28 29  1  0
 29 30  2  0
 29 31  1  0
 31 32  1  0
 32 33  1  0
 33 34  1  0
 34 35  1  0
 35 36  1  0
 36 37  1  6
 37 38  2  0
 37 39  1  0
 39 40  1  0
 41 39  1  6
 41 42  1  0
 42 43  1  0
 41 44  1  0
 44 45  1  0
 45 46  1  0
 46 47  1  0
 36 48  1  0
 48 49  1  0
 49 50  2  0
 49 51  1  0
 51 52  1  6
 52 53  1  0
 53 54  1  0
 53 55  2  0
 51 56  1  0
 56 57  1  0
 57 58  2  0
 57  5  1  0
 27 19  1  0
 27 22  1  0
M  END
>  <zinc_id>  (1) 
ZINC000085537120

>  <smiles>  (1) 
CC[C@H](C)[C@@H]1NC(=O)[C@@H](Cc2c[nH]c3ccccc23)NC(=O)CCSCC[C@@H](C(=O)N(C)[C@H](CO)CCCN)NC(=O)[C@H](CC(N)=O)NC(=O)[C@H]([C@H](C)CC)NC1=O

$$$$
