
     RDKit          3D

 44 46  0  0  0  0  0  0  0  0999 V2000
   -6.1334    4.0125   -0.7705 C   0  0  0  0  0  0  0  0  0  0  0  0
   -5.3007    2.8673   -0.5555 C   0  0  0  0  0  0  0  0  0  0  0  0
   -4.1313    3.0770   -0.1068 O   0  0  0  0  0  0  0  0  0  0  0  0
   -5.3897    1.7222   -1.3029 N   0  0  0  0  0  0  0  0  0  0  0  0
   -4.8333    0.3590   -0.7272 C   0  0  2  0  0  0  0  0  0  0  0  0
   -6.3160   -0.0200   -0.1087 C   0  0  0  0  0  0  0  0  0  0  0  0
   -6.4861   -1.4680   -0.2604 C   0  0  0  0  0  0  0  0  0  0  0  0
   -7.7942   -1.8975   -0.4857 C   0  0  0  0  0  0  0  0  0  0  0  0
   -8.1353   -3.2217   -0.3701 C   0  0  0  0  0  0  0  0  0  0  0  0
   -7.1114   -4.0980   -0.0290 C   0  0  0  0  0  0  0  0  0  0  0  0
   -7.4905   -5.4110    0.1297 O   0  0  0  0  0  0  0  0  0  0  0  0
   -5.8678   -3.6368    0.3884 C   0  0  0  0  0  0  0  0  0  0  0  0
   -5.8349   -2.2747    0.6705 C   0  0  0  0  0  0  0  0  0  0  0  0
   -4.2163    0.9271    0.6654 C   0  0  0  0  0  0  0  0  0  0  0  0
   -5.0580    1.1561    1.5364 O   0  0  0  0  0  0  0  0  0  0  0  0
   -2.8669    0.5162    0.9422 N   0  0  0  0  0  0  0  0  0  0  0  0
   -2.6099    0.2401    2.3550 C   0  0  0  0  0  0  0  0  0  0  0  0
   -2.1081   -1.1418    2.4833 C   0  0  0  0  0  0  0  0  0  0  0  0
   -1.1551   -1.0896    1.3371 C   0  0  0  0  0  0  0  0  0  0  0  0
   -2.2714   -0.7373    0.1807 C   0  0  2  0  0  0  0  0  0  0  0  0
   -1.2547    0.1479   -0.7076 C   0  0  0  0  0  0  0  0  0  0  0  0
   -1.0786   -0.4484   -1.8187 O   0  0  0  0  0  0  0  0  0  0  0  0
   -0.2836    0.9213   -0.0896 N   0  0  0  0  0  0  0  0  0  0  0  0
   -0.3713    1.9216    0.8011 C   0  0  0  0  0  0  0  0  0  0  0  0
    1.1356    2.1782    1.4044 C   0  0  1  0  0  0  0  0  0  0  0  0
    0.6460    2.0691    2.8361 O   0  0  0  0  0  0  0  0  0  0  0  0
    1.5482    0.5799    1.3208 C   0  0  0  0  0  0  0  0  0  0  0  0
    1.2073    0.4524   -0.2982 C   0  0  2  0  0  0  0  0  0  0  0  0
    1.8103    1.9104   -0.6795 C   0  0  0  0  0  0  0  0  0  0  0  0
    1.1606    2.6024   -1.4657 O   0  0  0  0  0  0  0  0  0  0  0  0
    3.0478    1.6316   -1.3531 N   0  0  0  0  0  0  0  0  0  0  0  0
    4.0334    2.6514   -1.0074 C   0  0  0  0  0  0  0  0  0  0  0  0
    5.1328    1.7056   -0.5834 C   0  0  0  0  0  0  0  0  0  0  0  0
    5.1276    1.1659    0.5579 O   0  0  0  0  0  0  0  0  0  0  0  0
    5.8602    1.0871   -1.5670 N   0  0  0  0  0  0  0  0  0  0  0  0
    6.3710   -0.3910   -1.4062 C   0  0  2  0  0  0  0  0  0  0  0  0
    5.0553   -0.9301   -0.5728 C   0  0  0  0  0  0  0  0  0  0  0  0
    7.1709   -0.0773   -0.0357 C   0  0  0  0  0  0  0  0  0  0  0  0
    8.1246    0.7426   -0.1859 O   0  0  0  0  0  0  0  0  0  0  0  0
    7.5224   -1.3360    0.5605 N   0  0  0  0  0  0  0  0  0  0  0  0
    8.8561   -1.6563    1.0320 C   0  0  0  0  0  0  0  0  0  0  0  0
    9.7249   -2.1500   -0.0544 C   0  0  0  0  0  0  0  0  0  0  0  0
   10.7780   -1.2937   -0.4431 N   0  0  0  0  0  0  0  0  0  0  0  0
    9.7855   -3.3656   -0.3828 O   0  0  0  0  0  0  0  0  0  0  0  0
  1  2  1  0
  2  3  2  0
  2  4  1  0
  5  4  1  6
  5  6  1  0
  6  7  1  0
  7  8  2  0
  8  9  1  0
  9 10  2  0
 10 11  1  0
 10 12  1  0
 12 13  2  0
  5 14  1  0
 14 15  2  0
 14 16  1  0
 16 17  1  0
 17 18  1  0
 18 19  1  0
 19 20  1  0
 20 21  1  6
 21 22  2  0
 21 23  1  0
 23 24  1  0
 24 25  1  0
 25 26  1  1
 25 27  1  0
 27 28  1  0
 28 29  1  6
 29 30  2  0
 29 31  1  0
 31 32  1  0
 32 33  1  0
 33 34  2  0
 33 35  1  0
 36 35  1  1
 36 37  1  0
 36 38  1  0
 38 39  2  0
 38 40  1  0
 40 41  1  0
 41 42  1  0
 42 43  1  0
 42 44  2  0
 13  7  1  0
 20 16  1  0
 28 23  1  0
M  END
>  <zinc_id>  (1) 
ZINC000014175498

>  <smiles>  (1) 
CC(=O)N[C@H](Cc1ccc(O)cc1)C(=O)N1CCC[C@@H]1C(=O)N1C[C@@H](O)C[C@@H]1C(=O)NCC(=O)N[C@H](C)C(=O)NCC(N)=O

$$$$
