
     RDKit          3D

 49 49  0  0  0  0  0  0  0  0999 V2000
   13.2931    1.1765   -1.0148 C   0  0  0  0  0  0  0  0  0  0  0  0
   13.1480    0.5158   -0.9463 C   0  0  0  0  0  0  0  0  0  0  0  0
   13.0210   -0.4382    0.2354 C   0  0  0  0  0  0  0  0  0  0  0  0
   11.7056   -0.2120    0.9344 C   0  0  0  0  0  0  0  0  0  0  0  0
   11.4089    1.2247    1.2149 C   0  0  0  0  0  0  0  0  0  0  0  0
   10.5950    1.8995    0.1247 C   0  0  0  0  0  0  0  0  0  0  0  0
    9.1507    1.7867    0.6071 C   0  0  0  0  0  0  0  0  0  0  0  0
    8.9284    0.2877    0.7828 C   0  0  0  0  0  0  0  0  0  0  0  0
    8.7773   -0.2876   -0.6016 C   0  0  0  0  0  0  0  0  0  0  0  0
    7.6676   -1.2854   -0.7250 C   0  0  0  0  0  0  0  0  0  0  0  0
    6.3161   -0.6478   -0.6337 C   0  0  0  0  0  0  0  0  0  0  0  0
    6.2341    0.7241   -1.2146 C   0  0  0  0  0  0  0  0  0  0  0  0
    5.2850    1.5340   -0.3495 C   0  0  0  0  0  0  0  0  0  0  0  0
    5.1765    0.8792    1.0190 C   0  0  0  0  0  0  0  0  0  0  0  0
    4.1167   -0.1907    0.8933 C   0  0  0  0  0  0  0  0  0  0  0  0
    2.8401    0.3202    0.3660 C   0  0  0  0  0  0  0  0  0  0  0  0
    1.7966   -0.2440    0.7537 O   0  0  0  0  0  0  0  0  0  0  0  0
    2.6359    1.5847   -0.2326 N   0  0  0  0  0  0  0  0  0  0  0  0
    1.6933    2.5747    0.2632 C   0  0  0  0  0  0  0  0  0  0  0  0
    0.4250    1.9805    0.7426 C   0  0  0  0  0  0  0  0  0  0  0  0
    0.3079    1.8955    2.0052 O   0  0  0  0  0  0  0  0  0  0  0  0
   -0.7661    2.4807    0.1146 N   0  0  0  0  0  0  0  0  0  0  0  0
   -2.0506    1.5897    0.4460 C   0  0  1  0  0  0  0  0  0  0  0  0
   -2.8947    2.2756   -0.8213 C   0  0  0  0  0  0  0  0  0  0  0  0
   -3.8729    3.1340   -0.0710 C   0  0  0  0  0  0  0  0  0  0  0  0
   -5.2611    2.8377   -0.5441 C   0  0  0  0  0  0  0  0  0  0  0  0
   -6.1394    3.8719   -0.9708 N   0  0  0  0  0  0  0  0  0  0  0  0
   -5.5057    1.6563   -0.8608 O   0  0  0  0  0  0  0  0  0  0  0  0
   -1.5313    0.3362   -0.4629 C   0  0  0  0  0  0  0  0  0  0  0  0
   -1.1124    0.5960   -1.5807 O   0  0  0  0  0  0  0  0  0  0  0  0
   -1.9663   -0.9540    0.0055 N   0  0  0  0  0  0  0  0  0  0  0  0
   -1.8384   -2.0875   -0.8855 C   0  0  0  0  0  0  0  0  0  0  0  0
   -3.0030   -1.9246   -1.8233 C   0  0  0  0  0  0  0  0  0  0  0  0
   -3.8446   -0.7966   -1.3340 C   0  0  0  0  0  0  0  0  0  0  0  0
   -3.5358   -0.8937    0.3030 C   0  0  1  0  0  0  0  0  0  0  0  0
   -3.7739   -2.5186    0.3308 C   0  0  0  0  0  0  0  0  0  0  0  0
   -3.4987   -3.0231    1.4618 O   0  0  0  0  0  0  0  0  0  0  0  0
   -4.9596   -2.9466   -0.2820 N   0  0  0  0  0  0  0  0  0  0  0  0
   -6.1916   -3.3449    0.6487 C   0  0  1  0  0  0  0  0  0  0  0  0
   -7.1694   -2.1570    0.0006 C   0  0  0  0  0  0  0  0  0  0  0  0
   -8.3621   -2.0796    0.8920 C   0  0  0  0  0  0  0  0  0  0  0  0
   -8.3727   -0.9824    1.8793 C   0  0  0  0  0  0  0  0  0  0  0  0
   -8.5502    0.3385    1.4478 N   0  0  0  0  0  0  0  0  0  0  0  0
   -9.3547    0.7961    0.3827 C   0  0  0  0  0  0  0  0  0  0  0  0
   -9.3267    0.0240   -0.6487 N   0  0  0  0  0  0  0  0  0  0  0  0
  -10.2176    1.9259    0.4734 N   0  0  0  0  0  0  0  0  0  0  0  0
   -6.7574   -4.4475   -0.4205 C   0  0  0  0  0  0  0  0  0  0  0  0
   -7.9273   -4.7221   -0.0025 O   0  0  0  0  0  0  0  0  0  0  0  0
   -6.7389   -4.0625   -1.7493 O   0  0  0  0  0  0  0  0  0  0  0  0
  1  2  1  0
  2  3  1  0
  3  4  1  0
  4  5  1  0
  5  6  1  0
  6  7  1  0
  7  8  1  0
  8  9  1  0
  9 10  1  0
 10 11  1  0
 11 12  1  0
 12 13  1  0
 13 14  1  0
 14 15  1  0
 15 16  1  0
 16 17  2  0
 16 18  1  0
 18 19  1  0
 19 20  1  0
 20 21  2  0
 20 22  1  0
 23 22  1  6
 23 24  1  0
 24 25  1  0
 25 26  1  0
 26 27  1  0
 26 28  2  0
 23 29  1  0
 29 30  2  0
 29 31  1  0
 31 32  1  0
 32 33  1  0
 33 34  1  0
 34 35  1  0
 35 36  1  6
 36 37  2  0
 36 38  1  0
 39 38  1  6
 39 40  1  0
 40 41  1  0
 41 42  1  0
 42 43  1  0
 43 44  1  0
 44 45  2  0
 44 46  1  0
 39 47  1  0
 47 48  2  0
 47 49  1  0
 35 31  1  0
M  END
>  <zinc_id>  (1) 
ZINC000163851498

>  <smiles>  (1) 
CCCCCCCCCCCCCCCC(=O)NCC(=O)N[C@@H](CCC(N)=O)C(=O)N1CCC[C@H]1C(=O)N[C@@H](CCCNC(=N)N)C(=O)O

$$$$
