
     RDKit          3D

 43 43  0  0  0  0  0  0  0  0999 V2000
    3.0270   -2.2309   -2.1120 C   0  0  0  0  0  0  0  0  0  0  0  0
    3.0332   -1.4223   -2.0455 C   0  0  0  0  0  0  0  0  0  0  0  0
    3.2478   -0.1914   -2.8544 C   0  0  0  0  0  0  0  0  0  0  0  0
    2.4944   -0.9127   -0.5548 C   0  0  2  0  0  0  0  0  0  0  0  0
    1.4459    0.0946   -1.2133 N   0  0  0  0  0  0  0  0  0  0  0  0
    0.2104   -0.5024   -1.5607 C   0  0  0  0  0  0  0  0  0  0  0  0
   -0.0203   -1.7084   -1.6247 O   0  0  0  0  0  0  0  0  0  0  0  0
   -1.0057    0.4568   -1.0467 C   0  0  2  0  0  0  0  0  0  0  0  0
   -1.4613   -0.6123    0.1512 C   0  0  0  0  0  0  0  0  0  0  0  0
   -1.3683    0.2177    1.4044 C   0  0  0  0  0  0  0  0  0  0  0  0
   -1.3402    1.7073    1.1205 C   0  0  0  0  0  0  0  0  0  0  0  0
   -2.5003    2.3893    1.6442 N   0  0  0  0  0  0  0  0  0  0  0  0
   -3.3585    1.8469    2.4371 C   0  0  0  0  0  0  0  0  0  0  0  0
   -4.5294    1.3428    1.7832 N   0  0  0  0  0  0  0  0  0  0  0  0
   -2.8778    1.1702    3.5765 N   0  0  0  0  0  0  0  0  0  0  0  0
   -2.0191   -0.1297   -2.1347 N   0  0  0  0  0  0  0  0  0  0  0  0
   -3.3374   -0.2982   -1.6691 C   0  0  0  0  0  0  0  0  0  0  0  0
   -3.3718   -1.1455   -0.7564 O   0  0  0  0  0  0  0  0  0  0  0  0
   -4.4996    0.4366   -1.9541 N   0  0  0  0  0  0  0  0  0  0  0  0
   -5.6186   -0.5813   -2.4587 C   0  0  1  0  0  0  0  0  0  0  0  0
   -6.7445    0.0137   -1.3892 C   0  0  0  0  0  0  0  0  0  0  0  0
   -6.2027   -0.2450   -0.0452 C   0  0  0  0  0  0  0  0  0  0  0  0
   -6.6713   -1.3289    0.6899 C   0  0  0  0  0  0  0  0  0  0  0  0
   -6.3725   -1.4241    2.0372 C   0  0  0  0  0  0  0  0  0  0  0  0
   -6.3513   -0.2354    2.7558 C   0  0  0  0  0  0  0  0  0  0  0  0
   -6.2803    0.9515    2.0669 C   0  0  0  0  0  0  0  0  0  0  0  0
   -5.9171    0.8789    0.7273 C   0  0  0  0  0  0  0  0  0  0  0  0
   -6.1191    0.4777   -3.6031 C   0  0  0  0  0  0  0  0  0  0  0  0
   -7.3218    0.3068   -3.9210 O   0  0  0  0  0  0  0  0  0  0  0  0
   -5.1301    0.8276   -4.5038 O   0  0  0  0  0  0  0  0  0  0  0  0
    3.6219    0.2646   -0.4540 C   0  0  0  0  0  0  0  0  0  0  0  0
    3.2942    1.1362    0.4016 O   0  0  0  0  0  0  0  0  0  0  0  0
    4.9598   -0.2059   -0.3745 N   0  0  0  0  0  0  0  0  0  0  0  0
    5.8844    1.0356   -0.7677 C   0  0  2  0  0  0  0  0  0  0  0  0
    7.2513    0.1987   -0.4298 C   0  0  0  0  0  0  0  0  0  0  0  0
    7.5627   -0.3482   -1.4875 O   0  0  0  0  0  0  0  0  0  0  0  0
    5.7978    1.6697    0.7668 C   0  0  0  0  0  0  0  0  0  0  0  0
    6.0561    0.5449    1.7050 C   0  0  0  0  0  0  0  0  0  0  0  0
    6.7460    1.1144    2.9263 C   0  0  0  0  0  0  0  0  0  0  0  0
    8.1627    1.2844    2.7259 N   0  0  0  0  0  0  0  0  0  0  0  0
    8.9321    0.3790    3.2204 C   0  0  0  0  0  0  0  0  0  0  0  0
    9.8656   -0.2133    2.3164 N   0  0  0  0  0  0  0  0  0  0  0  0
    8.8258   -0.1707    4.5044 N   0  0  0  0  0  0  0  0  0  0  0  0
  1  2  1  0
  2  3  1  0
  4  2  1  6
  4  5  1  0
  5  6  1  0
  6  7  2  0
  8  6  1  6
  8  9  1  0
  9 10  1  0
 10 11  1  0
 11 12  1  0
 12 13  2  3
 13 14  1  0
 13 15  1  0
  8 16  1  0
 16 17  1  0
 17 18  2  0
 17 19  1  0
 20 19  1  1
 20 21  1  0
 21 22  1  0
 22 23  2  0
 23 24  1  0
 24 25  2  0
 25 26  1  0
 26 27  2  0
 20 28  1  0
 28 29  2  0
 28 30  1  0
  4 31  1  0
 31 32  2  0
 31 33  1  0
 34 33  1  1
 34 35  1  0
 35 36  2  0
 34 37  1  0
 37 38  1  0
 38 39  1  0
 39 40  1  0
 40 41  2  3
 41 42  1  0
 41 43  1  0
 27 22  1  0
M  END
>  <zinc_id>  (1) 
ZINC000008716755

>  <smiles>  (1) 
CC(C)[C@H](NC(=O)[C@H](CCCN=C(N)N)NC(=O)N[C@@H](Cc1ccccc1)C(=O)O)C(=O)N[C@H](C=O)CCCN=C(N)N

$$$$
