
     RDKit          3D

 60 60  0  0  0  0  0  0  0  0999 V2000
    8.6193    3.4113   -0.7255 C   0  0  0  0  0  0  0  0  0  0  0  0
    9.8729    3.2678    0.3310 C   0  0  1  0  0  0  0  0  0  0  0  0
    8.9043    2.9945    1.5459 N   0  0  0  0  0  0  0  0  0  0  0  0
   10.0699    1.7014    0.0183 C   0  0  0  0  0  0  0  0  0  0  0  0
   11.0163    1.5859   -0.8014 O   0  0  0  0  0  0  0  0  0  0  0  0
    8.9662    0.8616    0.0469 N   0  0  0  0  0  0  0  0  0  0  0  0
    9.3040   -0.5106   -0.6516 C   0  0  1  0  0  0  0  0  0  0  0  0
    9.8905   -1.1472    0.7506 C   0  0  0  0  0  0  0  0  0  0  0  0
    9.9323   -2.4938    0.3722 O   0  0  0  0  0  0  0  0  0  0  0  0
    7.8118   -1.0560   -0.4248 C   0  0  0  0  0  0  0  0  0  0  0  0
    7.4263   -1.4928    0.6343 O   0  0  0  0  0  0  0  0  0  0  0  0
    6.9601   -1.0568   -1.4929 N   0  0  0  0  0  0  0  0  0  0  0  0
    5.9103   -2.2042   -1.6955 C   0  0  2  0  0  0  0  0  0  0  0  0
    4.7200   -1.4747   -0.9311 C   0  0  0  0  0  0  0  0  0  0  0  0
    4.6196   -0.3639   -1.4180 O   0  0  0  0  0  0  0  0  0  0  0  0
    4.5007   -1.3086    0.3819 N   0  0  0  0  0  0  0  0  0  0  0  0
    3.0025   -1.5327    0.7621 C   0  0  2  0  0  0  0  0  0  0  0  0
    2.3524   -0.1227    0.3632 C   0  0  0  0  0  0  0  0  0  0  0  0
    1.1460   -0.4302    0.6742 O   0  0  0  0  0  0  0  0  0  0  0  0
    2.1705    0.1938   -0.9877 N   0  0  0  0  0  0  0  0  0  0  0  0
    1.6885    1.6581   -1.2356 C   0  0  2  0  0  0  0  0  0  0  0  0
    0.2344    1.3837   -0.6644 C   0  0  0  0  0  0  0  0  0  0  0  0
    0.2219    2.1209    0.3899 O   0  0  0  0  0  0  0  0  0  0  0  0
   -0.9792    1.4384   -1.2969 N   0  0  0  0  0  0  0  0  0  0  0  0
   -1.9324    0.5659   -0.3898 C   0  0  1  0  0  0  0  0  0  0  0  0
   -2.3529    1.8761    0.5020 C   0  0  0  0  0  0  0  0  0  0  0  0
   -3.0507    2.8452   -0.3269 C   0  0  0  0  0  0  0  0  0  0  0  0
   -4.1110    3.5453    0.3514 N   0  0  0  0  0  0  0  0  0  0  0  0
   -2.3686    3.6034   -1.0849 O   0  0  0  0  0  0  0  0  0  0  0  0
   -3.1947    0.6505   -1.3936 C   0  0  0  0  0  0  0  0  0  0  0  0
   -3.0459   -0.0927   -2.4146 O   0  0  0  0  0  0  0  0  0  0  0  0
   -4.4856    0.4708   -0.8479 N   0  0  0  0  0  0  0  0  0  0  0  0
   -4.9425   -1.0010   -0.5107 C   0  0  1  0  0  0  0  0  0  0  0  0
   -5.3189   -0.6291    1.0373 C   0  0  0  0  0  0  0  0  0  0  0  0
   -5.9242    0.6528    1.1775 C   0  0  0  0  0  0  0  0  0  0  0  0
   -6.4113    1.5615    0.2805 C   0  0  0  0  0  0  0  0  0  0  0  0
   -7.6523    2.1358    0.3757 C   0  0  0  0  0  0  0  0  0  0  0  0
   -8.1528    2.3081    1.6592 C   0  0  0  0  0  0  0  0  0  0  0  0
   -9.4961    2.6582    1.7549 O   0  0  0  0  0  0  0  0  0  0  0  0
   -7.4664    1.7541    2.7161 C   0  0  0  0  0  0  0  0  0  0  0  0
   -6.4919    0.8196    2.4418 C   0  0  0  0  0  0  0  0  0  0  0  0
   -6.4968   -0.8801   -0.9805 C   0  0  0  0  0  0  0  0  0  0  0  0
   -6.6481   -0.9880   -2.2389 O   0  0  0  0  0  0  0  0  0  0  0  0
   -6.8916   -2.1799   -0.5493 N   0  0  0  0  0  0  0  0  0  0  0  0
   -8.3809   -2.6070   -0.5142 C   0  0  2  0  0  0  0  0  0  0  0  0
   -8.9985   -1.1795   -0.1229 C   0  0  0  0  0  0  0  0  0  0  0  0
  -10.3750   -1.1994    0.3059 N   0  0  0  0  0  0  0  0  0  0  0  0
   -9.0217   -0.3910   -1.1206 O   0  0  0  0  0  0  0  0  0  0  0  0
   -8.0914   -3.0211    1.1413 C   0  0  1  0  0  0  0  0  0  0  0  0
   -9.6553   -3.3320    1.4955 C   0  0  0  0  0  0  0  0  0  0  0  0
   -7.8485   -4.4612    0.7650 O   0  0  0  0  0  0  0  0  0  0  0  0
    1.4467    1.3111   -2.9123 C   0  0  1  0  0  0  0  0  0  0  0  0
    0.4998   -0.0108   -2.7174 C   0  0  0  0  0  0  0  0  0  0  0  0
    0.3021    2.2821   -3.0313 O   0  0  0  0  0  0  0  0  0  0  0  0
    3.3991   -1.1179    2.4007 C   0  0  1  0  0  0  0  0  0  0  0  0
    3.9712    0.3860    2.0812 C   0  0  0  0  0  0  0  0  0  0  0  0
    2.0295   -0.6009    2.7534 O   0  0  0  0  0  0  0  0  0  0  0  0
    6.3223   -3.1005   -0.2835 C   0  0  1  0  0  0  0  0  0  0  0  0
    5.1354   -4.1821   -0.6166 C   0  0  0  0  0  0  0  0  0  0  0  0
    7.3389   -3.8756   -1.0779 O   0  0  0  0  0  0  0  0  0  0  0  0
  2  1  1  6
  2  3  1  0
  2  4  1  0
  4  5  2  0
  4  6  1  0
  7  6  1  1
  7  8  1  0
  8  9  1  0
  7 10  1  0
 10 11  2  0
 10 12  1  0
 13 12  1  1
 13 14  1  0
 14 15  2  0
 14 16  1  0
 17 16  1  6
 17 18  1  0
 18 19  2  0
 18 20  1  0
 21 20  1  1
 21 22  1  0
 22 23  2  0
 22 24  1  0
 25 24  1  6
 25 26  1  0
 26 27  1  0
 27 28  1  0
 27 29  2  0
 25 30  1  0
 30 31  2  0
 30 32  1  0
 33 32  1  6
 33 34  1  0
 34 35  1  0
 35 36  2  0
 36 37  1  0
 37 38  2  0
 38 39  1  0
 38 40  1  0
 40 41  2  0
 33 42  1  0
 42 43  2  0
 42 44  1  0
 45 44  1  6
 45 46  1  0
 46 47  1  0
 46 48  2  0
 45 49  1  0
 49 50  1  1
 49 51  1  0
 21 52  1  0
 52 53  1  1
 52 54  1  0
 17 55  1  0
 55 56  1  6
 55 57  1  0
 13 58  1  0
 58 59  1  6
 58 60  1  0
 41 35  1  0
M  END
>  <zinc_id>  (1) 
ZINC000169289402

>  <smiles>  (1) 
C[C@@H](N)C(=O)N[C@@H](CO)C(=O)N[C@H](C(=O)N[C@H](C(=O)N[C@H](C(=O)N[C@@H](CC(N)=O)C(=O)N[C@@H](Cc1ccc(O)cc1)C(=O)N[C@H](C(N)=O)[C@@H](C)O)[C@@H](C)O)[C@@H](C)O)[C@@H](C)O

$$$$
