
     RDKit          3D

 40 39  0  0  0  0  0  0  0  0999 V2000
    7.4814   -0.1796    2.4655 N   0  0  0  0  0  0  0  0  0  0  0  0
    6.6732   -0.7678    1.2094 C   0  0  1  0  0  0  0  0  0  0  0  0
    5.3097    0.1131    1.6286 C   0  0  0  0  0  0  0  0  0  0  0  0
    4.3599   -1.0104    2.0424 C   0  0  0  0  0  0  0  0  0  0  0  0
    3.2810   -1.0265    1.0063 C   0  0  0  0  0  0  0  0  0  0  0  0
    2.3806   -0.1313    1.0722 O   0  0  0  0  0  0  0  0  0  0  0  0
    2.7692   -2.1795    0.4220 N   0  0  0  0  0  0  0  0  0  0  0  0
    2.1650   -2.0405   -1.0582 C   0  0  1  0  0  0  0  0  0  0  0  0
    1.7796   -0.4094   -0.9251 C   0  0  0  0  0  0  0  0  0  0  0  0
    0.0747   -0.2560   -1.4224 S   0  0  0  0  0  0  0  0  0  0  0  0
   -1.1727   -1.0421    0.0363 S   0  0  0  0  0  0  0  0  0  0  0  0
   -1.5387   -0.1963    1.4485 C   0  0  0  0  0  0  0  0  0  0  0  0
   -2.0850    1.3706    1.2175 C   0  0  2  0  0  0  0  0  0  0  0  0
   -3.6293    1.0621    1.5440 N   0  0  0  0  0  0  0  0  0  0  0  0
   -4.0437   -0.2587    1.5387 C   0  0  0  0  0  0  0  0  0  0  0  0
   -3.3228   -0.9720    2.3058 O   0  0  0  0  0  0  0  0  0  0  0  0
   -5.4746   -0.5811    1.3933 C   0  0  0  0  0  0  0  0  0  0  0  0
   -5.8518   -1.5097    0.3457 C   0  0  0  0  0  0  0  0  0  0  0  0
   -6.5160   -0.6795   -0.9471 C   0  0  2  0  0  0  0  0  0  0  0  0
   -6.3911    0.7751   -0.2741 N   0  0  0  0  0  0  0  0  0  0  0  0
   -8.0450   -0.8926   -0.3802 C   0  0  0  0  0  0  0  0  0  0  0  0
   -8.3697   -2.0281   -0.8489 O   0  0  0  0  0  0  0  0  0  0  0  0
   -8.2216   -0.5960    0.9452 O   0  0  0  0  0  0  0  0  0  0  0  0
   -2.2873    1.2321   -0.4116 C   0  0  0  0  0  0  0  0  0  0  0  0
   -3.0623    0.3727   -0.7902 O   0  0  0  0  0  0  0  0  0  0  0  0
   -2.4840    2.5425   -0.9661 N   0  0  0  0  0  0  0  0  0  0  0  0
   -3.4628    2.8180   -2.0124 C   0  0  0  0  0  0  0  0  0  0  0  0
   -4.8455    2.6134   -1.4865 C   0  0  0  0  0  0  0  0  0  0  0  0
   -5.4959    1.5676   -1.7411 O   0  0  0  0  0  0  0  0  0  0  0  0
   -5.4100    3.4938   -0.5612 O   0  0  0  0  0  0  0  0  0  0  0  0
    3.6583   -1.7772   -1.6852 C   0  0  0  0  0  0  0  0  0  0  0  0
    4.3309   -2.8238   -1.8101 O   0  0  0  0  0  0  0  0  0  0  0  0
    3.8827   -0.6550   -2.4514 N   0  0  0  0  0  0  0  0  0  0  0  0
    5.2874   -0.2656   -2.6190 C   0  0  0  0  0  0  0  0  0  0  0  0
    5.6254    0.7452   -1.5655 C   0  0  0  0  0  0  0  0  0  0  0  0
    5.3112    1.9519   -1.8040 O   0  0  0  0  0  0  0  0  0  0  0  0
    5.5624    0.3259   -0.2316 O   0  0  0  0  0  0  0  0  0  0  0  0
    7.2836    0.3923    0.2201 C   0  0  0  0  0  0  0  0  0  0  0  0
    8.1209   -0.2307   -0.5090 O   0  0  0  0  0  0  0  0  0  0  0  0
    6.3730    1.1333   -0.4838 O   0  0  0  0  0  0  0  0  0  0  0  0
  2  1  1  1
  2  3  1  0
  3  4  1  0
  4  5  1  0
  5  6  2  0
  5  7  1  0
  8  7  1  1
  8  9  1  0
  9 10  1  0
 10 11  1  0
 11 12  1  0
 13 12  1  1
 13 14  1  0
 14 15  1  0
 15 16  2  0
 15 17  1  0
 17 18  1  0
 19 18  1  1
 19 20  1  0
 19 21  1  0
 21 22  2  0
 21 23  1  0
 13 24  1  0
 24 25  2  0
 24 26  1  0
 26 27  1  0
 27 28  1  0
 28 29  2  0
 28 30  1  0
  8 31  1  0
 31 32  2  0
 31 33  1  0
 33 34  1  0
 34 35  1  0
 35 36  2  0
 35 37  1  0
  2 38  1  0
 38 39  2  0
 38 40  1  0
M  END
>  <zinc_id>  (1) 
ZINC000003870129

>  <smiles>  (1) 
N[C@@H](CCC(=O)N[C@@H](CSSC[C@H](NC(=O)CC[C@H](N)C(=O)O)C(=O)NCC(=O)O)C(=O)NCC(=O)O)C(=O)O

$$$$
