
     RDKit          3D

 43 45  0  0  0  0  0  0  0  0999 V2000
    5.3102   -4.4898   -0.3741 C   0  0  0  0  0  0  0  0  0  0  0  0
    4.5304   -4.6266    0.0209 C   0  0  0  0  0  0  0  0  0  0  0  0
    3.5288   -5.6033   -0.5795 C   0  0  0  0  0  0  0  0  0  0  0  0
    3.8414   -3.4248    0.6399 C   0  0  0  0  0  0  0  0  0  0  0  0
    4.0055   -2.3083   -0.6007 C   0  0  2  0  0  0  0  0  0  0  0  0
    4.7914   -1.2942    0.3679 N   0  0  0  0  0  0  0  0  0  0  0  0
    4.6707    0.0629   -0.0824 C   0  0  0  0  0  0  0  0  0  0  0  0
    5.0027    0.2229   -1.2949 O   0  0  0  0  0  0  0  0  0  0  0  0
    5.1054    1.0426    0.8159 O   0  0  0  0  0  0  0  0  0  0  0  0
    5.0131    2.3952    0.3910 C   0  0  0  0  0  0  0  0  0  0  0  0
    6.3999    2.8342    0.0408 C   0  0  0  0  0  0  0  0  0  0  0  0
    6.6649    4.1722   -0.1807 C   0  0  0  0  0  0  0  0  0  0  0  0
    7.9334    4.6528   -0.0152 C   0  0  0  0  0  0  0  0  0  0  0  0
    8.9794    3.7650    0.1286 C   0  0  0  0  0  0  0  0  0  0  0  0
    8.7338    2.4038    0.1220 C   0  0  0  0  0  0  0  0  0  0  0  0
    7.4421    1.9430    0.0207 C   0  0  0  0  0  0  0  0  0  0  0  0
    2.5364   -1.6687   -0.2731 C   0  0  0  0  0  0  0  0  0  0  0  0
    2.3839   -1.0915    0.7999 O   0  0  0  0  0  0  0  0  0  0  0  0
    2.0837   -0.9132   -1.3622 N   0  0  0  0  0  0  0  0  0  0  0  0
    0.5241   -0.5412   -1.3177 C   0  0  2  0  0  0  0  0  0  0  0  0
    0.4864   -0.2653    0.3369 C   0  0  0  0  0  0  0  0  0  0  0  0
   -0.7845   -0.9440    0.5937 N   0  0  0  0  0  0  0  0  0  0  0  0
   -2.0400   -0.4440    0.1205 C   0  0  0  0  0  0  0  0  0  0  0  0
   -2.2102    0.7306   -0.2794 O   0  0  0  0  0  0  0  0  0  0  0  0
   -3.3078   -0.9675    1.0258 C   0  0  2  0  0  0  0  0  0  0  0  0
   -2.9457   -2.5641    0.6963 C   0  0  0  0  0  0  0  0  0  0  0  0
   -4.2038   -3.2142    0.2512 C   0  0  0  0  0  0  0  0  0  0  0  0
   -4.2061   -4.6226    0.8367 C   0  0  0  0  0  0  0  0  0  0  0  0
   -4.0106   -3.4228   -1.2487 C   0  0  0  0  0  0  0  0  0  0  0  0
   -4.2943   -0.8373   -0.2375 N   0  0  0  0  0  0  0  0  0  0  0  0
   -5.3500    0.0884   -0.0110 C   0  0  0  0  0  0  0  0  0  0  0  0
   -5.7668    0.3376    1.1526 O   0  0  0  0  0  0  0  0  0  0  0  0
   -5.9031    0.9258   -0.9832 O   0  0  0  0  0  0  0  0  0  0  0  0
   -5.9445    2.3269   -0.8090 C   0  0  0  0  0  0  0  0  0  0  0  0
   -7.2645    2.8542   -0.4267 C   0  0  0  0  0  0  0  0  0  0  0  0
   -7.5383    4.1163   -0.9510 C   0  0  0  0  0  0  0  0  0  0  0  0
   -8.6274    4.8521   -0.5209 C   0  0  0  0  0  0  0  0  0  0  0  0
   -9.2510    4.4325    0.6445 C   0  0  0  0  0  0  0  0  0  0  0  0
   -8.6282    3.5189    1.4701 C   0  0  0  0  0  0  0  0  0  0  0  0
   -7.6222    2.7644    0.9158 C   0  0  0  0  0  0  0  0  0  0  0  0
   -0.3466   -2.2878    0.2123 C   0  0  0  0  0  0  0  0  0  0  0  0
    0.0846   -2.1167   -1.1480 C   0  0  0  0  0  0  0  0  0  0  0  0
    0.1936   -2.7944   -2.1386 O   0  0  0  0  0  0  0  0  0  0  0  0
  1  2  1  0
  2  3  1  0
  2  4  1  0
  5  4  1  1
  5  6  1  0
  6  7  1  0
  7  8  2  0
  7  9  1  0
  9 10  1  0
 10 11  1  0
 11 12  2  0
 12 13  1  0
 13 14  2  0
 14 15  1  0
 15 16  2  0
  5 17  1  0
 17 18  2  0
 17 19  1  0
 20 19  1  1
 20 21  1  0
 21 22  1  0
 22 23  1  0
 23 24  2  0
 25 23  1  6
 25 26  1  0
 26 27  1  0
 27 28  1  0
 27 29  1  0
 25 30  1  0
 30 31  1  0
 31 32  2  0
 31 33  1  0
 33 34  1  0
 34 35  1  0
 35 36  2  0
 36 37  1  0
 37 38  2  0
 38 39  1  0
 39 40  2  0
 22 41  1  0
 41 42  1  0
 42 43  2  0
 16 11  1  0
 42 20  1  0
 40 35  1  0
M  END
>  <zinc_id>  (1) 
ZINC000014096696

>  <smiles>  (1) 
CC(C)C[C@H](NC(=O)OCc1ccccc1)C(=O)N[C@@H]1CN(C(=O)[C@H](CC(C)C)NC(=O)OCc2ccccc2)CC1=O

$$$$
