
     RDKit          3D

 26 25  0  0  0  0  0  0  0  0999 V2000
    7.7928   -1.6135   -0.3630 C   0  0  0  0  0  0  0  0  0  0  0  0
    7.2274   -1.7316   -0.2004 C   0  0  0  0  0  0  0  0  0  0  0  0
    6.0713   -1.2216    0.6335 C   0  0  0  0  0  0  0  0  0  0  0  0
    4.7552   -1.3410   -0.1212 C   0  0  0  0  0  0  0  0  0  0  0  0
    3.9102   -0.1022    0.0023 C   0  0  0  0  0  0  0  0  0  0  0  0
    3.1667    0.1629   -1.3011 C   0  0  0  0  0  0  0  0  0  0  0  0
    1.4898    0.8032   -0.9931 S   0  0  0  0  0  0  0  0  0  0  0  0
    1.3768    1.1921    0.7380 C   0  0  0  0  0  0  0  0  0  0  0  0
   -0.2466    1.1388    1.1378 C   0  0  2  0  0  0  0  0  0  0  0  0
   -0.4928   -0.2042    0.2915 N   0  0  0  0  0  0  0  0  0  0  0  0
   -1.6419   -0.9364    0.7393 C   0  0  0  0  0  0  0  0  0  0  0  0
   -1.6123   -1.1958    1.9808 O   0  0  0  0  0  0  0  0  0  0  0  0
   -2.8525   -1.1721   -0.0735 C   0  0  0  0  0  0  0  0  0  0  0  0
   -2.9227   -2.5220   -0.7033 C   0  0  0  0  0  0  0  0  0  0  0  0
   -2.6348   -3.4618    0.6530 C   0  0  2  0  0  0  0  0  0  0  0  0
   -1.9707   -4.6169   -0.2401 N   0  0  0  0  0  0  0  0  0  0  0  0
   -4.1155   -4.1669    0.5382 C   0  0  0  0  0  0  0  0  0  0  0  0
   -5.0119   -3.3126    0.6759 O   0  0  0  0  0  0  0  0  0  0  0  0
   -4.0986   -5.3312    1.3159 O   0  0  0  0  0  0  0  0  0  0  0  0
   -0.6569    2.0727   -0.1540 C   0  0  0  0  0  0  0  0  0  0  0  0
   -1.9236    1.9545   -0.2187 O   0  0  0  0  0  0  0  0  0  0  0  0
   -0.2424    3.4369    0.0126 N   0  0  0  0  0  0  0  0  0  0  0  0
   -0.9292    4.3911   -0.8557 C   0  0  0  0  0  0  0  0  0  0  0  0
   -1.3307    5.5804   -0.0862 C   0  0  0  0  0  0  0  0  0  0  0  0
   -0.4419    6.4139    0.2062 O   0  0  0  0  0  0  0  0  0  0  0  0
   -2.6652    5.7833    0.2723 O   0  0  0  0  0  0  0  0  0  0  0  0
  1  2  1  0
  2  3  1  0
  3  4  1  0
  4  5  1  0
  5  6  1  0
  6  7  1  0
  7  8  1  0
  9  8  1  6
  9 10  1  0
 10 11  1  0
 11 12  2  0
 11 13  1  0
 13 14  1  0
 15 14  1  6
 15 16  1  0
 15 17  1  0
 17 18  2  0
 17 19  1  0
  9 20  1  0
 20 21  2  0
 20 22  1  0
 22 23  1  0
 23 24  1  0
 24 25  2  0
 24 26  1  0
M  END
>  <zinc_id>  (1) 
ZINC000003874923

>  <smiles>  (1) 
CCCCCCSC[C@H](NC(=O)CC[C@H](N)C(=O)O)C(=O)NCC(=O)O

$$$$
