
     RDKit          3D

 45 46  0  0  0  0  0  0  0  0999 V2000
   -7.0568    0.9141    1.9943 C   0  0  0  0  0  0  0  0  0  0  0  0
   -7.9210    1.6394    1.0104 C   0  0  0  0  0  0  0  0  0  0  0  0
   -7.0921    1.8991   -0.1228 O   0  0  0  0  0  0  0  0  0  0  0  0
   -7.3618    1.3854   -1.3960 C   0  0  0  0  0  0  0  0  0  0  0  0
   -8.6058    1.2659   -1.6288 O   0  0  0  0  0  0  0  0  0  0  0  0
   -6.5412    0.3189   -2.0006 C   0  0  0  0  0  0  0  0  0  0  0  0
   -5.2830    0.0970   -1.7692 C   0  0  0  0  0  0  0  0  0  0  0  0
   -4.7716   -1.4375   -1.8256 C   0  0  2  0  0  0  0  0  0  0  0  0
   -5.6997   -1.8520   -0.5396 C   0  0  0  0  0  0  0  0  0  0  0  0
   -4.6786   -2.0481    0.7039 C   0  0  2  0  0  0  0  0  0  0  0  0
   -5.7907   -2.8782    1.5726 C   0  0  0  0  0  0  0  0  0  0  0  0
   -5.2320   -2.5168    2.9297 C   0  0  0  0  0  0  0  0  0  0  0  0
   -5.0148   -1.1096    2.8027 N   0  0  0  0  0  0  0  0  0  0  0  0
   -5.1229   -0.6874    1.4327 C   0  0  0  0  0  0  0  0  0  0  0  0
   -4.5542    0.4185    1.1750 O   0  0  0  0  0  0  0  0  0  0  0  0
   -3.4512   -1.1093   -1.0434 N   0  0  0  0  0  0  0  0  0  0  0  0
   -2.2436   -1.0438   -1.7451 C   0  0  0  0  0  0  0  0  0  0  0  0
   -2.1573   -1.5755   -2.8720 O   0  0  0  0  0  0  0  0  0  0  0  0
   -0.9768   -1.4011   -0.8041 C   0  0  2  0  0  0  0  0  0  0  0  0
   -1.3915   -0.2933    0.3264 C   0  0  0  0  0  0  0  0  0  0  0  0
   -1.5487    1.0314   -0.1658 C   0  0  0  0  0  0  0  0  0  0  0  0
   -1.6640    1.5201   -1.5020 C   0  0  0  0  0  0  0  0  0  0  0  0
   -2.5802    1.7346    0.7116 C   0  0  0  0  0  0  0  0  0  0  0  0
    0.0125   -0.4028   -1.5192 N   0  0  0  0  0  0  0  0  0  0  0  0
    1.3807   -0.4947   -1.1723 C   0  0  0  0  0  0  0  0  0  0  0  0
    1.6696   -1.4936   -0.4397 O   0  0  0  0  0  0  0  0  0  0  0  0
    2.0736    0.8137   -0.5188 C   0  0  1  0  0  0  0  0  0  0  0  0
    3.5261    0.2303   -0.7027 N   0  0  0  0  0  0  0  0  0  0  0  0
    4.0076   -0.2985    0.4982 C   0  0  0  0  0  0  0  0  0  0  0  0
    3.5372   -0.3283    1.6051 O   0  0  0  0  0  0  0  0  0  0  0  0
    5.4079   -1.0246    0.1780 C   0  0  1  0  0  0  0  0  0  0  0  0
    6.1245   -0.4037    1.4397 N   0  0  0  0  0  0  0  0  0  0  0  0
    6.4901    0.9555    1.2116 C   0  0  0  0  0  0  0  0  0  0  0  0
    5.5283    1.7187    0.9634 O   0  0  0  0  0  0  0  0  0  0  0  0
    7.8831    1.4264    1.2044 C   0  0  0  0  0  0  0  0  0  0  0  0
    8.4368    2.0606    0.0979 C   0  0  0  0  0  0  0  0  0  0  0  0
    9.7755    1.6945    0.0258 C   0  0  0  0  0  0  0  0  0  0  0  0
   10.0323    1.0494    1.1293 O   0  0  0  0  0  0  0  0  0  0  0  0
    8.9589    0.8362    1.8316 C   0  0  0  0  0  0  0  0  0  0  0  0
    4.9711   -2.4209    0.9214 C   0  0  0  0  0  0  0  0  0  0  0  0
    6.1657   -3.2825    0.5237 C   0  0  0  0  0  0  0  0  0  0  0  0
    4.9332   -2.2687    2.3689 C   0  0  0  0  0  0  0  0  0  0  0  0
    2.2010    1.6493   -1.9191 C   0  0  0  0  0  0  0  0  0  0  0  0
    2.3618    0.7675   -3.0478 C   0  0  0  0  0  0  0  0  0  0  0  0
    1.2620    2.7614   -1.9237 C   0  0  0  0  0  0  0  0  0  0  0  0
  1  2  1  0
  2  3  1  0
  3  4  1  0
  4  5  2  0
  4  6  1  0
  6  7  2  0
  8  7  1  1
  8  9  1  0
 10  9  1  6
 10 11  1  0
 11 12  1  0
 12 13  1  0
 13 14  1  0
 14 15  2  0
  8 16  1  0
 16 17  1  0
 17 18  2  0
 19 17  1  6
 19 20  1  0
 20 21  1  0
 21 22  1  0
 21 23  1  0
 19 24  1  0
 24 25  1  0
 25 26  2  0
 27 25  1  6
 27 28  1  0
 28 29  1  0
 29 30  2  0
 31 29  1  1
 31 32  1  0
 32 33  1  0
 33 34  2  0
 33 35  1  0
 35 36  1  0
 36 37  2  0
 37 38  1  0
 38 39  1  0
 31 40  1  0
 40 41  1  0
 40 42  1  0
 27 43  1  0
 43 44  1  0
 43 45  1  0
 14 10  1  0
 39 35  2  0
M  END
>  <zinc_id>  (1) 
ZINC000014881283

>  <smiles>  (1) 
CCOC(=O)/C=C/[C@H](C[C@@H]1CCNC1=O)NC(=O)[C@H](CC(C)C)NC(=O)[C@@H](NC(=O)[C@@H](NC(=O)c1ccoc1)C(C)C)C(C)C

$$$$
