
     RDKit          3D

 32 34  0  0  0  0  0  0  0  0999 V2000
    3.8306   -3.6208   -1.3443 C   0  0  0  0  0  0  0  0  0  0  0  0
    3.6906   -2.4555   -1.0998 C   0  0  0  0  0  0  0  0  0  0  0  0
    4.6976   -1.5523   -1.7864 C   0  0  0  0  0  0  0  0  0  0  0  0
    3.8192   -2.2069    0.3732 C   0  0  0  0  0  0  0  0  0  0  0  0
    2.3652   -2.5085    1.0437 C   0  0  2  0  0  0  0  0  0  0  0  0
    1.7417   -1.1588    0.5504 N   0  0  0  0  0  0  0  0  0  0  0  0
    0.8255   -1.3879   -0.4580 C   0  0  0  0  0  0  0  0  0  0  0  0
    0.6274   -2.4563   -1.0717 O   0  0  0  0  0  0  0  0  0  0  0  0
   -0.3552   -0.3375   -0.7709 C   0  0  1  0  0  0  0  0  0  0  0  0
   -0.7043   -0.0723    0.8190 C   0  0  0  0  0  0  0  0  0  0  0  0
   -2.1852    0.1226    0.7042 C   0  0  0  0  0  0  0  0  0  0  0  0
   -2.7764    1.3566    0.5854 C   0  0  0  0  0  0  0  0  0  0  0  0
   -4.0709    1.5098    0.1673 C   0  0  0  0  0  0  0  0  0  0  0  0
   -4.8873    0.4215   -0.0115 C   0  0  0  0  0  0  0  0  0  0  0  0
   -4.3147   -0.8179    0.0093 C   0  0  0  0  0  0  0  0  0  0  0  0
   -5.1007   -1.9059   -0.3377 C   0  0  0  0  0  0  0  0  0  0  0  0
   -4.4956   -3.0789   -0.7188 C   0  0  0  0  0  0  0  0  0  0  0  0
   -3.1477   -3.2154   -0.4117 C   0  0  0  0  0  0  0  0  0  0  0  0
   -2.5363   -2.2566    0.3837 C   0  0  0  0  0  0  0  0  0  0  0  0
   -2.9654   -0.9553    0.3109 C   0  0  0  0  0  0  0  0  0  0  0  0
    0.6471    0.8655   -0.9442 N   0  0  0  0  0  0  0  0  0  0  0  0
    0.4576    1.9896   -0.1206 C   0  0  0  0  0  0  0  0  0  0  0  0
    0.7228    1.6130    1.0653 O   0  0  0  0  0  0  0  0  0  0  0  0
    0.7404    3.3106   -0.5862 N   0  0  0  0  0  0  0  0  0  0  0  0
    1.7738    4.1299   -0.0104 C   0  0  0  0  0  0  0  0  0  0  0  0
    1.7625    5.4454   -0.7742 C   0  0  0  0  0  0  0  0  0  0  0  0
    0.4421    5.8764   -0.8027 O   0  0  0  0  0  0  0  0  0  0  0  0
   -0.3475    5.1298   -1.6600 C   0  0  0  0  0  0  0  0  0  0  0  0
    0.1495    3.7205   -1.8363 C   0  0  0  0  0  0  0  0  0  0  0  0
    2.8130   -1.8799    2.5635 B   0  0  0  0  0  0  0  0  0  0  0  0
    3.6285   -0.6993    2.6205 O   0  0  0  0  0  0  0  0  0  0  0  0
    3.1521   -2.9251    3.5492 O   0  0  0  0  0  0  0  0  0  0  0  0
  1  2  1  0
  2  3  1  0
  2  4  1  0
  5  4  1  6
  5  6  1  0
  6  7  1  0
  7  8  2  0
  9  7  1  1
  9 10  1  0
 10 11  1  0
 11 12  2  0
 12 13  1  0
 13 14  2  0
 14 15  1  0
 15 16  2  0
 16 17  1  0
 17 18  2  0
 18 19  1  0
 19 20  2  0
  9 21  1  0
 21 22  1  0
 22 23  2  0
 22 24  1  0
 24 25  1  0
 25 26  1  0
 26 27  1  0
 27 28  1  0
 28 29  1  0
  5 30  1  0
 30 31  1  0
 30 32  1  0
 20 11  1  0
 29 24  1  0
 20 15  1  0
M  END
>  <zinc_id>  (1) 
ZINC000169748489

>  <smiles>  (1) 
CC(C)C[C@H](NC(=O)[C@@H](Cc1cccc2ccccc12)NC(=O)N1CCOCC1)B(O)O

$$$$
