
     RDKit          3D

 41 42  0  0  0  0  0  0  0  0999 V2000
   -8.6203    2.2917    0.3635 C   0  0  0  0  0  0  0  0  0  0  0  0
   -8.2578    0.8742    0.2018 C   0  0  0  0  0  0  0  0  0  0  0  0
   -8.8927    0.0144    0.8904 O   0  0  0  0  0  0  0  0  0  0  0  0
   -7.3862    0.4562   -0.8593 N   0  0  0  0  0  0  0  0  0  0  0  0
   -6.6965    1.3137   -1.7596 C   0  0  0  0  0  0  0  0  0  0  0  0
   -5.6040    0.5367   -2.4107 C   0  0  0  0  0  0  0  0  0  0  0  0
   -5.7576   -0.8467   -1.9317 C   0  0  0  0  0  0  0  0  0  0  0  0
   -6.2773   -0.5847   -0.3668 C   0  0  1  0  0  0  0  0  0  0  0  0
   -5.1744    0.6020   -0.1008 C   0  0  0  0  0  0  0  0  0  0  0  0
   -5.5266    1.2221    0.9425 O   0  0  0  0  0  0  0  0  0  0  0  0
   -3.8179    0.1447   -0.2089 N   0  0  0  0  0  0  0  0  0  0  0  0
   -2.8434    0.7443    0.9105 C   0  0  1  0  0  0  0  0  0  0  0  0
   -2.9031   -0.6323    1.8438 C   0  0  0  0  0  0  0  0  0  0  0  0
   -2.9096   -1.7755    0.9666 C   0  0  0  0  0  0  0  0  0  0  0  0
   -2.5475   -2.1491   -0.2687 C   0  0  0  0  0  0  0  0  0  0  0  0
   -2.8770   -3.3757   -0.4992 N   0  0  0  0  0  0  0  0  0  0  0  0
   -3.3935   -3.8928    0.6073 C   0  0  0  0  0  0  0  0  0  0  0  0
   -3.2707   -2.9492    1.5495 N   0  0  0  0  0  0  0  0  0  0  0  0
   -1.4836    0.2514    0.1319 C   0  0  0  0  0  0  0  0  0  0  0  0
   -1.2910    0.9232   -0.9127 O   0  0  0  0  0  0  0  0  0  0  0  0
   -0.4449   -0.1755    0.9872 N   0  0  0  0  0  0  0  0  0  0  0  0
    0.9901    0.4640    0.7172 C   0  0  1  0  0  0  0  0  0  0  0  0
    1.4163    0.3447    2.3263 C   0  0  0  0  0  0  0  0  0  0  0  0
    1.0608   -0.9213    2.7063 O   0  0  0  0  0  0  0  0  0  0  0  0
    1.6564   -0.9970    0.3586 C   0  0  0  0  0  0  0  0  0  0  0  0
    1.2846   -1.4285   -0.7573 O   0  0  0  0  0  0  0  0  0  0  0  0
    2.9483   -1.1888    0.7474 N   0  0  0  0  0  0  0  0  0  0  0  0
    4.0730   -1.7580   -0.2358 C   0  0  1  0  0  0  0  0  0  0  0  0
    3.1805   -1.6147   -1.6471 C   0  0  0  0  0  0  0  0  0  0  0  0
    4.5247   -1.4393   -2.8670 S   0  0  0  0  0  0  0  0  0  0  0  0
    4.7567   -0.2960   -0.4909 C   0  0  0  0  0  0  0  0  0  0  0  0
    4.1323    0.7036   -0.2028 O   0  0  0  0  0  0  0  0  0  0  0  0
    6.1421   -0.2243   -0.5751 N   0  0  0  0  0  0  0  0  0  0  0  0
    6.8641    0.5494    0.6271 C   0  0  1  0  0  0  0  0  0  0  0  0
    7.9849    1.2136   -0.4229 C   0  0  0  0  0  0  0  0  0  0  0  0
    8.7901    2.0997    0.4615 C   0  0  0  0  0  0  0  0  0  0  0  0
    9.5294    1.4982    1.5002 N   0  0  0  0  0  0  0  0  0  0  0  0
    9.1091    3.2515    0.0940 O   0  0  0  0  0  0  0  0  0  0  0  0
    5.8329    1.8212    0.5845 C   0  0  0  0  0  0  0  0  0  0  0  0
    5.5827    2.1560    1.9640 N   0  0  0  0  0  0  0  0  0  0  0  0
    6.1163    2.7726   -0.1285 O   0  0  0  0  0  0  0  0  0  0  0  0
  1  2  1  0
  2  3  2  0
  2  4  1  0
  4  5  1  0
  5  6  1  0
  6  7  1  0
  7  8  1  0
  8  9  1  1
  9 10  2  0
  9 11  1  0
 12 11  1  6
 12 13  1  0
 13 14  1  0
 14 15  2  0
 15 16  1  0
 16 17  1  0
 17 18  2  0
 12 19  1  0
 19 20  2  0
 19 21  1  0
 22 21  1  1
 22 23  1  0
 23 24  1  0
 22 25  1  0
 25 26  2  0
 25 27  1  0
 28 27  1  1
 28 29  1  0
 29 30  1  0
 28 31  1  0
 31 32  2  0
 31 33  1  0
 34 33  1  6
 34 35  1  0
 35 36  1  0
 36 37  1  0
 36 38  2  0
 34 39  1  0
 39 40  1  0
 39 41  2  0
  8  4  1  0
 18 14  1  0
M  END
>  <zinc_id>  (1) 
ZINC000003924034

>  <smiles>  (1) 
CC(=O)N1CCC[C@H]1C(=O)N[C@@H](Cc1c[nH]cn1)C(=O)N[C@@H](CO)C(=O)N[C@@H](CS)C(=O)N[C@@H](CC(N)=O)C(N)=O

$$$$
