
     RDKit          3D

 49 53  0  0  0  0  0  0  0  0999 V2000
    6.0965   -0.1527    4.6759 C   0  0  0  0  0  0  0  0  0  0  0  0
    5.5342    0.3128    3.3959 C   0  0  0  0  0  0  0  0  0  0  0  0
    6.0251   -0.4015    2.1937 C   0  0  0  0  0  0  0  0  0  0  0  0
    5.6472    0.5969    0.9330 C   0  0  2  0  0  0  0  0  0  0  0  0
    4.4744   -0.3089    0.4122 N   0  0  0  0  0  0  0  0  0  0  0  0
    3.1278   -0.0320    0.8310 C   0  0  0  0  0  0  0  0  0  0  0  0
    2.9471    0.6547    1.8485 O   0  0  0  0  0  0  0  0  0  0  0  0
    2.6505   -1.5776    0.9431 C   0  0  2  0  0  0  0  0  0  0  0  0
    2.0352   -1.6130   -0.6325 C   0  0  1  0  0  0  0  0  0  0  0  0
    3.4147   -2.0622   -1.2975 C   0  0  0  0  0  0  0  0  0  0  0  0
    3.4907   -3.5133   -1.1946 C   0  0  0  0  0  0  0  0  0  0  0  0
    2.9361   -3.6960    0.2019 C   0  0  0  0  0  0  0  0  0  0  0  0
    1.4754   -3.1546   -0.2570 C   0  0  1  0  0  0  0  0  0  0  0  0
    1.0594   -2.8322    1.2753 C   0  0  0  0  0  0  0  0  0  0  0  0
    1.1619   -1.3736    1.3844 N   0  0  0  0  0  0  0  0  0  0  0  0
    0.1647   -0.5961    0.8340 C   0  0  0  0  0  0  0  0  0  0  0  0
    0.0887    0.6045    0.9848 O   0  0  0  0  0  0  0  0  0  0  0  0
   -1.2021   -1.4808    0.6748 C   0  0  1  0  0  0  0  0  0  0  0  0
   -2.1635   -0.3443    1.0231 N   0  0  0  0  0  0  0  0  0  0  0  0
   -3.4169   -0.2259    0.4582 C   0  0  0  0  0  0  0  0  0  0  0  0
   -3.3213    0.5592    1.3793 O   0  0  0  0  0  0  0  0  0  0  0  0
   -4.7675   -0.9124    1.0413 C   0  0  1  0  0  0  0  0  0  0  0  0
   -5.6985    0.3703    1.0427 N   0  0  0  0  0  0  0  0  0  0  0  0
   -5.5145    1.3548    2.0048 C   0  0  0  0  0  0  0  0  0  0  0  0
   -5.0652    1.0403    3.1440 O   0  0  0  0  0  0  0  0  0  0  0  0
   -5.7099    2.7634    1.6054 C   0  0  0  0  0  0  0  0  0  0  0  0
   -6.8860    3.1330    0.9566 C   0  0  0  0  0  0  0  0  0  0  0  0
   -6.9226    4.1919    0.1087 N   0  0  0  0  0  0  0  0  0  0  0  0
   -5.8264    4.3190   -0.6812 C   0  0  0  0  0  0  0  0  0  0  0  0
   -4.6242    4.1419   -0.0052 C   0  0  0  0  0  0  0  0  0  0  0  0
   -4.6123    3.3814    1.0964 N   0  0  0  0  0  0  0  0  0  0  0  0
   -5.2026   -1.2577   -0.5061 C   0  0  0  0  0  0  0  0  0  0  0  0
   -6.5639   -1.7181   -0.5713 C   0  0  0  0  0  0  0  0  0  0  0  0
   -6.9434   -1.5359   -2.0377 C   0  0  0  0  0  0  0  0  0  0  0  0
   -5.7606   -1.5008   -2.9595 C   0  0  0  0  0  0  0  0  0  0  0  0
   -4.8515   -0.3023   -2.7134 C   0  0  0  0  0  0  0  0  0  0  0  0
   -5.0879    0.0547   -1.2788 C   0  0  0  0  0  0  0  0  0  0  0  0
   -1.2377   -1.1236   -0.9210 C   0  0  0  0  0  0  0  0  0  0  0  0
   -1.7847   -1.8698   -1.4496 C   0  0  0  0  0  0  0  0  0  0  0  0
   -1.2881    0.2026   -1.2420 C   0  0  0  0  0  0  0  0  0  0  0  0
   -1.8288   -2.3221   -1.6329 C   0  0  0  0  0  0  0  0  0  0  0  0
    6.6918   -0.1359   -0.0689 C   0  0  0  0  0  0  0  0  0  0  0  0
    6.8834   -1.3483    0.0584 O   0  0  0  0  0  0  0  0  0  0  0  0
    6.4518    0.2711   -1.4640 C   0  0  0  0  0  0  0  0  0  0  0  0
    5.9658   -0.5339   -2.3182 O   0  0  0  0  0  0  0  0  0  0  0  0
    6.2583    1.6492   -1.7671 N   0  0  0  0  0  0  0  0  0  0  0  0
    6.7423    2.0719   -3.0747 C   0  0  0  0  0  0  0  0  0  0  0  0
    6.8294    3.4946   -3.4312 C   0  0  0  0  0  0  0  0  0  0  0  0
    8.1276    2.7579   -3.0030 C   0  0  0  0  0  0  0  0  0  0  0  0
  1  2  1  0
  2  3  1  0
  4  3  1  1
  4  5  1  0
  5  6  1  0
  6  7  2  0
  8  6  1  6
  8  9  1  0
  9 10  1  6
 10 11  1  0
 11 12  1  0
 13 12  1  1
 13 14  1  0
 14 15  1  0
 15 16  1  0
 16 17  2  0
 18 16  1  1
 18 19  1  0
 19 20  1  0
 20 21  2  0
 22 20  1  6
 22 23  1  0
 23 24  1  0
 24 25  2  0
 24 26  1  0
 26 27  2  0
 27 28  1  0
 28 29  2  0
 29 30  1  0
 30 31  2  0
 22 32  1  0
 32 33  1  0
 33 34  1  0
 34 35  1  0
 35 36  1  0
 36 37  1  0
 18 38  1  0
 38 39  1  0
 38 40  1  0
 38 41  1  0
  4 42  1  0
 42 43  2  0
 42 44  1  0
 44 45  2  0
 44 46  1  0
 46 47  1  0
 47 48  1  0
 48 49  1  0
 15  8  1  0
 31 26  1  0
 37 32  1  0
 49 47  1  0
 13  9  1  0
M  END
>  <zinc_id>  (1) 
ZINC000003992480

>  <smiles>  (1) 
CCC[C@H](NC(=O)[C@@H]1[C@H]2CCC[C@H]2CN1C(=O)[C@@H](NC(=O)[C@@H](NC(=O)c1cnccn1)C1CCCCC1)C(C)(C)C)C(=O)C(=O)NC1CC1

$$$$
