
     RDKit          3D

 38 40  0  0  0  0  0  0  0  0999 V2000
   -7.2352    0.3115    3.7047 C   0  0  0  0  0  0  0  0  0  0  0  0
   -7.5815    0.5297    2.5752 O   0  0  0  0  0  0  0  0  0  0  0  0
   -6.7654    0.0127    1.5714 C   0  0  0  0  0  0  0  0  0  0  0  0
   -6.2670    1.1936    0.7866 C   0  0  0  0  0  0  0  0  0  0  0  0
   -6.4837    1.0629   -0.6903 C   0  0  0  0  0  0  0  0  0  0  0  0
   -5.8081   -0.3889   -1.1165 C   0  0  2  0  0  0  0  0  0  0  0  0
   -4.4620   -0.0502   -0.3550 N   0  0  0  0  0  0  0  0  0  0  0  0
   -3.3007   -0.7071   -0.7758 C   0  0  0  0  0  0  0  0  0  0  0  0
   -3.3279   -1.5514   -1.7201 O   0  0  0  0  0  0  0  0  0  0  0  0
   -2.4246   -1.4126    0.4269 C   0  0  2  0  0  0  0  0  0  0  0  0
   -2.4788   -0.0429    1.3895 C   0  0  0  0  0  0  0  0  0  0  0  0
   -2.1326    0.9947    0.3896 C   0  0  0  0  0  0  0  0  0  0  0  0
   -1.2549    0.3763   -0.6428 C   0  0  0  0  0  0  0  0  0  0  0  0
   -1.0210   -0.9604   -0.2038 N   0  0  0  0  0  0  0  0  0  0  0  0
    0.1795   -1.5447    0.3531 C   0  0  0  0  0  0  0  0  0  0  0  0
    0.0843   -2.8105    0.4690 O   0  0  0  0  0  0  0  0  0  0  0  0
    1.2664   -1.3932   -0.8784 C   0  0  1  0  0  0  0  0  0  0  0  0
    1.4271    0.2544   -0.6155 C   0  0  0  0  0  0  0  0  0  0  0  0
    2.1607    0.6965   -1.8180 C   0  0  0  0  0  0  0  0  0  0  0  0
    1.7516    1.7289   -2.6361 C   0  0  0  0  0  0  0  0  0  0  0  0
    2.2573    1.7768   -3.9132 C   0  0  0  0  0  0  0  0  0  0  0  0
    3.4790    1.2212   -4.1694 C   0  0  0  0  0  0  0  0  0  0  0  0
    4.1432    0.6117   -3.1191 C   0  0  0  0  0  0  0  0  0  0  0  0
    3.3367    0.0437   -2.1407 C   0  0  0  0  0  0  0  0  0  0  0  0
    2.5160   -1.7597    0.0510 N   0  0  0  0  0  0  0  0  0  0  0  0
    2.7282   -1.0016    1.1886 C   0  0  0  0  0  0  0  0  0  0  0  0
    2.0739    0.0390    1.4193 O   0  0  0  0  0  0  0  0  0  0  0  0
    3.8129   -1.3368    2.0029 O   0  0  0  0  0  0  0  0  0  0  0  0
    4.1429   -0.4568    3.0750 C   0  0  0  0  0  0  0  0  0  0  0  0
    5.4210    0.2353    2.7641 C   0  0  0  0  0  0  0  0  0  0  0  0
    6.4198    0.4056    3.7095 C   0  0  0  0  0  0  0  0  0  0  0  0
    7.7568    0.3573    3.3992 C   0  0  0  0  0  0  0  0  0  0  0  0
    8.1133    0.4607    2.0768 C   0  0  0  0  0  0  0  0  0  0  0  0
    7.1213    0.7185    1.1390 C   0  0  0  0  0  0  0  0  0  0  0  0
    5.8073    0.4457    1.4463 C   0  0  0  0  0  0  0  0  0  0  0  0
   -5.2871    0.2414   -2.6373 B   0  0  0  0  0  0  0  0  0  0  0  0
   -6.0371   -0.2169   -3.7858 O   0  0  0  0  0  0  0  0  0  0  0  0
   -4.1317    1.0397   -2.7196 O   0  0  0  0  0  0  0  0  0  0  0  0
  1  2  1  0
  2  3  1  0
  3  4  1  0
  4  5  1  0
  6  5  1  1
  6  7  1  0
  7  8  1  0
  8  9  2  0
 10  8  1  6
 10 11  1  0
 11 12  1  0
 12 13  1  0
 13 14  1  0
 14 15  1  0
 15 16  2  0
 17 15  1  1
 17 18  1  0
 18 19  1  0
 19 20  2  0
 20 21  1  0
 21 22  2  0
 22 23  1  0
 23 24  2  0
 17 25  1  0
 25 26  1  0
 26 27  2  0
 26 28  1  0
 28 29  1  0
 29 30  1  0
 30 31  2  0
 31 32  1  0
 32 33  2  0
 33 34  1  0
 34 35  2  0
  6 36  1  0
 36 37  1  0
 36 38  1  0
 14 10  1  0
 24 19  1  0
 35 30  1  0
M  END
>  <zinc_id>  (1) 
ZINC000169746723

>  <smiles>  (1) 
COCCC[C@H](NC(=O)[C@@H]1CCCN1C(=O)[C@@H](Cc1ccccc1)NC(=O)OCc1ccccc1)B(O)O

$$$$
