25011733
  -OEChem-10051720553D

 51 53  0     1  0  0  0  0  0999 V2000
    6.5830   -0.6358    2.0005 F   0  0  0  0  0  0  0  0  0  0  0  0
   -1.5144   -1.6078   -1.5012 O   0  0  0  0  0  0  0  0  0  0  0  0
    1.4199   -1.2615    0.5310 O   0  0  0  0  0  0  0  0  0  0  0  0
   -1.0609   -0.2830    0.3415 N   0  0  0  0  0  0  0  0  0  0  0  0
    2.0634   -0.0759   -1.3661 N   0  0  0  0  0  0  0  0  0  0  0  0
   -2.6676   -3.2260    0.5356 N   0  0  0  0  0  0  0  0  0  0  0  0
    0.0112    0.4915   -0.2699 C   0  0  1  0  0  0  0  0  0  0  0  0
    0.2071    1.6832    0.6601 C   0  0  0  0  0  0  0  0  0  0  0  0
   -0.2076    1.1399    2.0252 C   0  0  0  0  0  0  0  0  0  0  0  0
   -1.3500    0.1924    1.6920 C   0  0  0  0  0  0  0  0  0  0  0  0
   -1.7890   -1.2307   -0.3609 C   0  0  0  0  0  0  0  0  0  0  0  0
    1.2243   -0.3884   -0.3104 C   0  0  0  0  0  0  0  0  0  0  0  0
   -2.9740   -1.8113    0.3687 C   0  0  1  0  0  0  0  0  0  0  0  0
   -4.2636   -1.6127   -0.4274 C   0  0  0  0  0  0  0  0  0  0  0  0
    3.3110   -0.7614   -1.6140 C   0  0  0  0  0  0  0  0  0  0  0  0
   -4.8355   -0.2226   -0.2741 C   0  0  0  0  0  0  0  0  0  0  0  0
    4.4624   -0.1057   -0.9079 C   0  0  0  0  0  0  0  0  0  0  0  0
   -5.7445    0.0485    0.7487 C   0  0  0  0  0  0  0  0  0  0  0  0
   -4.4549    0.7895   -1.1552 C   0  0  0  0  0  0  0  0  0  0  0  0
    4.9987   -0.6872    0.2410 C   0  0  0  0  0  0  0  0  0  0  0  0
    4.9953    1.0855   -1.4005 C   0  0  0  0  0  0  0  0  0  0  0  0
   -6.2726    1.3317    0.8903 C   0  0  0  0  0  0  0  0  0  0  0  0
   -4.9831    2.0726   -1.0134 C   0  0  0  0  0  0  0  0  0  0  0  0
   -5.8919    2.3438    0.0093 C   0  0  0  0  0  0  0  0  0  0  0  0
    6.0679   -0.0775    0.8971 C   0  0  0  0  0  0  0  0  0  0  0  0
    6.0646    1.6952   -0.7443 C   0  0  0  0  0  0  0  0  0  0  0  0
    6.6008    1.1136    0.4044 C   0  0  0  0  0  0  0  0  0  0  0  0
   -0.2816    0.7943   -1.2813 H   0  0  0  0  0  0  0  0  0  0  0  0
   -0.4734    2.4939    0.3722 H   0  0  0  0  0  0  0  0  0  0  0  0
    1.2279    2.0771    0.6645 H   0  0  0  0  0  0  0  0  0  0  0  0
   -0.5056    1.9271    2.7235 H   0  0  0  0  0  0  0  0  0  0  0  0
    0.6245    0.5860    2.4756 H   0  0  0  0  0  0  0  0  0  0  0  0
   -1.4029   -0.6414    2.3979 H   0  0  0  0  0  0  0  0  0  0  0  0
   -2.3080    0.7229    1.6722 H   0  0  0  0  0  0  0  0  0  0  0  0
   -3.1193   -1.3993    1.3677 H   0  0  0  0  0  0  0  0  0  0  0  0
   -5.0278   -2.3281   -0.0920 H   0  0  0  0  0  0  0  0  0  0  0  0
   -4.1186   -1.8300   -1.4943 H   0  0  0  0  0  0  0  0  0  0  0  0
    1.8173    0.6889   -1.9879 H   0  0  0  0  0  0  0  0  0  0  0  0
   -1.8647   -3.3344    1.1548 H   0  0  0  0  0  0  0  0  0  0  0  0
   -3.4455   -3.6956    0.9976 H   0  0  0  0  0  0  0  0  0  0  0  0
    3.2112   -1.8097   -1.3089 H   0  0  0  0  0  0  0  0  0  0  0  0
    3.4834   -0.7573   -2.6963 H   0  0  0  0  0  0  0  0  0  0  0  0
   -6.0470   -0.7308    1.4432 H   0  0  0  0  0  0  0  0  0  0  0  0
   -3.7483    0.5917   -1.9568 H   0  0  0  0  0  0  0  0  0  0  0  0
    4.5925   -1.6139    0.6372 H   0  0  0  0  0  0  0  0  0  0  0  0
    4.5855    1.5479   -2.2947 H   0  0  0  0  0  0  0  0  0  0  0  0
   -6.9796    1.5431    1.6872 H   0  0  0  0  0  0  0  0  0  0  0  0
   -4.6865    2.8608   -1.6992 H   0  0  0  0  0  0  0  0  0  0  0  0
   -6.3028    3.3430    0.1199 H   0  0  0  0  0  0  0  0  0  0  0  0
    6.4794    2.6228   -1.1277 H   0  0  0  0  0  0  0  0  0  0  0  0
    7.4333    1.5881    0.9156 H   0  0  0  0  0  0  0  0  0  0  0  0
  1 25  1  0  0  0  0
  2 11  2  0  0  0  0
  3 12  2  0  0  0  0
  4  7  1  0  0  0  0
  4 10  1  0  0  0  0
  4 11  1  0  0  0  0
  5 12  1  0  0  0  0
  5 15  1  0  0  0  0
  5 38  1  0  0  0  0
  6 13  1  0  0  0  0
  6 39  1  0  0  0  0
  6 40  1  0  0  0  0
  7  8  1  0  0  0  0
  7 12  1  0  0  0  0
  7 28  1  0  0  0  0
  8  9  1  0  0  0  0
  8 29  1  0  0  0  0
  8 30  1  0  0  0  0
  9 10  1  0  0  0  0
  9 31  1  0  0  0  0
  9 32  1  0  0  0  0
 10 33  1  0  0  0  0
 10 34  1  0  0  0  0
 11 13  1  0  0  0  0
 13 14  1  0  0  0  0
 13 35  1  0  0  0  0
 14 16  1  0  0  0  0
 14 36  1  0  0  0  0
 14 37  1  0  0  0  0
 15 17  1  0  0  0  0
 15 41  1  0  0  0  0
 15 42  1  0  0  0  0
 16 18  2  0  0  0  0
 16 19  1  0  0  0  0
 17 20  2  0  0  0  0
 17 21  1  0  0  0  0
 18 22  1  0  0  0  0
 18 43  1  0  0  0  0
 19 23  2  0  0  0  0
 19 44  1  0  0  0  0
 20 25  1  0  0  0  0
 20 45  1  0  0  0  0
 21 26  2  0  0  0  0
 21 46  1  0  0  0  0
 22 24  2  0  0  0  0
 22 47  1  0  0  0  0
 23 24  1  0  0  0  0
 23 48  1  0  0  0  0
 24 49  1  0  0  0  0
 25 27  2  0  0  0  0
 26 27  1  0  0  0  0
 26 50  1  0  0  0  0
 27 51  1  0  0  0  0
M  END
> <DATABASE_ID>
DB07027

> <DATABASE_NAME>
drugbank

> <ORIGINAL_SOURCE>
PUBCHEM

> <ORIGINAL_SOURCE_URL>
https://pubchem.ncbi.nlm.nih.gov/rest/pug/compound/inchikey/JGZSVYZIJHGHMA-MOPGFXCFSA-N/SDF?record_type=3d

> <SMILES>
[H][C@@](N)(CC1=CC=CC=C1)C(=O)N1CCC[C@@]1([H])C(=O)NCC1=CC=CC(F)=C1

> <INCHI_IDENTIFIER>
InChI=1S/C21H24FN3O2/c22-17-9-4-8-16(12-17)14-24-20(26)19-10-5-11-25(19)21(27)18(23)13-15-6-2-1-3-7-15/h1-4,6-9,12,18-19H,5,10-11,13-14,23H2,(H,24,26)/t18-,19+/m1/s1

> <INCHI_KEY>
JGZSVYZIJHGHMA-MOPGFXCFSA-N

> <FORMULA>
C21H24FN3O2

> <MOLECULAR_WEIGHT>
369.4326

> <EXACT_MASS>
369.185255232

> <JCHEM_ACCEPTOR_COUNT>
3

> <JCHEM_ATOM_COUNT>
51

> <JCHEM_AVERAGE_NEUTRAL_MICROSPECIES_CHARGE>
0.8341545167631055

> <JCHEM_AVERAGE_POLARIZABILITY>
38.920723601170465

> <JCHEM_BIOAVAILABILITY>
1

> <JCHEM_DONOR_COUNT>
2

> <JCHEM_FORMAL_CHARGE>
0

> <JCHEM_GHOSE_FILTER>
1

> <JCHEM_IUPAC>
(2S)-1-[(2R)-2-amino-3-phenylpropanoyl]-N-[(3-fluorophenyl)methyl]pyrrolidine-2-carboxamide

> <ALOGPS_LOGP>
1.78

> <JCHEM_LOGP>
2.097670139

> <ALOGPS_LOGS>
-3.92

> <JCHEM_MDDR_LIKE_RULE>
1

> <JCHEM_NEUTRAL_CHARGE>
1

> <JCHEM_NUMBER_OF_RINGS>
3

> <JCHEM_PHYSIOLOGICAL_CHARGE>
1

> <JCHEM_PKA_STRONGEST_ACIDIC>
14.212289692969756

> <JCHEM_PKA_STRONGEST_BASIC>
7.701542830823311

> <JCHEM_POLAR_SURFACE_AREA>
75.43

> <JCHEM_REFRACTIVITY>
101.65070000000001

> <JCHEM_ROTATABLE_BOND_COUNT>
6

> <JCHEM_RULE_OF_FIVE>
1

> <ALOGPS_SOLUBILITY>
4.45e-02 g/l

> <JCHEM_TRADITIONAL_IUPAC>
tetrahydrofolic acid

> <JCHEM_VEBER_RULE>
0

$$$$
