25134248
  -OEChem-10051720573D

 60 62  0     1  0  0  0  0  0999 V2000
   -2.9473   -2.5874    1.5280 O   0  0  0  0  0  0  0  0  0  0  0  0
   -2.6662    1.6929    0.9941 O   0  0  0  0  0  0  0  0  0  0  0  0
   -3.5677   -0.7404    0.2863 N   0  0  0  0  0  0  0  0  0  0  0  0
   -1.8419    2.0521   -1.1531 N   0  0  0  0  0  0  0  0  0  0  0  0
    4.8530    2.0689    1.8717 N   0  0  0  0  0  0  0  0  0  0  0  0
    5.0777    1.0396   -0.2142 N   0  0  0  0  0  0  0  0  0  0  0  0
    1.0481   -2.6307    0.2219 C   0  0  0  0  0  0  0  0  0  0  0  0
    1.9080   -3.7151    0.8852 C   0  0  0  0  0  0  0  0  0  0  0  0
    1.1048   -2.7477   -1.3072 C   0  0  0  0  0  0  0  0  0  0  0  0
   -0.3953   -2.7098    0.7158 C   0  0  0  0  0  0  0  0  0  0  0  0
    3.3443   -3.6905    0.3674 C   0  0  0  0  0  0  0  0  0  0  0  0
    2.5425   -2.7250   -1.8214 C   0  0  0  0  0  0  0  0  0  0  0  0
    3.3962   -3.7983   -1.1534 C   0  0  0  0  0  0  0  0  0  0  0  0
   -3.3698    0.2480   -0.7711 C   0  0  1  0  0  0  0  0  0  0  0  0
   -1.2730   -1.6053    0.1528 C   0  0  0  0  0  0  0  0  0  0  0  0
   -4.7808    0.6876   -1.1515 C   0  0  0  0  0  0  0  0  0  0  0  0
   -4.9443   -0.7272    0.7648 C   0  0  0  0  0  0  0  0  0  0  0  0
   -5.5677    0.5129    0.1450 C   0  0  0  0  0  0  0  0  0  0  0  0
   -2.6657   -1.6971    0.7231 C   0  0  0  0  0  0  0  0  0  0  0  0
   -2.5947    1.3948   -0.1952 C   0  0  0  0  0  0  0  0  0  0  0  0
   -1.0227    3.2059   -0.8599 C   0  0  0  0  0  0  0  0  0  0  0  0
    0.3749    2.8186   -0.4716 C   0  0  0  0  0  0  0  0  0  0  0  0
    0.8773    3.1822    0.7780 C   0  0  0  0  0  0  0  0  0  0  0  0
    1.1707    2.0947   -1.3594 C   0  0  0  0  0  0  0  0  0  0  0  0
    2.1753    2.8219    1.1396 C   0  0  0  0  0  0  0  0  0  0  0  0
    2.4690    1.7347   -0.9977 C   0  0  0  0  0  0  0  0  0  0  0  0
    2.9712    2.0982    0.2518 C   0  0  0  0  0  0  0  0  0  0  0  0
    4.3241    1.7215    0.6300 C   0  0  0  0  0  0  0  0  0  0  0  0
    1.4585   -1.6518    0.5069 H   0  0  0  0  0  0  0  0  0  0  0  0
    1.9145   -3.5749    1.9727 H   0  0  0  0  0  0  0  0  0  0  0  0
    1.4736   -4.7050    0.6948 H   0  0  0  0  0  0  0  0  0  0  0  0
    0.6167   -3.6749   -1.6331 H   0  0  0  0  0  0  0  0  0  0  0  0
    0.5754   -1.9176   -1.7860 H   0  0  0  0  0  0  0  0  0  0  0  0
   -0.8209   -3.6895    0.4603 H   0  0  0  0  0  0  0  0  0  0  0  0
   -0.3947   -2.6517    1.8126 H   0  0  0  0  0  0  0  0  0  0  0  0
    3.9114   -4.5145    0.8149 H   0  0  0  0  0  0  0  0  0  0  0  0
    3.8299   -2.7591    0.6840 H   0  0  0  0  0  0  0  0  0  0  0  0
    2.9826   -1.7382   -1.6309 H   0  0  0  0  0  0  0  0  0  0  0  0
    2.5483   -2.8726   -2.9072 H   0  0  0  0  0  0  0  0  0  0  0  0
    4.4338   -3.7095   -1.4943 H   0  0  0  0  0  0  0  0  0  0  0  0
    3.0421   -4.7899   -1.4612 H   0  0  0  0  0  0  0  0  0  0  0  0
   -2.8412   -0.1982   -1.6186 H   0  0  0  0  0  0  0  0  0  0  0  0
   -0.8451   -0.6284    0.3977 H   0  0  0  0  0  0  0  0  0  0  0  0
   -1.3576   -1.6990   -0.9329 H   0  0  0  0  0  0  0  0  0  0  0  0
   -5.1866    0.0115   -1.9140 H   0  0  0  0  0  0  0  0  0  0  0  0
   -4.8387    1.7107   -1.5353 H   0  0  0  0  0  0  0  0  0  0  0  0
   -4.9700   -0.7204    1.8587 H   0  0  0  0  0  0  0  0  0  0  0  0
   -5.4317   -1.6414    0.4080 H   0  0  0  0  0  0  0  0  0  0  0  0
   -5.4144    1.3805    0.7974 H   0  0  0  0  0  0  0  0  0  0  0  0
   -6.6429    0.4028   -0.0221 H   0  0  0  0  0  0  0  0  0  0  0  0
   -1.8550    1.7174   -2.1122 H   0  0  0  0  0  0  0  0  0  0  0  0
   -1.5069    3.7886   -0.0680 H   0  0  0  0  0  0  0  0  0  0  0  0
   -0.9942    3.8321   -1.7586 H   0  0  0  0  0  0  0  0  0  0  0  0
    0.2679    3.7451    1.4800 H   0  0  0  0  0  0  0  0  0  0  0  0
    0.7931    1.8073   -2.3372 H   0  0  0  0  0  0  0  0  0  0  0  0
    2.5154    3.1293    2.1223 H   0  0  0  0  0  0  0  0  0  0  0  0
    3.0615    1.1702   -1.7125 H   0  0  0  0  0  0  0  0  0  0  0  0
    4.3455    2.5894    2.5761 H   0  0  0  0  0  0  0  0  0  0  0  0
    5.7998    1.7982    2.1168 H   0  0  0  0  0  0  0  0  0  0  0  0
    5.9878    0.8725    0.2292 H   0  0  0  0  0  0  0  0  0  0  0  0
  1 19  2  0  0  0  0
  2 20  2  0  0  0  0
  3 14  1  0  0  0  0
  3 17  1  0  0  0  0
  3 19  1  0  0  0  0
  4 20  1  0  0  0  0
  4 21  1  0  0  0  0
  4 51  1  0  0  0  0
  5 28  1  0  0  0  0
  5 58  1  0  0  0  0
  5 59  1  0  0  0  0
  6 28  2  0  0  0  0
  6 60  1  0  0  0  0
  7  8  1  0  0  0  0
  7  9  1  0  0  0  0
  7 10  1  0  0  0  0
  7 29  1  0  0  0  0
  8 11  1  0  0  0  0
  8 30  1  0  0  0  0
  8 31  1  0  0  0  0
  9 12  1  0  0  0  0
  9 32  1  0  0  0  0
  9 33  1  0  0  0  0
 10 15  1  0  0  0  0
 10 34  1  0  0  0  0
 10 35  1  0  0  0  0
 11 13  1  0  0  0  0
 11 36  1  0  0  0  0
 11 37  1  0  0  0  0
 12 13  1  0  0  0  0
 12 38  1  0  0  0  0
 12 39  1  0  0  0  0
 13 40  1  0  0  0  0
 13 41  1  0  0  0  0
 14 16  1  0  0  0  0
 14 20  1  0  0  0  0
 14 42  1  0  0  0  0
 15 19  1  0  0  0  0
 15 43  1  0  0  0  0
 15 44  1  0  0  0  0
 16 18  1  0  0  0  0
 16 45  1  0  0  0  0
 16 46  1  0  0  0  0
 17 18  1  0  0  0  0
 17 47  1  0  0  0  0
 17 48  1  0  0  0  0
 18 49  1  0  0  0  0
 18 50  1  0  0  0  0
 21 22  1  0  0  0  0
 21 52  1  0  0  0  0
 21 53  1  0  0  0  0
 22 23  2  0  0  0  0
 22 24  1  0  0  0  0
 23 25  1  0  0  0  0
 23 54  1  0  0  0  0
 24 26  2  0  0  0  0
 24 55  1  0  0  0  0
 25 27  2  0  0  0  0
 25 56  1  0  0  0  0
 26 27  1  0  0  0  0
 26 57  1  0  0  0  0
 27 28  1  0  0  0  0
M  END
> <DATABASE_ID>
DB07131

> <DATABASE_NAME>
drugbank

> <ORIGINAL_SOURCE>
PUBCHEM

> <ORIGINAL_SOURCE_URL>
https://pubchem.ncbi.nlm.nih.gov/rest/pug/compound/inchikey/DOTBZTLJSXFKCP-IBGZPJMESA-N/SDF?record_type=3d

> <SMILES>
[H][C@]1(CCCN1C(=O)CCC1CCCCC1)C(=O)NCC1=CC=C(C=C1)C(N)=N

> <INCHI_IDENTIFIER>
InChI=1S/C22H32N4O2/c23-21(24)18-11-8-17(9-12-18)15-25-22(28)19-7-4-14-26(19)20(27)13-10-16-5-2-1-3-6-16/h8-9,11-12,16,19H,1-7,10,13-15H2,(H3,23,24)(H,25,28)/t19-/m0/s1

> <INCHI_KEY>
DOTBZTLJSXFKCP-IBGZPJMESA-N

> <FORMULA>
C22H32N4O2

> <MOLECULAR_WEIGHT>
384.5151

> <EXACT_MASS>
384.252526288

> <JCHEM_ACCEPTOR_COUNT>
4

> <JCHEM_ATOM_COUNT>
60

> <JCHEM_AVERAGE_NEUTRAL_MICROSPECIES_CHARGE>
0.999967150611692

> <JCHEM_AVERAGE_POLARIZABILITY>
44.01432018504609

> <JCHEM_BIOAVAILABILITY>
1

> <JCHEM_DONOR_COUNT>
3

> <JCHEM_FORMAL_CHARGE>
0

> <JCHEM_GHOSE_FILTER>
1

> <JCHEM_IUPAC>
(2S)-N-[(4-carbamimidoylphenyl)methyl]-1-(3-cyclohexylpropanoyl)pyrrolidine-2-carboxamide

> <ALOGPS_LOGP>
2.87

> <JCHEM_LOGP>
2.321148275333333

> <ALOGPS_LOGS>
-4.09

> <JCHEM_MDDR_LIKE_RULE>
1

> <JCHEM_NEUTRAL_CHARGE>
1

> <JCHEM_NUMBER_OF_RINGS>
3

> <JCHEM_PHYSIOLOGICAL_CHARGE>
1

> <JCHEM_PKA_STRONGEST_ACIDIC>
14.452161981985283

> <JCHEM_PKA_STRONGEST_BASIC>
11.483722736381266

> <JCHEM_POLAR_SURFACE_AREA>
99.28

> <JCHEM_REFRACTIVITY>
121.01249999999997

> <JCHEM_ROTATABLE_BOND_COUNT>
7

> <JCHEM_RULE_OF_FIVE>
1

> <ALOGPS_SOLUBILITY>
3.10e-02 g/l

> <JCHEM_TRADITIONAL_IUPAC>
tetrahydrofolic acid

> <JCHEM_VEBER_RULE>
0

$$$$
