
     RDKit          3D

 32 34  0  0  0  0  0  0  0  0999 V2000
    7.5742    1.8210   -0.5527 N   0  0  0  0  0  0  0  0  0  0  0  0
    7.1976    0.8981   -0.2976 C   0  0  0  0  0  0  0  0  0  0  0  0
    6.5259   -0.3458   -0.0055 C   0  0  0  0  0  0  0  0  0  0  0  0
    7.0198   -1.2522    0.9106 C   0  0  0  0  0  0  0  0  0  0  0  0
    6.2507   -2.2885    1.4163 C   0  0  0  0  0  0  0  0  0  0  0  0
    4.9340   -2.3900    0.9992 C   0  0  0  0  0  0  0  0  0  0  0  0
    4.4239   -1.5008    0.0772 C   0  0  0  0  0  0  0  0  0  0  0  0
    2.9677   -1.3784   -0.0504 C   0  0  0  0  0  0  0  0  0  0  0  0
    2.5302   -0.1894    1.0188 C   0  0  2  0  0  0  0  0  0  0  0  0
    1.0502   -0.1915    0.4696 N   0  0  0  0  0  0  0  0  0  0  0  0
    0.4035    0.9878    0.2156 C   0  0  0  0  0  0  0  0  0  0  0  0
    0.9450    2.0715    0.6046 O   0  0  0  0  0  0  0  0  0  0  0  0
   -1.1549    1.1384    0.7259 C   0  0  2  0  0  0  0  0  0  0  0  0
   -1.5247   -0.4898    0.5848 C   0  0  0  0  0  0  0  0  0  0  0  0
   -1.1849   -0.7629   -0.8092 C   0  0  0  0  0  0  0  0  0  0  0  0
   -0.9892    0.4965   -1.5733 C   0  0  0  0  0  0  0  0  0  0  0  0
   -1.6833    1.4430   -0.7593 N   0  0  0  0  0  0  0  0  0  0  0  0
   -3.0445    1.8016   -0.9391 C   0  0  0  0  0  0  0  0  0  0  0  0
   -3.5811    2.8470   -0.5676 O   0  0  0  0  0  0  0  0  0  0  0  0
   -4.0464    0.5192   -1.1501 C   0  0  2  0  0  0  0  0  0  0  0  0
   -5.1321    1.3971   -1.9452 N   0  0  0  0  0  0  0  0  0  0  0  0
   -4.8151    0.7856    0.3154 C   0  0  0  0  0  0  0  0  0  0  0  0
   -5.7124   -0.4068    0.3424 C   0  0  0  0  0  0  0  0  0  0  0  0
   -7.0709   -0.1946    0.2833 C   0  0  0  0  0  0  0  0  0  0  0  0
   -7.9445   -1.2498    0.1704 C   0  0  0  0  0  0  0  0  0  0  0  0
   -7.4872   -2.5535    0.0209 C   0  0  0  0  0  0  0  0  0  0  0  0
   -6.1243   -2.7481    0.0913 C   0  0  0  0  0  0  0  0  0  0  0  0
   -5.2425   -1.6967    0.3061 C   0  0  0  0  0  0  0  0  0  0  0  0
    3.0447    1.0775   -0.0396 B   0  0  0  0  0  0  0  0  0  0  0  0
    3.8598    2.0555    0.6329 O   0  0  0  0  0  0  0  0  0  0  0  0
    2.6755    1.0132   -1.4066 O   0  0  0  0  0  0  0  0  0  0  0  0
    5.3354   -0.7140   -0.6189 C   0  0  0  0  0  0  0  0  0  0  0  0
  1  2  3  0
  2  3  1  0
  3  4  2  0
  4  5  1  0
  5  6  2  0
  6  7  1  0
  7  8  1  0
  9  8  1  6
  9 10  1  0
 10 11  1  0
 11 12  2  0
 13 11  1  6
 13 14  1  0
 14 15  1  0
 15 16  1  0
 16 17  1  0
 17 18  1  0
 18 19  2  0
 20 18  1  1
 20 21  1  0
 20 22  1  0
 22 23  1  0
 23 24  2  0
 24 25  1  0
 25 26  2  0
 26 27  1  0
 27 28  2  0
  9 29  1  0
 29 30  1  0
 29 31  1  0
  7 32  2  0
 32  3  1  0
 17 13  1  0
 28 23  1  0
M  END
>  <zinc_id>  (1) 
ZINC000169748507

>  <smiles>  (1) 
N#Cc1cccc(C[C@H](NC(=O)[C@@H]2CCCN2C(=O)[C@H](N)Cc2ccccc2)B(O)O)c1

$$$$
