
     RDKit          3D

 41 42  0  0  0  0  0  0  0  0999 V2000
   -7.1143    0.8662   -0.5102 C   0  0  0  0  0  0  0  0  0  0  0  0
   -7.3251    0.7661   -0.8262 C   0  0  0  0  0  0  0  0  0  0  0  0
   -6.9054    2.1255   -0.7324 C   0  0  0  0  0  0  0  0  0  0  0  0
   -7.4864   -0.2871    0.1078 C   0  0  0  0  0  0  0  0  0  0  0  0
   -6.3714   -1.3673   -0.4527 C   0  0  1  0  0  0  0  0  0  0  0  0
   -5.3564   -0.9864    0.6923 N   0  0  0  0  0  0  0  0  0  0  0  0
   -4.1844   -0.4288    0.1734 C   0  0  0  0  0  0  0  0  0  0  0  0
   -3.6164   -0.8562   -0.8168 O   0  0  0  0  0  0  0  0  0  0  0  0
   -3.2938    0.2284    1.3491 C   0  0  2  0  0  0  0  0  0  0  0  0
   -2.5644    1.2703    0.3028 C   0  0  0  0  0  0  0  0  0  0  0  0
   -3.5817    2.2810   -0.0195 C   0  0  0  0  0  0  0  0  0  0  0  0
   -4.7381    2.5070    0.6785 C   0  0  0  0  0  0  0  0  0  0  0  0
   -5.8115    2.9953   -0.0589 C   0  0  0  0  0  0  0  0  0  0  0  0
   -5.6028    3.6361   -1.2695 C   0  0  0  0  0  0  0  0  0  0  0  0
   -4.3268    3.7527   -1.7550 C   0  0  0  0  0  0  0  0  0  0  0  0
   -3.3174    3.0815   -1.0972 C   0  0  0  0  0  0  0  0  0  0  0  0
   -2.1841   -0.8896    1.2589 N   0  0  0  0  0  0  0  0  0  0  0  0
   -0.8649   -0.4924    1.0419 C   0  0  0  0  0  0  0  0  0  0  0  0
   -0.7729    0.1899   -0.0285 O   0  0  0  0  0  0  0  0  0  0  0  0
    0.3503   -1.0848    1.6496 C   0  0  0  0  0  0  0  0  0  0  0  0
    1.3585   -1.1576    0.6366 N   0  0  0  0  0  0  0  0  0  0  0  0
    1.8879   -2.3810    0.1305 C   0  0  0  0  0  0  0  0  0  0  0  0
    1.5395   -3.3972    0.8107 O   0  0  0  0  0  0  0  0  0  0  0  0
    3.4970   -2.4517    0.0243 C   0  0  1  0  0  0  0  0  0  0  0  0
    3.4238   -3.3531   -1.3510 C   0  0  0  0  0  0  0  0  0  0  0  0
    3.5843   -1.1114   -0.8008 N   0  0  0  0  0  0  0  0  0  0  0  0
    4.2034   -0.1061   -0.0085 C   0  0  0  0  0  0  0  0  0  0  0  0
    4.0188    0.0645    1.1888 O   0  0  0  0  0  0  0  0  0  0  0  0
    5.4084    0.6933   -0.7220 C   0  0  1  0  0  0  0  0  0  0  0  0
    4.9973    2.0703   -0.0680 N   0  0  0  0  0  0  0  0  0  0  0  0
    6.4694    0.3620    0.4925 C   0  0  0  0  0  0  0  0  0  0  0  0
    7.7650    0.0985   -0.1571 C   0  0  0  0  0  0  0  0  0  0  0  0
    8.4688    1.1544   -0.7186 C   0  0  0  0  0  0  0  0  0  0  0  0
    9.8400    1.2435   -0.6677 C   0  0  0  0  0  0  0  0  0  0  0  0
   10.5769    0.2694   -0.0441 C   0  0  0  0  0  0  0  0  0  0  0  0
   11.8415    0.5771    0.4064 O   0  0  0  0  0  0  0  0  0  0  0  0
    9.9305   -0.8714    0.3627 C   0  0  0  0  0  0  0  0  0  0  0  0
    8.5431   -0.9425    0.3348 C   0  0  0  0  0  0  0  0  0  0  0  0
   -7.0225   -2.5867    0.3788 C   0  0  0  0  0  0  0  0  0  0  0  0
   -7.9788   -3.0936   -0.2878 O   0  0  0  0  0  0  0  0  0  0  0  0
   -7.2848   -2.3879    1.6984 O   0  0  0  0  0  0  0  0  0  0  0  0
  1  2  1  0
  2  3  1  0
  2  4  1  0
  5  4  1  1
  5  6  1  0
  6  7  1  0
  7  8  2  0
  9  7  1  6
  9 10  1  0
 10 11  1  0
 11 12  2  0
 12 13  1  0
 13 14  2  0
 14 15  1  0
 15 16  2  0
  9 17  1  0
 17 18  1  0
 18 19  2  0
 18 20  1  0
 20 21  1  0
 21 22  1  0
 22 23  2  0
 24 22  1  1
 24 25  1  0
 24 26  1  0
 26 27  1  0
 27 28  2  0
 29 27  1  1
 29 30  1  0
 29 31  1  0
 31 32  1  0
 32 33  2  0
 33 34  1  0
 34 35  2  0
 35 36  1  0
 35 37  1  0
 37 38  2  0
  5 39  1  0
 39 40  2  0
 39 41  1  0
 16 11  1  0
 38 32  1  0
M  END
>  <zinc_id>  (1) 
ZINC000014952092

>  <smiles>  (1) 
CC(C)C[C@@H](NC(=O)[C@H](Cc1ccccc1)NC(=O)CNC(=O)[C@@H](C)NC(=O)[C@@H](N)Cc1ccc(O)cc1)C(=O)O

$$$$
