
     RDKit          3D

 41 41  0  0  0  0  0  0  0  0999 V2000
   11.2109    0.7162    2.3028 C   0  0  0  0  0  0  0  0  0  0  0  0
   10.3713    0.7601    1.2348 C   0  0  0  0  0  0  0  0  0  0  0  0
   11.0268    0.3485   -0.0682 C   0  0  0  0  0  0  0  0  0  0  0  0
   10.6694   -1.0802   -0.4017 C   0  0  0  0  0  0  0  0  0  0  0  0
    9.3008   -1.1629   -1.0664 C   0  0  0  0  0  0  0  0  0  0  0  0
    8.5289    0.1219   -0.8368 C   0  0  0  0  0  0  0  0  0  0  0  0
    8.1492    0.6898   -2.1808 C   0  0  0  0  0  0  0  0  0  0  0  0
    6.7162    1.1600   -2.1964 C   0  0  0  0  0  0  0  0  0  0  0  0
    5.7702    0.0762   -2.6638 C   0  0  0  0  0  0  0  0  0  0  0  0
    6.0363   -1.1914   -1.9013 C   0  0  0  0  0  0  0  0  0  0  0  0
    4.8780   -1.5934   -1.0189 C   0  0  0  0  0  0  0  0  0  0  0  0
    4.8116   -0.7332    0.2201 C   0  0  0  0  0  0  0  0  0  0  0  0
    3.9243    0.4534   -0.0784 C   0  0  0  0  0  0  0  0  0  0  0  0
    3.6659    1.2833    1.1504 C   0  0  0  0  0  0  0  0  0  0  0  0
    2.6603    0.5870    2.0608 C   0  0  0  0  0  0  0  0  0  0  0  0
    1.3735    0.4633    1.3112 C   0  0  0  0  0  0  0  0  0  0  0  0
    0.7482    1.4655    0.8661 O   0  0  0  0  0  0  0  0  0  0  0  0
    0.8343   -0.8043    0.9199 N   0  0  0  0  0  0  0  0  0  0  0  0
    0.4352   -1.0280   -0.4685 C   0  0  0  0  0  0  0  0  0  0  0  0
   -0.9590   -1.5611   -0.5490 C   0  0  0  0  0  0  0  0  0  0  0  0
   -1.1654   -2.8099   -0.4659 O   0  0  0  0  0  0  0  0  0  0  0  0
   -2.0209   -0.8383   -1.1870 N   0  0  0  0  0  0  0  0  0  0  0  0
   -3.2859   -0.9166   -0.1994 C   0  0  1  0  0  0  0  0  0  0  0  0
   -3.4244    0.7538   -0.1772 C   0  0  0  0  0  0  0  0  0  0  0  0
   -3.7349    1.0310    1.2477 C   0  0  0  0  0  0  0  0  0  0  0  0
   -3.3783    0.2887    2.3608 C   0  0  0  0  0  0  0  0  0  0  0  0
   -4.0961    0.7793    3.4020 N   0  0  0  0  0  0  0  0  0  0  0  0
   -4.9092    1.7701    2.9684 C   0  0  0  0  0  0  0  0  0  0  0  0
   -4.4328    2.0763    1.7388 N   0  0  0  0  0  0  0  0  0  0  0  0
   -4.3746   -1.0400   -1.4249 C   0  0  0  0  0  0  0  0  0  0  0  0
   -4.1396   -0.3410   -2.4218 O   0  0  0  0  0  0  0  0  0  0  0  0
   -5.6547   -0.7358   -0.8376 N   0  0  0  0  0  0  0  0  0  0  0  0
   -6.7744   -1.2817   -1.8480 C   0  0  1  0  0  0  0  0  0  0  0  0
   -7.7857   -1.6983   -0.5777 C   0  0  0  0  0  0  0  0  0  0  0  0
   -7.8212   -0.5141    0.3187 C   0  0  0  0  0  0  0  0  0  0  0  0
   -6.9223   -0.5862    1.5132 C   0  0  0  0  0  0  0  0  0  0  0  0
   -7.1701    0.6228    2.3879 C   0  0  0  0  0  0  0  0  0  0  0  0
   -6.0975    0.6957    3.3773 N   0  0  0  0  0  0  0  0  0  0  0  0
   -7.4530    0.2105   -1.9887 C   0  0  0  0  0  0  0  0  0  0  0  0
   -6.6871    0.9985   -2.5798 O   0  0  0  0  0  0  0  0  0  0  0  0
   -8.8244    0.1271   -2.2425 O   0  0  0  0  0  0  0  0  0  0  0  0
  1  2  1  0
  2  3  1  0
  3  4  1  0
  4  5  1  0
  5  6  1  0
  6  7  1  0
  7  8  1  0
  8  9  1  0
  9 10  1  0
 10 11  1  0
 11 12  1  0
 12 13  1  0
 13 14  1  0
 14 15  1  0
 15 16  1  0
 16 17  2  0
 16 18  1  0
 18 19  1  0
 19 20  1  0
 20 21  2  0
 20 22  1  0
 23 22  1  6
 23 24  1  0
 24 25  1  0
 25 26  2  0
 26 27  1  0
 27 28  1  0
 28 29  2  0
 23 30  1  0
 30 31  2  0
 30 32  1  0
 33 32  1  1
 33 34  1  0
 34 35  1  0
 35 36  1  0
 36 37  1  0
 37 38  1  0
 33 39  1  0
 39 40  2  0
 39 41  1  0
 29 25  1  0
M  END
>  <zinc_id>  (1) 
ZINC000113569616

>  <smiles>  (1) 
CCCCCCCCCCCCCCCC(=O)NCC(=O)N[C@@H](Cc1c[nH]cn1)C(=O)N[C@@H](CCCCN)C(=O)O

$$$$
