
     RDKit          3D

 17 18  0  0  0  0  0  0  0  0999 V2000
   -0.4245    1.2073    0.2173 O   0  0  0  0  0  0  0  0  0  0  0  0
   -0.3064    0.6832   -0.0619 C   0  0  0  0  0  0  0  0  0  0  0  0
    1.1316    0.3253   -0.3119 C   0  0  0  0  0  0  0  0  0  0  0  0
    1.7021    0.2971    1.0053 N   0  0  0  0  0  0  0  0  0  0  0  0
    3.2631    0.3561    0.8374 C   0  0  2  0  0  0  0  0  0  0  0  0
    3.1933    1.5497   -0.2859 C   0  0  0  0  0  0  0  0  0  0  0  0
    4.4688    1.1118   -0.9915 C   0  0  0  0  0  0  0  0  0  0  0  0
    4.3194   -0.3062   -1.1893 N   0  0  0  0  0  0  0  0  0  0  0  0
    3.2670   -0.7814   -0.3429 C   0  0  0  0  0  0  0  0  0  0  0  0
   -1.1698   -0.4547    0.0652 N   0  0  0  0  0  0  0  0  0  0  0  0
   -0.8100   -1.8177    0.4349 C   0  0  0  0  0  0  0  0  0  0  0  0
   -2.2135   -2.1468    0.9395 C   0  0  0  0  0  0  0  0  0  0  0  0
   -2.9759   -1.9294   -0.2953 C   0  0  0  0  0  0  0  0  0  0  0  0
   -2.3111   -0.6138   -0.9861 C   0  0  1  0  0  0  0  0  0  0  0  0
   -3.3527    0.4556   -0.1530 B   0  0  0  0  0  0  0  0  0  0  0  0
   -4.7850    0.1882   -0.3710 O   0  0  0  0  0  0  0  0  0  0  0  0
   -2.9963    1.8757   -0.3264 O   0  0  0  0  0  0  0  0  0  0  0  0
  1  2  2  0
  2  3  1  0
  3  4  1  0
  5  4  1  1
  5  6  1  0
  6  7  1  0
  7  8  1  0
  8  9  1  0
  2 10  1  0
 10 11  1  0
 11 12  1  0
 12 13  1  0
 13 14  1  0
 14 15  1  1
 15 16  1  0
 15 17  1  0
  9  5  1  0
 14 10  1  0
M  END
>  <zinc_id>  (1) 
ZINC000169746730

>  <smiles>  (1) 
O=C(CN[C@@H]1CCNC1)N1CCC[C@H]1B(O)O

$$$$
