
     RDKit          3D

 40 41  0  0  0  0  0  0  0  0999 V2000
    5.5536   -2.6699    2.1212 C   0  0  0  0  0  0  0  0  0  0  0  0
    5.1424   -2.7237    2.4266 S   0  0  0  0  0  0  0  0  0  0  0  0
    4.3492   -1.6440    3.6666 C   0  0  0  0  0  0  0  0  0  0  0  0
    5.4186   -0.6130    4.0092 C   0  0  0  0  0  0  0  0  0  0  0  0
    4.9610    0.7318    3.1297 C   0  0  2  0  0  0  0  0  0  0  0  0
    4.8104   -0.1081    1.7780 N   0  0  0  0  0  0  0  0  0  0  0  0
    3.9599    0.4974    0.7987 C   0  0  0  0  0  0  0  0  0  0  0  0
    3.6691    1.7252    0.9507 O   0  0  0  0  0  0  0  0  0  0  0  0
    2.6343   -0.4047    0.4540 C   0  0  2  0  0  0  0  0  0  0  0  0
    3.5056   -1.4887   -0.4579 C   0  0  0  0  0  0  0  0  0  0  0  0
    4.0937   -0.7776   -1.5833 C   0  0  0  0  0  0  0  0  0  0  0  0
    5.3190   -0.1356   -1.4253 C   0  0  0  0  0  0  0  0  0  0  0  0
    6.2189    0.0221   -2.4462 C   0  0  0  0  0  0  0  0  0  0  0  0
    5.8851   -0.3752   -3.7133 C   0  0  0  0  0  0  0  0  0  0  0  0
    4.9017   -1.3369   -3.8143 C   0  0  0  0  0  0  0  0  0  0  0  0
    4.0170   -1.4703   -2.7896 C   0  0  0  0  0  0  0  0  0  0  0  0
    2.2355    0.5225   -0.7918 N   0  0  0  0  0  0  0  0  0  0  0  0
    0.8253    0.3292   -0.9902 C   0  0  0  0  0  0  0  0  0  0  0  0
    0.6126   -0.8018   -1.5275 O   0  0  0  0  0  0  0  0  0  0  0  0
   -0.1924    1.3957   -0.9046 C   0  0  0  0  0  0  0  0  0  0  0  0
   -0.9809    1.3479    0.3037 N   0  0  0  0  0  0  0  0  0  0  0  0
   -1.8546    0.3014    0.6590 C   0  0  0  0  0  0  0  0  0  0  0  0
   -1.7236   -0.7953    0.0623 O   0  0  0  0  0  0  0  0  0  0  0  0
   -3.1699    0.5025    1.3362 C   0  0  0  0  0  0  0  0  0  0  0  0
   -4.1311    1.0492    0.4178 N   0  0  0  0  0  0  0  0  0  0  0  0
   -4.7560    0.2020   -0.5534 C   0  0  0  0  0  0  0  0  0  0  0  0
   -4.4320   -0.9760   -0.7361 O   0  0  0  0  0  0  0  0  0  0  0  0
   -4.9348    1.1038   -1.9082 C   0  0  1  0  0  0  0  0  0  0  0  0
   -5.6654   -0.0642   -2.7216 N   0  0  0  0  0  0  0  0  0  0  0  0
   -6.3936    1.7151   -1.3769 C   0  0  0  0  0  0  0  0  0  0  0  0
   -7.1438    0.5621   -0.8632 C   0  0  0  0  0  0  0  0  0  0  0  0
   -7.2687    0.2901    0.4941 C   0  0  0  0  0  0  0  0  0  0  0  0
   -8.4239   -0.2927    0.9966 C   0  0  0  0  0  0  0  0  0  0  0  0
   -9.3891   -0.7721    0.1518 C   0  0  0  0  0  0  0  0  0  0  0  0
  -10.6978   -1.0451    0.5577 O   0  0  0  0  0  0  0  0  0  0  0  0
   -9.1293   -0.7972   -1.1958 C   0  0  0  0  0  0  0  0  0  0  0  0
   -8.1018   -0.0148   -1.6725 C   0  0  0  0  0  0  0  0  0  0  0  0
    6.5087    1.1439    2.7918 C   0  0  0  0  0  0  0  0  0  0  0  0
    7.2394    0.1957    2.4407 O   0  0  0  0  0  0  0  0  0  0  0  0
    6.5278    2.2467    1.9252 O   0  0  0  0  0  0  0  0  0  0  0  0
  1  2  1  0
  2  3  1  0
  3  4  1  0
  5  4  1  1
  5  6  1  0
  6  7  1  0
  7  8  2  0
  9  7  1  1
  9 10  1  0
 10 11  1  0
 11 12  2  0
 12 13  1  0
 13 14  2  0
 14 15  1  0
 15 16  2  0
  9 17  1  0
 17 18  1  0
 18 19  2  0
 18 20  1  0
 20 21  1  0
 21 22  1  0
 22 23  2  0
 22 24  1  0
 24 25  1  0
 25 26  1  0
 26 27  2  0
 28 26  1  1
 28 29  1  0
 28 30  1  0
 30 31  1  0
 31 32  2  0
 32 33  1  0
 33 34  2  0
 34 35  1  0
 34 36  1  0
 36 37  2  0
  5 38  1  0
 38 39  2  0
 38 40  1  0
 16 11  1  0
 37 31  1  0
M  END
>  <zinc_id>  (1) 
ZINC000004102171

>  <smiles>  (1) 
CSCC[C@H](NC(=O)[C@H](Cc1ccccc1)NC(=O)CNC(=O)CNC(=O)[C@@H](N)Cc1ccc(O)cc1)C(=O)O

$$$$
