
     RDKit          3D

 50 51  0  0  0  0  0  0  0  0999 V2000
   -2.8227   -2.8613   -1.4315 C   0  0  0  0  0  0  0  0  0  0  0  0
   -2.7620   -2.2183   -1.3306 C   0  0  0  0  0  0  0  0  0  0  0  0
   -1.4111   -1.4785   -0.8517 C   0  0  2  0  0  0  0  0  0  0  0  0
   -1.3347   -2.3485    0.5189 C   0  0  0  0  0  0  0  0  0  0  0  0
   -2.0799   -0.1610   -0.0089 C   0  0  1  0  0  0  0  0  0  0  0  0
   -1.0003    0.9917   -0.6871 C   0  0  1  0  0  0  0  0  0  0  0  0
    0.3381    0.0923   -0.3989 C   0  0  0  0  0  0  0  0  0  0  0  0
    1.3910    1.0585    0.0369 C   0  0  0  0  0  0  0  0  0  0  0  0
    1.0501    2.2619    0.2564 O   0  0  0  0  0  0  0  0  0  0  0  0
    2.4497    0.5628    0.7628 N   0  0  0  0  0  0  0  0  0  0  0  0
    2.3120   -0.1653    2.0070 C   0  0  0  0  0  0  0  0  0  0  0  0
    2.4533   -1.5910    1.5157 C   0  0  0  0  0  0  0  0  0  0  0  0
    3.2226   -1.5152    0.2358 C   0  0  0  0  0  0  0  0  0  0  0  0
    3.8238    0.0035    0.2979 C   0  0  1  0  0  0  0  0  0  0  0  0
    3.5269    0.2646   -1.3644 C   0  0  2  0  0  0  0  0  0  0  0  0
    4.3833   -0.8851   -1.8148 O   0  0  0  0  0  0  0  0  0  0  0  0
    3.5538   -1.7546   -2.5056 C   0  0  0  0  0  0  0  0  0  0  0  0
    4.7359    1.4589   -1.6160 C   0  0  1  0  0  0  0  0  0  0  0  0
    4.6000    2.1922   -0.1675 C   0  0  0  0  0  0  0  0  0  0  0  0
    6.0117    0.6280   -1.1774 C   0  0  0  0  0  0  0  0  0  0  0  0
    6.0984   -0.1544   -0.3358 O   0  0  0  0  0  0  0  0  0  0  0  0
    7.0753    0.8670   -2.0996 N   0  0  0  0  0  0  0  0  0  0  0  0
    8.4188    0.5186   -1.7343 C   0  0  0  0  0  0  0  0  0  0  0  0
    8.5174   -0.6595   -0.8087 C   0  0  0  0  0  0  0  0  0  0  0  0
    9.1324   -0.2979    0.5047 C   0  0  0  0  0  0  0  0  0  0  0  0
    8.8664   -1.0397    1.6531 C   0  0  0  0  0  0  0  0  0  0  0  0
    9.2136   -0.3825    2.8300 C   0  0  0  0  0  0  0  0  0  0  0  0
   10.5517    0.0002    2.8549 C   0  0  0  0  0  0  0  0  0  0  0  0
   11.1584    0.3210    1.6446 C   0  0  0  0  0  0  0  0  0  0  0  0
   10.3408    0.3927    0.5206 C   0  0  0  0  0  0  0  0  0  0  0  0
   -1.1475    0.4822   -2.1034 O   0  0  0  0  0  0  0  0  0  0  0  0
   -0.0118    0.8163   -2.7799 C   0  0  0  0  0  0  0  0  0  0  0  0
   -3.2507    0.2011   -0.9493 N   0  0  0  0  0  0  0  0  0  0  0  0
   -3.3319    1.5697   -1.4867 C   0  0  0  0  0  0  0  0  0  0  0  0
   -4.5203   -0.0066   -0.2921 C   0  0  0  0  0  0  0  0  0  0  0  0
   -4.9908   -1.1004   -0.3728 O   0  0  0  0  0  0  0  0  0  0  0  0
   -4.8644    0.9646    0.9482 C   0  0  1  0  0  0  0  0  0  0  0  0
   -6.3301    1.3625    0.5068 N   0  0  0  0  0  0  0  0  0  0  0  0
   -7.0816    0.3252   -0.0788 C   0  0  0  0  0  0  0  0  0  0  0  0
   -6.7252    0.4233   -1.2871 O   0  0  0  0  0  0  0  0  0  0  0  0
   -8.6667    0.6422   -0.0987 C   0  0  2  0  0  0  0  0  0  0  0  0
   -8.7435    0.7539    1.5441 C   0  0  0  0  0  0  0  0  0  0  0  0
   -8.5582    2.2479    1.7358 C   0  0  0  0  0  0  0  0  0  0  0  0
  -10.1645    0.4300    1.8966 C   0  0  0  0  0  0  0  0  0  0  0  0
   -9.0563   -0.8883   -0.0599 N   0  0  0  0  0  0  0  0  0  0  0  0
   -8.3595   -1.5309   -1.1236 C   0  0  0  0  0  0  0  0  0  0  0  0
  -10.4604   -0.9046   -0.4544 C   0  0  0  0  0  0  0  0  0  0  0  0
   -5.4273   -0.1479    2.0207 C   0  0  0  0  0  0  0  0  0  0  0  0
   -4.8587    0.2212    3.3528 C   0  0  0  0  0  0  0  0  0  0  0  0
   -5.2654   -1.4875    1.7748 C   0  0  0  0  0  0  0  0  0  0  0  0
  1  2  1  0
  3  2  1  6
  3  4  1  0
  3  5  1  0
  5  6  1  0
  6  7  1  1
  7  8  1  0
  8  9  2  0
  8 10  1  0
 10 11  1  0
 11 12  1  0
 12 13  1  0
 14 13  1  6
 14 15  1  0
 15 16  1  6
 16 17  1  0
 15 18  1  0
 18 19  1  1
 18 20  1  0
 20 21  2  0
 20 22  1  0
 22 23  1  0
 23 24  1  0
 24 25  1  0
 25 26  2  0
 26 27  1  0
 27 28  2  0
 28 29  1  0
 29 30  2  0
  6 31  1  0
 31 32  1  0
  5 33  1  6
 33 34  1  0
 33 35  1  0
 35 36  2  0
 37 35  1  6
 37 38  1  0
 38 39  1  0
 39 40  2  0
 41 39  1  1
 41 42  1  0
 42 43  1  0
 42 44  1  0
 41 45  1  0
 45 46  1  0
 45 47  1  0
 37 48  1  0
 48 49  1  0
 48 50  1  0
 14 10  1  0
 30 25  1  0
M  END
>  <zinc_id>  (1) 
ZINC000003951627

>  <smiles>  (1) 
CC[C@H](C)[C@@H]([C@@H](CC(=O)N1CCC[C@H]1[C@H](OC)[C@@H](C)C(=O)NCCc1ccccc1)OC)N(C)C(=O)[C@@H](NC(=O)[C@H](C(C)C)N(C)C)C(C)C

$$$$
