
     RDKit          3D

 27 30  0  0  0  0  0  0  0  0999 V2000
   -5.6272   -1.2154    1.7143 C   0  0  0  0  0  0  0  0  0  0  0  0
   -4.1839   -0.8021    1.8607 C   0  0  0  0  0  0  0  0  0  0  0  0
   -3.4343   -0.9388    0.5755 C   0  0  0  0  0  0  0  0  0  0  0  0
   -2.2033   -0.3573    0.4421 C   0  0  0  0  0  0  0  0  0  0  0  0
   -1.5089   -0.2995   -0.7610 C   0  0  0  0  0  0  0  0  0  0  0  0
   -0.7330    0.9202   -1.0345 C   0  0  0  0  0  0  0  0  0  0  0  0
   -1.1995    2.0817   -1.5571 N   0  0  0  0  0  0  0  0  0  0  0  0
   -0.4194    3.0864   -1.1993 N   0  0  0  0  0  0  0  0  0  0  0  0
    0.6200    2.6454   -0.4538 C   0  0  0  0  0  0  0  0  0  0  0  0
    1.2874    3.3511    0.6494 C   0  0  0  0  0  0  0  0  0  0  0  0
    0.6211    3.9286    1.5618 O   0  0  0  0  0  0  0  0  0  0  0  0
    2.6414    3.2240    0.8659 O   0  0  0  0  0  0  0  0  0  0  0  0
    0.4790    1.2635   -0.4465 C   0  0  0  0  0  0  0  0  0  0  0  0
    1.5314    0.3071   -0.1686 C   0  0  0  0  0  0  0  0  0  0  0  0
    2.2351   -0.2524   -1.2292 C   0  0  0  0  0  0  0  0  0  0  0  0
    3.0987   -1.3081   -1.0394 C   0  0  0  0  0  0  0  0  0  0  0  0
    3.4486   -1.6508    0.2598 C   0  0  0  0  0  0  0  0  0  0  0  0
    3.2024   -0.7069    1.2484 C   0  0  0  0  0  0  0  0  0  0  0  0
    2.1493    0.1820    1.0681 C   0  0  0  0  0  0  0  0  0  0  0  0
    4.0829   -0.9901    2.2866 O   0  0  0  0  0  0  0  0  0  0  0  0
    4.9352   -2.0720    1.9311 C   0  0  0  0  0  0  0  0  0  0  0  0
    4.5043   -2.4779    0.6463 O   0  0  0  0  0  0  0  0  0  0  0  0
   -1.9919   -1.0868   -1.7901 C   0  0  0  0  0  0  0  0  0  0  0  0
   -1.2639   -1.1032   -2.9623 O   0  0  0  0  0  0  0  0  0  0  0  0
   -3.1493   -1.8335   -1.6077 C   0  0  0  0  0  0  0  0  0  0  0  0
   -3.9413   -1.6366   -0.4939 C   0  0  0  0  0  0  0  0  0  0  0  0
   -5.1808   -2.2586   -0.3666 O   0  0  0  0  0  0  0  0  0  0  0  0
  1  2  1  0
  2  3  1  0
  3  4  2  0
  4  5  1  0
  5  6  1  0
  6  7  2  0
  7  8  1  0
  8  9  1  0
  9 10  1  0
 10 11  2  0
 10 12  1  0
  9 13  2  0
 13 14  1  0
 14 15  2  0
 15 16  1  0
 16 17  2  0
 17 18  1  0
 18 19  2  0
 18 20  1  0
 20 21  1  0
 21 22  1  0
  5 23  2  0
 23 24  1  0
 23 25  1  0
 25 26  2  0
 26 27  1  0
 26  3  1  0
 13  6  1  0
 19 14  1  0
 22 17  1  0
M  END
>  <zinc_id>  (1) 
ZINC000008466460

>  <smiles>  (1) 
CCc1cc(-c2n[nH]c(C(=O)O)c2-c2ccc3c(c2)OCO3)c(O)cc1O

$$$$
