
     RDKit          3D

 59 61  0  0  0  0  0  0  0  0999 V2000
   14.4598    2.1452   -0.1163 C   0  0  0  0  0  0  0  0  0  0  0  0
   13.3309    2.6387    0.0330 C   0  0  0  0  0  0  0  0  0  0  0  0
   13.2464    4.1211    0.2555 C   0  0  0  0  0  0  0  0  0  0  0  0
   12.1901    2.1244   -0.7932 C   0  0  0  0  0  0  0  0  0  0  0  0
   10.8944    2.3223   -0.0455 C   0  0  0  0  0  0  0  0  0  0  0  0
   10.6688    1.2511    0.9921 C   0  0  0  0  0  0  0  0  0  0  0  0
   10.3929   -0.0990    0.3620 C   0  0  0  0  0  0  0  0  0  0  0  0
   10.0527    0.0022   -1.1000 C   0  0  0  0  0  0  0  0  0  0  0  0
    8.7366   -0.7354   -1.3194 C   0  0  0  0  0  0  0  0  0  0  0  0
    7.6452    0.0894   -0.7001 C   0  0  0  0  0  0  0  0  0  0  0  0
    7.3707   -0.2619    0.7316 C   0  0  0  0  0  0  0  0  0  0  0  0
    6.1000   -0.9469    0.9627 C   0  0  0  0  0  0  0  0  0  0  0  0
    5.4896   -0.7637    2.0333 O   0  0  0  0  0  0  0  0  0  0  0  0
    5.8745   -2.1312    0.1859 N   0  0  0  0  0  0  0  0  0  0  0  0
    6.8117   -3.2083    0.5237 C   0  0  0  0  0  0  0  0  0  0  0  0
    4.4027   -2.7345    0.3870 C   0  0  2  0  0  0  0  0  0  0  0  0
    4.2726   -3.0874   -1.2436 C   0  0  0  0  0  0  0  0  0  0  0  0
    5.3872   -3.8758   -1.4915 O   0  0  0  0  0  0  0  0  0  0  0  0
    3.6542   -1.2936    0.1961 C   0  0  0  0  0  0  0  0  0  0  0  0
    4.0691   -0.5610   -0.6886 O   0  0  0  0  0  0  0  0  0  0  0  0
    2.2839   -1.2698    0.5640 N   0  0  0  0  0  0  0  0  0  0  0  0
    2.0595    0.1868    1.1975 C   0  0  2  0  0  0  0  0  0  0  0  0
    0.8956   -0.3981    2.2477 C   0  0  0  0  0  0  0  0  0  0  0  0
    0.9451    0.6045    0.0767 C   0  0  0  0  0  0  0  0  0  0  0  0
    1.1467    1.7208   -0.4414 O   0  0  0  0  0  0  0  0  0  0  0  0
   -0.0491   -0.3095   -0.2206 N   0  0  0  0  0  0  0  0  0  0  0  0
   -0.9772    0.0643   -1.2862 C   0  0  0  0  0  0  0  0  0  0  0  0
   -1.7568   -1.1513   -1.6627 C   0  0  0  0  0  0  0  0  0  0  0  0
   -1.3617   -1.7679   -2.6913 O   0  0  0  0  0  0  0  0  0  0  0  0
   -2.4344   -1.8940   -0.6384 N   0  0  0  0  0  0  0  0  0  0  0  0
   -1.6606   -2.6924    0.2795 C   0  0  0  0  0  0  0  0  0  0  0  0
   -3.3805   -0.8258    0.1150 C   0  0  1  0  0  0  0  0  0  0  0  0
   -4.5302   -0.9166   -1.0461 C   0  0  0  0  0  0  0  0  0  0  0  0
   -4.8412   -2.0376   -1.6822 C   0  0  0  0  0  0  0  0  0  0  0  0
   -5.6377   -1.8608   -2.8282 C   0  0  0  0  0  0  0  0  0  0  0  0
   -6.2169   -0.6200   -3.0784 C   0  0  0  0  0  0  0  0  0  0  0  0
   -6.7305   -0.1503   -4.2730 O   0  0  0  0  0  0  0  0  0  0  0  0
   -5.5217    0.4463   -2.5054 C   0  0  0  0  0  0  0  0  0  0  0  0
   -4.2914    0.1663   -1.9085 C   0  0  0  0  0  0  0  0  0  0  0  0
   -6.2389    1.6780   -2.2996 C   0  0  0  0  0  0  0  0  0  0  0  0
   -5.7204    2.4523   -1.2577 C   0  0  0  0  0  0  0  0  0  0  0  0
   -6.5899    2.7011   -0.1740 C   0  0  0  0  0  0  0  0  0  0  0  0
   -7.6788    3.3164   -0.7952 C   0  0  0  0  0  0  0  0  0  0  0  0
   -8.1637    2.8288   -2.0258 C   0  0  0  0  0  0  0  0  0  0  0  0
   -7.5958    1.6903   -2.6299 C   0  0  0  0  0  0  0  0  0  0  0  0
   -8.4110    0.5436   -2.4939 O   0  0  0  0  0  0  0  0  0  0  0  0
   -5.9160    2.8103    1.0300 C   0  0  0  0  0  0  0  0  0  0  0  0
   -6.6416    2.0409    2.3337 C   0  0  1  0  0  0  0  0  0  0  0  0
   -6.9627    0.6132    1.5677 C   0  0  0  0  0  0  0  0  0  0  0  0
   -7.8618    0.7284    0.7102 O   0  0  0  0  0  0  0  0  0  0  0  0
   -7.7691    0.0066    2.5760 O   0  0  0  0  0  0  0  0  0  0  0  0
   -5.2746    1.6910    3.0427 N   0  0  0  0  0  0  0  0  0  0  0  0
   -5.5221    0.4308    3.5254 C   0  0  0  0  0  0  0  0  0  0  0  0
   -5.4246    0.1229    4.7687 O   0  0  0  0  0  0  0  0  0  0  0  0
   -4.1402   -0.2155    2.9517 C   0  0  2  0  0  0  0  0  0  0  0  0
   -3.8684    0.6888    1.5808 C   0  0  0  0  0  0  0  0  0  0  0  0
   -4.8453   -1.4148    2.1299 N   0  0  0  0  0  0  0  0  0  0  0  0
   -4.0828   -1.9540    1.0858 C   0  0  0  0  0  0  0  0  0  0  0  0
   -4.2832   -3.0501    0.5723 O   0  0  0  0  0  0  0  0  0  0  0  0
  1  2  1  0
  2  3  1  0
  2  4  1  0
  4  5  1  0
  5  6  1  0
  6  7  1  0
  7  8  1  0
  8  9  1  0
  9 10  1  0
 10 11  1  0
 11 12  1  0
 12 13  2  0
 12 14  1  0
 14 15  1  0
 16 14  1  6
 16 17  1  0
 17 18  1  0
 16 19  1  0
 19 20  2  0
 19 21  1  0
 22 21  1  6
 22 23  1  0
 22 24  1  0
 24 25  2  0
 24 26  1  0
 26 27  1  0
 27 28  1  0
 28 29  2  0
 28 30  1  0
 30 31  1  0
 32 30  1  6
 32 33  1  0
 33 34  1  0
 34 35  2  0
 35 36  1  0
 36 37  1  0
 36 38  2  0
 38 39  1  0
 38 40  1  0
 40 41  1  0
 41 42  2  0
 42 43  1  0
 43 44  2  0
 44 45  1  0
 45 46  1  0
 42 47  1  0
 47 48  1  0
 48 49  1  6
 49 50  2  0
 49 51  1  0
 48 52  1  0
 52 53  1  0
 53 54  2  0
 53 55  1  0
 55 56  1  6
 55 57  1  0
 57 58  1  0
 58 59  2  0
 58 32  1  0
 39 33  2  0
 45 40  2  0
M  END
>  <zinc_id>  (1) 
ZINC000085740056

>  <smiles>  (1) 
CC(C)CCCCCCCCC(=O)N(C)[C@H](CO)C(=O)N[C@H](C)C(=O)NCC(=O)N(C)[C@@H]1C(=O)N[C@@H](C)C(=O)N[C@H](C(=O)O)Cc2ccc(O)c(c2)-c2cc1ccc2O

$$$$
