
     RDKit          3D

 43 45  0  0  0  0  0  0  0  0999 V2000
    9.6088   -0.2762    0.6825 C   0  0  0  0  0  0  0  0  0  0  0  0
    9.8820    0.9587    0.2201 C   0  0  0  0  0  0  0  0  0  0  0  0
   10.9969    1.3380   -0.4426 N   0  0  0  0  0  0  0  0  0  0  0  0
   10.9086    2.6305   -0.7950 C   0  0  0  0  0  0  0  0  0  0  0  0
    9.6397    3.0406   -0.4507 C   0  0  0  0  0  0  0  0  0  0  0  0
    9.1072    2.0547    0.3105 N   0  0  0  0  0  0  0  0  0  0  0  0
    8.0582    2.2831    1.3008 C   0  0  0  0  0  0  0  0  0  0  0  0
    6.9999    3.1322    0.6236 C   0  0  0  0  0  0  0  0  0  0  0  0
    6.3288    2.2323   -0.4030 C   0  0  0  0  0  0  0  0  0  0  0  0
    5.9158    0.9784    0.3547 C   0  0  0  0  0  0  0  0  0  0  0  0
    4.6441    0.4126   -0.1657 C   0  0  0  0  0  0  0  0  0  0  0  0
    3.5979    1.1981   -0.5984 C   0  0  0  0  0  0  0  0  0  0  0  0
    2.4918    0.6139   -1.2015 C   0  0  0  0  0  0  0  0  0  0  0  0
    2.5066   -0.7205   -1.5944 C   0  0  0  0  0  0  0  0  0  0  0  0
    1.2500   -1.5306   -1.6648 C   0  0  0  0  0  0  0  0  0  0  0  0
    0.5678   -1.4330   -0.3394 C   0  0  0  0  0  0  0  0  0  0  0  0
    0.5646   -0.3432    0.2731 O   0  0  0  0  0  0  0  0  0  0  0  0
    0.1742   -2.6140    0.2874 N   0  0  0  0  0  0  0  0  0  0  0  0
   -0.6698   -2.4531    1.6412 C   0  0  1  0  0  0  0  0  0  0  0  0
    0.4108   -1.3288    2.2631 C   0  0  0  0  0  0  0  0  0  0  0  0
    0.0669   -1.2873    3.6207 O   0  0  0  0  0  0  0  0  0  0  0  0
   -1.6387   -1.2835    1.0124 C   0  0  0  0  0  0  0  0  0  0  0  0
   -1.9653   -0.4112    1.8429 O   0  0  0  0  0  0  0  0  0  0  0  0
   -2.7872   -1.8117    0.3232 N   0  0  0  0  0  0  0  0  0  0  0  0
   -3.0985   -0.6722   -0.7731 C   0  0  1  0  0  0  0  0  0  0  0  0
   -3.4817   -1.8257   -1.9299 C   0  0  0  0  0  0  0  0  0  0  0  0
   -4.4305   -2.7571   -1.2502 C   0  0  0  0  0  0  0  0  0  0  0  0
   -4.0479   -4.1857   -1.5230 C   0  0  0  0  0  0  0  0  0  0  0  0
   -5.0944   -5.0735   -0.8960 C   0  0  0  0  0  0  0  0  0  0  0  0
   -5.2706   -4.6097    0.4706 N   0  0  0  0  0  0  0  0  0  0  0  0
   -4.6728   -0.4726   -0.3648 C   0  0  0  0  0  0  0  0  0  0  0  0
   -5.1434   -1.0877    0.5536 O   0  0  0  0  0  0  0  0  0  0  0  0
   -5.2892    0.4847   -1.1980 N   0  0  0  0  0  0  0  0  0  0  0  0
   -6.7232    0.5122   -1.2089 C   0  0  0  0  0  0  0  0  0  0  0  0
   -7.3630    0.1342    0.0894 C   0  0  0  0  0  0  0  0  0  0  0  0
   -8.1559    1.3432    0.5716 C   0  0  0  0  0  0  0  0  0  0  0  0
   -9.0286    1.8020   -0.5896 C   0  0  0  0  0  0  0  0  0  0  0  0
   -9.7148    3.0866   -0.1789 C   0  0  0  0  0  0  0  0  0  0  0  0
   -8.6271    4.1195    0.0264 C   0  0  0  0  0  0  0  0  0  0  0  0
   -7.7609    3.7352    1.2206 C   0  0  0  0  0  0  0  0  0  0  0  0
   -7.1131    2.4126    0.8760 C   0  0  0  0  0  0  0  0  0  0  0  0
    3.6847   -1.3967   -1.3743 C   0  0  0  0  0  0  0  0  0  0  0  0
    4.6709   -0.9292   -0.5145 C   0  0  0  0  0  0  0  0  0  0  0  0
  1  2  1  0
  2  3  2  0
  3  4  1  0
  4  5  2  0
  5  6  1  0
  6  7  1  0
  7  8  1  0
  8  9  1  0
  9 10  1  0
 10 11  1  0
 11 12  2  0
 12 13  1  0
 13 14  2  0
 14 15  1  0
 15 16  1  0
 16 17  2  0
 16 18  1  0
 19 18  1  6
 19 20  1  0
 20 21  1  0
 19 22  1  0
 22 23  2  0
 22 24  1  0
 25 24  1  1
 25 26  1  0
 26 27  1  0
 27 28  1  0
 28 29  1  0
 29 30  1  0
 25 31  1  0
 31 32  2  0
 31 33  1  0
 33 34  1  0
 34 35  1  0
 35 36  1  0
 36 37  1  0
 37 38  1  0
 38 39  1  0
 39 40  1  0
 40 41  1  0
 14 42  1  0
 42 43  2  0
  6  2  1  0
 43 11  1  0
 41 36  1  0
M  END
>  <zinc_id>  (1) 
ZINC000014880363

>  <smiles>  (1) 
Cc1nccn1CCCCc1ccc(CC(=O)N[C@@H](CO)C(=O)N[C@@H](CCCCN)C(=O)NCCC2CCCCC2)cc1

$$$$
