
     RDKit          3D

 22 21  0  0  0  0  0  0  0  0999 V2000
   -7.2706    3.9380   -0.0909 C   0  0  0  0  0  0  0  0  0  0  0  0
   -6.4844    2.7833    0.4700 C   0  0  0  0  0  0  0  0  0  0  0  0
   -7.0267    1.4579    0.0101 C   0  0  0  0  0  0  0  0  0  0  0  0
   -6.4707    1.0503   -1.3305 C   0  0  0  0  0  0  0  0  0  0  0  0
   -5.9875   -0.3916   -1.2364 C   0  0  0  0  0  0  0  0  0  0  0  0
   -4.9661   -0.4610   -0.1253 C   0  0  0  0  0  0  0  0  0  0  0  0
   -3.9469   -1.5651   -0.3805 C   0  0  0  0  0  0  0  0  0  0  0  0
   -3.2926   -1.8618    0.9482 C   0  0  0  0  0  0  0  0  0  0  0  0
   -1.8226   -2.1604    0.8223 C   0  0  0  0  0  0  0  0  0  0  0  0
   -1.2098   -1.4976   -0.3795 C   0  0  0  0  0  0  0  0  0  0  0  0
   -0.3579   -0.3475    0.1366 C   0  0  0  0  0  0  0  0  0  0  0  0
    1.0537   -0.4984   -0.3718 C   0  0  0  0  0  0  0  0  0  0  0  0
    2.0124   -0.5777    0.8120 C   0  0  0  0  0  0  0  0  0  0  0  0
    2.5042   -1.9990    0.8652 C   0  0  0  0  0  0  0  0  0  0  0  0
    3.9889   -2.1258    0.6801 C   0  0  0  0  0  0  0  0  0  0  0  0
    4.5518   -1.0703   -0.2076 C   0  0  0  0  0  0  0  0  0  0  0  0
    4.4171   -1.1152   -1.4663 O   0  0  0  0  0  0  0  0  0  0  0  0
    5.7347   -0.4076    0.2548 N   0  0  0  0  0  0  0  0  0  0  0  0
    6.6091    0.3359   -0.6315 C   0  0  0  0  0  0  0  0  0  0  0  0
    6.1691    1.7653   -0.6413 C   0  0  0  0  0  0  0  0  0  0  0  0
    6.9678    2.6953   -0.3416 O   0  0  0  0  0  0  0  0  0  0  0  0
    4.8271    2.0530   -0.9053 O   0  0  0  0  0  0  0  0  0  0  0  0
  1  2  1  0
  2  3  1  0
  3  4  1  0
  4  5  1  0
  5  6  1  0
  6  7  1  0
  7  8  1  0
  8  9  1  0
  9 10  1  0
 10 11  1  0
 11 12  1  0
 12 13  1  0
 13 14  1  0
 14 15  1  0
 15 16  1  0
 16 17  2  0
 16 18  1  0
 18 19  1  0
 19 20  1  0
 20 21  2  0
 20 22  1  0
M  END
>  <zinc_id>  (1) 
ZINC000008689962

>  <smiles>  (1) 
CCCCCCCCCCCCCCCC(=O)NCC(=O)O

$$$$
