
     RDKit          3D

 43 45  0  0  0  0  0  0  0  0999 V2000
   -1.4084    3.8260    0.6996 C   0  0  0  0  0  0  0  0  0  0  0  0
   -1.2613    2.4329    0.4067 C   0  0  0  0  0  0  0  0  0  0  0  0
   -1.8575    2.1534   -0.6753 O   0  0  0  0  0  0  0  0  0  0  0  0
   -1.4395    1.5150    1.4276 N   0  0  0  0  0  0  0  0  0  0  0  0
   -1.3386   -0.0272    1.1292 C   0  0  1  0  0  0  0  0  0  0  0  0
   -2.2135    0.0560   -0.2589 C   0  0  0  0  0  0  0  0  0  0  0  0
   -3.5815   -0.3665    0.0695 C   0  0  0  0  0  0  0  0  0  0  0  0
   -3.9642   -1.0434    1.2135 C   0  0  0  0  0  0  0  0  0  0  0  0
   -5.3132   -1.1011    1.5621 C   0  0  0  0  0  0  0  0  0  0  0  0
   -6.2277   -0.2063    1.0313 C   0  0  0  0  0  0  0  0  0  0  0  0
   -7.5889   -0.4392    0.9288 O   0  0  0  0  0  0  0  0  0  0  0  0
   -8.0883   -1.6443    0.3512 C   0  0  0  0  0  0  0  0  0  0  0  0
   -7.2323   -2.1091   -0.7803 C   0  0  0  0  0  0  0  0  0  0  0  0
   -7.4111   -1.6766   -1.9593 O   0  0  0  0  0  0  0  0  0  0  0  0
   -6.4921   -3.2930   -0.6953 O   0  0  0  0  0  0  0  0  0  0  0  0
   -5.7230    0.6993    0.1054 C   0  0  0  0  0  0  0  0  0  0  0  0
   -6.5398    2.2416   -0.1697 P   0  0  0  0  0  0  0  0  0  0  0  0
   -5.4607    3.3238   -0.2033 O   0  0  0  0  0  0  0  0  0  0  0  0
   -7.5379    2.6490    1.1007 O   0  0  0  0  0  0  0  0  0  0  0  0
   -7.2703    2.3264   -1.6788 O   0  0  0  0  0  0  0  0  0  0  0  0
   -4.6327    0.2369   -0.6244 C   0  0  0  0  0  0  0  0  0  0  0  0
    0.1097    0.0940    0.4340 C   0  0  0  0  0  0  0  0  0  0  0  0
    0.8625   -0.7208    1.0549 O   0  0  0  0  0  0  0  0  0  0  0  0
    0.3592    0.3416   -0.8562 N   0  0  0  0  0  0  0  0  0  0  0  0
    1.1087   -0.6792   -1.7917 C   0  0  1  0  0  0  0  0  0  0  0  0
    1.3206    0.4697   -2.9524 C   0  0  0  0  0  0  0  0  0  0  0  0
    2.5538   -0.4006   -1.1493 C   0  0  0  0  0  0  0  0  0  0  0  0
    2.9286    0.8439   -0.8361 C   0  0  0  0  0  0  0  0  0  0  0  0
    4.1862    0.9602   -0.2484 C   0  0  0  0  0  0  0  0  0  0  0  0
    4.8094   -0.1559    0.3014 C   0  0  0  0  0  0  0  0  0  0  0  0
    6.0164   -0.0669    0.9687 O   0  0  0  0  0  0  0  0  0  0  0  0
    6.9924    0.9146    0.6657 C   0  0  0  0  0  0  0  0  0  0  0  0
    7.3261    0.9375   -0.8155 C   0  0  0  0  0  0  0  0  0  0  0  0
    8.7951    1.3116   -0.9797 C   0  0  0  0  0  0  0  0  0  0  0  0
    9.5717    0.4787   -0.0135 C   0  0  0  0  0  0  0  0  0  0  0  0
    9.3552   -0.9821   -0.0925 C   0  0  0  0  0  0  0  0  0  0  0  0
    8.0534   -1.4590   -0.6034 C   0  0  0  0  0  0  0  0  0  0  0  0
    7.2264   -0.4749   -1.3559 C   0  0  0  0  0  0  0  0  0  0  0  0
    4.2621   -1.4264    0.1528 C   0  0  0  0  0  0  0  0  0  0  0  0
    4.4090   -2.3813    1.2595 C   0  0  0  0  0  0  0  0  0  0  0  0
    5.6906   -2.6194    1.7918 N   0  0  0  0  0  0  0  0  0  0  0  0
    3.4197   -2.9942    1.7597 O   0  0  0  0  0  0  0  0  0  0  0  0
    3.2255   -1.5447   -0.7642 C   0  0  0  0  0  0  0  0  0  0  0  0
  1  2  1  0
  2  3  2  0
  2  4  1  0
  5  4  1  1
  5  6  1  0
  6  7  1  0
  7  8  2  0
  8  9  1  0
  9 10  2  0
 10 11  1  0
 11 12  1  0
 12 13  1  0
 13 14  2  0
 13 15  1  0
 10 16  1  0
 16 17  1  0
 17 18  2  0
 17 19  1  0
 17 20  1  0
 16 21  2  0
  5 22  1  0
 22 23  2  0
 22 24  1  0
 25 24  1  1
 25 26  1  0
 25 27  1  0
 27 28  2  0
 28 29  1  0
 29 30  2  0
 30 31  1  0
 31 32  1  0
 32 33  1  0
 33 34  1  0
 34 35  1  0
 35 36  1  0
 36 37  1  0
 37 38  1  0
 30 39  1  0
 39 40  1  0
 40 41  1  0
 40 42  2  0
 39 43  2  0
 21  7  1  0
 43 27  1  0
 38 33  1  0
M  END
>  <zinc_id>  (1) 
ZINC000014880990

>  <smiles>  (1) 
CC(=O)N[C@@H](Cc1ccc(OCC(=O)O)c(P(=O)(O)O)c1)C(=O)N[C@@H](C)c1ccc(OCC2CCCCC2)c(C(N)=O)c1

$$$$
