
     RDKit          3D

 43 44  0  0  0  0  0  0  0  0999 V2000
    3.4703    7.0980   -0.3463 C   0  0  0  0  0  0  0  0  0  0  0  0
    3.1445    6.4150   -0.4114 C   0  0  0  0  0  0  0  0  0  0  0  0
    1.9816    5.6918    0.2199 C   0  0  0  0  0  0  0  0  0  0  0  0
    1.5206    4.6034   -0.7101 C   0  0  0  0  0  0  0  0  0  0  0  0
    2.5600    3.5047   -0.8844 C   0  0  0  0  0  0  0  0  0  0  0  0
    2.4166    2.4841    0.1469 N   0  0  0  0  0  0  0  0  0  0  0  0
    1.6580    1.2803   -0.0457 C   0  0  0  0  0  0  0  0  0  0  0  0
    0.9912    1.3010   -1.1283 O   0  0  0  0  0  0  0  0  0  0  0  0
    0.6599    1.1853    1.2653 C   0  0  2  0  0  0  0  0  0  0  0  0
    1.6903    0.2426    2.1784 C   0  0  0  0  0  0  0  0  0  0  0  0
    2.5740   -0.4743    1.3021 C   0  0  0  0  0  0  0  0  0  0  0  0
    3.8180   -0.7327    1.8743 C   0  0  0  0  0  0  0  0  0  0  0  0
    4.6368   -1.7364    1.4472 C   0  0  0  0  0  0  0  0  0  0  0  0
    4.4803   -2.2186    0.1812 C   0  0  0  0  0  0  0  0  0  0  0  0
    5.5952   -2.6197   -0.5639 O   0  0  0  0  0  0  0  0  0  0  0  0
    6.4884   -1.6612   -1.1259 C   0  0  0  0  0  0  0  0  0  0  0  0
    7.4737   -1.1694   -0.1234 C   0  0  0  0  0  0  0  0  0  0  0  0
    7.2008   -0.1890    0.6324 O   0  0  0  0  0  0  0  0  0  0  0  0
    8.8125   -1.3179   -0.4459 O   0  0  0  0  0  0  0  0  0  0  0  0
    3.2480   -1.9997   -0.4252 C   0  0  0  0  0  0  0  0  0  0  0  0
    2.9861   -2.7601   -1.6466 C   0  0  0  0  0  0  0  0  0  0  0  0
    3.0533   -2.1945   -2.7662 O   0  0  0  0  0  0  0  0  0  0  0  0
    3.2140   -4.1405   -1.6321 O   0  0  0  0  0  0  0  0  0  0  0  0
    2.2453   -1.3323    0.2678 C   0  0  0  0  0  0  0  0  0  0  0  0
   -0.1027   -0.1186    0.7157 N   0  0  0  0  0  0  0  0  0  0  0  0
   -1.4734    0.3104    0.8444 C   0  0  0  0  0  0  0  0  0  0  0  0
   -1.8451    1.0071   -0.0970 O   0  0  0  0  0  0  0  0  0  0  0  0
   -2.4886   -0.8947    1.2997 C   0  0  2  0  0  0  0  0  0  0  0  0
   -2.4266   -1.5674   -0.2313 C   0  0  0  0  0  0  0  0  0  0  0  0
   -3.6583   -1.2928   -0.9167 C   0  0  0  0  0  0  0  0  0  0  0  0
   -3.5796   -0.5662   -2.1012 C   0  0  0  0  0  0  0  0  0  0  0  0
   -4.7356    0.0523   -2.5627 C   0  0  0  0  0  0  0  0  0  0  0  0
   -5.9546   -0.4717   -2.1736 C   0  0  0  0  0  0  0  0  0  0  0  0
   -5.9578   -1.5972   -1.3773 C   0  0  0  0  0  0  0  0  0  0  0  0
   -4.7956   -2.0853   -0.8146 C   0  0  0  0  0  0  0  0  0  0  0  0
   -3.8089   -0.0109    1.0336 N   0  0  0  0  0  0  0  0  0  0  0  0
   -4.6699    0.0098    2.1743 C   0  0  0  0  0  0  0  0  0  0  0  0
   -4.1547   -0.0141    3.3211 O   0  0  0  0  0  0  0  0  0  0  0  0
   -6.0309    0.5711    2.0469 C   0  0  0  0  0  0  0  0  0  0  0  0
   -7.0935   -0.5015    1.9170 C   0  0  0  0  0  0  0  0  0  0  0  0
   -7.5050   -0.5527    0.4812 C   0  0  0  0  0  0  0  0  0  0  0  0
   -8.4554    0.1486    0.0245 O   0  0  0  0  0  0  0  0  0  0  0  0
   -7.1832   -1.6861   -0.2542 O   0  0  0  0  0  0  0  0  0  0  0  0
  1  2  1  0
  2  3  1  0
  3  4  1  0
  4  5  1  0
  5  6  1  0
  6  7  1  0
  7  8  2  0
  9  7  1  6
  9 10  1  0
 10 11  1  0
 11 12  2  0
 12 13  1  0
 13 14  2  0
 14 15  1  0
 15 16  1  0
 16 17  1  0
 17 18  2  0
 17 19  1  0
 14 20  1  0
 20 21  1  0
 21 22  2  0
 21 23  1  0
 20 24  2  0
  9 25  1  0
 25 26  1  0
 26 27  2  0
 28 26  1  6
 28 29  1  0
 29 30  1  0
 30 31  2  0
 31 32  1  0
 32 33  2  0
 33 34  1  0
 34 35  2  0
 28 36  1  0
 36 37  1  0
 37 38  2  0
 37 39  1  0
 39 40  1  0
 40 41  1  0
 41 42  2  0
 41 43  1  0
 24 11  1  0
 35 30  1  0
M  END
>  <zinc_id>  (1) 
ZINC000003965850

>  <smiles>  (1) 
CCCCCNC(=O)[C@H](Cc1ccc(OCC(=O)O)c(C(=O)O)c1)NC(=O)[C@H](Cc1ccccc1)NC(=O)CCC(=O)O

$$$$
