
     RDKit          3D

 45 46  0  0  0  0  0  0  0  0999 V2000
   -8.9027    2.2076   -0.0421 C   0  0  0  0  0  0  0  0  0  0  0  0
   -8.6444    2.3703    0.1976 C   0  0  0  0  0  0  0  0  0  0  0  0
   -7.3850    2.2875    0.8582 O   0  0  0  0  0  0  0  0  0  0  0  0
   -6.8540    1.1112    1.3668 C   0  0  0  0  0  0  0  0  0  0  0  0
   -7.6744    0.1567    1.5259 O   0  0  0  0  0  0  0  0  0  0  0  0
   -5.4949    0.7942    0.9009 C   0  0  0  0  0  0  0  0  0  0  0  0
   -5.3459   -0.1806    0.0503 C   0  0  0  0  0  0  0  0  0  0  0  0
   -4.3017    0.0731   -1.1609 C   0  0  2  0  0  0  0  0  0  0  0  0
   -3.7748   -1.4789   -1.3153 C   0  0  0  0  0  0  0  0  0  0  0  0
   -4.3017   -2.2471    0.0121 C   0  0  2  0  0  0  0  0  0  0  0  0
   -3.0981   -3.3490   -0.0421 C   0  0  0  0  0  0  0  0  0  0  0  0
   -3.9110   -4.4910    0.5574 C   0  0  0  0  0  0  0  0  0  0  0  0
   -5.2430   -4.3656    0.0028 N   0  0  0  0  0  0  0  0  0  0  0  0
   -5.2440   -3.2206   -0.8447 C   0  0  0  0  0  0  0  0  0  0  0  0
   -6.1990   -2.7419   -1.4995 O   0  0  0  0  0  0  0  0  0  0  0  0
   -3.1590    0.4649   -0.1556 N   0  0  0  0  0  0  0  0  0  0  0  0
   -1.8582    0.7175   -0.7138 C   0  0  0  0  0  0  0  0  0  0  0  0
   -1.6226    0.0450   -1.7125 O   0  0  0  0  0  0  0  0  0  0  0  0
   -0.9858    0.4381    0.6193 C   0  0  2  0  0  0  0  0  0  0  0  0
   -1.4163    1.9110    1.2287 C   0  0  0  0  0  0  0  0  0  0  0  0
   -1.1455    2.9274    0.1862 C   0  0  0  0  0  0  0  0  0  0  0  0
   -2.2264    4.0014    0.3116 C   0  0  0  0  0  0  0  0  0  0  0  0
    0.1746    3.6387    0.3500 C   0  0  0  0  0  0  0  0  0  0  0  0
    0.4120    0.9397    0.0779 N   0  0  0  0  0  0  0  0  0  0  0  0
    1.2828    0.0545   -0.3222 C   0  0  0  0  0  0  0  0  0  0  0  0
    0.8941   -0.8777   -1.1050 O   0  0  0  0  0  0  0  0  0  0  0  0
    2.6516   -0.5838    0.2383 C   0  0  1  0  0  0  0  0  0  0  0  0
    3.5343    0.6182   -0.2336 N   0  0  0  0  0  0  0  0  0  0  0  0
    4.3478    1.3590    0.3091 C   0  0  0  0  0  0  0  0  0  0  0  0
    3.6351    2.1106    1.0585 O   0  0  0  0  0  0  0  0  0  0  0  0
    5.7463    1.5435    1.0603 C   0  0  1  0  0  0  0  0  0  0  0  0
    6.5871    0.3841    0.4076 N   0  0  0  0  0  0  0  0  0  0  0  0
    6.0079   -0.4757   -0.4986 C   0  0  0  0  0  0  0  0  0  0  0  0
    5.9224    0.2324   -1.5531 O   0  0  0  0  0  0  0  0  0  0  0  0
    6.4053   -1.8934   -0.5436 C   0  0  0  0  0  0  0  0  0  0  0  0
    5.5689   -3.0027   -0.6495 C   0  0  0  0  0  0  0  0  0  0  0  0
    6.1930   -4.1019   -0.0691 C   0  0  0  0  0  0  0  0  0  0  0  0
    7.4229   -3.7040    0.2021 O   0  0  0  0  0  0  0  0  0  0  0  0
    7.4533   -2.3982    0.2250 C   0  0  0  0  0  0  0  0  0  0  0  0
    6.2937    2.6960    0.0082 C   0  0  0  0  0  0  0  0  0  0  0  0
    6.8877    3.6625    1.0441 C   0  0  0  0  0  0  0  0  0  0  0  0
    5.1011    3.4682   -0.4872 C   0  0  0  0  0  0  0  0  0  0  0  0
    2.5532   -0.2358    1.8409 C   0  0  0  0  0  0  0  0  0  0  0  0
    2.0355   -1.5807    2.3668 C   0  0  0  0  0  0  0  0  0  0  0  0
    1.6777    0.7155    2.2868 C   0  0  0  0  0  0  0  0  0  0  0  0
  1  2  1  0
  2  3  1  0
  3  4  1  0
  4  5  2  0
  4  6  1  0
  6  7  2  0
  8  7  1  1
  8  9  1  0
 10  9  1  6
 10 11  1  0
 11 12  1  0
 12 13  1  0
 13 14  1  0
 14 15  2  0
  8 16  1  0
 16 17  1  0
 17 18  2  0
 19 17  1  6
 19 20  1  0
 20 21  1  0
 21 22  1  0
 21 23  1  0
 19 24  1  0
 24 25  1  0
 25 26  2  0
 27 25  1  6
 27 28  1  0
 28 29  1  0
 29 30  2  0
 31 29  1  6
 31 32  1  0
 32 33  1  0
 33 34  2  0
 33 35  1  0
 35 36  1  0
 36 37  2  0
 37 38  1  0
 38 39  1  0
 31 40  1  0
 40 41  1  0
 40 42  1  0
 27 43  1  0
 43 44  1  0
 43 45  1  0
 14 10  1  0
 39 35  2  0
M  END
>  <zinc_id>  (1) 
ZINC000014881283

>  <smiles>  (1) 
CCOC(=O)/C=C/[C@H](C[C@@H]1CCNC1=O)NC(=O)[C@H](CC(C)C)NC(=O)[C@@H](NC(=O)[C@@H](NC(=O)c1ccoc1)C(C)C)C(C)C

$$$$
