
     RDKit          3D

 47 47  0  0  0  0  0  0  0  0999 V2000
   -3.0531    5.2705   -0.0969 N   0  0  0  0  0  0  0  0  0  0  0  0
   -4.6236    5.5684   -0.2502 C   0  0  1  0  0  0  0  0  0  0  0  0
   -4.9446    3.9415   -0.4889 C   0  0  0  0  0  0  0  0  0  0  0  0
   -4.2474    3.2421    0.6207 C   0  0  0  0  0  0  0  0  0  0  0  0
   -3.4153    2.0871    0.2385 C   0  0  0  0  0  0  0  0  0  0  0  0
   -3.0714    1.3588    1.2231 O   0  0  0  0  0  0  0  0  0  0  0  0
   -2.4659    2.2369   -0.7730 N   0  0  0  0  0  0  0  0  0  0  0  0
   -1.6229    0.9366   -1.1780 C   0  0  1  0  0  0  0  0  0  0  0  0
   -1.2566    0.5967    0.4233 C   0  0  0  0  0  0  0  0  0  0  0  0
    0.2567   -0.3398    0.2473 S   0  0  0  0  0  0  0  0  0  0  0  0
    0.4353   -1.1833    1.4806 O   0  0  0  0  0  0  0  0  0  0  0  0
    0.1827   -1.2097   -0.9826 O   0  0  0  0  0  0  0  0  0  0  0  0
    1.5745    0.8495    0.1176 C   0  0  0  0  0  0  0  0  0  0  0  0
    2.6160    0.4462   -0.8857 C   0  0  0  0  0  0  0  0  0  0  0  0
    3.2339   -0.7502   -0.5636 O   0  0  0  0  0  0  0  0  0  0  0  0
    4.5464   -0.5784    0.4584 P   0  0  0  0  0  0  0  0  0  0  0  0
    4.0227   -0.6498    1.8859 O   0  0  0  0  0  0  0  0  0  0  0  0
    5.6683   -1.9191    0.2371 N   0  0  0  0  0  0  0  0  0  0  0  0
    5.4888   -2.4924   -1.0827 C   0  0  0  0  0  0  0  0  0  0  0  0
    6.7708   -3.0183   -1.6677 C   0  0  0  0  0  0  0  0  0  0  0  0
    8.0319   -1.7558   -1.7275 Cl  0  0  0  0  0  0  0  0  0  0  0  0
    5.3273   -2.9527    1.1867 C   0  0  0  0  0  0  0  0  0  0  0  0
    3.8791   -3.3104    0.9664 C   0  0  0  0  0  0  0  0  0  0  0  0
    3.8087   -5.0153    0.4409 Cl  0  0  0  0  0  0  0  0  0  0  0  0
    5.3642    0.9503    0.2699 N   0  0  0  0  0  0  0  0  0  0  0  0
    5.6390    1.2793   -1.1042 C   0  0  0  0  0  0  0  0  0  0  0  0
    7.0416    1.8410   -1.1894 C   0  0  0  0  0  0  0  0  0  0  0  0
    8.0321    0.6615   -2.0635 Cl  0  0  0  0  0  0  0  0  0  0  0  0
    4.6080    2.0084    0.9016 C   0  0  0  0  0  0  0  0  0  0  0  0
    5.2534    3.3423    0.5848 C   0  0  0  0  0  0  0  0  0  0  0  0
    6.3638    3.7314    1.9276 Cl  0  0  0  0  0  0  0  0  0  0  0  0
   -2.9603   -0.0202   -1.2195 C   0  0  0  0  0  0  0  0  0  0  0  0
   -3.2267   -0.1631   -2.4545 O   0  0  0  0  0  0  0  0  0  0  0  0
   -2.9691   -1.1525   -0.4258 N   0  0  0  0  0  0  0  0  0  0  0  0
   -3.3458   -2.5397   -1.1412 C   0  0  1  0  0  0  0  0  0  0  0  0
   -2.3695   -3.3921   -0.1209 C   0  0  0  0  0  0  0  0  0  0  0  0
   -1.2032   -3.2662   -0.6132 O   0  0  0  0  0  0  0  0  0  0  0  0
   -2.4890   -3.0761    1.2066 O   0  0  0  0  0  0  0  0  0  0  0  0
   -4.6688   -2.7361   -0.1738 C   0  0  0  0  0  0  0  0  0  0  0  0
   -5.6932   -1.8645   -0.5172 C   0  0  0  0  0  0  0  0  0  0  0  0
   -7.0062   -2.2912   -0.3524 C   0  0  0  0  0  0  0  0  0  0  0  0
   -7.2372   -3.5716    0.1087 C   0  0  0  0  0  0  0  0  0  0  0  0
   -6.2225   -4.5031    0.2593 C   0  0  0  0  0  0  0  0  0  0  0  0
   -4.9511   -4.0867   -0.0813 C   0  0  0  0  0  0  0  0  0  0  0  0
   -4.9327    5.4610    1.3611 C   0  0  0  0  0  0  0  0  0  0  0  0
   -4.0168    5.8922    2.0933 O   0  0  0  0  0  0  0  0  0  0  0  0
   -6.1529    6.1367    1.5397 O   0  0  0  0  0  0  0  0  0  0  0  0
  2  1  1  1
  2  3  1  0
  3  4  1  0
  4  5  1  0
  5  6  2  0
  5  7  1  0
  8  7  1  1
  8  9  1  0
  9 10  1  0
 10 11  2  0
 10 12  2  0
 10 13  1  0
 13 14  1  0
 14 15  1  0
 15 16  1  0
 16 17  2  0
 16 18  1  0
 18 19  1  0
 19 20  1  0
 20 21  1  0
 18 22  1  0
 22 23  1  0
 23 24  1  0
 16 25  1  0
 25 26  1  0
 26 27  1  0
 27 28  1  0
 25 29  1  0
 29 30  1  0
 30 31  1  0
  8 32  1  0
 32 33  2  0
 32 34  1  0
 35 34  1  1
 35 36  1  0
 36 37  2  0
 36 38  1  0
 35 39  1  0
 39 40  2  0
 40 41  1  0
 41 42  2  0
 42 43  1  0
 43 44  2  0
  2 45  1  0
 45 46  2  0
 45 47  1  0
 44 39  1  0
M  END
>  <zinc_id>  (1) 
ZINC000085537051

>  <smiles>  (1) 
N[C@@H](CCC(=O)N[C@@H](CS(=O)(=O)CCOP(=O)(N(CCCl)CCCl)N(CCCl)CCCl)C(=O)N[C@@H](C(=O)O)c1ccccc1)C(=O)O

$$$$
