
     RDKit          3D

 27 30  0  0  0  0  0  0  0  0999 V2000
   -3.8962    4.4513    0.3370 C   0  0  0  0  0  0  0  0  0  0  0  0
   -4.5343    3.2841    0.8343 O   0  0  0  0  0  0  0  0  0  0  0  0
   -3.9539    2.0438    0.6353 C   0  0  0  0  0  0  0  0  0  0  0  0
   -4.5231    0.9162    1.1606 C   0  0  0  0  0  0  0  0  0  0  0  0
   -3.9193   -0.3231    0.9993 C   0  0  0  0  0  0  0  0  0  0  0  0
   -2.6213   -0.4368    0.5236 C   0  0  0  0  0  0  0  0  0  0  0  0
   -2.0246   -1.6438    0.3558 N   0  0  0  0  0  0  0  0  0  0  0  0
   -0.7744   -1.6571   -0.1334 C   0  0  0  0  0  0  0  0  0  0  0  0
   -0.2499   -0.5359   -0.7649 C   0  0  0  0  0  0  0  0  0  0  0  0
    1.1094   -0.3150   -0.8846 C   0  0  0  0  0  0  0  0  0  0  0  0
    1.9204   -1.4437   -0.9082 C   0  0  0  0  0  0  0  0  0  0  0  0
    1.4320   -2.6166   -0.3429 C   0  0  0  0  0  0  0  0  0  0  0  0
    0.1101   -2.7065    0.0765 C   0  0  0  0  0  0  0  0  0  0  0  0
   -0.4243   -3.9760    0.3781 N   0  0  0  0  0  0  0  0  0  0  0  0
   -1.0736   -4.5394   -0.5400 O   0  0  0  0  0  0  0  0  0  0  0  0
    0.3786   -4.8224    1.1236 O   0  0  0  0  0  0  0  0  0  0  0  0
    1.3406    1.0201   -0.8624 N   0  0  0  0  0  0  0  0  0  0  0  0
    2.5934    1.6343   -0.4265 C   0  0  0  0  0  0  0  0  0  0  0  0
    3.7004    1.3103   -1.3830 C   0  0  0  0  0  0  0  0  0  0  0  0
    4.9387    2.0549   -0.9029 C   0  0  0  0  0  0  0  0  0  0  0  0
    5.5187    1.4269    0.2684 N   0  0  0  0  0  0  0  0  0  0  0  0
    5.4362   -0.0172    0.2088 C   0  0  0  0  0  0  0  0  0  0  0  0
    4.9022    1.8485    1.4987 C   0  0  0  0  0  0  0  0  0  0  0  0
    0.1519    1.6278   -0.8453 N   0  0  0  0  0  0  0  0  0  0  0  0
   -0.8068    0.7229   -0.5777 C   0  0  0  0  0  0  0  0  0  0  0  0
   -2.0467    0.7373    0.0519 C   0  0  0  0  0  0  0  0  0  0  0  0
   -2.6844    1.9554    0.1202 C   0  0  0  0  0  0  0  0  0  0  0  0
  1  2  1  0
  2  3  1  0
  3  4  2  0
  4  5  1  0
  5  6  2  0
  6  7  1  0
  7  8  1  0
  8  9  2  0
  9 10  1  0
 10 11  2  0
 11 12  1  0
 12 13  2  0
 13 14  1  0
 14 15  2  0
 14 16  1  0
 10 17  1  0
 17 18  1  0
 18 19  1  0
 19 20  1  0
 20 21  1  0
 21 22  1  0
 21 23  1  0
 17 24  1  0
 24 25  2  0
 25 26  1  0
 26 27  2  0
 27  3  1  0
 26  6  1  0
 13  8  1  0
 25  9  1  0
M  CHG  2  14   1  16  -1
M  END
>  <zinc_id>  (1) 
ZINC000003778885

>  <smiles>  (1) 
COc1ccc2[nH]c3c([N+](=O)[O-])ccc4c3c(nn4CCCN(C)C)c2c1

$$$$
