
     RDKit          3D

 51 51  0  0  0  0  0  0  0  0999 V2000
    2.3932   -2.1367    0.0086 C   0  0  0  0  0  0  0  0  0  0  0  0
    2.1706   -2.0840   -0.2962 C   0  0  0  0  0  0  0  0  0  0  0  0
    2.8237   -3.0139   -1.2498 C   0  0  0  0  0  0  0  0  0  0  0  0
    2.1768   -0.6546   -0.6260 C   0  0  0  0  0  0  0  0  0  0  0  0
    2.1052    0.1900    0.7917 C   0  0  2  0  0  0  0  0  0  0  0  0
    3.0064   -0.8294    1.5957 N   0  0  0  0  0  0  0  0  0  0  0  0
    4.1285   -0.2392    2.2805 C   0  0  0  0  0  0  0  0  0  0  0  0
    3.7437    0.6580    3.0947 O   0  0  0  0  0  0  0  0  0  0  0  0
    5.3572    0.2306    1.3347 C   0  0  1  0  0  0  0  0  0  0  0  0
    6.3160    0.6059    2.5318 N   0  0  0  0  0  0  0  0  0  0  0  0
    7.6714    0.5649    2.1514 C   0  0  0  0  0  0  0  0  0  0  0  0
    8.0385   -0.5972    1.7919 O   0  0  0  0  0  0  0  0  0  0  0  0
    8.5232    1.6889    1.6774 C   0  0  0  0  0  0  0  0  0  0  0  0
    9.7035    1.2327    1.0148 N   0  0  0  0  0  0  0  0  0  0  0  0
    9.7199    0.2319   -0.0061 C   0  0  0  0  0  0  0  0  0  0  0  0
    8.7836    0.3180   -0.8224 O   0  0  0  0  0  0  0  0  0  0  0  0
   10.7452   -0.8428    0.0159 C   0  0  0  0  0  0  0  0  0  0  0  0
   11.9333   -0.3549   -0.6311 N   0  0  0  0  0  0  0  0  0  0  0  0
    5.9924   -1.2678    1.1500 C   0  0  0  0  0  0  0  0  0  0  0  0
    5.4009   -2.2445    2.0029 C   0  0  0  0  0  0  0  0  0  0  0  0
    5.9669   -1.5047   -0.3293 C   0  0  0  0  0  0  0  0  0  0  0  0
    0.6761   -0.4006    1.2773 C   0  0  0  0  0  0  0  0  0  0  0  0
    0.1044   -1.2544    0.6855 O   0  0  0  0  0  0  0  0  0  0  0  0
   -0.0409    0.6842    1.6889 N   0  0  0  0  0  0  0  0  0  0  0  0
   -1.5476    0.9800    1.3812 C   0  0  2  0  0  0  0  0  0  0  0  0
   -1.7166    0.1126    0.0134 C   0  0  0  0  0  0  0  0  0  0  0  0
   -2.5612   -0.7795    0.3718 O   0  0  0  0  0  0  0  0  0  0  0  0
   -2.0386    0.7306   -1.1480 N   0  0  0  0  0  0  0  0  0  0  0  0
   -3.1737    0.3344   -2.1525 C   0  0  1  0  0  0  0  0  0  0  0  0
   -3.4725   -1.1400   -1.4770 C   0  0  0  0  0  0  0  0  0  0  0  0
   -3.0482   -2.1600   -2.4850 C   0  0  0  0  0  0  0  0  0  0  0  0
   -4.1356   -2.2864   -3.5127 C   0  0  0  0  0  0  0  0  0  0  0  0
   -3.6240   -2.3805   -4.8482 N   0  0  0  0  0  0  0  0  0  0  0  0
   -5.1268   -2.9896   -3.1449 O   0  0  0  0  0  0  0  0  0  0  0  0
   -4.3613    1.0261   -1.3039 C   0  0  0  0  0  0  0  0  0  0  0  0
   -4.1503    2.1290   -0.7991 O   0  0  0  0  0  0  0  0  0  0  0  0
   -5.4904    1.1057   -2.1803 N   0  0  0  0  0  0  0  0  0  0  0  0
   -5.6305    1.8750   -3.4043 C   0  0  0  0  0  0  0  0  0  0  0  0
   -6.9546    1.3639   -3.9312 C   0  0  0  0  0  0  0  0  0  0  0  0
   -7.5316    0.4611   -2.8472 C   0  0  0  0  0  0  0  0  0  0  0  0
   -6.9306    1.3427   -1.5968 C   0  0  1  0  0  0  0  0  0  0  0  0
   -6.8210    0.0918   -0.5828 C   0  0  0  0  0  0  0  0  0  0  0  0
   -7.6716   -0.7956   -0.6557 O   0  0  0  0  0  0  0  0  0  0  0  0
   -6.7047    0.6727    0.7303 N   0  0  0  0  0  0  0  0  0  0  0  0
   -6.9324   -0.0789    1.9346 C   0  0  0  0  0  0  0  0  0  0  0  0
   -8.1686    0.4239    2.6059 C   0  0  0  0  0  0  0  0  0  0  0  0
   -8.1332    0.4605    3.8722 O   0  0  0  0  0  0  0  0  0  0  0  0
   -9.3872    0.4881    1.9532 O   0  0  0  0  0  0  0  0  0  0  0  0
   -1.1443    2.4059    0.6565 C   0  0  0  0  0  0  0  0  0  0  0  0
   -0.8759    3.3793    1.7423 C   0  0  0  0  0  0  0  0  0  0  0  0
   -0.1070    2.2205   -0.3246 C   0  0  0  0  0  0  0  0  0  0  0  0
  1  2  1  0
  2  3  1  0
  2  4  1  0
  5  4  1  6
  5  6  1  0
  6  7  1  0
  7  8  2  0
  9  7  1  1
  9 10  1  0
 10 11  1  0
 11 12  2  0
 11 13  1  0
 13 14  1  0
 14 15  1  0
 15 16  2  0
 15 17  1  0
 17 18  1  0
  9 19  1  0
 19 20  1  0
 19 21  1  0
  5 22  1  0
 22 23  2  0
 22 24  1  0
 25 24  1  1
 25 26  1  0
 26 27  2  0
 26 28  1  0
 29 28  1  1
 29 30  1  0
 30 31  1  0
 31 32  1  0
 32 33  1  0
 32 34  2  0
 29 35  1  0
 35 36  2  0
 35 37  1  0
 37 38  1  0
 38 39  1  0
 39 40  1  0
 40 41  1  0
 41 42  1  1
 42 43  2  0
 42 44  1  0
 44 45  1  0
 45 46  1  0
 46 47  2  0
 46 48  1  0
 25 49  1  0
 49 50  1  0
 49 51  1  0
 41 37  1  0
M  END
>  <zinc_id>  (1) 
ZINC000068009799

>  <smiles>  (1) 
CC(C)C[C@H](NC(=O)[C@@H](NC(=O)CNC(=O)CN)C(C)C)C(=O)N[C@H](C(=O)N[C@@H](CCC(N)=O)C(=O)N1CCC[C@H]1C(=O)NCC(=O)O)C(C)C

$$$$
