
     RDKit          3D

 32 33  0  0  0  0  0  0  0  0999 V2000
    1.7433    4.0538   -1.0433 C   0  0  0  0  0  0  0  0  0  0  0  0
    1.8123    2.8771   -0.2828 C   0  0  0  0  0  0  0  0  0  0  0  0
    1.3045    2.9405    0.8743 O   0  0  0  0  0  0  0  0  0  0  0  0
    2.6305    1.7796   -0.6800 N   0  0  0  0  0  0  0  0  0  0  0  0
    2.2038    0.4002    0.0192 C   0  0  2  0  0  0  0  0  0  0  0  0
    3.5808   -0.3689   -0.5441 C   0  0  0  0  0  0  0  0  0  0  0  0
    4.6799    0.1657    0.2580 C   0  0  0  0  0  0  0  0  0  0  0  0
    5.1980    1.4356    0.0755 C   0  0  0  0  0  0  0  0  0  0  0  0
    5.8671    2.0012    1.1524 C   0  0  0  0  0  0  0  0  0  0  0  0
    6.4204    1.1681    2.1159 C   0  0  0  0  0  0  0  0  0  0  0  0
    6.4147   -0.1908    1.8295 C   0  0  0  0  0  0  0  0  0  0  0  0
    5.5473   -0.7206    0.8858 C   0  0  0  0  0  0  0  0  0  0  0  0
    1.3511   -0.0967   -1.2937 C   0  0  0  0  0  0  0  0  0  0  0  0
    0.5759    0.7761   -1.7525 O   0  0  0  0  0  0  0  0  0  0  0  0
    0.9313   -1.4132   -0.9774 N   0  0  0  0  0  0  0  0  0  0  0  0
    0.6882   -2.1378    0.2178 C   0  0  0  0  0  0  0  0  0  0  0  0
    0.4497   -3.5476   -0.2188 C   0  0  0  0  0  0  0  0  0  0  0  0
    0.5179   -3.5755   -1.7095 C   0  0  0  0  0  0  0  0  0  0  0  0
   -0.0808   -2.0463   -2.0450 C   0  0  1  0  0  0  0  0  0  0  0  0
   -1.3045   -2.1860   -0.9538 C   0  0  0  0  0  0  0  0  0  0  0  0
   -1.9389   -3.2484   -1.0342 O   0  0  0  0  0  0  0  0  0  0  0  0
   -2.1590   -1.0286   -0.9318 N   0  0  0  0  0  0  0  0  0  0  0  0
   -2.6263   -0.9786    0.5877 C   0  0  1  0  0  0  0  0  0  0  0  0
   -3.4269    0.4481    0.3550 C   0  0  0  0  0  0  0  0  0  0  0  0
   -4.7389    0.2308   -0.2126 C   0  0  0  0  0  0  0  0  0  0  0  0
   -5.9188    0.7978    0.5627 C   0  0  0  0  0  0  0  0  0  0  0  0
   -5.8484    2.2864    0.4532 C   0  0  0  0  0  0  0  0  0  0  0  0
   -5.6822    2.9356    1.8144 C   0  0  0  0  0  0  0  0  0  0  0  0
   -5.6308    4.3734    1.5990 N   0  0  0  0  0  0  0  0  0  0  0  0
   -3.9979   -2.0025    0.3501 B   0  0  0  0  0  0  0  0  0  0  0  0
   -4.5477   -2.1793   -0.9348 O   0  0  0  0  0  0  0  0  0  0  0  0
   -4.0156   -2.9491    1.4640 O   0  0  0  0  0  0  0  0  0  0  0  0
  1  2  1  0
  2  3  2  0
  2  4  1  0
  5  4  1  6
  5  6  1  0
  6  7  1  0
  7  8  2  0
  8  9  1  0
  9 10  2  0
 10 11  1  0
 11 12  2  0
  5 13  1  0
 13 14  2  0
 13 15  1  0
 15 16  1  0
 16 17  1  0
 17 18  1  0
 18 19  1  0
 19 20  1  1
 20 21  2  0
 20 22  1  0
 23 22  1  6
 23 24  1  0
 24 25  1  0
 25 26  1  0
 26 27  1  0
 27 28  1  0
 28 29  1  0
 23 30  1  0
 30 31  1  0
 30 32  1  0
 12  7  1  0
 19 15  1  0
M  END
>  <zinc_id>  (1) 
ZINC000169748502

>  <smiles>  (1) 
CC(=O)N[C@H](Cc1ccccc1)C(=O)N1CCC[C@H]1C(=O)N[C@@H](CCCCCN)B(O)O

$$$$
