
     RDKit          3D

 32 32  0  0  0  0  0  0  0  0999 V2000
    2.4908    0.5602    1.4427 C   0  0  0  0  0  0  0  0  0  0  0  0
    2.1522    0.1706    1.4619 C   0  0  0  0  0  0  0  0  0  0  0  0
    2.2683   -1.0888    2.3170 C   0  0  0  0  0  0  0  0  0  0  0  0
    1.7860   -0.4322   -0.0223 C   0  0  2  0  0  0  0  0  0  0  0  0
    2.1250    0.9358   -0.7263 N   0  0  0  0  0  0  0  0  0  0  0  0
    3.0724    0.7625   -1.7785 C   0  0  0  0  0  0  0  0  0  0  0  0
    2.7531   -0.0437   -2.6781 O   0  0  0  0  0  0  0  0  0  0  0  0
    4.2966    1.3799   -1.8939 O   0  0  0  0  0  0  0  0  0  0  0  0
    5.4318    0.7385   -2.4822 C   0  0  0  0  0  0  0  0  0  0  0  0
    6.2276    0.2147   -1.3284 C   0  0  0  0  0  0  0  0  0  0  0  0
    7.4869    0.7740   -1.1746 C   0  0  0  0  0  0  0  0  0  0  0  0
    8.2328    0.5963   -0.0247 C   0  0  0  0  0  0  0  0  0  0  0  0
    7.5619    0.0848    1.0674 C   0  0  0  0  0  0  0  0  0  0  0  0
    6.3091   -0.4837    0.9206 C   0  0  0  0  0  0  0  0  0  0  0  0
    5.7093   -0.5636   -0.3313 C   0  0  0  0  0  0  0  0  0  0  0  0
    0.2154   -0.0991    0.1583 C   0  0  0  0  0  0  0  0  0  0  0  0
   -0.3441   -0.8181    1.0473 O   0  0  0  0  0  0  0  0  0  0  0  0
   -0.5563    0.2521   -0.8890 N   0  0  0  0  0  0  0  0  0  0  0  0
   -1.8784   -0.4736   -1.3224 C   0  0  1  0  0  0  0  0  0  0  0  0
   -1.4375   -1.9633   -0.7796 C   0  0  0  0  0  0  0  0  0  0  0  0
   -2.6922   -0.1322    0.0369 C   0  0  0  0  0  0  0  0  0  0  0  0
   -3.1791    1.0367    0.0723 O   0  0  0  0  0  0  0  0  0  0  0  0
   -3.5021   -1.0586    0.6052 N   0  0  0  0  0  0  0  0  0  0  0  0
   -5.0729   -1.0588    0.5953 C   0  0  1  0  0  0  0  0  0  0  0  0
   -5.1798   -0.0614    1.9022 C   0  0  0  0  0  0  0  0  0  0  0  0
   -6.6358   -0.1743    2.2161 C   0  0  0  0  0  0  0  0  0  0  0  0
   -7.3915   -1.0663    1.7347 O   0  0  0  0  0  0  0  0  0  0  0  0
   -7.1744    0.4886    3.3172 O   0  0  0  0  0  0  0  0  0  0  0  0
   -5.2721    0.1467   -0.4615 C   0  0  0  0  0  0  0  0  0  0  0  0
   -5.3580   -0.3970   -1.5654 O   0  0  0  0  0  0  0  0  0  0  0  0
   -6.2785    1.1625   -0.1951 C   0  0  0  0  0  0  0  0  0  0  0  0
   -6.1665    2.0471   -1.2417 F   0  0  0  0  0  0  0  0  0  0  0  0
  1  2  1  0
  2  3  1  0
  4  2  1  1
  4  5  1  0
  5  6  1  0
  6  7  2  0
  6  8  1  0
  8  9  1  0
  9 10  1  0
 10 11  2  0
 11 12  1  0
 12 13  2  0
 13 14  1  0
 14 15  2  0
  4 16  1  0
 16 17  2  0
 16 18  1  0
 19 18  1  1
 19 20  1  0
 19 21  1  0
 21 22  2  0
 21 23  1  0
 24 23  1  6
 24 25  1  0
 25 26  1  0
 26 27  2  0
 26 28  1  0
 24 29  1  0
 29 30  2  0
 29 31  1  0
 31 32  1  0
 15 10  1  0
M  END
>  <zinc_id>  (1) 
ZINC000025668028

>  <smiles>  (1) 
CC(C)[C@H](NC(=O)OCc1ccccc1)C(=O)N[C@@H](C)C(=O)N[C@@H](CC(=O)O)C(=O)CF

$$$$
