
     RDKit          3D

 41 42  0  0  0  0  0  0  0  0999 V2000
   -7.8361   -1.1144   -0.9682 C   0  0  0  0  0  0  0  0  0  0  0  0
   -6.9816   -0.6922   -0.4282 C   0  0  0  0  0  0  0  0  0  0  0  0
   -6.6545    0.6476   -1.0684 C   0  0  0  0  0  0  0  0  0  0  0  0
   -7.4230   -0.3679    0.9931 C   0  0  0  0  0  0  0  0  0  0  0  0
   -6.2557   -1.0763    1.9460 C   0  0  1  0  0  0  0  0  0  0  0  0
   -5.0880   -0.2636    1.2181 N   0  0  0  0  0  0  0  0  0  0  0  0
   -3.8410   -0.8480    1.6443 C   0  0  0  0  0  0  0  0  0  0  0  0
   -3.8311   -2.1071    1.4929 O   0  0  0  0  0  0  0  0  0  0  0  0
   -2.6420   -0.0776    0.8397 C   0  0  2  0  0  0  0  0  0  0  0  0
   -3.0768   -0.8061   -0.5977 C   0  0  0  0  0  0  0  0  0  0  0  0
   -3.2506    0.4216   -1.4296 C   0  0  0  0  0  0  0  0  0  0  0  0
   -4.4043    0.4894   -2.1872 C   0  0  0  0  0  0  0  0  0  0  0  0
   -4.6302    1.5822   -3.0158 C   0  0  0  0  0  0  0  0  0  0  0  0
   -3.7645    2.6685   -2.9552 C   0  0  0  0  0  0  0  0  0  0  0  0
   -2.4994    2.4360   -2.4312 C   0  0  0  0  0  0  0  0  0  0  0  0
   -2.2894    1.3968   -1.5356 C   0  0  0  0  0  0  0  0  0  0  0  0
   -1.5493   -1.1661    1.2517 N   0  0  0  0  0  0  0  0  0  0  0  0
   -0.8127   -1.7339    0.2001 C   0  0  0  0  0  0  0  0  0  0  0  0
   -1.5809   -2.2827   -0.6495 O   0  0  0  0  0  0  0  0  0  0  0  0
    0.6033   -2.1920    0.3194 C   0  0  0  0  0  0  0  0  0  0  0  0
    1.3962   -0.9734    0.4655 N   0  0  0  0  0  0  0  0  0  0  0  0
    1.0531    0.1050   -0.3473 C   0  0  0  0  0  0  0  0  0  0  0  0
    0.7183   -0.0441   -1.5498 O   0  0  0  0  0  0  0  0  0  0  0  0
    1.8125    1.5235   -0.0673 C   0  0  1  0  0  0  0  0  0  0  0  0
    1.6065    1.4140    1.5850 C   0  0  0  0  0  0  0  0  0  0  0  0
    3.2429    0.8263    0.0100 N   0  0  0  0  0  0  0  0  0  0  0  0
    4.2039    1.2748   -0.9032 C   0  0  0  0  0  0  0  0  0  0  0  0
    3.8922    1.8853   -1.9606 O   0  0  0  0  0  0  0  0  0  0  0  0
    5.5748    1.8787   -0.2451 C   0  0  1  0  0  0  0  0  0  0  0  0
    5.7292    0.6366    0.7472 N   0  0  0  0  0  0  0  0  0  0  0  0
    6.5034    1.1662   -1.4259 C   0  0  0  0  0  0  0  0  0  0  0  0
    7.5884    0.4528   -0.7529 C   0  0  0  0  0  0  0  0  0  0  0  0
    7.6203   -0.9225   -0.9707 C   0  0  0  0  0  0  0  0  0  0  0  0
    8.5553   -1.7401   -0.3766 C   0  0  0  0  0  0  0  0  0  0  0  0
    9.5030   -1.0657    0.3848 C   0  0  0  0  0  0  0  0  0  0  0  0
   10.5914   -1.7556    0.8791 O   0  0  0  0  0  0  0  0  0  0  0  0
    9.0754    0.0703    1.0573 C   0  0  0  0  0  0  0  0  0  0  0  0
    8.3366    0.9685    0.2977 C   0  0  0  0  0  0  0  0  0  0  0  0
   -6.4419    0.0718    3.0928 C   0  0  0  0  0  0  0  0  0  0  0  0
   -7.4788   -0.2281    3.7617 O   0  0  0  0  0  0  0  0  0  0  0  0
   -5.2749    0.4999    3.6795 O   0  0  0  0  0  0  0  0  0  0  0  0
  1  2  1  0
  2  3  1  0
  2  4  1  0
  5  4  1  6
  5  6  1  0
  6  7  1  0
  7  8  2  0
  9  7  1  1
  9 10  1  0
 10 11  1  0
 11 12  2  0
 12 13  1  0
 13 14  2  0
 14 15  1  0
 15 16  2  0
  9 17  1  0
 17 18  1  0
 18 19  2  0
 18 20  1  0
 20 21  1  0
 21 22  1  0
 22 23  2  0
 24 22  1  6
 24 25  1  0
 24 26  1  0
 26 27  1  0
 27 28  2  0
 29 27  1  6
 29 30  1  0
 29 31  1  0
 31 32  1  0
 32 33  2  0
 33 34  1  0
 34 35  2  0
 35 36  1  0
 35 37  1  0
 37 38  2  0
  5 39  1  0
 39 40  2  0
 39 41  1  0
 16 11  1  0
 38 32  1  0
M  END
>  <zinc_id>  (1) 
ZINC000014952092

>  <smiles>  (1) 
CC(C)C[C@@H](NC(=O)[C@H](Cc1ccccc1)NC(=O)CNC(=O)[C@@H](C)NC(=O)[C@@H](N)Cc1ccc(O)cc1)C(=O)O

$$$$
