444412
  -OEChem-10051723003D

 58 60  0     1  0  0  0  0  0999 V2000
    7.0598   -1.0827    1.7317 O   0  0  0  0  0  0  0  0  0  0  0  0
   -3.8852   -0.7839    2.4096 O   0  0  0  0  0  0  0  0  0  0  0  0
   -8.3116   -1.4910    0.1041 O   0  0  0  0  0  0  0  0  0  0  0  0
   -6.6070   -1.9623   -1.3181 O   0  0  0  0  0  0  0  0  0  0  0  0
   -6.8787    3.8010   -1.4812 O   0  0  0  0  0  0  0  0  0  0  0  0
   -7.2551    3.6333    0.7499 O   0  0  0  0  0  0  0  0  0  0  0  0
    5.0836   -1.3246   -0.3577 N   0  0  3  0  0  0  0  0  0  0  0  0
    4.6285    0.9973   -1.7843 N   0  0  0  0  0  0  0  0  0  0  0  0
    1.4532   -1.3970   -0.9841 N   0  0  0  0  0  0  0  0  0  0  0  0
    6.2666    2.1413   -0.4420 N   0  0  0  0  0  0  0  0  0  0  0  0
    7.5239    1.0884    1.2397 N   0  0  0  0  0  0  0  0  0  0  0  0
   -4.7842   -0.7887    0.2721 N   0  0  0  0  0  0  0  0  0  0  0  0
    7.8532    3.3518    0.6957 N   0  0  0  0  0  0  0  0  0  0  0  0
    3.8657   -1.2568   -1.2025 C   0  0  2  0  0  0  0  0  0  0  0  0
    4.0517   -0.2181   -2.3192 C   0  0  0  0  0  0  0  0  0  0  0  0
    2.6488   -0.9431   -0.3278 C   0  0  0  0  0  0  0  0  0  0  0  0
    5.7994   -0.1441   -0.0786 C   0  0  0  0  0  0  0  0  0  0  0  0
    5.5649    1.0046   -0.7650 C   0  0  0  0  0  0  0  0  0  0  0  0
    5.3630   -2.6304    0.2307 C   0  0  0  0  0  0  0  0  0  0  0  0
    6.8406   -0.0993    1.0317 C   0  0  0  0  0  0  0  0  0  0  0  0
    0.1774   -1.2629   -0.4510 C   0  0  0  0  0  0  0  0  0  0  0  0
    7.2274    2.1436    0.5328 C   0  0  0  0  0  0  0  0  0  0  0  0
   -0.9275   -1.7349   -1.1596 C   0  0  0  0  0  0  0  0  0  0  0  0
    0.0013   -0.6575    0.7933 C   0  0  0  0  0  0  0  0  0  0  0  0
   -6.1641   -0.6274    0.6703 C   0  0  1  0  0  0  0  0  0  0  0  0
   -2.3845   -0.9960    0.6204 C   0  0  0  0  0  0  0  0  0  0  0  0
   -6.5751    0.8443    0.8000 C   0  0  0  0  0  0  0  0  0  0  0  0
   -2.2084   -1.6016   -0.6239 C   0  0  0  0  0  0  0  0  0  0  0  0
   -1.2796   -0.5241    1.3289 C   0  0  0  0  0  0  0  0  0  0  0  0
   -3.7201   -0.8574    1.1789 C   0  0  0  0  0  0  0  0  0  0  0  0
   -6.5038    1.6740   -0.4883 C   0  0  0  0  0  0  0  0  0  0  0  0
   -7.0168   -1.4170   -0.3015 C   0  0  0  0  0  0  0  0  0  0  0  0
   -6.9070    3.1212   -0.3050 C   0  0  0  0  0  0  0  0  0  0  0  0
    3.7193   -2.2278   -1.6951 H   0  0  0  0  0  0  0  0  0  0  0  0
    4.7376   -0.6177   -3.0762 H   0  0  0  0  0  0  0  0  0  0  0  0
    3.1061    0.0041   -2.8247 H   0  0  0  0  0  0  0  0  0  0  0  0
    2.5956    0.1311   -0.1136 H   0  0  0  0  0  0  0  0  0  0  0  0
    2.7475   -1.4658    0.6321 H   0  0  0  0  0  0  0  0  0  0  0  0
    4.5037    1.8669   -2.2914 H   0  0  0  0  0  0  0  0  0  0  0  0
    6.4200   -2.8910    0.1137 H   0  0  0  0  0  0  0  0  0  0  0  0
    5.0960   -2.6388    1.2923 H   0  0  0  0  0  0  0  0  0  0  0  0
    4.7903   -3.4293   -0.2531 H   0  0  0  0  0  0  0  0  0  0  0  0
    1.5279   -1.8305   -1.8983 H   0  0  0  0  0  0  0  0  0  0  0  0
    6.0586    2.9748   -0.9804 H   0  0  0  0  0  0  0  0  0  0  0  0
   -0.8035   -2.2150   -2.1271 H   0  0  0  0  0  0  0  0  0  0  0  0
    0.8330   -0.2761    1.3781 H   0  0  0  0  0  0  0  0  0  0  0  0
   -6.2763   -1.1099    1.6496 H   0  0  0  0  0  0  0  0  0  0  0  0
   -7.6007    0.8960    1.1884 H   0  0  0  0  0  0  0  0  0  0  0  0
   -5.9418    1.3235    1.5583 H   0  0  0  0  0  0  0  0  0  0  0  0
   -3.0369   -2.0109   -1.1945 H   0  0  0  0  0  0  0  0  0  0  0  0
   -1.3962   -0.0456    2.2979 H   0  0  0  0  0  0  0  0  0  0  0  0
   -4.5949   -0.7716   -0.7247 H   0  0  0  0  0  0  0  0  0  0  0  0
    8.5844    3.4752    1.3876 H   0  0  0  0  0  0  0  0  0  0  0  0
    7.6039    4.1572    0.1321 H   0  0  0  0  0  0  0  0  0  0  0  0
   -5.4793    1.6649   -0.8765 H   0  0  0  0  0  0  0  0  0  0  0  0
   -7.1694    1.2383   -1.2415 H   0  0  0  0  0  0  0  0  0  0  0  0
   -8.8597   -2.0160   -0.5173 H   0  0  0  0  0  0  0  0  0  0  0  0
   -7.1568    4.7352   -1.3700 H   0  0  0  0  0  0  0  0  0  0  0  0
  1 20  2  0  0  0  0
  2 30  2  0  0  0  0
  3 32  1  0  0  0  0
  3 57  1  0  0  0  0
  4 32  2  0  0  0  0
  5 33  1  0  0  0  0
  5 58  1  0  0  0  0
  6 33  2  0  0  0  0
  7 14  1  0  0  0  0
  7 17  1  0  0  0  0
  7 19  1  0  0  0  0
  8 15  1  0  0  0  0
  8 18  1  0  0  0  0
  8 39  1  0  0  0  0
  9 16  1  0  0  0  0
  9 21  1  0  0  0  0
  9 43  1  0  0  0  0
 10 18  1  0  0  0  0
 10 22  1  0  0  0  0
 10 44  1  0  0  0  0
 11 20  1  0  0  0  0
 11 22  2  0  0  0  0
 12 25  1  0  0  0  0
 12 30  1  0  0  0  0
 12 52  1  0  0  0  0
 13 22  1  0  0  0  0
 13 53  1  0  0  0  0
 13 54  1  0  0  0  0
 14 15  1  0  0  0  0
 14 16  1  0  0  0  0
 14 34  1  0  0  0  0
 15 35  1  0  0  0  0
 15 36  1  0  0  0  0
 16 37  1  0  0  0  0
 16 38  1  0  0  0  0
 17 18  2  0  0  0  0
 17 20  1  0  0  0  0
 19 40  1  0  0  0  0
 19 41  1  0  0  0  0
 19 42  1  0  0  0  0
 21 23  2  0  0  0  0
 21 24  1  0  0  0  0
 23 28  1  0  0  0  0
 23 45  1  0  0  0  0
 24 29  2  0  0  0  0
 24 46  1  0  0  0  0
 25 27  1  0  0  0  0
 25 32  1  0  0  0  0
 25 47  1  0  0  0  0
 26 28  2  0  0  0  0
 26 29  1  0  0  0  0
 26 30  1  0  0  0  0
 27 31  1  0  0  0  0
 27 48  1  0  0  0  0
 27 49  1  0  0  0  0
 28 50  1  0  0  0  0
 29 51  1  0  0  0  0
 31 33  1  0  0  0  0
 31 55  1  0  0  0  0
 31 56  1  0  0  0  0
M  END
> <DATABASE_ID>
DB11256

> <DATABASE_NAME>
drugbank

> <ORIGINAL_SOURCE>
PUBCHEM

> <ORIGINAL_SOURCE_URL>
https://pubchem.ncbi.nlm.nih.gov/rest/pug/compound/inchikey/ZNOVTXRBGFNYRX-STQMWFEESA-N/SDF?record_type=3d

> <SMILES>
CN1[C@@H](CNC2=CC=C(C=C2)C(=O)N[C@@H](CCC(O)=O)C(O)=O)CNC2=C1C(=O)N=C(N)N2

> <INCHI_IDENTIFIER>
InChI=1S/C20H25N7O6/c1-27-12(9-23-16-15(27)18(31)26-20(21)25-16)8-22-11-4-2-10(3-5-11)17(30)24-13(19(32)33)6-7-14(28)29/h2-5,12-13,22H,6-9H2,1H3,(H,24,30)(H,28,29)(H,32,33)(H4,21,23,25,26,31)/t12-,13-/m0/s1

> <INCHI_KEY>
ZNOVTXRBGFNYRX-STQMWFEESA-N

> <FORMULA>
C20H25N7O6

> <MOLECULAR_WEIGHT>
459.4558

> <EXACT_MASS>
459.186631567

> <JCHEM_ACCEPTOR_COUNT>
12

> <JCHEM_ATOM_COUNT>
58

> <JCHEM_AVERAGE_NEUTRAL_MICROSPECIES_CHARGE>
-1.978934761390005

> <JCHEM_AVERAGE_POLARIZABILITY>
46.558818427570316

> <JCHEM_BIOAVAILABILITY>
0

> <JCHEM_DONOR_COUNT>
7

> <JCHEM_FORMAL_CHARGE>
0

> <JCHEM_GHOSE_FILTER>
0

> <JCHEM_IUPAC>
(2S)-2-{[4-({[(6S)-2-amino-5-methyl-4-oxo-1,4,5,6,7,8-hexahydropteridin-6-yl]methyl}amino)phenyl]formamido}pentanedioic acid

> <ALOGPS_LOGP>
-0.58

> <JCHEM_LOGP>
-2.976593255897218

> <ALOGPS_LOGS>
-3.14

> <JCHEM_MDDR_LIKE_RULE>
1

> <JCHEM_NEUTRAL_CHARGE>
-2

> <JCHEM_NUMBER_OF_RINGS>
3

> <JCHEM_PHYSIOLOGICAL_CHARGE>
-2

> <JCHEM_PKA>
3.9330027685146676

> <JCHEM_PKA_STRONGEST_ACIDIC>
3.230554884149143

> <JCHEM_PKA_STRONGEST_BASIC>
5.32366211613935

> <JCHEM_POLAR_SURFACE_AREA>
198.48000000000002

> <JCHEM_REFRACTIVITY>
126.68129999999998

> <JCHEM_ROTATABLE_BOND_COUNT>
9

> <JCHEM_RULE_OF_FIVE>
0

> <ALOGPS_SOLUBILITY>
3.32e-01 g/l

> <JCHEM_TRADITIONAL_IUPAC>
biotin

> <JCHEM_VEBER_RULE>
0

$$$$
