
     RDKit          3D

 34 33  0  0  0  0  0  0  0  0999 V2000
    7.3684    2.8904    2.9553 C   0  0  0  0  0  0  0  0  0  0  0  0
    8.0702    1.9378    2.1167 C   0  0  0  0  0  0  0  0  0  0  0  0
    7.5318    1.9636    0.6901 C   0  0  0  0  0  0  0  0  0  0  0  0
    7.5921    0.5524    0.1329 C   0  0  0  0  0  0  0  0  0  0  0  0
    7.1324    0.6248   -1.3182 C   0  0  0  0  0  0  0  0  0  0  0  0
    6.2103    1.7634   -1.5089 C   0  0  0  0  0  0  0  0  0  0  0  0
    5.3336    1.7462   -2.4981 C   0  0  0  0  0  0  0  0  0  0  0  0
    4.7338    0.4494   -2.9047 C   0  0  0  0  0  0  0  0  0  0  0  0
    4.6034   -0.3701   -1.6609 C   0  0  0  0  0  0  0  0  0  0  0  0
    3.8326    0.2126   -0.7416 C   0  0  0  0  0  0  0  0  0  0  0  0
    2.4530    0.4668   -1.1652 C   0  0  0  0  0  0  0  0  0  0  0  0
    1.7502   -0.2841   -1.9597 C   0  0  0  0  0  0  0  0  0  0  0  0
    0.4693   -0.9195   -1.6250 C   0  0  0  0  0  0  0  0  0  0  0  0
   -0.0160   -0.7843   -0.4335 C   0  0  0  0  0  0  0  0  0  0  0  0
   -0.9459   -1.8206    0.2192 C   0  0  1  0  0  0  0  0  0  0  0  0
   -1.8054   -0.6513    1.4178 S   0  0  0  0  0  0  0  0  0  0  0  0
   -1.8384    1.0165    0.7616 C   0  0  0  0  0  0  0  0  0  0  0  0
   -3.0788    0.8503   -0.3440 C   0  0  2  0  0  0  0  0  0  0  0  0
   -2.5553    2.1072   -1.1818 N   0  0  0  0  0  0  0  0  0  0  0  0
   -4.0858    1.7926    0.5427 C   0  0  0  0  0  0  0  0  0  0  0  0
   -4.1458    1.4135    1.7566 O   0  0  0  0  0  0  0  0  0  0  0  0
   -5.3669    1.6487   -0.0972 N   0  0  0  0  0  0  0  0  0  0  0  0
   -6.5874    2.1144    0.5332 C   0  0  0  0  0  0  0  0  0  0  0  0
   -6.6893    3.5440    0.1018 C   0  0  0  0  0  0  0  0  0  0  0  0
   -5.6880    4.2621    0.4015 O   0  0  0  0  0  0  0  0  0  0  0  0
   -7.3905    3.7615   -1.0773 O   0  0  0  0  0  0  0  0  0  0  0  0
   -2.1096   -1.7527   -1.0224 C   0  0  1  0  0  0  0  0  0  0  0  0
   -1.6628   -3.1234   -1.5610 O   0  0  0  0  0  0  0  0  0  0  0  0
   -3.3285   -2.4528   -0.1247 C   0  0  0  0  0  0  0  0  0  0  0  0
   -2.7849   -3.1407    1.0224 C   0  0  0  0  0  0  0  0  0  0  0  0
   -2.0777   -4.4334    0.8142 C   0  0  0  0  0  0  0  0  0  0  0  0
   -1.8023   -4.9704    2.1833 C   0  0  0  0  0  0  0  0  0  0  0  0
   -2.2034   -6.0999    2.5298 O   0  0  0  0  0  0  0  0  0  0  0  0
   -0.9185   -4.3149    3.0453 O   0  0  0  0  0  0  0  0  0  0  0  0
  1  2  1  0
  2  3  1  0
  3  4  1  0
  4  5  1  0
  5  6  1  0
  6  7  2  0
  7  8  1  0
  8  9  1  0
  9 10  2  0
 10 11  1  0
 11 12  2  0
 12 13  1  0
 13 14  2  0
 15 14  1  6
 15 16  1  0
 16 17  1  0
 18 17  1  1
 18 19  1  0
 18 20  1  0
 20 21  2  0
 20 22  1  0
 22 23  1  0
 23 24  1  0
 24 25  2  0
 24 26  1  0
 15 27  1  0
 27 28  1  6
 27 29  1  0
 29 30  1  0
 30 31  1  0
 31 32  1  0
 32 33  2  0
 32 34  1  0
M  END
>  <zinc_id>  (1) 
ZINC000004632133

>  <smiles>  (1) 
CCCCC/C=C\C/C=C\C=C\C=C\[C@@H](SC[C@H](N)C(=O)NCC(=O)O)[C@@H](O)CCCC(=O)O

$$$$
