
     RDKit          3D

 46 47  0  0  0  0  0  0  0  0999 V2000
    1.1572   -2.4242    0.9248 C   0  0  0  0  0  0  0  0  0  0  0  0
    1.6787   -3.1384    0.5851 C   0  0  0  0  0  0  0  0  0  0  0  0
    1.8853   -4.1552    1.4746 C   0  0  0  0  0  0  0  0  0  0  0  0
    2.2548   -5.4211    1.0473 C   0  0  0  0  0  0  0  0  0  0  0  0
    2.2423   -6.5251    1.8954 O   0  0  0  0  0  0  0  0  0  0  0  0
    2.4267   -5.6126   -0.3144 C   0  0  0  0  0  0  0  0  0  0  0  0
    2.2402   -4.5626   -1.2079 C   0  0  0  0  0  0  0  0  0  0  0  0
    1.9496   -5.0205   -2.6075 C   0  0  0  0  0  0  0  0  0  0  0  0
    1.8352   -3.3064   -0.7627 C   0  0  0  0  0  0  0  0  0  0  0  0
    0.8815   -2.6050   -1.5985 C   0  0  0  0  0  0  0  0  0  0  0  0
    1.4157   -1.0724   -1.8995 C   0  0  2  0  0  0  0  0  0  0  0  0
    2.6290   -1.0764   -0.8759 N   0  0  0  0  0  0  0  0  0  0  0  0
    3.8877   -0.7299   -1.4066 C   0  0  0  0  0  0  0  0  0  0  0  0
    4.1887   -0.8983   -2.6124 O   0  0  0  0  0  0  0  0  0  0  0  0
    4.4995    0.6874   -0.9305 C   0  0  2  0  0  0  0  0  0  0  0  0
    5.9810    0.1616   -1.0597 N   0  0  0  0  0  0  0  0  0  0  0  0
    4.4168    0.2805    0.6610 C   0  0  0  0  0  0  0  0  0  0  0  0
    4.6626    1.6321    1.3187 C   0  0  0  0  0  0  0  0  0  0  0  0
    5.9219    2.2783    0.7495 C   0  0  0  0  0  0  0  0  0  0  0  0
    5.5195    3.5093    0.0734 N   0  0  0  0  0  0  0  0  0  0  0  0
    6.5695    4.3657   -0.3837 C   0  0  0  0  0  0  0  0  0  0  0  0
    7.8221    4.0500   -0.2607 N   0  0  0  0  0  0  0  0  0  0  0  0
    6.2765    5.6818   -0.8025 N   0  0  0  0  0  0  0  0  0  0  0  0
    0.4019   -0.4380   -0.8158 C   0  0  0  0  0  0  0  0  0  0  0  0
    0.7686    0.6134   -0.2693 O   0  0  0  0  0  0  0  0  0  0  0  0
   -0.9765   -0.4191   -1.0886 N   0  0  0  0  0  0  0  0  0  0  0  0
   -1.8045   -0.5437    0.2563 C   0  0  1  0  0  0  0  0  0  0  0  0
   -0.9879    0.6471    1.0486 C   0  0  0  0  0  0  0  0  0  0  0  0
   -0.5999   -0.0649    2.3461 C   0  0  0  0  0  0  0  0  0  0  0  0
   -1.4052   -1.2763    2.6230 C   0  0  0  0  0  0  0  0  0  0  0  0
   -0.6902   -2.5770    2.2766 C   0  0  0  0  0  0  0  0  0  0  0  0
   -1.6075   -3.5212    1.6409 N   0  0  0  0  0  0  0  0  0  0  0  0
   -2.9663    0.4326   -0.2894 C   0  0  0  0  0  0  0  0  0  0  0  0
   -3.7810   -0.3032   -0.9317 O   0  0  0  0  0  0  0  0  0  0  0  0
   -3.5116    1.3473    0.6121 N   0  0  0  0  0  0  0  0  0  0  0  0
   -5.0057    1.7949    0.4011 C   0  0  1  0  0  0  0  0  0  0  0  0
   -4.8971    1.8258   -1.2438 C   0  0  0  0  0  0  0  0  0  0  0  0
   -5.5825    3.1137   -1.5885 C   0  0  0  0  0  0  0  0  0  0  0  0
   -4.8751    4.2893   -1.8064 C   0  0  0  0  0  0  0  0  0  0  0  0
   -5.5112    5.5176   -1.7555 C   0  0  0  0  0  0  0  0  0  0  0  0
   -6.8565    5.5845   -1.4357 C   0  0  0  0  0  0  0  0  0  0  0  0
   -7.5518    4.3918   -1.3085 C   0  0  0  0  0  0  0  0  0  0  0  0
   -6.9109    3.1756   -1.1902 C   0  0  0  0  0  0  0  0  0  0  0  0
   -5.5886    0.2829    0.4226 C   0  0  0  0  0  0  0  0  0  0  0  0
   -5.7397   -0.1639    1.7847 N   0  0  0  0  0  0  0  0  0  0  0  0
   -6.6626    0.1922   -0.2553 O   0  0  0  0  0  0  0  0  0  0  0  0
  1  2  1  0
  2  3  2  0
  3  4  1  0
  4  5  1  0
  4  6  2  0
  6  7  1  0
  7  8  1  0
  7  9  2  0
  9 10  1  0
 11 10  1  1
 11 12  1  0
 12 13  1  0
 13 14  2  0
 15 13  1  6
 15 16  1  0
 15 17  1  0
 17 18  1  0
 18 19  1  0
 19 20  1  0
 20 21  1  0
 21 22  2  0
 21 23  1  0
 11 24  1  0
 24 25  2  0
 24 26  1  0
 27 26  1  6
 27 28  1  0
 28 29  1  0
 29 30  1  0
 30 31  1  0
 31 32  1  0
 27 33  1  0
 33 34  2  0
 33 35  1  0
 36 35  1  1
 36 37  1  0
 37 38  1  0
 38 39  2  0
 39 40  1  0
 40 41  2  0
 41 42  1  0
 42 43  2  0
 36 44  1  0
 44 45  1  0
 44 46  2  0
  9  2  1  0
 43 38  1  0
M  END
>  <zinc_id>  (1) 
ZINC000043130902

>  <smiles>  (1) 
Cc1cc(O)cc(C)c1C[C@H](NC(=O)[C@H](N)CCCNC(=N)N)C(=O)N[C@@H](CCCCN)C(=O)N[C@@H](Cc1ccccc1)C(N)=O

$$$$
