
     RDKit          3D

 30 30  0  0  0  0  0  0  0  0999 V2000
   -5.7787    2.5730    0.3984 O   0  0  0  0  0  0  0  0  0  0  0  0
   -5.4903    2.5125    0.4463 C   0  0  0  0  0  0  0  0  0  0  0  0
   -4.5022    3.4293    0.2060 O   0  0  0  0  0  0  0  0  0  0  0  0
   -5.1352    1.1323    0.6298 C   0  0  0  0  0  0  0  0  0  0  0  0
   -6.1561    0.0933    0.4878 C   0  0  0  0  0  0  0  0  0  0  0  0
   -5.4427   -1.1556   -0.3228 C   0  0  2  0  0  0  0  0  0  0  0  0
   -4.1569   -1.0941    0.5933 N   0  0  0  0  0  0  0  0  0  0  0  0
   -2.9170   -1.0872   -0.0506 C   0  0  0  0  0  0  0  0  0  0  0  0
   -2.8180   -0.1545   -0.8690 O   0  0  0  0  0  0  0  0  0  0  0  0
   -1.8864   -1.9889    0.0683 N   0  0  0  0  0  0  0  0  0  0  0  0
   -0.4067   -1.5467   -0.2573 C   0  0  1  0  0  0  0  0  0  0  0  0
   -0.7530   -0.1050   -0.9901 C   0  0  0  0  0  0  0  0  0  0  0  0
    0.5681    0.3499   -1.5070 C   0  0  0  0  0  0  0  0  0  0  0  0
    1.7135   -0.0672   -0.6298 C   0  0  0  0  0  0  0  0  0  0  0  0
    2.2955   -1.4077   -1.0478 C   0  0  0  0  0  0  0  0  0  0  0  0
    3.5314   -1.6140   -0.2950 N   0  0  0  0  0  0  0  0  0  0  0  0
    4.5894   -1.0834   -1.1373 C   0  0  0  0  0  0  0  0  0  0  0  0
    5.7295   -0.5530   -0.3269 C   0  0  0  0  0  0  0  0  0  0  0  0
    6.8813   -0.2566   -1.0461 C   0  0  0  0  0  0  0  0  0  0  0  0
    7.9655    0.3866   -0.4765 C   0  0  0  0  0  0  0  0  0  0  0  0
    7.7171    1.2110    0.6135 C   0  0  0  0  0  0  0  0  0  0  0  0
    9.0679    2.7682    1.0369 I   0  0  0  0  0  0  0  0  0  0  0  0
    6.5028    1.0804    1.2744 C   0  0  0  0  0  0  0  0  0  0  0  0
    5.4975    0.2619    0.7748 C   0  0  0  0  0  0  0  0  0  0  0  0
   -0.1991   -0.8838    1.2051 C   0  0  0  0  0  0  0  0  0  0  0  0
   -1.0805   -0.0706    1.5379 O   0  0  0  0  0  0  0  0  0  0  0  0
    0.0258   -1.9569    2.0834 O   0  0  0  0  0  0  0  0  0  0  0  0
   -4.8811   -0.2261   -1.5388 C   0  0  0  0  0  0  0  0  0  0  0  0
   -5.7455    0.6173   -1.9401 O   0  0  0  0  0  0  0  0  0  0  0  0
   -4.7360   -1.1646   -2.5903 O   0  0  0  0  0  0  0  0  0  0  0  0
  1  2  2  0
  2  3  1  0
  2  4  1  0
  4  5  1  0
  6  5  1  1
  6  7  1  0
  7  8  1  0
  8  9  2  0
  8 10  1  0
 11 10  1  1
 11 12  1  0
 12 13  1  0
 13 14  1  0
 14 15  1  0
 15 16  1  0
 16 17  1  0
 17 18  1  0
 18 19  2  0
 19 20  1  0
 20 21  2  0
 21 22  1  0
 21 23  1  0
 23 24  2  0
 11 25  1  0
 25 26  2  0
 25 27  1  0
  6 28  1  0
 28 29  2  0
 28 30  1  0
 24 18  1  0
M  ISO  1  22 123
M  END
>  <zinc_id>  (1) 
ZINC000100529249

>  <smiles>  (1) 
O=C(O)CC[C@H](NC(=O)N[C@@H](CCCCNCc1ccc([123I])cc1)C(=O)O)C(=O)O

$$$$
