
     RDKit          3D

 58 59  0  0  0  0  0  0  0  0999 V2000
    5.6133    2.3490    0.8729 C   0  0  0  0  0  0  0  0  0  0  0  0
    5.1576    1.7863    1.0814 C   0  0  0  0  0  0  0  0  0  0  0  0
    3.5877    1.6410    0.7095 C   0  0  2  0  0  0  0  0  0  0  0  0
    3.3087    0.3935    1.7010 C   0  0  0  0  0  0  0  0  0  0  0  0
    3.8303    0.7669   -0.7456 C   0  0  2  0  0  0  0  0  0  0  0  0
    2.5417   -0.1104   -0.5358 N   0  0  0  0  0  0  0  0  0  0  0  0
    1.3004    0.5971   -0.4551 C   0  0  0  0  0  0  0  0  0  0  0  0
    1.3905    1.7974   -0.3139 O   0  0  0  0  0  0  0  0  0  0  0  0
    0.2659   -0.0678   -1.4973 C   0  0  2  0  0  0  0  0  0  0  0  0
   -0.1258    1.3429   -2.2470 C   0  0  0  0  0  0  0  0  0  0  0  0
   -0.6794    2.1937   -1.3446 O   0  0  0  0  0  0  0  0  0  0  0  0
   -0.9857   -0.0130   -0.5459 N   0  0  0  0  0  0  0  0  0  0  0  0
   -0.8717   -0.0719    0.7852 C   0  0  0  0  0  0  0  0  0  0  0  0
    0.2441   -0.2354    1.3484 O   0  0  0  0  0  0  0  0  0  0  0  0
   -1.9594   -0.7711    1.7361 C   0  0  1  0  0  0  0  0  0  0  0  0
   -3.1899   -0.3516    0.8375 N   0  0  0  0  0  0  0  0  0  0  0  0
   -3.6916    0.8376    1.3433 C   0  0  0  0  0  0  0  0  0  0  0  0
   -2.9383    1.8436    1.1617 O   0  0  0  0  0  0  0  0  0  0  0  0
   -5.2253    1.2632    1.0988 C   0  0  2  0  0  0  0  0  0  0  0  0
   -5.4435    1.5704    2.7003 C   0  0  0  0  0  0  0  0  0  0  0  0
   -6.0415    0.3440    3.2485 C   0  0  0  0  0  0  0  0  0  0  0  0
   -5.3290   -0.7209    2.4177 C   0  0  0  0  0  0  0  0  0  0  0  0
   -5.7773   -0.2052    1.1695 N   0  0  0  0  0  0  0  0  0  0  0  0
   -6.7195   -0.7608    0.3222 C   0  0  0  0  0  0  0  0  0  0  0  0
   -6.4787   -1.9844    0.0518 O   0  0  0  0  0  0  0  0  0  0  0  0
   -6.9393   -0.0756   -1.1209 C   0  0  2  0  0  0  0  0  0  0  0  0
   -7.3267    1.3934   -0.4917 C   0  0  0  0  0  0  0  0  0  0  0  0
   -8.4438   -0.5247   -1.2144 N   0  0  0  0  0  0  0  0  0  0  0  0
   -9.2498   -0.3078   -0.0899 C   0  0  0  0  0  0  0  0  0  0  0  0
   -8.7820   -0.6526    0.9935 O   0  0  0  0  0  0  0  0  0  0  0  0
  -10.8107   -0.5469   -0.3757 C   0  0  1  0  0  0  0  0  0  0  0  0
  -10.7551   -2.0433    0.1164 N   0  0  0  0  0  0  0  0  0  0  0  0
  -11.2627   -0.0009    1.1101 C   0  0  0  0  0  0  0  0  0  0  0  0
  -10.8585    1.4300    1.1128 C   0  0  0  0  0  0  0  0  0  0  0  0
  -11.2742    2.3103    0.0621 N   0  0  0  0  0  0  0  0  0  0  0  0
  -10.1094    1.9108    2.0159 O   0  0  0  0  0  0  0  0  0  0  0  0
   -1.7753   -2.2463    1.0469 C   0  0  0  0  0  0  0  0  0  0  0  0
   -2.3780   -2.3082   -0.2757 C   0  0  0  0  0  0  0  0  0  0  0  0
   -2.2542   -3.2450    2.0506 C   0  0  0  0  0  0  0  0  0  0  0  0
    4.7762   -0.3934   -0.2248 C   0  0  0  0  0  0  0  0  0  0  0  0
    5.2825   -0.6028    0.8041 O   0  0  0  0  0  0  0  0  0  0  0  0
    5.0062   -1.3246   -1.2453 N   0  0  0  0  0  0  0  0  0  0  0  0
    3.8918   -2.0529   -1.8567 C   0  0  0  0  0  0  0  0  0  0  0  0
    3.6894   -1.3831   -3.2127 C   0  0  0  0  0  0  0  0  0  0  0  0
    4.6833   -0.2253   -3.1810 C   0  0  0  0  0  0  0  0  0  0  0  0
    5.8862   -1.1368   -2.5280 C   0  0  1  0  0  0  0  0  0  0  0  0
    6.6892    0.1567   -1.9892 C   0  0  0  0  0  0  0  0  0  0  0  0
    6.9792    0.9697   -2.9198 O   0  0  0  0  0  0  0  0  0  0  0  0
    7.8030   -0.2643   -1.2206 N   0  0  0  0  0  0  0  0  0  0  0  0
    8.8033    0.9100   -0.9066 C   0  0  1  0  0  0  0  0  0  0  0  0
   10.0037   -0.1278   -0.4765 C   0  0  0  0  0  0  0  0  0  0  0  0
    9.5143   -0.6369    0.8538 C   0  0  0  0  0  0  0  0  0  0  0  0
    9.4212    0.5090    1.7830 C   0  0  0  0  0  0  0  0  0  0  0  0
   10.5605    1.0625    2.4375 N   0  0  0  0  0  0  0  0  0  0  0  0
    8.2705    0.9704    2.0242 O   0  0  0  0  0  0  0  0  0  0  0  0
    9.3259    0.9945   -2.4276 C   0  0  0  0  0  0  0  0  0  0  0  0
   10.2411    1.8743   -2.4625 O   0  0  0  0  0  0  0  0  0  0  0  0
    9.6090   -0.1657   -3.0918 O   0  0  0  0  0  0  0  0  0  0  0  0
  1  2  1  0
  3  2  1  1
  3  4  1  0
  3  5  1  0
  5  6  1  1
  6  7  1  0
  7  8  2  0
  9  7  1  1
  9 10  1  0
 10 11  1  0
  9 12  1  0
 12 13  1  0
 13 14  2  0
 15 13  1  6
 15 16  1  0
 16 17  1  0
 17 18  2  0
 19 17  1  1
 19 20  1  0
 20 21  1  0
 21 22  1  0
 22 23  1  0
 23 24  1  0
 24 25  2  0
 26 24  1  1
 26 27  1  0
 26 28  1  0
 28 29  1  0
 29 30  2  0
 31 29  1  1
 31 32  1  0
 31 33  1  0
 33 34  1  0
 34 35  1  0
 34 36  2  0
 15 37  1  0
 37 38  1  0
 37 39  1  0
  5 40  1  0
 40 41  2  0
 40 42  1  0
 42 43  1  0
 43 44  1  0
 44 45  1  0
 45 46  1  0
 46 47  1  1
 47 48  2  0
 47 49  1  0
 50 49  1  6
 50 51  1  0
 51 52  1  0
 52 53  1  0
 53 54  1  0
 53 55  2  0
 50 56  1  0
 56 57  2  0
 56 58  1  0
 23 19  1  0
 46 42  1  0
M  END
>  <zinc_id>  (1) 
ZINC000085540112

>  <smiles>  (1) 
CC[C@H](C)[C@H](NC(=O)[C@H](CO)NC(=O)[C@@H](NC(=O)[C@@H]1CCCN1C(=O)[C@H](C)NC(=O)[C@@H](N)CC(N)=O)C(C)C)C(=O)N1CCC[C@H]1C(=O)N[C@@H](CCC(N)=O)C(=O)O

$$$$
