
     RDKit          3D

 40 41  0  0  0  0  0  0  0  0999 V2000
    9.3478    3.5499   -0.3815 C   0  0  0  0  0  0  0  0  0  0  0  0
    7.8790    2.9895   -1.1040 S   0  0  0  0  0  0  0  0  0  0  0  0
    7.5302    1.2564   -0.7589 C   0  0  0  0  0  0  0  0  0  0  0  0
    6.1210    0.8715   -1.0640 C   0  0  0  0  0  0  0  0  0  0  0  0
    5.1934    2.1737   -0.5631 C   0  0  2  0  0  0  0  0  0  0  0  0
    4.3066    1.2641    0.4106 N   0  0  0  0  0  0  0  0  0  0  0  0
    3.7983    0.0704   -0.1671 C   0  0  0  0  0  0  0  0  0  0  0  0
    4.6281   -0.5843   -0.8026 O   0  0  0  0  0  0  0  0  0  0  0  0
    3.0208   -0.7144    1.0469 C   0  0  2  0  0  0  0  0  0  0  0  0
    3.3901   -2.2566    0.4811 C   0  0  0  0  0  0  0  0  0  0  0  0
    3.5115   -3.0516    1.7443 C   0  0  0  0  0  0  0  0  0  0  0  0
    3.0221   -4.3524    1.7519 C   0  0  0  0  0  0  0  0  0  0  0  0
    3.7615   -5.4145    2.2589 C   0  0  0  0  0  0  0  0  0  0  0  0
    4.9725   -5.1868    2.8851 C   0  0  0  0  0  0  0  0  0  0  0  0
    5.1991   -3.8687    3.2634 C   0  0  0  0  0  0  0  0  0  0  0  0
    4.5462   -2.8121    2.6423 C   0  0  0  0  0  0  0  0  0  0  0  0
    1.6191   -0.5991    0.2792 N   0  0  0  0  0  0  0  0  0  0  0  0
    1.3006   -1.4871   -0.7142 C   0  0  0  0  0  0  0  0  0  0  0  0
    2.2272   -2.1007   -1.2935 O   0  0  0  0  0  0  0  0  0  0  0  0
   -0.1205   -1.8046   -1.0551 C   0  0  0  0  0  0  0  0  0  0  0  0
   -1.0215   -0.7296   -0.7880 N   0  0  0  0  0  0  0  0  0  0  0  0
   -1.5620   -0.5837    0.5246 C   0  0  0  0  0  0  0  0  0  0  0  0
   -1.9167   -1.6508    1.0937 O   0  0  0  0  0  0  0  0  0  0  0  0
   -2.1791    0.7347    0.8481 C   0  0  0  0  0  0  0  0  0  0  0  0
   -3.1739    0.9778   -0.1966 N   0  0  0  0  0  0  0  0  0  0  0  0
   -4.4671    0.3952    0.0271 C   0  0  0  0  0  0  0  0  0  0  0  0
   -4.9550    0.5922    1.1829 O   0  0  0  0  0  0  0  0  0  0  0  0
   -5.4790    0.9693   -1.1346 C   0  0  1  0  0  0  0  0  0  0  0  0
   -4.7607    0.0778   -2.2581 N   0  0  0  0  0  0  0  0  0  0  0  0
   -6.5986   -0.2373   -0.8317 C   0  0  0  0  0  0  0  0  0  0  0  0
   -7.8423    0.5969   -0.7841 C   0  0  0  0  0  0  0  0  0  0  0  0
   -8.3057    1.0947    0.4273 C   0  0  0  0  0  0  0  0  0  0  0  0
   -8.9592    2.3153    0.5090 C   0  0  0  0  0  0  0  0  0  0  0  0
   -9.2211    2.9975   -0.6675 C   0  0  0  0  0  0  0  0  0  0  0  0
   -9.2876    4.3919   -0.6164 O   0  0  0  0  0  0  0  0  0  0  0  0
   -9.1555    2.3263   -1.8744 C   0  0  0  0  0  0  0  0  0  0  0  0
   -8.3126    1.2312   -1.9098 C   0  0  0  0  0  0  0  0  0  0  0  0
    4.1487    1.9800   -1.8195 C   0  0  0  0  0  0  0  0  0  0  0  0
    3.0265    2.5003   -1.5642 O   0  0  0  0  0  0  0  0  0  0  0  0
    4.7682    2.0776   -3.0485 O   0  0  0  0  0  0  0  0  0  0  0  0
  1  2  1  0
  2  3  1  0
  3  4  1  0
  5  4  1  6
  5  6  1  0
  6  7  1  0
  7  8  2  0
  9  7  1  6
  9 10  1  0
 10 11  1  0
 11 12  2  0
 12 13  1  0
 13 14  2  0
 14 15  1  0
 15 16  2  0
  9 17  1  0
 17 18  1  0
 18 19  2  0
 18 20  1  0
 20 21  1  0
 21 22  1  0
 22 23  2  0
 22 24  1  0
 24 25  1  0
 25 26  1  0
 26 27  2  0
 28 26  1  1
 28 29  1  0
 28 30  1  0
 30 31  1  0
 31 32  2  0
 32 33  1  0
 33 34  2  0
 34 35  1  0
 34 36  1  0
 36 37  2  0
  5 38  1  0
 38 39  2  0
 38 40  1  0
 16 11  1  0
 37 31  1  0
M  END
>  <zinc_id>  (1) 
ZINC000004102171

>  <smiles>  (1) 
CSCC[C@H](NC(=O)[C@H](Cc1ccccc1)NC(=O)CNC(=O)CNC(=O)[C@@H](N)Cc1ccc(O)cc1)C(=O)O

$$$$
