
     RDKit          3D

 49 49  0  0  0  0  0  0  0  0999 V2000
   12.4969    4.9425   -0.7838 C   0  0  0  0  0  0  0  0  0  0  0  0
   13.3862    3.8876   -0.1964 C   0  0  0  0  0  0  0  0  0  0  0  0
   12.5209    2.8506    0.4660 C   0  0  0  0  0  0  0  0  0  0  0  0
   11.0872    3.3587    0.5867 C   0  0  0  0  0  0  0  0  0  0  0  0
   10.2461    2.1800    0.1617 C   0  0  0  0  0  0  0  0  0  0  0  0
   10.8868    0.9260    0.7208 C   0  0  0  0  0  0  0  0  0  0  0  0
   10.5542   -0.2684   -0.1356 C   0  0  0  0  0  0  0  0  0  0  0  0
    9.1789   -0.7592    0.2213 C   0  0  0  0  0  0  0  0  0  0  0  0
    8.4239    0.3462    0.9096 C   0  0  0  0  0  0  0  0  0  0  0  0
    6.9462    0.0257    0.9814 C   0  0  0  0  0  0  0  0  0  0  0  0
    6.6705   -0.8270   -0.2078 C   0  0  0  0  0  0  0  0  0  0  0  0
    6.2890   -2.2436    0.1197 C   0  0  0  0  0  0  0  0  0  0  0  0
    5.6475   -2.3718    1.4647 C   0  0  0  0  0  0  0  0  0  0  0  0
    4.1495   -2.4519    1.2564 C   0  0  0  0  0  0  0  0  0  0  0  0
    3.5775   -1.0753    1.3201 C   0  0  0  0  0  0  0  0  0  0  0  0
    2.9942   -0.6030    0.0350 C   0  0  0  0  0  0  0  0  0  0  0  0
    3.2872   -1.1919   -1.0470 O   0  0  0  0  0  0  0  0  0  0  0  0
    1.7790    0.1383    0.0155 N   0  0  0  0  0  0  0  0  0  0  0  0
    0.9008    0.0183   -1.1246 C   0  0  0  0  0  0  0  0  0  0  0  0
    0.3127   -1.3531   -1.2189 C   0  0  0  0  0  0  0  0  0  0  0  0
    0.7525   -2.3637   -0.6512 O   0  0  0  0  0  0  0  0  0  0  0  0
   -1.0321   -1.4082   -1.6650 N   0  0  0  0  0  0  0  0  0  0  0  0
   -1.7435   -2.8045   -1.4922 C   0  0  1  0  0  0  0  0  0  0  0  0
   -1.6391   -2.7517    0.1495 C   0  0  0  0  0  0  0  0  0  0  0  0
   -2.5804   -3.8390    0.6039 C   0  0  0  0  0  0  0  0  0  0  0  0
   -1.7483   -5.0646    0.7960 C   0  0  0  0  0  0  0  0  0  0  0  0
   -1.6854   -5.9684   -0.2827 N   0  0  0  0  0  0  0  0  0  0  0  0
   -1.2249   -5.3533    1.8817 O   0  0  0  0  0  0  0  0  0  0  0  0
   -3.2334   -2.1877   -1.4968 C   0  0  0  0  0  0  0  0  0  0  0  0
   -4.0272   -3.1504   -1.4942 O   0  0  0  0  0  0  0  0  0  0  0  0
   -3.4371   -0.9092   -0.9682 N   0  0  0  0  0  0  0  0  0  0  0  0
   -3.2637    0.4233   -1.4576 C   0  0  0  0  0  0  0  0  0  0  0  0
   -2.7066    1.2570   -0.3387 C   0  0  0  0  0  0  0  0  0  0  0  0
   -2.5251    0.3237    0.7964 C   0  0  0  0  0  0  0  0  0  0  0  0
   -3.7990   -0.7021    0.5575 C   0  0  1  0  0  0  0  0  0  0  0  0
   -4.8499    0.5003    0.2822 C   0  0  0  0  0  0  0  0  0  0  0  0
   -4.8471    1.2316    1.3173 O   0  0  0  0  0  0  0  0  0  0  0  0
   -6.1596    0.0956   -0.1608 N   0  0  0  0  0  0  0  0  0  0  0  0
   -7.2863    0.1819    0.9447 C   0  0  1  0  0  0  0  0  0  0  0  0
   -7.1788    1.8211    1.0571 C   0  0  0  0  0  0  0  0  0  0  0  0
   -7.2627    2.3043   -0.3679 C   0  0  0  0  0  0  0  0  0  0  0  0
   -6.9468    3.7518   -0.3572 C   0  0  0  0  0  0  0  0  0  0  0  0
   -8.1315    4.5690   -0.5815 N   0  0  0  0  0  0  0  0  0  0  0  0
   -9.0598    4.6574    0.4791 C   0  0  0  0  0  0  0  0  0  0  0  0
   -8.7036    4.6388    1.7078 N   0  0  0  0  0  0  0  0  0  0  0  0
  -10.3956    5.0602    0.2118 N   0  0  0  0  0  0  0  0  0  0  0  0
   -8.5058    0.2624   -0.1185 C   0  0  0  0  0  0  0  0  0  0  0  0
   -8.4701   -0.6270   -0.9957 O   0  0  0  0  0  0  0  0  0  0  0  0
   -9.6443    0.5228    0.6642 O   0  0  0  0  0  0  0  0  0  0  0  0
  1  2  1  0
  2  3  1  0
  3  4  1  0
  4  5  1  0
  5  6  1  0
  6  7  1  0
  7  8  1  0
  8  9  1  0
  9 10  1  0
 10 11  1  0
 11 12  1  0
 12 13  1  0
 13 14  1  0
 14 15  1  0
 15 16  1  0
 16 17  2  0
 16 18  1  0
 18 19  1  0
 19 20  1  0
 20 21  2  0
 20 22  1  0
 23 22  1  6
 23 24  1  0
 24 25  1  0
 25 26  1  0
 26 27  1  0
 26 28  2  0
 23 29  1  0
 29 30  2  0
 29 31  1  0
 31 32  1  0
 32 33  1  0
 33 34  1  0
 34 35  1  0
 35 36  1  6
 36 37  2  0
 36 38  1  0
 39 38  1  6
 39 40  1  0
 40 41  1  0
 41 42  1  0
 42 43  1  0
 43 44  1  0
 44 45  2  0
 44 46  1  0
 39 47  1  0
 47 48  2  0
 47 49  1  0
 35 31  1  0
M  END
>  <zinc_id>  (1) 
ZINC000163851498

>  <smiles>  (1) 
CCCCCCCCCCCCCCCC(=O)NCC(=O)N[C@@H](CCC(N)=O)C(=O)N1CCC[C@H]1C(=O)N[C@@H](CCCNC(=N)N)C(=O)O

$$$$
