
     RDKit          3D

 35 38  0  0  0  0  0  0  0  0999 V2000
    7.1087   -0.8809   -1.3358 C   0  0  0  0  0  0  0  0  0  0  0  0
    6.1422   -1.6042   -0.5958 O   0  0  0  0  0  0  0  0  0  0  0  0
    4.8155   -1.1684   -0.5655 C   0  0  0  0  0  0  0  0  0  0  0  0
    4.5281    0.1104   -1.0096 C   0  0  0  0  0  0  0  0  0  0  0  0
    3.3377    0.6841   -0.6349 C   0  0  0  0  0  0  0  0  0  0  0  0
    2.3125   -0.1819   -0.2762 C   0  0  0  0  0  0  0  0  0  0  0  0
    2.5775   -1.4551    0.2114 C   0  0  0  0  0  0  0  0  0  0  0  0
    3.8877   -1.9115    0.1421 C   0  0  0  0  0  0  0  0  0  0  0  0
    4.3873   -2.8553    1.0447 O   0  0  0  0  0  0  0  0  0  0  0  0
    5.0517   -2.3993    2.2202 C   0  0  0  0  0  0  0  0  0  0  0  0
    1.0264    0.4053    0.1175 C   0  0  0  0  0  0  0  0  0  0  0  0
   -0.1149   -0.3879    0.0760 C   0  0  0  0  0  0  0  0  0  0  0  0
   -1.3199    0.2776    0.2581 C   0  0  0  0  0  0  0  0  0  0  0  0
   -2.4206   -0.3409    0.5415 N   0  0  0  0  0  0  0  0  0  0  0  0
   -2.5019   -1.7470    0.2804 C   0  0  0  0  0  0  0  0  0  0  0  0
   -3.5625   -2.1762   -0.5036 C   0  0  0  0  0  0  0  0  0  0  0  0
   -4.5890   -1.2305   -1.0391 C   0  0  0  0  0  0  0  0  0  0  0  0
   -3.8419   -3.5280   -0.6595 C   0  0  0  0  0  0  0  0  0  0  0  0
   -3.0738   -4.4423    0.0499 C   0  0  0  0  0  0  0  0  0  0  0  0
   -3.1145   -5.8702   -0.3959 C   0  0  0  0  0  0  0  0  0  0  0  0
   -2.1387   -3.9870    0.9691 C   0  0  0  0  0  0  0  0  0  0  0  0
   -1.8856   -2.6353    1.1442 C   0  0  0  0  0  0  0  0  0  0  0  0
   -1.4085   -2.2263    2.4999 C   0  0  0  0  0  0  0  0  0  0  0  0
   -1.4414    1.6117    0.0488 N   0  0  0  0  0  0  0  0  0  0  0  0
   -2.5509    2.1283   -0.7462 C   0  0  0  0  0  0  0  0  0  0  0  0
   -3.5979    2.8022    0.0945 C   0  0  0  0  0  0  0  0  0  0  0  0
   -3.2504    4.1732    0.3624 N   0  0  0  0  0  0  0  0  0  0  0  0
   -3.5057    5.2452   -0.5509 C   0  0  0  0  0  0  0  0  0  0  0  0
   -2.6286    6.3720   -0.4373 N   0  0  0  0  0  0  0  0  0  0  0  0
   -3.7648    4.8886   -1.7401 O   0  0  0  0  0  0  0  0  0  0  0  0
   -0.3192    2.3553    0.1407 C   0  0  0  0  0  0  0  0  0  0  0  0
   -0.2977    3.5920   -0.0849 O   0  0  0  0  0  0  0  0  0  0  0  0
    0.8736    1.7398    0.2694 N   0  0  0  0  0  0  0  0  0  0  0  0
    2.0963    2.4835    0.5523 C   0  0  0  0  0  0  0  0  0  0  0  0
    3.1835    2.1589   -0.4477 C   0  0  0  0  0  0  0  0  0  0  0  0
  1  2  1  0
  2  3  1  0
  3  4  2  0
  4  5  1  0
  5  6  2  0
  6  7  1  0
  7  8  2  0
  8  9  1  0
  9 10  1  0
  6 11  1  0
 11 12  2  0
 12 13  1  0
 13 14  2  0
 14 15  1  0
 15 16  2  0
 16 17  1  0
 16 18  1  0
 18 19  2  0
 19 20  1  0
 19 21  1  0
 21 22  2  0
 22 23  1  0
 13 24  1  0
 24 25  1  0
 25 26  1  0
 26 27  1  0
 27 28  1  0
 28 29  1  0
 28 30  2  0
 24 31  1  0
 31 32  2  0
 31 33  1  0
 33 34  1  0
 34 35  1  0
  8  3  1  0
 33 11  1  0
 35  5  1  0
 22 15  1  0
M  END
>  <zinc_id>  (1) 
ZINC000000602859

>  <smiles>  (1) 
COc1cc2c(cc1OC)-c1c/c(=N\c3c(C)cc(C)cc3C)n(CCNC(N)=O)c(=O)n1CC2

$$$$
