
     RDKit          3D

 31 36  0  0  0  0  0  0  0  0999 V2000
   -2.5069    0.6610    2.6101 C   0  0  0  0  0  0  0  0  0  0  0  0
   -1.2408    0.2093    2.7591 N   0  0  0  0  0  0  0  0  0  0  0  0
   -0.8672   -0.3608    1.6152 N   0  0  0  0  0  0  0  0  0  0  0  0
    0.3871   -0.5016    1.1344 C   0  0  0  0  0  0  0  0  0  0  0  0
    0.6841   -0.3747   -0.2155 C   0  0  0  0  0  0  0  0  0  0  0  0
    2.0727   -0.2460   -0.6749 C   0  0  0  0  0  0  0  0  0  0  0  0
    3.0214   -1.2114   -0.3802 C   0  0  0  0  0  0  0  0  0  0  0  0
    4.3580   -0.9226   -0.3104 C   0  0  0  0  0  0  0  0  0  0  0  0
    4.7493    0.4001   -0.4586 C   0  0  0  0  0  0  0  0  0  0  0  0
    6.0914    0.7790   -0.1484 N   0  0  0  0  0  0  0  0  0  0  0  0
    7.0469    0.7046   -1.2499 C   0  0  0  0  0  0  0  0  0  0  0  0
    8.4282    0.7663   -0.6086 C   0  0  0  0  0  0  0  0  0  0  0  0
    8.6105   -0.4780    0.1350 N   0  0  0  0  0  0  0  0  0  0  0  0
    7.5056   -0.7160    1.0491 C   0  0  0  0  0  0  0  0  0  0  0  0
    6.6414    0.5191    1.1792 C   0  0  0  0  0  0  0  0  0  0  0  0
    3.9140    1.2057   -1.2227 C   0  0  0  0  0  0  0  0  0  0  0  0
    2.5483    0.9844   -1.0992 C   0  0  0  0  0  0  0  0  0  0  0  0
   -0.3704   -0.4852   -1.1141 C   0  0  0  0  0  0  0  0  0  0  0  0
   -1.6106   -0.5717   -0.5776 N   0  0  0  0  0  0  0  0  0  0  0  0
   -1.8313   -0.1436    0.6880 C   0  0  0  0  0  0  0  0  0  0  0  0
   -2.9500    0.3762    1.3246 C   0  0  0  0  0  0  0  0  0  0  0  0
   -4.3307    0.1496    0.9052 C   0  0  0  0  0  0  0  0  0  0  0  0
   -5.3110   -0.1261    1.8494 C   0  0  0  0  0  0  0  0  0  0  0  0
   -6.6489    0.1698    1.6293 C   0  0  0  0  0  0  0  0  0  0  0  0
   -7.0386    0.2860    0.3392 N   0  0  0  0  0  0  0  0  0  0  0  0
   -6.0965    0.4376   -0.6230 C   0  0  0  0  0  0  0  0  0  0  0  0
   -6.5171    0.7513   -1.9097 C   0  0  0  0  0  0  0  0  0  0  0  0
   -5.5571    1.0604   -2.8651 C   0  0  0  0  0  0  0  0  0  0  0  0
   -4.4104    1.6824   -2.3871 C   0  0  0  0  0  0  0  0  0  0  0  0
   -4.0102    1.5338   -1.0648 C   0  0  0  0  0  0  0  0  0  0  0  0
   -4.7613    0.6468   -0.3079 C   0  0  0  0  0  0  0  0  0  0  0  0
  1  2  2  0
  2  3  1  0
  3  4  1  0
  4  5  2  0
  5  6  1  0
  6  7  2  0
  7  8  1  0
  8  9  2  0
  9 10  1  0
 10 11  1  0
 11 12  1  0
 12 13  1  0
 13 14  1  0
 14 15  1  0
  9 16  1  0
 16 17  2  0
  5 18  1  0
 18 19  2  0
 19 20  1  0
 20 21  2  0
 21 22  1  0
 22 23  2  0
 23 24  1  0
 24 25  2  0
 25 26  1  0
 26 27  2  0
 27 28  1  0
 28 29  2  0
 29 30  1  0
 30 31  2  0
 21  1  1  0
 31 22  1  0
 20  3  1  0
 31 26  1  0
 17  6  1  0
 15 10  1  0
M  END
>  <zinc_id>  (1) 
ZINC000040880920

>  <smiles>  (1) 
c1ccc2c(-c3cnn4cc(-c5ccc(N6CCNCC6)cc5)cnc34)ccnc2c1

$$$$
