
     RDKit          3D

 21 22  0  0  0  0  0  0  0  0999 V2000
    1.3557   -0.0267   -1.6744 O   0  0  0  0  0  0  0  0  0  0  0  0
    0.7837   -0.4012   -0.6059 C   0  0  0  0  0  0  0  0  0  0  0  0
   -0.5980   -0.8904   -0.6959 C   0  0  0  0  0  0  0  0  0  0  0  0
   -1.6340   -0.0916   -0.7409 C   0  0  0  0  0  0  0  0  0  0  0  0
   -3.0184   -0.5293   -0.5398 C   0  0  0  0  0  0  0  0  0  0  0  0
   -3.4396   -1.0941    0.6579 C   0  0  0  0  0  0  0  0  0  0  0  0
   -4.6786   -0.7576    1.1897 C   0  0  0  0  0  0  0  0  0  0  0  0
   -5.5661    0.0395    0.4772 C   0  0  0  0  0  0  0  0  0  0  0  0
   -6.4125    0.9383    1.1336 O   0  0  0  0  0  0  0  0  0  0  0  0
   -5.3202    0.1438   -0.8851 C   0  0  0  0  0  0  0  0  0  0  0  0
   -6.3307    0.6794   -1.6616 O   0  0  0  0  0  0  0  0  0  0  0  0
   -4.0384   -0.0828   -1.3719 C   0  0  0  0  0  0  0  0  0  0  0  0
    1.2744   -0.0097    0.6333 O   0  0  0  0  0  0  0  0  0  0  0  0
    2.2545    1.0185    0.6984 C   0  0  0  0  0  0  0  0  0  0  0  0
    3.1251    0.8977   -0.5372 C   0  0  0  0  0  0  0  0  0  0  0  0
    4.3685    0.2087   -0.1274 C   0  0  0  0  0  0  0  0  0  0  0  0
    5.4594    0.9874    0.2162 C   0  0  0  0  0  0  0  0  0  0  0  0
    6.4012    0.4544    1.0761 C   0  0  0  0  0  0  0  0  0  0  0  0
    6.2444   -0.8063    1.6096 C   0  0  0  0  0  0  0  0  0  0  0  0
    5.3534   -1.6822    1.0073 C   0  0  0  0  0  0  0  0  0  0  0  0
    4.4164   -1.1371    0.1410 C   0  0  0  0  0  0  0  0  0  0  0  0
  1  2  2  0
  2  3  1  0
  3  4  2  0
  4  5  1  0
  5  6  2  0
  6  7  1  0
  7  8  2  0
  8  9  1  0
  8 10  1  0
 10 11  1  0
 10 12  2  0
  2 13  1  0
 13 14  1  0
 14 15  1  0
 15 16  1  0
 16 17  2  0
 17 18  1  0
 18 19  2  0
 19 20  1  0
 20 21  2  0
 12  5  1  0
 21 16  1  0
M  END
>  <zinc_id>  (1) 
ZINC000000001083

>  <smiles>  (1) 
O=C(/C=C/c1ccc(O)c(O)c1)OCCc1ccccc1

$$$$
