91667962
  -OEChem-06112218572D

 54 48  0     1  0  0  0  0  0999 V2000
    3.1200   -0.6160    0.0000 P   0  0  3  0  0  0  0  0  0  0  0  0
    4.8520   -2.6160    0.0000 P   0  0  3  0  0  0  0  0  0  0  0  0
    3.9860    1.8840    0.0000 P   0  0  3  0  0  0  0  0  0  0  0  0
    7.4501   -2.1160    0.0000 P   0  0  3  0  0  0  0  0  0  0  0  0
    6.5841    2.3840    0.0000 P   0  0  3  0  0  0  0  0  0  0  0  0
    8.3162    0.3840    0.0000 P   0  0  3  0  0  0  0  0  0  0  0  0
    8.9501   -2.9820    0.0000 Na  0  3  0  0  0  0  0  0  0  0  0  0
    6.5841    4.1160    0.0000 Na  0  3  0  0  0  0  0  0  0  0  0  0
    2.4860    2.7500    0.0000 Na  0  3  0  0  0  0  0  0  0  0  0  0
    3.9860   -4.1160    0.0000 Na  0  3  0  0  0  0  0  0  0  0  0  0
    3.1200    1.1160    0.0000 Na  0  3  0  0  0  0  0  0  0  0  0  0
    9.8162    1.2500    0.0000 Na  0  3  0  0  0  0  0  0  0  0  0  0
    3.9860   -1.1160    0.0000 O   0  0  0  0  0  0  0  0  0  0  0  0
    5.7181   -2.1160    0.0000 O   0  0  0  0  0  0  0  0  0  0  0  0
    3.9860    0.8840    0.0000 O   0  0  0  0  0  0  0  0  0  0  0  0
    7.4501   -1.1160    0.0000 O   0  0  0  0  0  0  0  0  0  0  0  0
    5.7181    1.8840    0.0000 O   0  0  0  0  0  0  0  0  0  0  0  0
    7.4501    0.8840    0.0000 O   0  0  0  0  0  0  0  0  0  0  0  0
    2.6200   -1.4820    0.0000 O   0  0  0  0  0  0  0  0  0  0  0  0
    5.3520   -3.4820    0.0000 O   0  0  0  0  0  0  0  0  0  0  0  0
    3.9860    2.8840    0.0000 O   0  0  0  0  0  0  0  0  0  0  0  0
    7.4501   -3.1160    0.0000 O   0  0  0  0  0  0  0  0  0  0  0  0
    7.4501    2.8840    0.0000 O   0  0  0  0  0  0  0  0  0  0  0  0
    9.1822   -0.1160    0.0000 O   0  0  0  0  0  0  0  0  0  0  0  0
    3.6200    0.2500    0.0000 O   0  5  0  0  0  0  0  0  0  0  0  0
    3.9860   -3.1160    0.0000 O   0  5  0  0  0  0  0  0  0  0  0  0
    2.9860    1.8840    0.0000 O   0  5  0  0  0  0  0  0  0  0  0  0
    8.4501   -2.1160    0.0000 O   0  5  0  0  0  0  0  0  0  0  0  0
    6.0841    3.2500    0.0000 O   0  5  0  0  0  0  0  0  0  0  0  0
    8.8162    1.2500    0.0000 O   0  5  0  0  0  0  0  0  0  0  0  0
    2.2540   -0.1160    0.0000 O   0  0  0  0  0  0  0  0  0  0  0  0
    4.3520   -1.7500    0.0000 O   0  0  0  0  0  0  0  0  0  0  0  0
    4.9860    1.8840    0.0000 O   0  0  0  0  0  0  0  0  0  0  0  0
    6.4501   -2.1160    0.0000 O   0  0  0  0  0  0  0  0  0  0  0  0
    7.0841    1.5180    0.0000 O   0  0  0  0  0  0  0  0  0  0  0  0
    7.8162   -0.4821    0.0000 O   0  0  0  0  0  0  0  0  0  0  0  0
    4.8520   -0.6160    0.0000 C   0  0  0  0  0  0  0  0  0  0  0  0
    5.7181   -1.1160    0.0000 C   0  0  0  0  0  0  0  0  0  0  0  0
    4.8520    0.3840    0.0000 C   0  0  0  0  0  0  0  0  0  0  0  0
    6.5841   -0.6160    0.0000 C   0  0  0  0  0  0  0  0  0  0  0  0
    5.7181    0.8840    0.0000 C   0  0  0  0  0  0  0  0  0  0  0  0
    6.5841    0.3840    0.0000 C   0  0  0  0  0  0  0  0  0  0  0  0
    4.3151   -0.3060    0.0000 H   0  0  0  0  0  0  0  0  0  0  0  0
    6.2550   -1.4260    0.0000 H   0  0  0  0  0  0  0  0  0  0  0  0
    4.8520    1.0040    0.0000 H   0  0  0  0  0  0  0  0  0  0  0  0
    7.1210   -0.3060    0.0000 H   0  0  0  0  0  0  0  0  0  0  0  0
    6.2550    1.1940    0.0000 H   0  0  0  0  0  0  0  0  0  0  0  0
    7.1210    0.0740    0.0000 H   0  0  0  0  0  0  0  0  0  0  0  0
    2.0000   -1.4820    0.0000 H   0  0  0  0  0  0  0  0  0  0  0  0
    5.0420   -4.0190    0.0000 H   0  0  0  0  0  0  0  0  0  0  0  0
    3.4491    3.1940    0.0000 H   0  0  0  0  0  0  0  0  0  0  0  0
    7.9871   -3.4260    0.0000 H   0  0  0  0  0  0  0  0  0  0  0  0
    7.4501    3.5040    0.0000 H   0  0  0  0  0  0  0  0  0  0  0  0
    9.7191    0.1940    0.0000 H   0  0  0  0  0  0  0  0  0  0  0  0
  1 13  1  0  0  0  0
  1 19  1  0  0  0  0
  1 25  1  0  0  0  0
  1 31  2  0  0  0  0
  2 14  1  0  0  0  0
  2 20  1  0  0  0  0
  2 26  1  0  0  0  0
  2 32  2  0  0  0  0
  3 15  1  0  0  0  0
  3 21  1  0  0  0  0
  3 27  1  0  0  0  0
  3 33  2  0  0  0  0
  4 16  1  0  0  0  0
  4 22  1  0  0  0  0
  4 28  1  0  0  0  0
  4 34  2  0  0  0  0
  5 17  1  0  0  0  0
  5 23  1  0  0  0  0
  5 29  1  0  0  0  0
  5 35  2  0  0  0  0
  6 18  1  0  0  0  0
  6 24  1  0  0  0  0
  6 30  1  0  0  0  0
  6 36  2  0  0  0  0
 13 37  1  0  0  0  0
 14 38  1  0  0  0  0
 15 39  1  0  0  0  0
 16 40  1  0  0  0  0
 17 41  1  0  0  0  0
 18 42  1  0  0  0  0
 19 49  1  0  0  0  0
 20 50  1  0  0  0  0
 21 51  1  0  0  0  0
 22 52  1  0  0  0  0
 23 53  1  0  0  0  0
 24 54  1  0  0  0  0
 37 38  1  0  0  0  0
 37 39  1  0  0  0  0
 37 43  1  0  0  0  0
 38 40  1  0  0  0  0
 38 44  1  0  0  0  0
 39 41  1  0  0  0  0
 39 45  1  0  0  0  0
 40 42  1  0  0  0  0
 40 46  1  0  0  0  0
 41 42  1  0  0  0  0
 41 47  1  0  0  0  0
 42 48  1  0  0  0  0
M  CHG  8   7   1   8   1   9   1  10   1  11   1  12   1  25  -1  26  -1
M  CHG  4  27  -1  28  -1  29  -1  30  -1
M  END
> <PUBCHEM_COMPOUND_CID>
91667962

> <PUBCHEM_COMPOUND_CANONICALIZED>
1

> <PUBCHEM_CACTVS_COMPLEXITY>
804

> <PUBCHEM_CACTVS_HBOND_ACCEPTOR>
24

> <PUBCHEM_CACTVS_HBOND_DONOR>
6

> <PUBCHEM_CACTVS_ROTATABLE_BOND>
12

> <PUBCHEM_CACTVS_SUBSKEYS>
AAADccBgPjOAAAAAAAAAAAAAAAAAAAAAAAAwAAAAAAAAAAAAAAAAGgAACCAACBSggAIAAAAAARAAQAAAAIAAAAAAAAAAAAAAAAABAAIAAAAAAAAFAAAAAAHAYAQAAAAAAAAAAAACAAAQAACAAAAAAAAAAA==

> <PUBCHEM_IUPAC_OPENEYE_NAME>
hexasodium;[2,3,4,5,6-pentakis[[hydroxy(oxido)phosphoryl]oxy]cyclohexyl] hydrogen phosphate

> <PUBCHEM_IUPAC_CAS_NAME>
hexasodium;[2,3,4,5,6-pentakis[[hydroxy(oxido)phosphoryl]oxy]cyclohexyl] hydrogen phosphate

> <PUBCHEM_IUPAC_NAME_MARKUP>
hexasodium;[2,3,4,5,6-pentakis[[hydroxy(oxido)phosphoryl]oxy]cyclohexyl] hydrogen phosphate

> <PUBCHEM_IUPAC_NAME>
hexasodium;[2,3,4,5,6-pentakis[[hydroxy(oxido)phosphoryl]oxy]cyclohexyl] hydrogen phosphate

> <PUBCHEM_IUPAC_SYSTEMATIC_NAME>
hexasodium;[2,3,4,5,6-pentakis[[oxidanidyl(oxidanyl)phosphoryl]oxy]cyclohexyl] hydrogen phosphate

> <PUBCHEM_IUPAC_TRADITIONAL_NAME>
hexasodium;[2,3,4,5,6-pentakis[[hydroxy(oxido)phosphoryl]oxy]cyclohexyl] hydrogen phosphate

> <PUBCHEM_IUPAC_INCHI>
InChI=1S/C6H18O24P6.6Na/c7-31(8,9)25-1-2(26-32(10,11)12)4(28-34(16,17)18)6(30-36(22,23)24)5(29-35(19,20)21)3(1)27-33(13,14)15;;;;;;/h1-6H,(H2,7,8,9)(H2,10,11,12)(H2,13,14,15)(H2,16,17,18)(H2,19,20,21)(H2,22,23,24);;;;;;/q;6*+1/p-6

> <PUBCHEM_IUPAC_INCHIKEY>
DHZIAGCFFSRULK-UHFFFAOYSA-H

> <PUBCHEM_EXACT_MASS>
791.7530389

> <PUBCHEM_MOLECULAR_FORMULA>
C6H12Na6O24P6

> <PUBCHEM_MOLECULAR_WEIGHT>
791.93

> <PUBCHEM_OPENEYE_CAN_SMILES>
C1(C(C(C(C(C1OP(=O)(O)[O-])OP(=O)(O)[O-])OP(=O)(O)[O-])OP(=O)(O)[O-])OP(=O)(O)[O-])OP(=O)(O)[O-].[Na+].[Na+].[Na+].[Na+].[Na+].[Na+]

> <PUBCHEM_OPENEYE_ISO_SMILES>
C1(C(C(C(C(C1OP(=O)(O)[O-])OP(=O)(O)[O-])OP(=O)(O)[O-])OP(=O)(O)[O-])OP(=O)(O)[O-])OP(=O)(O)[O-].[Na+].[Na+].[Na+].[Na+].[Na+].[Na+]

> <PUBCHEM_CACTVS_TPSA>
418

> <PUBCHEM_MONOISOTOPIC_WEIGHT>
791.7530389

> <PUBCHEM_TOTAL_CHARGE>
0

> <PUBCHEM_HEAVY_ATOM_COUNT>
42

> <PUBCHEM_ATOM_DEF_STEREO_COUNT>
0

> <PUBCHEM_ATOM_UDEF_STEREO_COUNT>
0

> <PUBCHEM_BOND_DEF_STEREO_COUNT>
0

> <PUBCHEM_BOND_UDEF_STEREO_COUNT>
0

> <PUBCHEM_ISOTOPIC_ATOM_COUNT>
0

> <PUBCHEM_COMPONENT_COUNT>
7

> <PUBCHEM_CACTVS_TAUTO_COUNT>
1

> <PUBCHEM_COORDINATE_TYPE>
1
5
255

$$$$
