
     RDKit          3D

 45 52  0  0  0  0  0  0  0  0999 V2000
    3.8266   -2.4152   -1.2303 C   0  0  0  0  0  0  0  0  0  0  0  0
    3.7265   -1.3504   -0.3248 C   0  0  2  0  0  0  0  0  0  0  0  0
    3.5488    0.0298   -0.7464 C   0  0  0  0  0  0  0  0  0  0  0  0
    4.8652    0.4142   -1.3637 C   0  0  0  0  0  0  0  0  0  0  0  0
    5.9645    0.0514   -0.7384 C   0  0  0  0  0  0  0  0  0  0  0  0
    6.1264   -1.4962   -0.3774 C   0  0  1  0  0  0  0  0  0  0  0  0
    7.2672   -1.2838    0.7673 C   0  0  0  0  0  0  0  0  0  0  0  0
    6.8922   -0.0720    1.5663 C   0  0  0  0  0  0  0  0  0  0  0  0
    7.1862    1.2039    0.8189 C   0  0  0  0  0  0  0  0  0  0  0  0
    6.4353    2.2402    1.1988 C   0  0  0  0  0  0  0  0  0  0  0  0
    5.8790    3.2197    0.2949 C   0  0  0  0  0  0  0  0  0  0  0  0
    4.9576    4.0292    0.5856 O   0  0  0  0  0  0  0  0  0  0  0  0
    6.2532    3.1607   -1.1238 C   0  0  0  0  0  0  0  0  0  0  0  0
    6.9491    2.1062   -1.4788 C   0  0  0  0  0  0  0  0  0  0  0  0
    7.1587    0.9231   -0.6582 C   0  0  2  0  0  0  0  0  0  0  0  0
    8.4222    0.2602   -1.1290 C   0  0  0  0  0  0  0  0  0  0  0  0
    4.8929   -1.4312    0.7944 C   0  0  2  0  0  0  0  0  0  0  0  0
    4.7331   -3.0403    0.8489 C   0  0  0  0  0  0  0  0  0  0  0  0
    3.2614   -3.2536    0.8933 C   0  0  0  0  0  0  0  0  0  0  0  0
    2.6616   -1.7307    0.8537 C   0  0  2  0  0  0  0  0  0  0  0  0
    1.5076   -2.1209   -0.2081 C   0  0  0  0  0  0  0  0  0  0  0  0
    0.7134   -2.9305    0.2682 O   0  0  0  0  0  0  0  0  0  0  0  0
    0.9757   -0.8389   -0.7772 C   0  0  0  0  0  0  0  0  0  0  0  0
   -0.4055   -0.6733   -0.6928 N   0  0  0  0  0  0  0  0  0  0  0  0
   -1.1668   -0.5134   -1.8629 C   0  0  0  0  0  0  0  0  0  0  0  0
   -2.2700   -1.5671   -1.8572 C   0  0  0  0  0  0  0  0  0  0  0  0
   -2.9250   -1.5083   -0.5541 N   0  0  0  0  0  0  0  0  0  0  0  0
   -4.1246   -0.7434   -0.4425 C   0  0  0  0  0  0  0  0  0  0  0  0
   -3.9666    0.6340   -0.5092 C   0  0  0  0  0  0  0  0  0  0  0  0
   -4.9081    1.4654    0.0693 C   0  0  0  0  0  0  0  0  0  0  0  0
   -5.0021    2.8277   -0.3745 N   0  0  0  0  0  0  0  0  0  0  0  0
   -5.8146    3.1477   -1.5484 C   0  0  0  0  0  0  0  0  0  0  0  0
   -7.1648    3.5004   -0.9348 C   0  0  0  0  0  0  0  0  0  0  0  0
   -6.8957    3.7053    0.5515 C   0  0  0  0  0  0  0  0  0  0  0  0
   -5.3800    3.8698    0.5797 C   0  0  0  0  0  0  0  0  0  0  0  0
   -5.9557    0.8448    0.6639 N   0  0  0  0  0  0  0  0  0  0  0  0
   -6.2453   -0.4552    0.4920 C   0  0  0  0  0  0  0  0  0  0  0  0
   -7.5923   -0.9325    0.3902 N   0  0  0  0  0  0  0  0  0  0  0  0
   -8.5086   -0.5016   -0.6622 C   0  0  0  0  0  0  0  0  0  0  0  0
   -9.8675   -0.9332   -0.1909 C   0  0  0  0  0  0  0  0  0  0  0  0
   -9.5530   -2.1977    0.5687 C   0  0  0  0  0  0  0  0  0  0  0  0
   -8.1007   -2.1577    0.9394 C   0  0  0  0  0  0  0  0  0  0  0  0
   -5.2023   -1.2617    0.1780 N   0  0  0  0  0  0  0  0  0  0  0  0
   -2.1204   -1.6411    0.6522 C   0  0  0  0  0  0  0  0  0  0  0  0
   -1.0352   -0.5834    0.5570 C   0  0  0  0  0  0  0  0  0  0  0  0
  2  1  1  6
  2  3  1  0
  3  4  1  0
  4  5  2  0
  5  6  1  0
  6  7  1  1
  7  8  1  0
  8  9  1  0
  9 10  2  0
 10 11  1  0
 11 12  2  0
 11 13  1  0
 13 14  2  0
 14 15  1  0
 15 16  1  6
  6 17  1  0
 17 18  1  6
 18 19  1  0
 19 20  1  0
 20 21  1  6
 21 22  2  0
 21 23  1  0
 23 24  1  0
 24 25  1  0
 25 26  1  0
 26 27  1  0
 27 28  1  0
 28 29  2  0
 29 30  1  0
 30 31  1  0
 31 32  1  0
 32 33  1  0
 33 34  1  0
 34 35  1  0
 30 36  2  0
 36 37  1  0
 37 38  1  0
 38 39  1  0
 39 40  1  0
 40 41  1  0
 41 42  1  0
 37 43  2  0
 27 44  1  0
 44 45  1  0
 17  2  1  0
 45 24  1  0
 20  2  1  0
 43 28  1  0
 15  5  1  0
 35 31  1  0
 42 38  1  0
 15  9  1  0
M  END
>  <zinc_id>  (1) 
ZINC000029747252

>  <smiles>  (1) 
C[C@]12C=CC(=O)C=C1CC[C@@H]1C2=CC[C@]2(C)[C@@H](C(=O)CN3CCN(c4cc(N5CCCC5)nc(N5CCCC5)n4)CC3)CC[C@@H]12

$$$$
