
     RDKit          3D

 33 37  0  0  0  0  0  0  0  0999 V2000
   -4.2433    2.7052   -1.5936 C   0  0  0  0  0  0  0  0  0  0  0  0
   -4.2776    1.6771   -0.5812 C   0  0  0  0  0  0  0  0  0  0  0  0
   -5.4352    1.3460   -0.0070 C   0  0  0  0  0  0  0  0  0  0  0  0
   -6.6233    2.0024   -0.3380 O   0  0  0  0  0  0  0  0  0  0  0  0
   -5.4178    0.1668    0.8694 C   0  0  0  0  0  0  0  0  0  0  0  0
   -6.4834   -0.4789    1.0246 O   0  0  0  0  0  0  0  0  0  0  0  0
   -4.1314   -0.2589    1.4156 C   0  0  0  0  0  0  0  0  0  0  0  0
   -2.9621    0.1084    0.8877 C   0  0  0  0  0  0  0  0  0  0  0  0
   -3.0419    0.9238   -0.3319 C   0  0  0  0  0  0  0  0  0  0  0  0
   -2.2114    0.7377   -1.3600 C   0  0  0  0  0  0  0  0  0  0  0  0
   -1.3005   -0.4116   -1.2996 C   0  0  0  0  0  0  0  0  0  0  0  0
   -1.1500   -1.1474   -0.1964 C   0  0  0  0  0  0  0  0  0  0  0  0
   -1.7306   -0.7114    1.1145 C   0  0  2  0  0  0  0  0  0  0  0  0
   -2.1529   -1.9662    1.8696 C   0  0  0  0  0  0  0  0  0  0  0  0
   -0.7552    0.0302    1.9693 C   0  0  0  0  0  0  0  0  0  0  0  0
    0.6435   -0.4866    1.9420 C   0  0  0  0  0  0  0  0  0  0  0  0
    1.0300   -0.5813    0.4755 C   0  0  1  0  0  0  0  0  0  0  0  0
    0.9403    0.7067   -0.2212 C   0  0  0  0  0  0  0  0  0  0  0  0
    2.6008   -1.0683    0.4609 C   0  0  2  0  0  0  0  0  0  0  0  0
    3.1183    0.4242    0.9580 C   0  0  0  0  0  0  0  0  0  0  0  0
    4.5885    0.3970    0.6638 C   0  0  2  0  0  0  0  0  0  0  0  0
    5.3226   -0.7222    1.3301 C   0  0  0  0  0  0  0  0  0  0  0  0
    5.1587    1.6886    1.1530 C   0  0  0  0  0  0  0  0  0  0  0  0
    6.3696    1.8708    0.8128 O   0  0  0  0  0  0  0  0  0  0  0  0
    4.3545    2.8158    0.9503 O   0  0  0  0  0  0  0  0  0  0  0  0
    4.8072    0.4405   -0.8454 C   0  0  0  0  0  0  0  0  0  0  0  0
    3.3882    0.5044   -1.4117 C   0  0  0  0  0  0  0  0  0  0  0  0
    2.8012   -0.7984   -1.1497 C   0  0  1  0  0  0  0  0  0  0  0  0
    3.8988   -1.8339   -1.4179 C   0  0  0  0  0  0  0  0  0  0  0  0
    1.6396   -1.2391   -1.9045 C   0  0  0  0  0  0  0  0  0  0  0  0
    0.7695   -2.2850   -1.3190 C   0  0  0  0  0  0  0  0  0  0  0  0
    0.2254   -1.7209   -0.0490 C   0  0  2  0  0  0  0  0  0  0  0  0
    0.2597   -2.8355    0.9769 C   0  0  0  0  0  0  0  0  0  0  0  0
  1  2  1  0
  2  3  2  0
  3  4  1  0
  3  5  1  0
  5  6  2  0
  5  7  1  0
  7  8  2  0
  8  9  1  0
  9 10  2  0
 10 11  1  0
 11 12  2  0
 12 13  1  0
 13 14  1  1
 13 15  1  0
 15 16  1  0
 16 17  1  0
 17 18  1  6
 17 19  1  0
 19 20  1  1
 20 21  1  0
 21 22  1  1
 21 23  1  0
 23 24  2  0
 23 25  1  0
 21 26  1  0
 26 27  1  0
 27 28  1  0
 28 29  1  6
 28 30  1  0
 30 31  1  0
 31 32  1  0
 32 33  1  1
  9  2  1  0
 32 12  1  0
 13  8  1  0
 32 17  1  0
 28 19  1  0
M  END
>  <zinc_id>  (1) 
ZINC000019795938

>  <smiles>  (1) 
CC1=C(O)C(=O)C=C2C1=CC=C1[C@@]3(C)CC[C@@]4(C)CC[C@@](C)(C(=O)O)C[C@H]4[C@]3(C)CC[C@@]21C

$$$$
