
     RDKit          3D

 27 26  0  0  0  0  0  0  0  0999 V2000
   -3.8922   -1.6357    0.9727 C   0  0  0  0  0  0  0  0  0  0  0  0
   -4.6482   -0.1675    0.6836 C   0  0  2  0  0  0  0  0  0  0  0  0
   -3.3511    0.6609    1.1462 N   0  0  0  0  0  0  0  0  0  0  0  0
   -2.3351    0.3692    0.1984 C   0  0  0  0  0  0  0  0  0  0  0  0
   -1.9348   -0.7780    0.1019 O   0  0  0  0  0  0  0  0  0  0  0  0
   -1.2543    1.5731   -0.0549 C   0  0  2  0  0  0  0  0  0  0  0  0
   -0.9773    1.0640   -1.6295 C   0  0  0  0  0  0  0  0  0  0  0  0
   -2.2888    1.3062   -2.3291 C   0  0  0  0  0  0  0  0  0  0  0  0
   -2.6081    0.2155   -3.2902 C   0  0  0  0  0  0  0  0  0  0  0  0
   -2.5193    0.4605   -4.5196 O   0  0  0  0  0  0  0  0  0  0  0  0
   -3.3663   -0.8922   -2.9505 O   0  0  0  0  0  0  0  0  0  0  0  0
   -0.0087    0.7133    0.4855 N   0  0  0  0  0  0  0  0  0  0  0  0
    0.3136    0.9601    1.8340 C   0  0  0  0  0  0  0  0  0  0  0  0
   -0.3983    1.6378    2.6046 O   0  0  0  0  0  0  0  0  0  0  0  0
    1.6829    0.5703    2.2939 C   0  0  0  0  0  0  0  0  0  0  0  0
    2.5881    0.7360    1.1746 N   0  0  0  0  0  0  0  0  0  0  0  0
    3.7772   -0.0076    1.0456 C   0  0  0  0  0  0  0  0  0  0  0  0
    4.1068   -0.8730    1.8868 O   0  0  0  0  0  0  0  0  0  0  0  0
    4.0926   -0.4834   -0.4952 C   0  0  1  0  0  0  0  0  0  0  0  0
    4.0939    1.0392   -1.0025 N   0  0  0  0  0  0  0  0  0  0  0  0
    5.7416   -0.4382   -0.2065 C   0  0  0  0  0  0  0  0  0  0  0  0
    6.3128    0.0821   -1.4626 C   0  0  0  0  0  0  0  0  0  0  0  0
    7.3398    0.8092   -1.3829 O   0  0  0  0  0  0  0  0  0  0  0  0
    5.7596   -0.1818   -2.6962 O   0  0  0  0  0  0  0  0  0  0  0  0
   -5.3020   -0.1271    2.1879 C   0  0  0  0  0  0  0  0  0  0  0  0
   -6.4549   -0.6363    2.1828 O   0  0  0  0  0  0  0  0  0  0  0  0
   -4.4695   -0.4404    3.2215 O   0  0  0  0  0  0  0  0  0  0  0  0
  2  1  1  1
  2  3  1  0
  3  4  1  0
  4  5  2  0
  6  4  1  1
  6  7  1  0
  7  8  1  0
  8  9  1  0
  9 10  2  0
  9 11  1  0
  6 12  1  0
 12 13  1  0
 13 14  2  0
 13 15  1  0
 15 16  1  0
 16 17  1  0
 17 18  2  0
 19 17  1  1
 19 20  1  0
 19 21  1  0
 21 22  1  0
 22 23  2  0
 22 24  1  0
  2 25  1  0
 25 26  2  0
 25 27  1  0
M  END
>  <zinc_id>  (1) 
ZINC000015721478

>  <smiles>  (1) 
C[C@H](NC(=O)[C@H](CCC(=O)O)NC(=O)CNC(=O)[C@@H](N)CC(=O)O)C(=O)O

$$$$
