
     RDKit          3D

 29 33  0  0  0  0  0  0  0  0999 V2000
    6.4715    2.3806    0.6283 C   0  0  0  0  0  0  0  0  0  0  0  0
    7.1261    1.1434    0.2842 N   0  0  0  0  0  0  0  0  0  0  0  0
    6.7448    0.7577   -1.0606 C   0  0  0  0  0  0  0  0  0  0  0  0
    5.2361    0.5816   -1.1063 C   0  0  0  0  0  0  0  0  0  0  0  0
    4.9097   -0.3995   -0.0787 N   0  0  0  0  0  0  0  0  0  0  0  0
    3.5544   -0.6996    0.1744 C   0  0  0  0  0  0  0  0  0  0  0  0
    3.2321   -1.5679    1.2106 C   0  0  0  0  0  0  0  0  0  0  0  0
    1.9542   -2.1026    1.2488 C   0  0  0  0  0  0  0  0  0  0  0  0
    0.9272   -1.5844    0.4725 C   0  0  0  0  0  0  0  0  0  0  0  0
   -0.3764   -1.3590    0.7548 N   0  0  0  0  0  0  0  0  0  0  0  0
   -0.8369   -0.3232    0.0236 C   0  0  0  0  0  0  0  0  0  0  0  0
   -2.1705    0.2899    0.0496 C   0  0  0  0  0  0  0  0  0  0  0  0
   -3.1896   -0.3081   -0.6681 C   0  0  0  0  0  0  0  0  0  0  0  0
   -2.9019   -1.5195   -1.3683 N   0  0  0  0  0  0  0  0  0  0  0  0
   -4.4808    0.0502   -0.3149 C   0  0  0  0  0  0  0  0  0  0  0  0
   -5.5339   -0.6076   -0.9183 C   0  0  0  0  0  0  0  0  0  0  0  0
   -5.2864   -1.8323   -1.4642 F   0  0  0  0  0  0  0  0  0  0  0  0
   -6.7721    0.0040   -1.0328 C   0  0  0  0  0  0  0  0  0  0  0  0
   -6.9179    1.3064   -0.5731 C   0  0  0  0  0  0  0  0  0  0  0  0
   -5.9828    1.7520    0.3517 C   0  0  0  0  0  0  0  0  0  0  0  0
   -4.7744    1.1087    0.5068 C   0  0  0  0  0  0  0  0  0  0  0  0
   -3.7551    1.6412    1.2190 N   0  0  0  0  0  0  0  0  0  0  0  0
   -2.4798    1.3578    0.8632 C   0  0  0  0  0  0  0  0  0  0  0  0
   -1.5242    2.1363    1.1557 O   0  0  0  0  0  0  0  0  0  0  0  0
    0.1238   -0.0569   -0.8637 N   0  0  0  0  0  0  0  0  0  0  0  0
    1.2493   -0.7590   -0.5888 C   0  0  0  0  0  0  0  0  0  0  0  0
    2.5858   -0.4528   -0.7888 C   0  0  0  0  0  0  0  0  0  0  0  0
    6.0277   -1.0204    0.5899 C   0  0  0  0  0  0  0  0  0  0  0  0
    6.8401    0.0831    1.2477 C   0  0  0  0  0  0  0  0  0  0  0  0
  1  2  1  0
  2  3  1  0
  3  4  1  0
  4  5  1  0
  5  6  1  0
  6  7  2  0
  7  8  1  0
  8  9  2  0
  9 10  1  0
 10 11  2  0
 11 12  1  0
 12 13  2  0
 13 14  1  0
 13 15  1  0
 15 16  2  0
 16 17  1  0
 16 18  1  0
 18 19  2  0
 19 20  1  0
 20 21  2  0
 21 22  1  0
 22 23  1  0
 23 24  2  0
 11 25  1  0
 25 26  1  0
 26 27  2  0
  5 28  1  0
 28 29  1  0
 29  2  1  0
 27  6  1  0
 26  9  1  0
 23 12  1  0
 21 15  1  0
M  END
>  <zinc_id>  (1) 
ZINC000003816310

>  <smiles>  (1) 
CN1CCN(c2ccc3nc(-c4c(N)c5c(F)cccc5[nH]c4=O)[nH]c3c2)CC1

$$$$
