6914568
  -OEChem-10051720523D

 55 59  0     0  0  0  0  0  0999 V2000
    6.2886   -0.5202   -0.0126 O   0  0  0  0  0  0  0  0  0  0  0  0
   -5.4033    0.5619    0.0043 N   0  0  0  0  0  0  0  0  0  0  0  0
   -8.0631    1.5992   -0.0889 N   0  0  0  0  0  0  0  0  0  0  0  0
    3.3479   -3.6561   -0.0656 N   0  0  0  0  0  0  0  0  0  0  0  0
    0.9633   -3.9971   -0.0924 N   0  0  0  0  0  0  0  0  0  0  0  0
    3.9643   -0.1583    0.0432 N   0  0  0  0  0  0  0  0  0  0  0  0
    4.8068    3.8667    0.6818 N   0  0  0  0  0  0  0  0  0  0  0  0
   -6.3418    0.2755    1.0936 C   0  0  0  0  0  0  0  0  0  0  0  0
   -6.0136    0.9083   -1.2855 C   0  0  0  0  0  0  0  0  0  0  0  0
   -7.3952    1.3810    1.1999 C   0  0  0  0  0  0  0  0  0  0  0  0
   -7.0765    1.9939   -1.1021 C   0  0  0  0  0  0  0  0  0  0  0  0
   -4.1451   -0.0506   -0.0069 C   0  0  0  0  0  0  0  0  0  0  0  0
   -9.1034    2.6192    0.0384 C   0  0  0  0  0  0  0  0  0  0  0  0
   -3.0318    0.5900   -0.5861 C   0  0  0  0  0  0  0  0  0  0  0  0
   -3.9538   -1.3262    0.5605 C   0  0  0  0  0  0  0  0  0  0  0  0
   -1.6114   -1.2833   -0.0294 C   0  0  0  0  0  0  0  0  0  0  0  0
   -1.7776   -0.0202   -0.5973 C   0  0  0  0  0  0  0  0  0  0  0  0
   -2.6995   -1.9364    0.5495 C   0  0  0  0  0  0  0  0  0  0  0  0
   -0.3096   -1.9152   -0.0393 C   0  0  0  0  0  0  0  0  0  0  0  0
    2.0826   -1.8165   -0.0199 C   0  0  0  0  0  0  0  0  0  0  0  0
    0.8498   -1.1443   -0.0085 C   0  0  0  0  0  0  0  0  0  0  0  0
    2.0534   -3.2073   -0.0614 C   0  0  0  0  0  0  0  0  0  0  0  0
    3.4501   -1.4343    0.0010 C   0  0  0  0  0  0  0  0  0  0  0  0
   -0.1950   -3.2972   -0.0795 C   0  0  0  0  0  0  0  0  0  0  0  0
    4.2051   -2.5870   -0.0279 C   0  0  0  0  0  0  0  0  0  0  0  0
    5.3144    0.2230    0.0347 C   0  0  0  0  0  0  0  0  0  0  0  0
    5.5638    1.6885    0.0599 C   0  0  0  0  0  0  0  0  0  0  0  0
    6.7184    2.1939   -0.4850 C   0  0  0  0  0  0  0  0  0  0  0  0
    4.6417    2.5260    0.6259 C   0  0  0  0  0  0  0  0  0  0  0  0
    6.9240    3.5686   -0.4466 C   0  0  0  0  0  0  0  0  0  0  0  0
    5.9466    4.3543    0.1425 C   0  0  0  0  0  0  0  0  0  0  0  0
   -6.8355   -0.6886    0.9163 H   0  0  0  0  0  0  0  0  0  0  0  0
   -5.8142    0.2149    2.0536 H   0  0  0  0  0  0  0  0  0  0  0  0
   -5.2689    1.2776   -1.9999 H   0  0  0  0  0  0  0  0  0  0  0  0
   -6.4641    0.0084   -1.7242 H   0  0  0  0  0  0  0  0  0  0  0  0
   -6.9207    2.3071    1.5520 H   0  0  0  0  0  0  0  0  0  0  0  0
   -8.1297    1.0827    1.9579 H   0  0  0  0  0  0  0  0  0  0  0  0
   -7.5733    2.1533   -2.0668 H   0  0  0  0  0  0  0  0  0  0  0  0
   -6.5913    2.9393   -0.8240 H   0  0  0  0  0  0  0  0  0  0  0  0
   -8.6992    3.5885    0.3522 H   0  0  0  0  0  0  0  0  0  0  0  0
   -9.8590    2.3081    0.7684 H   0  0  0  0  0  0  0  0  0  0  0  0
   -9.6261    2.7559   -0.9149 H   0  0  0  0  0  0  0  0  0  0  0  0
   -3.1361    1.5784   -1.0285 H   0  0  0  0  0  0  0  0  0  0  0  0
   -4.7798   -1.8680    1.0146 H   0  0  0  0  0  0  0  0  0  0  0  0
   -0.9648    0.5142   -1.0813 H   0  0  0  0  0  0  0  0  0  0  0  0
   -2.6112   -2.9085    1.0269 H   0  0  0  0  0  0  0  0  0  0  0  0
    0.8403   -0.0612    0.0509 H   0  0  0  0  0  0  0  0  0  0  0  0
   -1.0642   -3.9476   -0.1366 H   0  0  0  0  0  0  0  0  0  0  0  0
    3.6269   -4.6270   -0.0922 H   0  0  0  0  0  0  0  0  0  0  0  0
    5.2704   -2.7670   -0.0244 H   0  0  0  0  0  0  0  0  0  0  0  0
    3.2502    0.5636    0.0302 H   0  0  0  0  0  0  0  0  0  0  0  0
    7.4675    1.5581   -0.9463 H   0  0  0  0  0  0  0  0  0  0  0  0
    3.7299    2.1896    1.1052 H   0  0  0  0  0  0  0  0  0  0  0  0
    7.8203    4.0112   -0.8659 H   0  0  0  0  0  0  0  0  0  0  0  0
    6.0590    5.4321    0.1973 H   0  0  0  0  0  0  0  0  0  0  0  0
  1 26  2  0  0  0  0
  2  8  1  0  0  0  0
  2  9  1  0  0  0  0
  2 12  1  0  0  0  0
  3 10  1  0  0  0  0
  3 11  1  0  0  0  0
  3 13  1  0  0  0  0
  4 22  1  0  0  0  0
  4 25  1  0  0  0  0
  4 49  1  0  0  0  0
  5 22  1  0  0  0  0
  5 24  2  0  0  0  0
  6 23  1  0  0  0  0
  6 26  1  0  0  0  0
  6 51  1  0  0  0  0
  7 29  1  0  0  0  0
  7 31  2  0  0  0  0
  8 10  1  0  0  0  0
  8 32  1  0  0  0  0
  8 33  1  0  0  0  0
  9 11  1  0  0  0  0
  9 34  1  0  0  0  0
  9 35  1  0  0  0  0
 10 36  1  0  0  0  0
 10 37  1  0  0  0  0
 11 38  1  0  0  0  0
 11 39  1  0  0  0  0
 12 14  2  0  0  0  0
 12 15  1  0  0  0  0
 13 40  1  0  0  0  0
 13 41  1  0  0  0  0
 13 42  1  0  0  0  0
 14 17  1  0  0  0  0
 14 43  1  0  0  0  0
 15 18  2  0  0  0  0
 15 44  1  0  0  0  0
 16 17  2  0  0  0  0
 16 18  1  0  0  0  0
 16 19  1  0  0  0  0
 17 45  1  0  0  0  0
 18 46  1  0  0  0  0
 19 21  2  0  0  0  0
 19 24  1  0  0  0  0
 20 21  1  0  0  0  0
 20 22  2  0  0  0  0
 20 23  1  0  0  0  0
 21 47  1  0  0  0  0
 23 25  2  0  0  0  0
 24 48  1  0  0  0  0
 25 50  1  0  0  0  0
 26 27  1  0  0  0  0
 27 28  1  0  0  0  0
 27 29  2  0  0  0  0
 28 30  2  0  0  0  0
 28 52  1  0  0  0  0
 29 53  1  0  0  0  0
 30 31  1  0  0  0  0
 30 54  1  0  0  0  0
 31 55  1  0  0  0  0
M  END
> <DATABASE_ID>
DB06876

> <DATABASE_NAME>
drugbank

> <ORIGINAL_SOURCE>
PUBCHEM

> <ORIGINAL_SOURCE_URL>
https://pubchem.ncbi.nlm.nih.gov/rest/pug/compound/inchikey/YJWJKKXGAPWLGT-UHFFFAOYSA-N/SDF?record_type=3d

> <SMILES>
CN1CCN(CC1)C1=CC=C(C=C1)C1=CC2=C(NC=C2NC(=O)C2=CN=CC=C2)N=C1

> <INCHI_IDENTIFIER>
InChI=1S/C24H24N6O/c1-29-9-11-30(12-10-29)20-6-4-17(5-7-20)19-13-21-22(16-27-23(21)26-15-19)28-24(31)18-3-2-8-25-14-18/h2-8,13-16H,9-12H2,1H3,(H,26,27)(H,28,31)

> <INCHI_KEY>
YJWJKKXGAPWLGT-UHFFFAOYSA-N

> <FORMULA>
C24H24N6O

> <MOLECULAR_WEIGHT>
412.487

> <EXACT_MASS>
412.20115942

> <JCHEM_ACCEPTOR_COUNT>
5

> <JCHEM_ATOM_COUNT>
55

> <JCHEM_AVERAGE_NEUTRAL_MICROSPECIES_CHARGE>
0.8846622467474737

> <JCHEM_AVERAGE_POLARIZABILITY>
46.59370318247721

> <JCHEM_BIOAVAILABILITY>
1

> <JCHEM_DONOR_COUNT>
2

> <JCHEM_FORMAL_CHARGE>
0

> <JCHEM_GHOSE_FILTER>
1

> <JCHEM_IUPAC>
N-{5-[4-(4-methylpiperazin-1-yl)phenyl]-1H-pyrrolo[2,3-b]pyridin-3-yl}pyridine-3-carboxamide

> <ALOGPS_LOGP>
2.97

> <JCHEM_LOGP>
2.698398615333333

> <ALOGPS_LOGS>
-3.97

> <JCHEM_MDDR_LIKE_RULE>
0

> <JCHEM_NEUTRAL_CHARGE>
1

> <JCHEM_NUMBER_OF_RINGS>
5

> <JCHEM_PHYSIOLOGICAL_CHARGE>
1

> <JCHEM_PKA>
16.93287453025829

> <JCHEM_PKA_STRONGEST_ACIDIC>
14.618444213785219

> <JCHEM_PKA_STRONGEST_BASIC>
7.883301885598552

> <JCHEM_POLAR_SURFACE_AREA>
77.14999999999999

> <JCHEM_REFRACTIVITY>
123.93169999999995

> <JCHEM_ROTATABLE_BOND_COUNT>
4

> <JCHEM_RULE_OF_FIVE>
1

> <ALOGPS_SOLUBILITY>
4.39e-02 g/l

> <JCHEM_TRADITIONAL_IUPAC>
biotin

> <JCHEM_VEBER_RULE>
0

$$$$
