25016615
  -OEChem-06112215543D

 54 58  0     1  0  0  0  0  0999 V2000
   -8.7291    0.6137    0.8044 Cl  0  0  0  0  0  0  0  0  0  0  0  0
    1.3177   -3.1455   -1.1037 O   0  0  0  0  0  0  0  0  0  0  0  0
   -6.2892    1.9175    1.9806 O   0  0  0  0  0  0  0  0  0  0  0  0
   -0.3834   -1.5713   -0.9375 N   0  0  0  0  0  0  0  0  0  0  0  0
   -3.1120   -0.8373   -0.3086 N   0  0  0  0  0  0  0  0  0  0  0  0
    2.5045   -0.3066   -0.9998 N   0  0  2  0  0  0  0  0  0  0  0  0
    3.2990   -0.9331   -0.0982 N   0  0  0  0  0  0  0  0  0  0  0  0
    2.6605    1.9124   -2.1122 N   0  0  0  0  0  0  0  0  0  0  0  0
    5.3068   -1.6021    1.9840 N   0  0  0  0  0  0  0  0  0  0  0  0
    6.1307    0.5620    1.7748 N   0  0  0  0  0  0  0  0  0  0  0  0
   -1.2899   -2.4921   -0.2565 C   0  0  0  0  0  0  0  0  0  0  0  0
   -0.8939   -0.2216   -1.1886 C   0  0  0  0  0  0  0  0  0  0  0  0
   -2.7502   -2.2244   -0.6139 C   0  0  0  0  0  0  0  0  0  0  0  0
   -2.0411    0.1610   -0.2533 C   0  0  0  0  0  0  0  0  0  0  0  0
    0.8865   -2.0094   -1.3146 C   0  0  0  0  0  0  0  0  0  0  0  0
   -4.4341   -0.4896   -0.0422 C   0  0  0  0  0  0  0  0  0  0  0  0
    1.7592   -0.9986   -2.0173 C   0  0  0  0  0  0  0  0  0  0  0  0
    3.0575    0.9791   -1.2302 C   0  0  0  0  0  0  0  0  0  0  0  0
    4.1623    1.1403   -0.3581 C   0  0  0  0  0  0  0  0  0  0  0  0
   -4.7172    0.5500    0.8437 C   0  0  0  0  0  0  0  0  0  0  0  0
   -5.4753   -1.1818   -0.6607 C   0  0  0  0  0  0  0  0  0  0  0  0
    4.3018   -0.1241    0.3947 C   0  0  0  0  0  0  0  0  0  0  0  0
   -6.0414    0.8976    1.1109 C   0  0  0  0  0  0  0  0  0  0  0  0
   -6.7994   -0.8345   -0.3935 C   0  0  0  0  0  0  0  0  0  0  0  0
    4.8824    2.3173   -0.3748 C   0  0  0  0  0  0  0  0  0  0  0  0
    5.2072   -0.3771    1.3432 C   0  0  0  0  0  0  0  0  0  0  0  0
   -7.0825    0.2053    0.4923 C   0  0  0  0  0  0  0  0  0  0  0  0
    4.4805    3.3048   -1.2706 C   0  0  0  0  0  0  0  0  0  0  0  0
    3.3870    3.0575   -2.1033 C   0  0  0  0  0  0  0  0  0  0  0  0
    6.2783   -1.4366    2.8061 C   0  0  0  0  0  0  0  0  0  0  0  0
    6.8015   -0.0622    2.6731 C   0  0  0  0  0  0  0  0  0  0  0  0
   -6.3843    3.2292    1.4297 C   0  0  0  0  0  0  0  0  0  0  0  0
   -1.0274   -3.5273   -0.4993 H   0  0  0  0  0  0  0  0  0  0  0  0
   -1.1279   -2.3581    0.8202 H   0  0  0  0  0  0  0  0  0  0  0  0
   -1.2326   -0.2005   -2.2316 H   0  0  0  0  0  0  0  0  0  0  0  0
   -0.0945    0.5154   -1.0793 H   0  0  0  0  0  0  0  0  0  0  0  0
   -3.3727   -2.9248   -0.0438 H   0  0  0  0  0  0  0  0  0  0  0  0
   -2.9111   -2.4141   -1.6821 H   0  0  0  0  0  0  0  0  0  0  0  0
   -2.4070    1.1493   -0.5579 H   0  0  0  0  0  0  0  0  0  0  0  0
   -1.6720    0.2382    0.7768 H   0  0  0  0  0  0  0  0  0  0  0  0
    2.4402   -1.5353   -2.6894 H   0  0  0  0  0  0  0  0  0  0  0  0
    1.1700   -0.3292   -2.6505 H   0  0  0  0  0  0  0  0  0  0  0  0
    3.0818   -1.8330    0.3086 H   0  0  0  0  0  0  0  0  0  0  0  0
   -3.9239    1.0937    1.3504 H   0  0  0  0  0  0  0  0  0  0  0  0
   -5.2879   -1.9869   -1.3659 H   0  0  0  0  0  0  0  0  0  0  0  0
   -7.5999   -1.3812   -0.8856 H   0  0  0  0  0  0  0  0  0  0  0  0
    5.7393    2.4974    0.2612 H   0  0  0  0  0  0  0  0  0  0  0  0
    5.0121    4.2489   -1.3272 H   0  0  0  0  0  0  0  0  0  0  0  0
    3.0594    3.8104   -2.8138 H   0  0  0  0  0  0  0  0  0  0  0  0
    6.7212   -2.1344    3.5275 H   0  0  0  0  0  0  0  0  0  0  0  0
    7.6395    0.2778    3.2942 H   0  0  0  0  0  0  0  0  0  0  0  0
   -5.4184    3.5381    1.0174 H   0  0  0  0  0  0  0  0  0  0  0  0
   -7.1536    3.2765    0.6528 H   0  0  0  0  0  0  0  0  0  0  0  0
   -6.6569    3.9189    2.2332 H   0  0  0  0  0  0  0  0  0  0  0  0
  1 27  1  0  0  0  0
  2 15  2  0  0  0  0
  3 23  1  0  0  0  0
  3 32  1  0  0  0  0
  4 11  1  0  0  0  0
  4 12  1  0  0  0  0
  4 15  1  0  0  0  0
  5 13  1  0  0  0  0
  5 14  1  0  0  0  0
  5 16  1  0  0  0  0
  6  7  1  0  0  0  0
  6 17  1  0  0  0  0
  6 18  1  0  0  0  0
  7 22  1  0  0  0  0
  7 43  1  0  0  0  0
  8 18  1  0  0  0  0
  8 29  2  0  0  0  0
  9 26  1  0  0  0  0
  9 30  2  0  0  0  0
 10 26  1  0  0  0  0
 10 31  2  0  0  0  0
 11 13  1  0  0  0  0
 11 33  1  0  0  0  0
 11 34  1  0  0  0  0
 12 14  1  0  0  0  0
 12 35  1  0  0  0  0
 12 36  1  0  0  0  0
 13 37  1  0  0  0  0
 13 38  1  0  0  0  0
 14 39  1  0  0  0  0
 14 40  1  0  0  0  0
 15 17  1  0  0  0  0
 16 20  2  0  0  0  0
 16 21  1  0  0  0  0
 17 41  1  0  0  0  0
 17 42  1  0  0  0  0
 18 19  2  0  0  0  0
 19 22  1  0  0  0  0
 19 25  1  0  0  0  0
 20 23  1  0  0  0  0
 20 44  1  0  0  0  0
 21 24  2  0  0  0  0
 21 45  1  0  0  0  0
 22 26  2  0  0  0  0
 23 27  2  0  0  0  0
 24 27  1  0  0  0  0
 24 46  1  0  0  0  0
 25 28  2  0  0  0  0
 25 47  1  0  0  0  0
 28 29  1  0  0  0  0
 28 48  1  0  0  0  0
 29 49  1  0  0  0  0
 30 31  1  0  0  0  0
 30 50  1  0  0  0  0
 31 51  1  0  0  0  0
 32 52  1  0  0  0  0
 32 53  1  0  0  0  0
 32 54  1  0  0  0  0
M  END
> <PUBCHEM_COMPOUND_CID>
25016615

> <PUBCHEM_CONFORMER_RMSD>
1

> <PUBCHEM_CONFORMER_DIVERSEORDER>
1
162
120
46
150
61
84
24
81
156
173
13
101
11
140
154
192
50
76
102
117
182
136
157
87
20
78
166
26
128
96
131
170
105
103
16
171
35
107
149
47
60
180
38
139
37
133
64
3
71
153
59
179
32
42
125
5
83
104
72
2
127
53
90
112
40
134
63
148
95
190
168
161
91
124
48
183
12
187
174
7
158
114
106
30
56
43
93
135
66
77
177
121
167
36
54
113
9
97
33
34
70
163
88
98
10
152
165
45
147
130
31
75
92
155
65
100
175
110
22
146
67
108
52
18
145
99
184
185
94
126
25
39
23
29
186
143
123
144
80
159
160
164
189
57
132
86
89
21
49
4
151
82
73
129
19
188
141
169
17
176
191
138
69
115
41
109
27
68
85
172
51
111
44
116
55
122
28
79
62
58
181
178
15
119
74
8
118
14
142
137
6

> <PUBCHEM_MMFF94_PARTIAL_CHARGES>
41
1 -0.18
10 -0.62
11 0.3
12 0.3
13 0.37
14 0.37
15 0.57
16 0.1
17 0.43
18 0.41
19 0.03
2 -0.57
20 -0.15
21 -0.15
22 0.07
23 0.08
24 -0.15
25 -0.15
26 0.34
27 0.18
28 -0.15
29 0.16
3 -0.36
30 0.39
31 0.39
32 0.28
4 -0.66
43 0.4
44 0.15
45 0.15
46 0.15
47 0.15
48 0.15
49 0.15
5 -0.84
50 0.06
51 0.06
6 -0.47
7 -0.5
8 -0.62
9 -0.62

> <PUBCHEM_EFFECTIVE_ROTOR_COUNT>
6.6

> <PUBCHEM_PHARMACOPHORE_FEATURES>
12
1 10 acceptor
1 2 acceptor
1 3 acceptor
1 5 cation
1 7 donor
1 8 acceptor
1 9 acceptor
5 6 7 18 19 22 rings
5 9 10 26 30 31 rings
6 16 20 21 23 24 27 rings
6 4 5 11 12 13 14 rings
6 8 18 19 25 28 29 rings

> <PUBCHEM_HEAVY_ATOM_COUNT>
32

> <PUBCHEM_ATOM_DEF_STEREO_COUNT>
0

> <PUBCHEM_ATOM_UDEF_STEREO_COUNT>
0

> <PUBCHEM_BOND_DEF_STEREO_COUNT>
0

> <PUBCHEM_BOND_UDEF_STEREO_COUNT>
0

> <PUBCHEM_ISOTOPIC_ATOM_COUNT>
0

> <PUBCHEM_COMPONENT_COUNT>
1

> <PUBCHEM_CACTVS_TAUTO_COUNT>
2

> <PUBCHEM_CONFORMER_ID>
017DB92700000001

> <PUBCHEM_MMFF94_ENERGY>
132.8524

> <PUBCHEM_FEATURE_SELFOVERLAP>
61.049

> <PUBCHEM_SHAPE_FINGERPRINT>
10692045 39 17967811622114479771
10883706 89 17969497100530339635
11399510 152 17533790569648359609
12107183 9 18261101989827522018
12107698 1 17967807237179515568
12342043 65 15719657780998128998
12422481 6 18113333094352454797
12633257 1 18186794816500335734
13150687 139 11239717548430251456
13533116 47 17385439942844868124
13540713 5 18047182231772451438
13673619 4 16298375830773609958
13690498 29 8718835301482236547
13782708 43 15719385122982382018
14294032 229 17917422150848155924
14347424 109 17967529095060516524
15183329 4 18059864986798282369
15238133 3 18130505336138376792
15475509 35 16298656227665699674
1577012 14 18336547217744613231
15776043 110 17749097860386630850
16989378 47 7997676581047257361
19053607 189 18060427906169785741
19246450 95 17898830380059041632
20554085 129 17561361798699077406
20721686 146 17488735827029784968
21585481 104 12894810103465568499
21814621 53 16515398582509808061
21987483 16 17678464289000697331
22033318 11 18261960643736438144
22149856 69 17845673503363394003
23516275 100 15841540912326119104
23559900 14 18129400231730732358
24771750 20 14043174295130731163
249057 25 18337664321542869263
2748736 6 18343022181950045149
34797466 226 14836409121032443583
3680242 22 18187648024152921092
3918712 181 17988645224657503817
4066623 53 15410631250724660576
44249763 50 16702013214955522695
44880168 125 14779551205796641547
5104073 3 18041284386517530651
513202 73 17313376804110247829
5470011 282 12607406594523150921
6058803 2 17830166162979278134
6371009 1 18341323466317599061
6695519 79 16844468174845076071
9555976 147 18339921627404836443
9849439 229 18059857315564178590

> <PUBCHEM_SHAPE_MULTIPOLES>
613.81
22.89
3.22
2.33
25.55
1.67
-1.02
7.85
-16.53
-1.71
1.02
-4.14
0.19
-5.55

> <PUBCHEM_SHAPE_SELFOVERLAP>
1336.305

> <PUBCHEM_SHAPE_VOLUME>
335.1

> <PUBCHEM_COORDINATE_TYPE>
2
5
10

$$$$
