
     RDKit          3D

 25 27  0  0  0  0  0  0  0  0999 V2000
   -0.3587   -1.8263    0.1377 O   0  0  0  0  0  0  0  0  0  0  0  0
   -1.0161   -0.9298    0.7493 C   0  0  0  0  0  0  0  0  0  0  0  0
   -0.4140    0.3706    0.7333 N   0  0  0  0  0  0  0  0  0  0  0  0
    0.5876    0.6972   -0.2016 N   0  0  0  0  0  0  0  0  0  0  0  0
    1.5220    1.5384    0.0201 C   0  0  0  0  0  0  0  0  0  0  0  0
    2.9404    1.2763   -0.2084 C   0  0  0  0  0  0  0  0  0  0  0  0
    3.8207    1.9296    0.6452 C   0  0  0  0  0  0  0  0  0  0  0  0
    5.0744    1.4577    0.9299 C   0  0  0  0  0  0  0  0  0  0  0  0
    6.1268    2.2339    2.3318 Br  0  0  0  0  0  0  0  0  0  0  0  0
    5.4151    0.2181    0.4354 C   0  0  0  0  0  0  0  0  0  0  0  0
    6.4791   -0.4583    1.0037 O   0  0  0  0  0  0  0  0  0  0  0  0
    4.7027   -0.2799   -0.6358 C   0  0  0  0  0  0  0  0  0  0  0  0
    5.3182   -1.8581   -1.5204 Br  0  0  0  0  0  0  0  0  0  0  0  0
    3.4102    0.1663   -0.8742 C   0  0  0  0  0  0  0  0  0  0  0  0
    2.5106   -0.5777   -1.6356 O   0  0  0  0  0  0  0  0  0  0  0  0
   -2.4732   -1.0700    0.8702 C   0  0  0  0  0  0  0  0  0  0  0  0
   -3.1037   -2.2319    0.4409 C   0  0  0  0  0  0  0  0  0  0  0  0
   -4.3954   -2.1874   -0.0732 C   0  0  0  0  0  0  0  0  0  0  0  0
   -4.9666   -0.9660   -0.4133 C   0  0  0  0  0  0  0  0  0  0  0  0
   -5.6482   -0.7838   -1.6112 C   0  0  0  0  0  0  0  0  0  0  0  0
   -6.3430    0.4014   -1.7408 C   0  0  0  0  0  0  0  0  0  0  0  0
   -6.2243    1.4124   -0.7962 C   0  0  0  0  0  0  0  0  0  0  0  0
   -5.1198    1.3292    0.0418 C   0  0  0  0  0  0  0  0  0  0  0  0
   -4.5329    0.1092    0.3538 C   0  0  0  0  0  0  0  0  0  0  0  0
   -3.3121    0.0288    1.0130 C   0  0  0  0  0  0  0  0  0  0  0  0
  1  2  2  0
  2  3  1  0
  3  4  1  0
  4  5  2  0
  5  6  1  0
  6  7  2  0
  7  8  1  0
  8  9  1  0
  8 10  2  0
 10 11  1  0
 10 12  1  0
 12 13  1  0
 12 14  2  0
 14 15  1  0
  2 16  1  0
 16 17  2  0
 17 18  1  0
 18 19  2  0
 19 20  1  0
 20 21  2  0
 21 22  1  0
 22 23  2  0
 23 24  1  0
 24 25  2  0
 14  6  1  0
 25 16  1  0
 24 19  1  0
M  END
>  <zinc_id>  (1) 
ZINC000040422706

>  <smiles>  (1) 
O=C(N/N=C/c1cc(Br)c(O)c(Br)c1O)c1ccc2ccccc2c1

$$$$
