
     RDKit          3D

 22 23  0  0  0  0  0  0  0  0999 V2000
    2.6277   -2.9073    1.9384 C   0  0  0  0  0  0  0  0  0  0  0  0
    3.3075   -2.3995    0.8199 O   0  0  0  0  0  0  0  0  0  0  0  0
    2.7873   -1.4383   -0.0365 C   0  0  0  0  0  0  0  0  0  0  0  0
    1.4454   -1.3990   -0.3880 C   0  0  0  0  0  0  0  0  0  0  0  0
    0.9219   -0.3871   -1.1845 C   0  0  0  0  0  0  0  0  0  0  0  0
   -0.4968   -0.1804   -1.1596 N   0  0  0  0  0  0  0  0  0  0  0  0
   -1.0993   -0.2526   -0.0592 N   0  0  0  0  0  0  0  0  0  0  0  0
   -2.1259    0.6193    0.3732 C   0  0  0  0  0  0  0  0  0  0  0  0
   -1.8331    1.8465    0.9558 C   0  0  0  0  0  0  0  0  0  0  0  0
   -2.7755    2.4069    1.8081 C   0  0  0  0  0  0  0  0  0  0  0  0
   -3.8569    1.6757    2.2766 C   0  0  0  0  0  0  0  0  0  0  0  0
   -4.2629    0.6056    1.4955 C   0  0  0  0  0  0  0  0  0  0  0  0
   -3.4231    0.1366    0.4951 C   0  0  0  0  0  0  0  0  0  0  0  0
   -3.8446   -0.9347   -0.4170 C   0  0  0  0  0  0  0  0  0  0  0  0
   -3.5297   -0.8662   -1.6405 O   0  0  0  0  0  0  0  0  0  0  0  0
   -4.1988   -2.1965    0.0630 O   0  0  0  0  0  0  0  0  0  0  0  0
    1.6764    0.7803   -1.2135 C   0  0  0  0  0  0  0  0  0  0  0  0
    3.0332    0.7870   -0.9811 C   0  0  0  0  0  0  0  0  0  0  0  0
    3.8093    1.9233   -0.9559 O   0  0  0  0  0  0  0  0  0  0  0  0
    3.3153    3.2356   -0.9901 C   0  0  0  0  0  0  0  0  0  0  0  0
    3.5766   -0.4086   -0.5283 C   0  0  0  0  0  0  0  0  0  0  0  0
    4.9458   -0.6465   -0.6714 O   0  0  0  0  0  0  0  0  0  0  0  0
  1  2  1  0
  2  3  1  0
  3  4  2  0
  4  5  1  0
  5  6  1  0
  6  7  2  0
  7  8  1  0
  8  9  2  0
  9 10  1  0
 10 11  2  0
 11 12  1  0
 12 13  2  0
 13 14  1  0
 14 15  2  0
 14 16  1  0
  5 17  2  0
 17 18  1  0
 18 19  1  0
 19 20  1  0
 18 21  2  0
 21 22  1  0
 21  3  1  0
 13  8  1  0
M  END
>  <zinc_id>  (1) 
ZINC000038311600

>  <smiles>  (1) 
COc1cc(/N=N/c2ccccc2C(=O)O)cc(OC)c1O

$$$$
