446415
  -OEChem-06112217063D

 42 44  0     1  0  0  0  0  0999 V2000
   -1.6568    0.0563   -0.3647 O   0  0  0  0  0  0  0  0  0  0  0  0
   -4.0027    0.0134    1.9721 O   0  0  0  0  0  0  0  0  0  0  0  0
   -3.4510    2.5367   -1.5413 O   0  0  0  0  0  0  0  0  0  0  0  0
   -1.3078   -0.3336    1.8770 O   0  0  0  0  0  0  0  0  0  0  0  0
   -0.9073   -3.1436    0.0978 O   0  0  0  0  0  0  0  0  0  0  0  0
    2.7850    3.0654    0.5754 O   0  0  0  0  0  0  0  0  0  0  0  0
   -2.8888    0.7069   -0.0694 C   0  0  0  0  0  0  0  0  0  0  0  0
   -3.8519   -0.2867    0.5939 C   0  0  2  0  0  0  0  0  0  0  0  0
   -3.5551    1.1301   -1.3843 C   0  0  1  0  0  0  0  0  0  0  0  0
   -5.1399   -0.0467   -0.1176 C   0  0  0  0  0  0  0  0  0  0  0  0
   -4.9788    0.7253   -1.1955 C   0  0  0  0  0  0  0  0  0  0  0  0
    0.2900   -1.0672    0.2663 C   0  0  0  0  0  0  0  0  0  0  0  0
    1.4868   -0.3434    0.1404 C   0  0  0  0  0  0  0  0  0  0  0  0
   -0.9511   -0.4255    0.6998 C   0  0  0  0  0  0  0  0  0  0  0  0
    2.6594   -1.0134   -0.2828 C   0  0  0  0  0  0  0  0  0  0  0  0
    3.8564   -0.2897   -0.4089 C   0  0  0  0  0  0  0  0  0  0  0  0
    0.2497   -2.4318   -0.0211 C   0  0  0  0  0  0  0  0  0  0  0  0
    1.5460    1.0306    0.4255 C   0  0  0  0  0  0  0  0  0  0  0  0
    2.6004   -2.3872   -0.5681 C   0  0  0  0  0  0  0  0  0  0  0  0
    2.7438    1.7339    0.2951 C   0  0  0  0  0  0  0  0  0  0  0  0
    1.4026   -3.0907   -0.4377 C   0  0  0  0  0  0  0  0  0  0  0  0
    3.8968    1.0749   -0.1215 C   0  0  0  0  0  0  0  0  0  0  0  0
    5.1323   -0.9365   -0.8515 C   0  0  0  0  0  0  0  0  0  0  0  0
    4.0418    3.7227    0.4210 C   0  0  0  0  0  0  0  0  0  0  0  0
   -2.6783    1.5776    0.5670 H   0  0  0  0  0  0  0  0  0  0  0  0
   -3.5526   -1.3353    0.4882 H   0  0  0  0  0  0  0  0  0  0  0  0
   -3.1123    0.6437   -2.2601 H   0  0  0  0  0  0  0  0  0  0  0  0
   -6.0859   -0.4713    0.1868 H   0  0  0  0  0  0  0  0  0  0  0  0
   -5.7785    1.0004   -1.8683 H   0  0  0  0  0  0  0  0  0  0  0  0
   -3.1428   -0.1215    2.4032 H   0  0  0  0  0  0  0  0  0  0  0  0
   -3.9182    2.7770   -2.3598 H   0  0  0  0  0  0  0  0  0  0  0  0
    0.6654    1.5791    0.7533 H   0  0  0  0  0  0  0  0  0  0  0  0
    3.4747   -2.9435   -0.8963 H   0  0  0  0  0  0  0  0  0  0  0  0
    1.3856   -4.1534   -0.6650 H   0  0  0  0  0  0  0  0  0  0  0  0
    4.8501    1.5796   -0.2374 H   0  0  0  0  0  0  0  0  0  0  0  0
    5.9649   -0.2255   -0.8939 H   0  0  0  0  0  0  0  0  0  0  0  0
    5.4247   -1.7271   -0.1524 H   0  0  0  0  0  0  0  0  0  0  0  0
    5.0215   -1.3567   -1.8567 H   0  0  0  0  0  0  0  0  0  0  0  0
   -0.7383   -4.0702   -0.1445 H   0  0  0  0  0  0  0  0  0  0  0  0
    3.8903    4.7742    0.6860 H   0  0  0  0  0  0  0  0  0  0  0  0
    4.3821    3.7027   -0.6200 H   0  0  0  0  0  0  0  0  0  0  0  0
    4.7924    3.3252    1.1127 H   0  0  0  0  0  0  0  0  0  0  0  0
  1  7  1  0  0  0  0
  1 14  1  0  0  0  0
  2  8  1  0  0  0  0
  2 30  1  0  0  0  0
  3  9  1  0  0  0  0
  3 31  1  0  0  0  0
  4 14  2  0  0  0  0
  5 17  1  0  0  0  0
  5 39  1  0  0  0  0
  6 20  1  0  0  0  0
  6 24  1  0  0  0  0
  7  8  1  0  0  0  0
  7  9  1  0  0  0  0
  7 25  1  0  0  0  0
  8 10  1  0  0  0  0
  8 26  1  0  0  0  0
  9 11  1  0  0  0  0
  9 27  1  0  0  0  0
 10 11  2  0  0  0  0
 10 28  1  0  0  0  0
 11 29  1  0  0  0  0
 12 13  1  0  0  0  0
 12 14  1  0  0  0  0
 12 17  2  0  0  0  0
 13 15  2  0  0  0  0
 13 18  1  0  0  0  0
 15 16  1  0  0  0  0
 15 19  1  0  0  0  0
 16 22  2  0  0  0  0
 16 23  1  0  0  0  0
 17 21  1  0  0  0  0
 18 20  2  0  0  0  0
 18 32  1  0  0  0  0
 19 21  2  0  0  0  0
 19 33  1  0  0  0  0
 20 22  1  0  0  0  0
 21 34  1  0  0  0  0
 22 35  1  0  0  0  0
 23 36  1  0  0  0  0
 23 37  1  0  0  0  0
 23 38  1  0  0  0  0
 24 40  1  0  0  0  0
 24 41  1  0  0  0  0
 24 42  1  0  0  0  0
M  END
> <PUBCHEM_COMPOUND_CID>
446415

> <PUBCHEM_CONFORMER_RMSD>
0.8

> <PUBCHEM_CONFORMER_DIVERSEORDER>
1
32
21
15
22
5
13
25
30
29
6
18
11
34
26
14
16
33
23
8
31
2
7
3
12
24
4
17
19
20
27
28
10
9

> <PUBCHEM_MMFF94_PARTIAL_CHARGES>
31
1 -0.43
10 -0.29
11 -0.29
12 0.09
14 0.63
16 -0.14
17 0.08
18 -0.15
19 -0.15
2 -0.68
20 0.08
21 -0.15
22 -0.15
23 0.14
24 0.28
28 0.15
29 0.15
3 -0.68
30 0.4
31 0.4
32 0.15
33 0.15
34 0.15
35 0.15
39 0.45
4 -0.57
5 -0.53
6 -0.36
7 0.28
8 0.42
9 0.42

> <PUBCHEM_EFFECTIVE_ROTOR_COUNT>
4.6

> <PUBCHEM_PHARMACOPHORE_FEATURES>
10
1 2 acceptor
1 2 donor
1 3 acceptor
1 3 donor
1 4 acceptor
1 5 donor
1 6 acceptor
5 7 8 9 10 11 rings
6 12 13 15 17 19 21 rings
6 13 15 16 18 20 22 rings

> <PUBCHEM_HEAVY_ATOM_COUNT>
24

> <PUBCHEM_ATOM_DEF_STEREO_COUNT>
2

> <PUBCHEM_ATOM_UDEF_STEREO_COUNT>
0

> <PUBCHEM_BOND_DEF_STEREO_COUNT>
0

> <PUBCHEM_BOND_UDEF_STEREO_COUNT>
0

> <PUBCHEM_ISOTOPIC_ATOM_COUNT>
0

> <PUBCHEM_COMPONENT_COUNT>
1

> <PUBCHEM_CACTVS_TAUTO_COUNT>
4

> <PUBCHEM_CONFORMER_ID>
0006CFCF00000001

> <PUBCHEM_MMFF94_ENERGY>
84.3584

> <PUBCHEM_FEATURE_SELFOVERLAP>
50.78

> <PUBCHEM_SHAPE_FINGERPRINT>
10366900 7 18187647964387232677
10411042 1 17908427957414438742
10693767 8 17844527708783350358
11725454 13 17967525774908255107
12236239 1 17275106098386268555
12403259 415 18333455360787577681
12730499 353 18408608058767403539
12769317 202 18340757183047789864
12788726 201 16534257070609631059
13009979 54 17057248735409967706
13034934 17 18189340237426018241
13134695 92 18122336883392612838
13140716 1 18340211916081206138
13402501 40 18260828176834954460
13540713 4 18126016103287615018
13583140 156 18040157313863090242
14468879 13 18115589386459084921
15081414 286 18271536282387155246
15961568 22 17458349679526976804
17134986 127 18411696629995472262
17349148 13 17917714556938718602
18186145 218 18272089391852992139
19930381 70 18411414046812139405
20645477 56 18264208178705282464
20645477 70 18269835320176103119
21033648 144 18340770454702274604
21033648 29 18187361047328729517
21709351 56 18271241629833452773
221357 26 18339355258741570661
22289505 5 18265046938599749764
22393880 68 18411411783248089991
23227448 37 18339920549156483319
23557571 272 17531261564757010139
23558518 356 17901664096839856298
23559900 14 18131073775276299778
238 59 18340762654719690646
3060560 45 18343019969867782126
335352 9 18341335578742500276
341906 21 16660359277509528509
350125 39 18124046868992674962
4371632 12 14831888165279292160
474 4 18271806860556880912
495365 180 18271515494513386168
5281201 14 18338516322715949669
6287921 2 18334583455596854005
6327066 14 18120646096513206500
633830 44 17916887766948800209
7399639 24 18261677068852366179
7471813 234 17489586732268851616
7808743 9 17975129065708966716

> <PUBCHEM_SHAPE_MULTIPOLES>
458.69
10.36
3.49
1.2
6.19
0.74
-0.17
4.77
2.19
-4.1
0.18
1.36
0.26
1.82

> <PUBCHEM_SHAPE_SELFOVERLAP>
1006.176

> <PUBCHEM_SHAPE_VOLUME>
250.3

> <PUBCHEM_COORDINATE_TYPE>
2
5
10

$$$$
