5283731
  -OEChem-10051719083D

 73 75  0     1  0  0  0  0  0999 V2000
    8.0473   -2.5448   -0.1733 O   0  0  0  0  0  0  0  0  0  0  0  0
   -6.9060   -0.9022   -2.0754 O   0  0  0  0  0  0  0  0  0  0  0  0
    0.8687    1.4921    0.2510 C   0  0  2  0  0  0  0  0  0  0  0  0
    2.1731    0.6854    0.4762 C   0  0  2  0  0  0  0  0  0  0  0  0
   -0.0821    0.3345   -0.1429 C   0  0  1  0  0  0  0  0  0  0  0  0
    1.7076   -0.5828    1.2218 C   0  0  0  0  0  0  0  0  0  0  0  0
    0.2133   -0.7488    0.8993 C   0  0  0  0  0  0  0  0  0  0  0  0
    0.9565    2.5162   -0.9054 C   0  0  0  0  0  0  0  0  0  0  0  0
    3.3051    1.4103    1.1900 C   0  0  1  0  0  0  0  0  0  0  0  0
   -1.4891    0.8177   -0.3792 C   0  0  0  0  0  0  0  0  0  0  0  0
    0.4290    2.2253    1.5450 C   0  0  0  0  0  0  0  0  0  0  0  0
   -0.2778    2.5123   -1.8281 C   0  0  0  0  0  0  0  0  0  0  0  0
   -1.5887    2.1320   -1.1270 C   0  0  0  0  0  0  0  0  0  0  0  0
    4.5403    0.5137    1.4192 C   0  0  0  0  0  0  0  0  0  0  0  0
    3.6724    2.7013    0.4537 C   0  0  0  0  0  0  0  0  0  0  0  0
   -2.5903    0.1615    0.0151 C   0  0  0  0  0  0  0  0  0  0  0  0
    5.1521   -0.0945    0.1507 C   0  0  0  0  0  0  0  0  0  0  0  0
    6.3366   -1.0033    0.4983 C   0  0  0  0  0  0  0  0  0  0  0  0
   -3.9273    0.6402   -0.2337 C   0  0  0  0  0  0  0  0  0  0  0  0
    6.9900   -1.7287   -0.6959 C   0  0  0  0  0  0  0  0  0  0  0  0
   -5.0299   -0.0162    0.1608 C   0  0  0  0  0  0  0  0  0  0  0  0
   -6.4181    0.4941   -0.1558 C   0  0  0  0  0  0  0  0  0  0  0  0
    7.6098   -0.7582   -1.7035 C   0  0  0  0  0  0  0  0  0  0  0  0
    6.0177   -2.6751   -1.4011 C   0  0  0  0  0  0  0  0  0  0  0  0
   -4.9811   -1.2837    0.8827 C   0  0  0  0  0  0  0  0  0  0  0  0
   -7.3250   -0.5910   -0.7481 C   0  0  2  0  0  0  0  0  0  0  0  0
   -5.8748   -2.3677    0.3324 C   0  0  0  0  0  0  0  0  0  0  0  0
   -7.3027   -1.8666    0.0965 C   0  0  0  0  0  0  0  0  0  0  0  0
   -4.2265   -1.4732    1.9766 C   0  0  0  0  0  0  0  0  0  0  0  0
    2.5261    0.3676   -0.5151 H   0  0  0  0  0  0  0  0  0  0  0  0
    0.2550   -0.0769   -1.1089 H   0  0  0  0  0  0  0  0  0  0  0  0
    2.2760   -1.4594    0.8919 H   0  0  0  0  0  0  0  0  0  0  0  0
    1.8374   -0.4965    2.3067 H   0  0  0  0  0  0  0  0  0  0  0  0
   -0.0009   -1.7509    0.5126 H   0  0  0  0  0  0  0  0  0  0  0  0
   -0.3813   -0.6143    1.8103 H   0  0  0  0  0  0  0  0  0  0  0  0
    1.8264    2.3261   -1.5434 H   0  0  0  0  0  0  0  0  0  0  0  0
    1.0718    3.5338   -0.5149 H   0  0  0  0  0  0  0  0  0  0  0  0
    2.9729    1.7030    2.1947 H   0  0  0  0  0  0  0  0  0  0  0  0
    0.3895    1.5560    2.4102 H   0  0  0  0  0  0  0  0  0  0  0  0
   -0.5641    2.6730    1.4449 H   0  0  0  0  0  0  0  0  0  0  0  0
    1.1071    3.0438    1.8041 H   0  0  0  0  0  0  0  0  0  0  0  0
   -0.0988    1.8014   -2.6464 H   0  0  0  0  0  0  0  0  0  0  0  0
   -0.3813    3.4959   -2.3019 H   0  0  0  0  0  0  0  0  0  0  0  0
   -1.8673    2.9336   -0.4331 H   0  0  0  0  0  0  0  0  0  0  0  0
   -2.3531    2.0837   -1.9110 H   0  0  0  0  0  0  0  0  0  0  0  0
    4.2723   -0.2965    2.1087 H   0  0  0  0  0  0  0  0  0  0  0  0
    5.3102    1.0994    1.9387 H   0  0  0  0  0  0  0  0  0  0  0  0
    2.9243    3.4849    0.5751 H   0  0  0  0  0  0  0  0  0  0  0  0
    4.5977    3.1174    0.8707 H   0  0  0  0  0  0  0  0  0  0  0  0
    3.8563    2.5309   -0.6112 H   0  0  0  0  0  0  0  0  0  0  0  0
   -2.4325   -0.8052    0.4727 H   0  0  0  0  0  0  0  0  0  0  0  0
    4.3990   -0.6831   -0.3785 H   0  0  0  0  0  0  0  0  0  0  0  0
    5.4797    0.7066   -0.5193 H   0  0  0  0  0  0  0  0  0  0  0  0
    7.1044   -0.4152    1.0193 H   0  0  0  0  0  0  0  0  0  0  0  0
    6.0134   -1.7569    1.2299 H   0  0  0  0  0  0  0  0  0  0  0  0
   -4.0648    1.5805   -0.7569 H   0  0  0  0  0  0  0  0  0  0  0  0
   -6.3657    1.3371   -0.8562 H   0  0  0  0  0  0  0  0  0  0  0  0
   -6.8666    0.8713    0.7724 H   0  0  0  0  0  0  0  0  0  0  0  0
    8.1692   -1.2990   -2.4757 H   0  0  0  0  0  0  0  0  0  0  0  0
    6.8540   -0.1434   -2.2014 H   0  0  0  0  0  0  0  0  0  0  0  0
    8.3288   -0.0949   -1.2098 H   0  0  0  0  0  0  0  0  0  0  0  0
    5.2119   -2.1374   -1.9097 H   0  0  0  0  0  0  0  0  0  0  0  0
    6.5375   -3.2853   -2.1491 H   0  0  0  0  0  0  0  0  0  0  0  0
    5.5720   -3.3774   -0.6875 H   0  0  0  0  0  0  0  0  0  0  0  0
   -8.3512   -0.2150   -0.8181 H   0  0  0  0  0  0  0  0  0  0  0  0
   -5.4475   -2.7402   -0.6072 H   0  0  0  0  0  0  0  0  0  0  0  0
   -5.9140   -3.2280    1.0122 H   0  0  0  0  0  0  0  0  0  0  0  0
    8.4784   -2.9979   -0.9180 H   0  0  0  0  0  0  0  0  0  0  0  0
   -7.8734   -2.6571   -0.4049 H   0  0  0  0  0  0  0  0  0  0  0  0
   -7.7852   -1.6724    1.0626 H   0  0  0  0  0  0  0  0  0  0  0  0
   -4.2239   -2.4301    2.4895 H   0  0  0  0  0  0  0  0  0  0  0  0
   -3.6295   -0.6861    2.4258 H   0  0  0  0  0  0  0  0  0  0  0  0
   -5.9617   -1.1292   -2.0629 H   0  0  0  0  0  0  0  0  0  0  0  0
  1 20  1  0  0  0  0
  1 68  1  0  0  0  0
  2 26  1  0  0  0  0
  2 73  1  0  0  0  0
  3  4  1  0  0  0  0
  3  5  1  0  0  0  0
  3  8  1  0  0  0  0
  3 11  1  0  0  0  0
  4  6  1  0  0  0  0
  4  9  1  0  0  0  0
  4 30  1  0  0  0  0
  5  7  1  0  0  0  0
  5 10  1  0  0  0  0
  5 31  1  0  0  0  0
  6  7  1  0  0  0  0
  6 32  1  0  0  0  0
  6 33  1  0  0  0  0
  7 34  1  0  0  0  0
  7 35  1  0  0  0  0
  8 12  1  0  0  0  0
  8 36  1  0  0  0  0
  8 37  1  0  0  0  0
  9 14  1  0  0  0  0
  9 15  1  0  0  0  0
  9 38  1  0  0  0  0
 10 13  1  0  0  0  0
 10 16  2  0  0  0  0
 11 39  1  0  0  0  0
 11 40  1  0  0  0  0
 11 41  1  0  0  0  0
 12 13  1  0  0  0  0
 12 42  1  0  0  0  0
 12 43  1  0  0  0  0
 13 44  1  0  0  0  0
 13 45  1  0  0  0  0
 14 17  1  0  0  0  0
 14 46  1  0  0  0  0
 14 47  1  0  0  0  0
 15 48  1  0  0  0  0
 15 49  1  0  0  0  0
 15 50  1  0  0  0  0
 16 19  1  0  0  0  0
 16 51  1  0  0  0  0
 17 18  1  0  0  0  0
 17 52  1  0  0  0  0
 17 53  1  0  0  0  0
 18 20  1  0  0  0  0
 18 54  1  0  0  0  0
 18 55  1  0  0  0  0
 19 21  2  0  0  0  0
 19 56  1  0  0  0  0
 20 23  1  0  0  0  0
 20 24  1  0  0  0  0
 21 22  1  0  0  0  0
 21 25  1  0  0  0  0
 22 26  1  0  0  0  0
 22 57  1  0  0  0  0
 22 58  1  0  0  0  0
 23 59  1  0  0  0  0
 23 60  1  0  0  0  0
 23 61  1  0  0  0  0
 24 62  1  0  0  0  0
 24 63  1  0  0  0  0
 24 64  1  0  0  0  0
 25 27  1  0  0  0  0
 25 29  2  0  0  0  0
 26 28  1  0  0  0  0
 26 65  1  0  0  0  0
 27 28  1  0  0  0  0
 27 66  1  0  0  0  0
 27 67  1  0  0  0  0
 28 69  1  0  0  0  0
 28 70  1  0  0  0  0
 29 71  1  0  0  0  0
 29 72  1  0  0  0  0
M  END
> <DATABASE_ID>
DB00146

> <DATABASE_NAME>
drugbank

> <ORIGINAL_SOURCE>
PUBCHEM

> <ORIGINAL_SOURCE_URL>
https://pubchem.ncbi.nlm.nih.gov/rest/pug/compound/inchikey/JWUBBDSIWDLEOM-DTOXIADCSA-N/SDF?record_type=3d

> <SMILES>
C[C@H](CCCC(C)(C)O)[C@@]1([H])CC[C@@]2([H])\C(CCC[C@]12C)=C\C=C1\C[C@@H](O)CCC1=C

> <INCHI_IDENTIFIER>
InChI=1S/C27H44O2/c1-19-10-13-23(28)18-22(19)12-11-21-9-7-17-27(5)24(14-15-25(21)27)20(2)8-6-16-26(3,4)29/h11-12,20,23-25,28-29H,1,6-10,13-18H2,2-5H3/b21-11+,22-12-/t20-,23+,24-,25+,27-/m1/s1

> <INCHI_KEY>
JWUBBDSIWDLEOM-DTOXIADCSA-N

> <FORMULA>
C27H44O2

> <MOLECULAR_WEIGHT>
400.6371

> <EXACT_MASS>
400.334130652

> <JCHEM_ACCEPTOR_COUNT>
2

> <JCHEM_ATOM_COUNT>
73

> <JCHEM_AVERAGE_NEUTRAL_MICROSPECIES_CHARGE>
1.2938629910064985e-08

> <JCHEM_AVERAGE_POLARIZABILITY>
50.3826472736591

> <JCHEM_BIOAVAILABILITY>
1

> <JCHEM_DONOR_COUNT>
2

> <JCHEM_FORMAL_CHARGE>
0

> <JCHEM_GHOSE_FILTER>
0

> <JCHEM_IUPAC>
(1S,3Z)-3-{2-[(1R,3aS,4E,7aR)-1-[(2R)-6-hydroxy-6-methylheptan-2-yl]-7a-methyl-octahydro-1H-inden-4-ylidene]ethylidene}-4-methylidenecyclohexan-1-ol

> <ALOGPS_LOGP>
6.71

> <JCHEM_LOGP>
5.654346069666669

> <ALOGPS_LOGS>
-5.26

> <JCHEM_MDDR_LIKE_RULE>
1

> <JCHEM_NEUTRAL_CHARGE>
0

> <JCHEM_NUMBER_OF_RINGS>
3

> <JCHEM_PHYSIOLOGICAL_CHARGE>
0

> <JCHEM_PKA>
18.53076846661296

> <JCHEM_PKA_STRONGEST_ACIDIC>
18.384341369959035

> <JCHEM_PKA_STRONGEST_BASIC>
-0.9842558878714639

> <JCHEM_POLAR_SURFACE_AREA>
40.46

> <JCHEM_REFRACTIVITY>
125.06059999999997

> <JCHEM_ROTATABLE_BOND_COUNT>
6

> <JCHEM_RULE_OF_FIVE>
0

> <ALOGPS_SOLUBILITY>
2.20e-03 g/l

> <JCHEM_TRADITIONAL_IUPAC>
tetrahydrofolic acid

> <JCHEM_VEBER_RULE>
0

$$$$
