
     RDKit          3D

 56 59  0  0  0  0  0  0  0  0999 V2000
   -0.9059    7.1188    1.3676 C   0  0  0  0  0  0  0  0  0  0  0  0
   -0.7953    5.7332    1.3294 C   0  0  0  0  0  0  0  0  0  0  0  0
   -1.5676    5.3641   -0.0690 C   0  0  2  0  0  0  0  0  0  0  0  0
   -2.5229    4.3056    0.6787 C   0  0  0  0  0  0  0  0  0  0  0  0
   -3.7448    4.1135    0.1625 C   0  0  0  0  0  0  0  0  0  0  0  0
   -4.9175    5.0115    0.4492 C   0  0  0  0  0  0  0  0  0  0  0  0
   -3.8761    2.7292   -0.3004 C   0  0  0  0  0  0  0  0  0  0  0  0
   -5.4022    2.2098   -0.1097 C   0  0  2  0  0  0  0  0  0  0  0  0
   -5.5030    2.6893    1.4515 C   0  0  0  0  0  0  0  0  0  0  0  0
   -5.0296    0.7010    0.3586 C   0  0  0  0  0  0  0  0  0  0  0  0
   -3.5198    0.4383   -0.2006 C   0  0  2  0  0  0  0  0  0  0  0  0
   -3.9279    0.1485   -1.6208 O   0  0  0  0  0  0  0  0  0  0  0  0
   -5.2206   -0.2032   -1.7158 C   0  0  0  0  0  0  0  0  0  0  0  0
   -3.6979   -1.1960    0.2510 C   0  0  1  0  0  0  0  0  0  0  0  0
   -2.4144   -1.6660   -0.3649 O   0  0  0  0  0  0  0  0  0  0  0  0
   -2.3424   -2.9960   -0.1532 C   0  0  1  0  0  0  0  0  0  0  0  0
   -3.7004   -3.2816   -0.4628 O   0  0  0  0  0  0  0  0  0  0  0  0
   -1.7422   -3.9059   -1.0983 C   0  0  0  0  0  0  0  0  0  0  0  0
   -2.2946   -4.9527   -1.5931 O   0  0  0  0  0  0  0  0  0  0  0  0
   -0.7707   -3.2397   -1.9999 C   0  0  0  0  0  0  0  0  0  0  0  0
   -0.7752   -3.4139   -3.2505 O   0  0  0  0  0  0  0  0  0  0  0  0
    0.3945   -2.5994   -1.4419 N   0  0  0  0  0  0  0  0  0  0  0  0
    1.6241   -2.9052   -2.1020 C   0  0  0  0  0  0  0  0  0  0  0  0
    2.4665   -3.9848   -1.6328 C   0  0  0  0  0  0  0  0  0  0  0  0
    2.2577   -4.3635   -0.2042 C   0  0  0  0  0  0  0  0  0  0  0  0
    0.8267   -4.3103    0.0397 C   0  0  0  0  0  0  0  0  0  0  0  0
    0.2843   -2.7463    0.1150 C   0  0  1  0  0  0  0  0  0  0  0  0
    1.7125   -2.1830    0.5336 C   0  0  0  0  0  0  0  0  0  0  0  0
    1.9972   -2.6859    1.6729 O   0  0  0  0  0  0  0  0  0  0  0  0
    2.0423   -0.8975    0.4200 O   0  0  0  0  0  0  0  0  0  0  0  0
    1.3165   -0.0208   -0.5972 C   0  0  2  0  0  0  0  0  0  0  0  0
    2.6931    0.6551   -1.0940 C   0  0  0  0  0  0  0  0  0  0  0  0
    2.5957    1.4768   -2.3647 C   0  0  0  0  0  0  0  0  0  0  0  0
    3.7831   -0.0798   -1.3011 C   0  0  0  0  0  0  0  0  0  0  0  0
    5.1015    0.8052   -0.9934 C   0  0  2  0  0  0  0  0  0  0  0  0
    6.1120   -0.4749   -1.1679 C   0  0  0  0  0  0  0  0  0  0  0  0
    7.4606    0.0156   -0.7315 C   0  0  0  0  0  0  0  0  0  0  0  0
    7.1997    1.2991    0.1231 C   0  0  2  0  0  0  0  0  0  0  0  0
    8.7328    1.1554    1.1726 Cl  0  0  0  0  0  0  0  0  0  0  0  0
    6.2478    0.7407    1.3930 C   0  0  2  0  0  0  0  0  0  0  0  0
    6.6313   -0.7304    1.3082 O   0  0  0  0  0  0  0  0  0  0  0  0
    5.7300   -1.3202    2.2141 C   0  0  0  0  0  0  0  0  0  0  0  0
    4.8619    0.5266    0.5792 C   0  0  0  0  0  0  0  0  0  0  0  0
    1.1257    1.1622    0.6151 C   0  0  2  0  0  0  0  0  0  0  0  0
   -0.4270    0.8811    0.8853 C   0  0  0  0  0  0  0  0  0  0  0  0
    0.9745    2.4486   -0.4817 C   0  0  1  0  0  0  0  0  0  0  0  0
   -0.2195    1.8764   -1.2093 O   0  0  0  0  0  0  0  0  0  0  0  0
    0.0230    3.3221    0.5325 C   0  0  0  0  0  0  0  0  0  0  0  0
   -0.4721    4.2723   -0.4943 C   0  0  0  0  0  0  0  0  0  0  0  0
    0.3565    4.8683   -1.1850 O   0  0  0  0  0  0  0  0  0  0  0  0
   -2.2122   -3.4632    1.3896 C   0  0  2  0  0  0  0  0  0  0  0  0
   -3.1841   -4.7719    1.2419 C   0  0  0  0  0  0  0  0  0  0  0  0
   -3.3812   -2.5521    2.0679 C   0  0  0  0  0  0  0  0  0  0  0  0
   -2.8238   -1.0496    1.7149 C   0  0  2  0  0  0  0  0  0  0  0  0
   -3.9537   -0.3656    2.4375 O   0  0  0  0  0  0  0  0  0  0  0  0
   -3.2069    0.2912    3.4353 C   0  0  0  0  0  0  0  0  0  0  0  0
  1  2  1  0
  3  2  1  1
  3  4  1  0
  4  5  2  0
  5  6  1  0
  5  7  1  0
  7  8  1  0
  8  9  1  1
  8 10  1  0
 10 11  1  0
 11 12  1  6
 12 13  1  0
 11 14  1  0
 14 15  1  6
 15 16  1  0
 16 17  1  6
 16 18  1  0
 18 19  2  0
 18 20  1  0
 20 21  2  0
 20 22  1  0
 22 23  1  0
 23 24  1  0
 24 25  1  0
 25 26  1  0
 27 26  1  6
 27 28  1  0
 28 29  2  0
 28 30  1  0
 30 31  1  0
 31 32  1  6
 32 33  1  0
 32 34  2  0
 35 34  1  6
 35 36  1  0
 36 37  1  0
 37 38  1  0
 38 39  1  1
 38 40  1  0
 40 41  1  6
 41 42  1  0
 40 43  1  0
 31 44  1  0
 44 45  1  6
 44 46  1  0
 46 47  1  6
 46 48  1  0
 48 49  1  0
 49 50  2  0
 16 51  1  0
 51 52  1  6
 51 53  1  0
 53 54  1  0
 54 55  1  1
 55 56  1  0
 49  3  1  0
 54 14  1  0
 27 22  1  0
 43 35  1  0
M  END
>  <zinc_id>  (1) 
ZINC000085536990

>  <smiles>  (1) 
CC[C@@H]1/C=C(\C)C[C@H](C)C[C@H](OC)[C@H]2O[C@@](O)(C(=O)C(=O)N3CCCC[C@H]3C(=O)O[C@H](/C(C)=C/[C@@H]3CC[C@H](Cl)[C@H](OC)C3)[C@H](C)[C@@H](O)CC1=O)[C@H](C)C[C@@H]2OC

$$$$
