
     RDKit          3D

 58 61  0  0  0  0  0  0  0  0999 V2000
    0.9607   -3.1427    1.8513 C   0  0  0  0  0  0  0  0  0  0  0  0
    1.4972   -3.2786    1.6777 C   0  0  0  0  0  0  0  0  0  0  0  0
    1.5348   -3.5280    0.0405 C   0  0  1  0  0  0  0  0  0  0  0  0
    1.0676   -2.1454   -0.1869 O   0  0  0  0  0  0  0  0  0  0  0  0
    0.0038   -1.5752   -0.0371 C   0  0  0  0  0  0  0  0  0  0  0  0
    0.1760   -0.9066   -1.1387 O   0  0  0  0  0  0  0  0  0  0  0  0
   -1.3428   -2.3285   -0.1624 C   0  0  2  0  0  0  0  0  0  0  0  0
   -1.0707   -2.8621   -1.6872 C   0  0  0  0  0  0  0  0  0  0  0  0
   -2.1797   -0.9004   -0.6439 C   0  0  1  0  0  0  0  0  0  0  0  0
   -3.2901   -1.1921    0.3212 O   0  0  0  0  0  0  0  0  0  0  0  0
   -4.3020   -1.6136   -0.7516 C   0  0  1  0  0  0  0  0  0  0  0  0
   -3.9008   -3.2140   -0.5923 C   0  0  0  0  0  0  0  0  0  0  0  0
   -5.1019   -3.9992   -0.4725 C   0  0  1  0  0  0  0  0  0  0  0  0
   -6.3170   -3.5929   -1.2422 C   0  0  0  0  0  0  0  0  0  0  0  0
   -4.8443   -5.3136   -0.7258 O   0  0  0  0  0  0  0  0  0  0  0  0
   -3.5023   -5.6020   -1.0151 C   0  0  0  0  0  0  0  0  0  0  0  0
   -5.5785   -3.9206    1.0900 C   0  0  1  0  0  0  0  0  0  0  0  0
   -4.3640   -4.6753    1.5701 O   0  0  0  0  0  0  0  0  0  0  0  0
   -4.7859   -2.4252    1.3897 C   0  0  2  0  0  0  0  0  0  0  0  0
   -5.9524   -1.9713    2.4436 C   0  0  0  0  0  0  0  0  0  0  0  0
   -5.4600   -1.7213    0.2456 O   0  0  0  0  0  0  0  0  0  0  0  0
   -1.2963    0.1972    0.3078 C   0  0  2  0  0  0  0  0  0  0  0  0
   -2.4537    0.6575    1.3244 C   0  0  0  0  0  0  0  0  0  0  0  0
   -1.4975    1.5671   -0.6740 C   0  0  1  0  0  0  0  0  0  0  0  0
   -1.1566    2.4828    0.4862 O   0  0  0  0  0  0  0  0  0  0  0  0
   -2.4391    3.2951    0.5808 C   0  0  2  0  0  0  0  0  0  0  0  0
   -2.4037    3.6714   -0.8964 O   0  0  0  0  0  0  0  0  0  0  0  0
   -3.5954    4.6057   -0.8753 C   0  0  2  0  0  0  0  0  0  0  0  0
   -3.6055    4.7792   -2.5087 C   0  0  0  0  0  0  0  0  0  0  0  0
   -2.5984    5.9074   -0.6622 C   0  0  0  0  0  0  0  0  0  0  0  0
   -2.8733    5.7053    0.9353 C   0  0  2  0  0  0  0  0  0  0  0  0
   -2.0732    6.9511    1.4122 N   0  0  0  0  0  0  0  0  0  0  0  0
   -1.8877    7.8758    0.3518 C   0  0  0  0  0  0  0  0  0  0  0  0
   -3.1827    7.5259    2.1908 C   0  0  0  0  0  0  0  0  0  0  0  0
   -1.5299    4.6743    1.0754 C   0  0  1  0  0  0  0  0  0  0  0  0
   -1.8440    4.3973    2.5086 O   0  0  0  0  0  0  0  0  0  0  0  0
    0.0110    1.7612   -1.2643 C   0  0  2  0  0  0  0  0  0  0  0  0
    0.1604    2.9494   -2.0509 C   0  0  0  0  0  0  0  0  0  0  0  0
    0.1380    0.7081   -2.2013 O   0  0  0  0  0  0  0  0  0  0  0  0
    1.0520    1.6672   -0.2255 C   0  0  0  0  0  0  0  0  0  0  0  0
    2.3490    0.9321   -0.8715 C   0  0  1  0  0  0  0  0  0  0  0  0
    3.0582    2.3336   -1.2542 C   0  0  0  0  0  0  0  0  0  0  0  0
    3.2003    0.8678    0.5912 C   0  0  2  0  0  0  0  0  0  0  0  0
    4.6323    0.7449    0.0007 N   0  0  0  0  0  0  0  0  0  0  0  0
    4.4254   -0.0275   -1.3530 C   0  0  1  0  0  0  0  0  0  0  0  0
    6.0150    0.1397   -1.7744 C   0  0  0  0  0  0  0  0  0  0  0  0
    6.7837   -0.1817   -0.7235 O   0  0  0  0  0  0  0  0  0  0  0  0
    7.5994    0.8331   -0.2151 C   0  0  0  0  0  0  0  0  0  0  0  0
    8.8483    0.1706    0.3597 C   0  0  0  0  0  0  0  0  0  0  0  0
    8.4049   -0.8144    1.2274 O   0  0  0  0  0  0  0  0  0  0  0  0
    9.0889   -2.0030    1.0569 C   0  0  0  0  0  0  0  0  0  0  0  0
    4.6007   -1.3678   -0.6275 O   0  0  0  0  0  0  0  0  0  0  0  0
    3.0931   -1.4438   -0.5448 C   0  0  2  0  0  0  0  0  0  0  0  0
    2.9072   -0.7463    0.9956 C   0  0  1  0  0  0  0  0  0  0  0  0
    4.3619   -0.9643    1.6314 C   0  0  0  0  0  0  0  0  0  0  0  0
    3.0910   -3.0046   -0.0897 C   0  0  1  0  0  0  0  0  0  0  0  0
    3.8807   -3.3732    0.9859 C   0  0  0  0  0  0  0  0  0  0  0  0
    3.4879   -3.5658   -1.3203 O   0  0  0  0  0  0  0  0  0  0  0  0
  1  2  1  0
  3  2  1  1
  3  4  1  0
  4  5  1  0
  5  6  2  0
  5  7  1  0
  7  8  1  6
  7  9  1  0
  9 10  1  1
 11 10  1  1
 11 12  1  0
 12 13  1  0
 13 14  1  6
 13 15  1  0
 15 16  1  0
 13 17  1  0
 17 18  1  1
 17 19  1  0
 19 20  1  1
 19 21  1  0
  9 22  1  0
 22 23  1  1
 22 24  1  0
 24 25  1  1
 26 25  1  6
 26 27  1  0
 27 28  1  0
 28 29  1  6
 28 30  1  0
 30 31  1  0
 31 32  1  1
 32 33  1  0
 32 34  1  0
 31 35  1  0
 35 36  1  1
 24 37  1  0
 37 38  1  6
 37 39  1  0
 37 40  1  0
 40 41  1  0
 41 42  1  6
 41 43  1  0
 43 44  1  6
 44 45  1  0
 45 46  1  6
 46 47  1  0
 47 48  1  0
 48 49  1  0
 49 50  1  0
 50 51  1  0
 45 52  1  0
 53 52  1  1
 53 54  1  0
 54 55  1  1
 53 56  1  0
 56 57  1  1
 56 58  1  0
 56  3  1  0
 21 11  1  0
 35 26  1  0
 54 43  1  0
M  END
>  <zinc_id>  (1) 
ZINC000096095661

>  <smiles>  (1) 
CC[C@H]1OC(=O)[C@H](C)[C@@H](O[C@H]2C[C@@](C)(OC)[C@@H](O)[C@H](C)O2)[C@H](C)[C@@H](O[C@@H]2O[C@H](C)C[C@H](N(C)C)[C@H]2O)[C@](C)(O)C[C@@H](C)[C@@H]2N[C@@H](COCCOC)O[C@H]([C@H]2C)[C@]1(C)O

$$$$
