
     RDKit          3D

 58 60  0  0  0  0  0  0  0  0999 V2000
   -1.9959    3.4513   -1.4242 C   0  0  0  0  0  0  0  0  0  0  0  0
   -1.9110    2.2521   -1.3792 O   0  0  0  0  0  0  0  0  0  0  0  0
   -2.5408    1.8236   -0.0838 C   0  0  1  0  0  0  0  0  0  0  0  0
   -4.0259    2.3016   -0.8228 C   0  0  2  0  0  0  0  0  0  0  0  0
   -4.2656    3.3736    0.2438 O   0  0  0  0  0  0  0  0  0  0  0  0
   -4.9112    4.4573   -0.3642 C   0  0  0  0  0  0  0  0  0  0  0  0
   -4.7198    5.8635    0.0916 C   0  0  0  0  0  0  0  0  0  0  0  0
   -5.5610    4.3401   -1.4473 O   0  0  0  0  0  0  0  0  0  0  0  0
   -4.9805    1.1921   -0.1224 C   0  0  0  0  0  0  0  0  0  0  0  0
   -6.1126    1.8294    0.5579 C   0  0  0  0  0  0  0  0  0  0  0  0
   -5.8423    2.3551    1.6871 O   0  0  0  0  0  0  0  0  0  0  0  0
   -7.1433    0.8707    0.6592 O   0  0  0  0  0  0  0  0  0  0  0  0
   -7.8389    0.8921   -0.7158 C   0  0  2  0  0  0  0  0  0  0  0  0
   -9.3234    0.7693   -0.0050 C   0  0  0  0  0  0  0  0  0  0  0  0
   -7.7871   -0.7289   -0.9715 C   0  0  0  0  0  0  0  0  0  0  0  0
   -6.9624   -1.3999   -0.0661 C   0  0  0  0  0  0  0  0  0  0  0  0
   -7.1134   -2.3527    0.7987 C   0  0  0  0  0  0  0  0  0  0  0  0
   -5.8455   -2.9406    1.2580 C   0  0  0  0  0  0  0  0  0  0  0  0
   -5.0023   -3.4221    0.3844 C   0  0  0  0  0  0  0  0  0  0  0  0
   -4.7228   -2.5073   -0.9147 C   0  0  2  0  0  0  0  0  0  0  0  0
   -4.4174   -3.7039   -1.7904 O   0  0  0  0  0  0  0  0  0  0  0  0
   -3.0555   -2.2410   -0.6032 C   0  0  2  0  0  0  0  0  0  0  0  0
   -2.6909   -3.7186   -0.0590 C   0  0  0  0  0  0  0  0  0  0  0  0
   -3.3263   -1.6264    0.8717 C   0  0  0  0  0  0  0  0  0  0  0  0
   -2.1695   -0.4867    0.9645 C   0  0  2  0  0  0  0  0  0  0  0  0
   -2.9689    0.4617    1.9911 C   0  0  0  0  0  0  0  0  0  0  0  0
   -3.2943   -0.3876    3.1561 C   0  0  0  0  0  0  0  0  0  0  0  0
   -4.4014   -0.7260    3.4981 O   0  0  0  0  0  0  0  0  0  0  0  0
   -2.6833    0.1881   -0.5172 C   0  0  2  0  0  0  0  0  0  0  0  0
   -1.3011   -0.0475   -1.0482 O   0  0  0  0  0  0  0  0  0  0  0  0
   -0.3710    0.8623   -0.2637 C   0  0  2  0  0  0  0  0  0  0  0  0
    0.6005    0.8739   -1.4279 O   0  0  0  0  0  0  0  0  0  0  0  0
    1.5394    1.5650   -0.4791 C   0  0  2  0  0  0  0  0  0  0  0  0
    2.2480    2.4081   -1.7048 C   0  0  0  0  0  0  0  0  0  0  0  0
    2.5625    0.2454   -0.7570 C   0  0  1  0  0  0  0  0  0  0  0  0
    3.2455    0.4106    0.5762 O   0  0  0  0  0  0  0  0  0  0  0  0
    4.1374   -0.8344    0.4430 C   0  0  1  0  0  0  0  0  0  0  0  0
    4.8665   -0.2054   -0.9106 C   0  0  0  0  0  0  0  0  0  0  0  0
    6.2870    0.1060   -0.5596 C   0  0  1  0  0  0  0  0  0  0  0  0
    6.8818    0.0262   -1.9639 C   0  0  0  0  0  0  0  0  0  0  0  0
    6.3413    1.1942    0.1263 O   0  0  0  0  0  0  0  0  0  0  0  0
    6.9273   -1.2511    0.0428 C   0  0  1  0  0  0  0  0  0  0  0  0
    8.2225   -0.7326    0.6644 O   0  0  0  0  0  0  0  0  0  0  0  0
    9.0448   -0.2303   -0.3004 C   0  0  0  0  0  0  0  0  0  0  0  0
    8.8930    0.9724   -0.0762 O   0  0  0  0  0  0  0  0  0  0  0  0
   10.3544   -0.6157   -0.7794 C   0  0  0  0  0  0  0  0  0  0  0  0
   11.3795   -0.9068    0.2662 C   0  0  0  0  0  0  0  0  0  0  0  0
   12.4308   -1.7778   -0.3803 C   0  0  0  0  0  0  0  0  0  0  0  0
   10.6985   -1.6375    1.3893 C   0  0  0  0  0  0  0  0  0  0  0  0
    6.1983   -1.2407    1.6126 C   0  0  2  0  0  0  0  0  0  0  0  0
    5.2841   -2.5530    1.2285 C   0  0  0  0  0  0  0  0  0  0  0  0
    5.1469   -0.2075    1.3865 O   0  0  0  0  0  0  0  0  0  0  0  0
    1.6182   -1.0330   -0.1787 C   0  0  2  0  0  0  0  0  0  0  0  0
    0.7976   -1.3517   -1.4809 N   0  0  0  0  0  0  0  0  0  0  0  0
    0.2735   -2.6605   -1.0575 C   0  0  0  0  0  0  0  0  0  0  0  0
    1.8116   -1.7576   -2.4533 C   0  0  0  0  0  0  0  0  0  0  0  0
    0.3427   -0.3750    0.6991 C   0  0  1  0  0  0  0  0  0  0  0  0
    1.1517    0.5742    1.5560 O   0  0  0  0  0  0  0  0  0  0  0  0
  1  2  1  0
  3  2  1  6
  3  4  1  0
  4  5  1  1
  5  6  1  0
  6  7  1  0
  6  8  2  0
  4  9  1  0
  9 10  1  0
 10 11  2  0
 10 12  1  0
 12 13  1  0
 13 14  1  1
 13 15  1  0
 15 16  1  0
 16 17  2  0
 17 18  1  0
 18 19  2  0
 19 20  1  0
 20 21  1  6
 20 22  1  0
 22 23  1  1
 22 24  1  0
 24 25  1  0
 25 26  1  1
 26 27  1  0
 27 28  2  0
 25 29  1  0
 29 30  1  6
 31 30  1  6
 31 32  1  0
 32 33  1  0
 33 34  1  6
 33 35  1  0
 35 36  1  1
 37 36  1  1
 37 38  1  0
 38 39  1  0
 39 40  1  6
 39 41  1  0
 39 42  1  0
 42 43  1  1
 43 44  1  0
 44 45  2  0
 44 46  1  0
 46 47  1  0
 47 48  1  0
 47 49  1  0
 42 50  1  0
 50 51  1  6
 50 52  1  0
 35 53  1  0
 53 54  1  6
 54 55  1  0
 54 56  1  0
 53 57  1  0
 57 58  1  1
 29  3  1  0
 57 31  1  0
 52 37  1  0
M  END
>  <zinc_id>  (1) 
ZINC000096006021

>  <smiles>  (1) 
CO[C@@H]1[C@@H](O[C@@H]2O[C@H](C)[C@@H](O[C@H]3C[C@@](C)(O)[C@@H](OC(=O)CC(C)C)[C@H](C)O3)[C@H](N(C)C)[C@H]2O)[C@@H](CC=O)C[C@@H](C)[C@@H](O)/C=C/C=C/C[C@@H](C)OC(=O)C[C@H]1OC(C)=O

$$$$
