448457
  -OEChem-10051719473D

 57 57  0     1  0  0  0  0  0999 V2000
   -4.3490   -0.4022    1.7446 O   0  0  0  0  0  0  0  0  0  0  0  0
   -3.7385    2.4061   -1.1286 O   0  0  0  0  0  0  0  0  0  0  0  0
    0.8253    4.4925   -0.8506 O   0  0  0  0  0  0  0  0  0  0  0  0
    2.9021   -1.5277   -2.5057 O   0  0  0  0  0  0  0  0  0  0  0  0
    0.6892   -1.0917   -2.2578 O   0  0  0  0  0  0  0  0  0  0  0  0
   -2.2662   -0.4110    0.4463 C   0  0  2  0  0  0  0  0  0  0  0  0
   -2.2324    1.1216    0.2900 C   0  0  2  0  0  0  0  0  0  0  0  0
   -3.7651   -0.7430    0.4918 C   0  0  2  0  0  0  0  0  0  0  0  0
   -4.3777    0.1459   -0.5873 C   0  0  0  0  0  0  0  0  0  0  0  0
   -3.4772    1.3592   -0.5482 C   0  0  0  0  0  0  0  0  0  0  0  0
   -1.4828   -0.8956    1.6606 C   0  0  0  0  0  0  0  0  0  0  0  0
   -1.0130    1.6343   -0.3929 C   0  0  0  0  0  0  0  0  0  0  0  0
   -1.4854   -2.3762    1.9221 C   0  0  0  0  0  0  0  0  0  0  0  0
   -0.2174    2.5867    0.1154 C   0  0  0  0  0  0  0  0  0  0  0  0
    1.0121    3.1023   -0.5785 C   0  0  2  0  0  0  0  0  0  0  0  0
    2.2804    2.9670    0.2753 C   0  0  0  0  0  0  0  0  0  0  0  0
   -0.6434   -3.2908    1.4172 C   0  0  0  0  0  0  0  0  0  0  0  0
    2.8279    1.5375    0.3212 C   0  0  0  0  0  0  0  0  0  0  0  0
    0.4763   -2.9590    0.4743 C   0  0  0  0  0  0  0  0  0  0  0  0
    4.0477    1.3833    1.2354 C   0  0  0  0  0  0  0  0  0  0  0  0
    0.3663   -3.6625   -0.8855 C   0  0  0  0  0  0  0  0  0  0  0  0
    4.6399   -0.0266    1.2291 C   0  0  0  0  0  0  0  0  0  0  0  0
    1.5169   -3.3443   -1.8450 C   0  0  0  0  0  0  0  0  0  0  0  0
    5.8393   -0.1281    2.1594 C   0  0  0  0  0  0  0  0  0  0  0  0
    1.6247   -1.8779   -2.2027 C   0  0  0  0  0  0  0  0  0  0  0  0
   -1.8456   -0.8785   -0.4568 H   0  0  0  0  0  0  0  0  0  0  0  0
   -2.3998    1.6112    1.2578 H   0  0  0  0  0  0  0  0  0  0  0  0
   -3.9588   -1.8036    0.3021 H   0  0  0  0  0  0  0  0  0  0  0  0
   -4.2898   -0.3116   -1.5770 H   0  0  0  0  0  0  0  0  0  0  0  0
   -5.4095    0.4336   -0.3717 H   0  0  0  0  0  0  0  0  0  0  0  0
   -0.4491   -0.5349    1.5957 H   0  0  0  0  0  0  0  0  0  0  0  0
   -1.8700   -0.4104    2.5672 H   0  0  0  0  0  0  0  0  0  0  0  0
   -0.7672    1.2062   -1.3619 H   0  0  0  0  0  0  0  0  0  0  0  0
   -2.2702   -2.7343    2.5859 H   0  0  0  0  0  0  0  0  0  0  0  0
   -5.2952   -0.6204    1.6953 H   0  0  0  0  0  0  0  0  0  0  0  0
   -0.4623    3.0266    1.0794 H   0  0  0  0  0  0  0  0  0  0  0  0
    1.1671    2.6066   -1.5441 H   0  0  0  0  0  0  0  0  0  0  0  0
    3.0574    3.6301   -0.1279 H   0  0  0  0  0  0  0  0  0  0  0  0
    2.0878    3.3290    1.2939 H   0  0  0  0  0  0  0  0  0  0  0  0
   -0.7701   -4.3328    1.6983 H   0  0  0  0  0  0  0  0  0  0  0  0
    3.0969    1.2248   -0.6953 H   0  0  0  0  0  0  0  0  0  0  0  0
    2.0442    0.8515    0.6650 H   0  0  0  0  0  0  0  0  0  0  0  0
    0.5686   -1.8820    0.3146 H   0  0  0  0  0  0  0  0  0  0  0  0
    1.4137   -3.2693    0.9537 H   0  0  0  0  0  0  0  0  0  0  0  0
    3.7618    1.6532    2.2597 H   0  0  0  0  0  0  0  0  0  0  0  0
    4.8197    2.0981    0.9241 H   0  0  0  0  0  0  0  0  0  0  0  0
   -0.5836   -3.3802   -1.3577 H   0  0  0  0  0  0  0  0  0  0  0  0
    0.3306   -4.7484   -0.7319 H   0  0  0  0  0  0  0  0  0  0  0  0
    0.0478    4.5782   -1.4288 H   0  0  0  0  0  0  0  0  0  0  0  0
    3.8776   -0.7501    1.5406 H   0  0  0  0  0  0  0  0  0  0  0  0
    4.9462   -0.2958    0.2117 H   0  0  0  0  0  0  0  0  0  0  0  0
    1.3916   -3.9055   -2.7772 H   0  0  0  0  0  0  0  0  0  0  0  0
    2.4585   -3.6610   -1.3813 H   0  0  0  0  0  0  0  0  0  0  0  0
    6.6317    0.5631    1.8549 H   0  0  0  0  0  0  0  0  0  0  0  0
    5.5567    0.1053    3.1909 H   0  0  0  0  0  0  0  0  0  0  0  0
    6.2480   -1.1432    2.1405 H   0  0  0  0  0  0  0  0  0  0  0  0
    2.9722   -0.5808   -2.7523 H   0  0  0  0  0  0  0  0  0  0  0  0
  1  8  1  0  0  0  0
  1 35  1  0  0  0  0
  2 10  2  0  0  0  0
  3 15  1  0  0  0  0
  3 49  1  0  0  0  0
  4 25  1  0  0  0  0
  4 57  1  0  0  0  0
  5 25  2  0  0  0  0
  6  7  1  0  0  0  0
  6  8  1  0  0  0  0
  6 11  1  0  0  0  0
  6 26  1  0  0  0  0
  7 10  1  0  0  0  0
  7 12  1  0  0  0  0
  7 27  1  0  0  0  0
  8  9  1  0  0  0  0
  8 28  1  0  0  0  0
  9 10  1  0  0  0  0
  9 29  1  0  0  0  0
  9 30  1  0  0  0  0
 11 13  1  0  0  0  0
 11 31  1  0  0  0  0
 11 32  1  0  0  0  0
 12 14  2  0  0  0  0
 12 33  1  0  0  0  0
 13 17  2  0  0  0  0
 13 34  1  0  0  0  0
 14 15  1  0  0  0  0
 14 36  1  0  0  0  0
 15 16  1  0  0  0  0
 15 37  1  0  0  0  0
 16 18  1  0  0  0  0
 16 38  1  0  0  0  0
 16 39  1  0  0  0  0
 17 19  1  0  0  0  0
 17 40  1  0  0  0  0
 18 20  1  0  0  0  0
 18 41  1  0  0  0  0
 18 42  1  0  0  0  0
 19 21  1  0  0  0  0
 19 43  1  0  0  0  0
 19 44  1  0  0  0  0
 20 22  1  0  0  0  0
 20 45  1  0  0  0  0
 20 46  1  0  0  0  0
 21 23  1  0  0  0  0
 21 47  1  0  0  0  0
 21 48  1  0  0  0  0
 22 24  1  0  0  0  0
 22 50  1  0  0  0  0
 22 51  1  0  0  0  0
 23 25  1  0  0  0  0
 23 52  1  0  0  0  0
 23 53  1  0  0  0  0
 24 54  1  0  0  0  0
 24 55  1  0  0  0  0
 24 56  1  0  0  0  0
M  END
> <DATABASE_ID>
DB02056

> <DATABASE_NAME>
drugbank

> <ORIGINAL_SOURCE>
PUBCHEM

> <ORIGINAL_SOURCE_URL>
https://pubchem.ncbi.nlm.nih.gov/rest/pug/compound/inchikey/BHMBVRSPMRCCGG-OUTUXVNYSA-N/SDF?record_type=3d

> <SMILES>
[H][C@](O)(CCCCC)\C=C\[C@@]1([H])C(=O)C[C@]([H])(O)[C@]1([H])C\C=C/CCCC(O)=O

> <INCHI_IDENTIFIER>
InChI=1S/C20H32O5/c1-2-3-6-9-15(21)12-13-17-16(18(22)14-19(17)23)10-7-4-5-8-11-20(24)25/h4,7,12-13,15-18,21-22H,2-3,5-6,8-11,14H2,1H3,(H,24,25)/b7-4-,13-12+/t15-,16+,17+,18-/m0/s1

> <INCHI_KEY>
BHMBVRSPMRCCGG-OUTUXVNYSA-N

> <FORMULA>
C20H32O5

> <MOLECULAR_WEIGHT>
352.4651

> <EXACT_MASS>
352.224974134

> <JCHEM_ACCEPTOR_COUNT>
5

> <JCHEM_ATOM_COUNT>
57

> <JCHEM_AVERAGE_NEUTRAL_MICROSPECIES_CHARGE>
-0.9974680869950127

> <JCHEM_AVERAGE_POLARIZABILITY>
40.78026836323468

> <JCHEM_BIOAVAILABILITY>
1

> <JCHEM_DONOR_COUNT>
3

> <JCHEM_FORMAL_CHARGE>
0

> <JCHEM_GHOSE_FILTER>
1

> <JCHEM_IUPAC>
(5Z)-7-[(1R,2R,5S)-5-hydroxy-2-[(1E,3S)-3-hydroxyoct-1-en-1-yl]-3-oxocyclopentyl]hept-5-enoic acid

> <ALOGPS_LOGP>
3.12

> <JCHEM_LOGP>
3.2252701369999994

> <ALOGPS_LOGS>
-3.61

> <JCHEM_MDDR_LIKE_RULE>
0

> <JCHEM_NEUTRAL_CHARGE>
-1

> <JCHEM_NUMBER_OF_RINGS>
1

> <JCHEM_PHYSIOLOGICAL_CHARGE>
-1

> <JCHEM_PKA>
14.677904116939441

> <JCHEM_PKA_STRONGEST_ACIDIC>
4.404553500058355

> <JCHEM_PKA_STRONGEST_BASIC>
-1.597397911002534

> <JCHEM_POLAR_SURFACE_AREA>
94.83

> <JCHEM_REFRACTIVITY>
99.43509999999998

> <JCHEM_ROTATABLE_BOND_COUNT>
12

> <JCHEM_RULE_OF_FIVE>
1

> <ALOGPS_SOLUBILITY>
8.60e-02 g/l

> <JCHEM_TRADITIONAL_IUPAC>
tetrahydrofolic acid

> <JCHEM_VEBER_RULE>
0

$$$$
