121904
  -OEChem-10051720273D

 65 65  0     1  0  0  0  0  0999 V2000
   -1.6053    1.3748    0.2260 O   0  0  0  0  0  0  0  0  0  0  0  0
    4.2631   -0.4283    1.4627 O   0  0  0  0  0  0  0  0  0  0  0  0
    2.4405    2.6624   -1.0489 O   0  0  0  0  0  0  0  0  0  0  0  0
   -3.2551   -2.7993    0.4161 O   0  0  0  0  0  0  0  0  0  0  0  0
   -0.4054   -3.9068   -0.1786 O   0  0  0  0  0  0  0  0  0  0  0  0
   -0.9498    2.5415   -1.6565 O   0  0  0  0  0  0  0  0  0  0  0  0
    3.1750   -0.8615   -0.6743 C   0  0  2  0  0  0  0  0  0  0  0  0
    3.6511    0.2183    0.3402 C   0  0  1  0  0  0  0  0  0  0  0  0
    2.5435    1.1686    0.8930 C   0  0  2  0  0  0  0  0  0  0  0  0
    2.1232   -1.8277   -0.0748 C   0  0  0  0  0  0  0  0  0  0  0  0
    0.8877   -2.0269   -0.9730 C   0  0  2  0  0  0  0  0  0  0  0  0
    1.6640    1.8098   -0.2118 C   0  0  1  0  0  0  0  0  0  0  0  0
   -3.3269   -0.3743    0.3285 C   0  0  2  0  0  0  0  0  0  0  0  0
   -1.0887   -1.7649    0.7146 C   0  0  2  0  0  0  0  0  0  0  0  0
   -2.4793   -1.6507    0.0484 C   0  0  1  0  0  0  0  0  0  0  0  0
   -2.7970    0.8802   -0.4189 C   0  0  1  0  0  0  0  0  0  0  0  0
    0.4326    2.5686    0.3430 C   0  0  2  0  0  0  0  0  0  0  0  0
   -0.2195   -2.6892   -0.1527 C   0  0  0  0  0  0  0  0  0  0  0  0
    4.3757   -1.6609   -1.2071 C   0  0  0  0  0  0  0  0  0  0  0  0
    3.1950    2.2355    1.7921 C   0  0  0  0  0  0  0  0  0  0  0  0
    1.1903   -2.8451   -2.2258 C   0  0  0  0  0  0  0  0  0  0  0  0
   -3.5533   -0.1207    1.8226 C   0  0  0  0  0  0  0  0  0  0  0  0
   -3.8424    1.9993   -0.4452 C   0  0  0  0  0  0  0  0  0  0  0  0
   -1.0718   -2.3214    2.1408 C   0  0  0  0  0  0  0  0  0  0  0  0
   -0.7787    2.1862   -0.4973 C   0  0  0  0  0  0  0  0  0  0  0  0
    0.5516    4.0920    0.3534 C   0  0  0  0  0  0  0  0  0  0  0  0
   -5.1202    1.5406   -1.1169 C   0  0  0  0  0  0  0  0  0  0  0  0
    2.7517   -0.3452   -1.5429 H   0  0  0  0  0  0  0  0  0  0  0  0
    4.4297    0.8246   -0.1390 H   0  0  0  0  0  0  0  0  0  0  0  0
    1.8869    0.5842    1.5501 H   0  0  0  0  0  0  0  0  0  0  0  0
    1.7766   -1.4589    0.8950 H   0  0  0  0  0  0  0  0  0  0  0  0
    2.5755   -2.8040    0.1454 H   0  0  0  0  0  0  0  0  0  0  0  0
    0.4930   -1.0592   -1.3034 H   0  0  0  0  0  0  0  0  0  0  0  0
    1.2963    1.0050   -0.8517 H   0  0  0  0  0  0  0  0  0  0  0  0
   -4.3118   -0.6309   -0.0795 H   0  0  0  0  0  0  0  0  0  0  0  0
   -2.3602   -1.7144   -1.0416 H   0  0  0  0  0  0  0  0  0  0  0  0
   -0.5975   -0.7886    0.7285 H   0  0  0  0  0  0  0  0  0  0  0  0
   -2.5488    0.5908   -1.4487 H   0  0  0  0  0  0  0  0  0  0  0  0
    0.2267    2.2360    1.3688 H   0  0  0  0  0  0  0  0  0  0  0  0
    4.0655   -2.3807   -1.9703 H   0  0  0  0  0  0  0  0  0  0  0  0
    5.1118   -0.9909   -1.6640 H   0  0  0  0  0  0  0  0  0  0  0  0
    4.8765   -2.2164   -0.4071 H   0  0  0  0  0  0  0  0  0  0  0  0
    3.8466    2.9006    1.2162 H   0  0  0  0  0  0  0  0  0  0  0  0
    2.4388    2.8456    2.2943 H   0  0  0  0  0  0  0  0  0  0  0  0
    3.7989    1.7766    2.5819 H   0  0  0  0  0  0  0  0  0  0  0  0
    1.6619   -3.8017   -1.9756 H   0  0  0  0  0  0  0  0  0  0  0  0
    0.2699   -3.0656   -2.7778 H   0  0  0  0  0  0  0  0  0  0  0  0
    1.8572   -2.3005   -2.9008 H   0  0  0  0  0  0  0  0  0  0  0  0
   -4.3418    0.6221    1.9792 H   0  0  0  0  0  0  0  0  0  0  0  0
   -3.8767   -1.0336    2.3332 H   0  0  0  0  0  0  0  0  0  0  0  0
   -2.6502    0.2504    2.3157 H   0  0  0  0  0  0  0  0  0  0  0  0
   -3.4451    2.8573   -1.0002 H   0  0  0  0  0  0  0  0  0  0  0  0
   -4.0477    2.3821    0.5607 H   0  0  0  0  0  0  0  0  0  0  0  0
   -0.0396   -2.4267    2.4950 H   0  0  0  0  0  0  0  0  0  0  0  0
   -1.5869   -1.6646    2.8438 H   0  0  0  0  0  0  0  0  0  0  0  0
   -1.5295   -3.3142    2.2046 H   0  0  0  0  0  0  0  0  0  0  0  0
    3.5752   -0.8989    1.9618 H   0  0  0  0  0  0  0  0  0  0  0  0
    1.4224    4.4239    0.9252 H   0  0  0  0  0  0  0  0  0  0  0  0
    0.6284    4.5069   -0.6575 H   0  0  0  0  0  0  0  0  0  0  0  0
   -0.3387    4.5380    0.8115 H   0  0  0  0  0  0  0  0  0  0  0  0
    1.8841    2.9156   -1.8051 H   0  0  0  0  0  0  0  0  0  0  0  0
   -2.7812   -3.5881    0.1020 H   0  0  0  0  0  0  0  0  0  0  0  0
   -4.9206    1.0173   -2.0574 H   0  0  0  0  0  0  0  0  0  0  0  0
   -5.7194    0.8948   -0.4688 H   0  0  0  0  0  0  0  0  0  0  0  0
   -5.7446    2.4103   -1.3493 H   0  0  0  0  0  0  0  0  0  0  0  0
  1 16  1  0  0  0  0
  1 25  1  0  0  0  0
  2  8  1  0  0  0  0
  2 57  1  0  0  0  0
  3 12  1  0  0  0  0
  3 61  1  0  0  0  0
  4 15  1  0  0  0  0
  4 62  1  0  0  0  0
  5 18  2  0  0  0  0
  6 25  2  0  0  0  0
  7  8  1  0  0  0  0
  7 10  1  0  0  0  0
  7 19  1  0  0  0  0
  7 28  1  0  0  0  0
  8  9  1  0  0  0  0
  8 29  1  0  0  0  0
  9 12  1  0  0  0  0
  9 20  1  0  0  0  0
  9 30  1  0  0  0  0
 10 11  1  0  0  0  0
 10 31  1  0  0  0  0
 10 32  1  0  0  0  0
 11 18  1  0  0  0  0
 11 21  1  0  0  0  0
 11 33  1  0  0  0  0
 12 17  1  0  0  0  0
 12 34  1  0  0  0  0
 13 15  1  0  0  0  0
 13 16  1  0  0  0  0
 13 22  1  0  0  0  0
 13 35  1  0  0  0  0
 14 15  1  0  0  0  0
 14 18  1  0  0  0  0
 14 24  1  0  0  0  0
 14 37  1  0  0  0  0
 15 36  1  0  0  0  0
 16 23  1  0  0  0  0
 16 38  1  0  0  0  0
 17 25  1  0  0  0  0
 17 26  1  0  0  0  0
 17 39  1  0  0  0  0
 19 40  1  0  0  0  0
 19 41  1  0  0  0  0
 19 42  1  0  0  0  0
 20 43  1  0  0  0  0
 20 44  1  0  0  0  0
 20 45  1  0  0  0  0
 21 46  1  0  0  0  0
 21 47  1  0  0  0  0
 21 48  1  0  0  0  0
 22 49  1  0  0  0  0
 22 50  1  0  0  0  0
 22 51  1  0  0  0  0
 23 27  1  0  0  0  0
 23 52  1  0  0  0  0
 23 53  1  0  0  0  0
 24 54  1  0  0  0  0
 24 55  1  0  0  0  0
 24 56  1  0  0  0  0
 26 58  1  0  0  0  0
 26 59  1  0  0  0  0
 26 60  1  0  0  0  0
 27 63  1  0  0  0  0
 27 64  1  0  0  0  0
 27 65  1  0  0  0  0
M  END
> <DATABASE_ID>
DB04070

> <DATABASE_NAME>
drugbank

> <ORIGINAL_SOURCE>
PUBCHEM

> <ORIGINAL_SOURCE_URL>
https://pubchem.ncbi.nlm.nih.gov/rest/pug/compound/inchikey/HQZOLNNEQAKEHT-IBBGRPSASA-N/SDF?record_type=3d

> <SMILES>
[H][C@@]1(C)C[C@]([H])(C)[C@]([H])(O)[C@@]([H])(C)[C@]([H])(O)[C@@]([H])(C)C(=O)O[C@]([H])(CC)[C@]([H])(C)[C@]([H])(O)[C@@]([H])(C)C1=O

> <INCHI_IDENTIFIER>
InChI=1S/C21H38O6/c1-8-16-12(4)19(24)13(5)17(22)10(2)9-11(3)18(23)14(6)20(25)15(7)21(26)27-16/h10-16,18-20,23-25H,8-9H2,1-7H3/t10-,11+,12+,13+,14-,15-,16-,18+,19+,20+/m1/s1

> <INCHI_KEY>
HQZOLNNEQAKEHT-IBBGRPSASA-N

> <FORMULA>
C21H38O6

> <MOLECULAR_WEIGHT>
386.5228

> <EXACT_MASS>
386.266838948

> <JCHEM_ACCEPTOR_COUNT>
5

> <JCHEM_ATOM_COUNT>
65

> <JCHEM_AVERAGE_NEUTRAL_MICROSPECIES_CHARGE>
-1.4050681634755056e-07

> <JCHEM_AVERAGE_POLARIZABILITY>
42.94271182561539

> <JCHEM_BIOAVAILABILITY>
1

> <JCHEM_DONOR_COUNT>
3

> <JCHEM_FORMAL_CHARGE>
0

> <JCHEM_GHOSE_FILTER>
1

> <JCHEM_IUPAC>
(3R,4S,5R,6S,7S,9R,11R,12S,13R,14R)-14-ethyl-4,6,12-trihydroxy-3,5,7,9,11,13-hexamethyl-1-oxacyclotetradecane-2,10-dione

> <ALOGPS_LOGP>
1.80

> <JCHEM_LOGP>
2.8691990919999997

> <ALOGPS_LOGS>
-2.54

> <JCHEM_MDDR_LIKE_RULE>
0

> <JCHEM_NEUTRAL_CHARGE>
0

> <JCHEM_NUMBER_OF_RINGS>
1

> <JCHEM_PHYSIOLOGICAL_CHARGE>
0

> <JCHEM_PKA>
14.511717713529313

> <JCHEM_PKA_STRONGEST_ACIDIC>
13.995812735983582

> <JCHEM_PKA_STRONGEST_BASIC>
-2.9607687852504743

> <JCHEM_POLAR_SURFACE_AREA>
104.06000000000002

> <JCHEM_REFRACTIVITY>
102.9425

> <JCHEM_ROTATABLE_BOND_COUNT>
1

> <JCHEM_RULE_OF_FIVE>
1

> <ALOGPS_SOLUBILITY>
1.12e+00 g/l

> <JCHEM_TRADITIONAL_IUPAC>
biotin

> <JCHEM_VEBER_RULE>
0

$$$$
