
     RDKit          3D

 59 62  0  0  0  0  0  0  0  0999 V2000
    1.1926   -4.3001   -0.6924 C   0  0  0  0  0  0  0  0  0  0  0  0
    0.5677   -3.4837    0.1235 O   0  0  0  0  0  0  0  0  0  0  0  0
   -0.2612   -2.5668   -0.7082 C   0  0  1  0  0  0  0  0  0  0  0  0
   -1.6823   -3.0863    0.1295 C   0  0  2  0  0  0  0  0  0  0  0  0
   -1.0746   -3.1522    1.5159 O   0  0  0  0  0  0  0  0  0  0  0  0
   -1.4592   -4.6746   -0.2029 C   0  0  0  0  0  0  0  0  0  0  0  0
   -2.6797   -5.3663    0.1316 C   0  0  0  0  0  0  0  0  0  0  0  0
   -2.7086   -6.5310    0.6339 O   0  0  0  0  0  0  0  0  0  0  0  0
   -3.8554   -4.8507   -0.3976 O   0  0  0  0  0  0  0  0  0  0  0  0
   -3.9664   -3.3941    0.0849 C   0  0  2  0  0  0  0  0  0  0  0  0
   -5.1762   -3.7638    1.1400 C   0  0  0  0  0  0  0  0  0  0  0  0
   -5.0336   -2.9982   -1.1078 C   0  0  0  0  0  0  0  0  0  0  0  0
   -5.5965   -1.7703   -0.4296 C   0  0  0  0  0  0  0  0  0  0  0  0
   -4.9925   -0.9853    0.0589 C   0  0  0  0  0  0  0  0  0  0  0  0
   -4.7499   -0.3833    1.3290 C   0  0  0  0  0  0  0  0  0  0  0  0
   -3.9295    0.2985    1.1153 C   0  0  0  0  0  0  0  0  0  0  0  0
   -3.0267    1.5487    0.6649 C   0  0  2  0  0  0  0  0  0  0  0  0
   -4.1747    2.1024   -0.1803 O   0  0  0  0  0  0  0  0  0  0  0  0
   -5.1097    2.2652    1.0400 C   0  0  1  0  0  0  0  0  0  0  0  0
   -5.0359    3.9173    0.8671 C   0  0  0  0  0  0  0  0  0  0  0  0
   -6.5012    4.1497    1.2285 C   0  0  0  0  0  0  0  0  0  0  0  0
   -6.6485    4.3082   -0.3899 C   0  0  2  0  0  0  0  0  0  0  0  0
   -8.1203    4.8238   -0.2953 N   0  0  0  0  0  0  0  0  0  0  0  0
   -8.9222    3.9051    0.4334 C   0  0  0  0  0  0  0  0  0  0  0  0
   -8.0113    6.0555    0.5418 C   0  0  0  0  0  0  0  0  0  0  0  0
   -7.1167    2.6788   -0.6693 C   0  0  1  0  0  0  0  0  0  0  0  0
   -5.9549    2.5387   -1.8483 C   0  0  0  0  0  0  0  0  0  0  0  0
   -6.3396    1.9576    0.3066 O   0  0  0  0  0  0  0  0  0  0  0  0
   -2.2223    0.6489   -0.5566 C   0  0  2  0  0  0  0  0  0  0  0  0
   -1.9288   -0.3686    0.6655 C   0  0  0  0  0  0  0  0  0  0  0  0
   -0.6788    1.1705   -0.3883 C   0  0  0  0  0  0  0  0  0  0  0  0
    0.2314   -0.0545   -0.9927 C   0  0  2  0  0  0  0  0  0  0  0  0
   -0.8530   -0.5778   -2.0805 C   0  0  0  0  0  0  0  0  0  0  0  0
   -0.2994    0.1118   -3.3043 C   0  0  0  0  0  0  0  0  0  0  0  0
   -0.1785   -0.6856   -4.2809 O   0  0  0  0  0  0  0  0  0  0  0  0
    0.0887   -1.2005    0.2620 C   0  0  2  0  0  0  0  0  0  0  0  0
    1.5635   -1.4527    0.3752 O   0  0  0  0  0  0  0  0  0  0  0  0
    2.1942   -0.0580    0.2734 C   0  0  2  0  0  0  0  0  0  0  0  0
    3.0760   -0.4038   -0.8134 O   0  0  0  0  0  0  0  0  0  0  0  0
    3.8782   -1.5451   -1.1028 C   0  0  2  0  0  0  0  0  0  0  0  0
    3.6249   -2.5644    0.1526 C   0  0  0  0  0  0  0  0  0  0  0  0
    5.2610   -0.8736   -0.3502 C   0  0  1  0  0  0  0  0  0  0  0  0
    5.0806    0.5283   -0.8945 O   0  0  0  0  0  0  0  0  0  0  0  0
    6.4512    0.8498   -1.4740 C   0  0  1  0  0  0  0  0  0  0  0  0
    6.0494    2.4701   -1.5079 C   0  0  0  0  0  0  0  0  0  0  0  0
    6.8656    3.1596   -0.4908 C   0  0  1  0  0  0  0  0  0  0  0  0
    6.7618    4.5527   -0.8996 C   0  0  0  0  0  0  0  0  0  0  0  0
    6.6043    3.0205    0.8398 O   0  0  0  0  0  0  0  0  0  0  0  0
    8.4334    2.8612   -0.8368 C   0  0  1  0  0  0  0  0  0  0  0  0
    8.9241    3.2868    0.5330 O   0  0  0  0  0  0  0  0  0  0  0  0
    8.5472    1.1890   -0.3878 C   0  0  2  0  0  0  0  0  0  0  0  0
    8.5606    0.7695   -1.9851 C   0  0  0  0  0  0  0  0  0  0  0  0
    7.0927    0.9556   -0.1006 O   0  0  0  0  0  0  0  0  0  0  0  0
    4.7989   -0.3034    1.1672 C   0  0  2  0  0  0  0  0  0  0  0  0
    5.0997   -1.7070    1.9034 N   0  0  0  0  0  0  0  0  0  0  0  0
    4.5560   -1.4362    3.2300 C   0  0  0  0  0  0  0  0  0  0  0  0
    6.4570   -2.0087    1.9341 C   0  0  0  0  0  0  0  0  0  0  0  0
    3.1892   -0.5390    1.6114 C   0  0  1  0  0  0  0  0  0  0  0  0
    3.1381    0.9614    1.9954 O   0  0  0  0  0  0  0  0  0  0  0  0
  1  2  1  0
  3  2  1  1
  3  4  1  0
  4  5  1  1
  4  6  1  0
  6  7  1  0
  7  8  2  0
  7  9  1  0
  9 10  1  0
 10 11  1  1
 10 12  1  0
 12 13  1  0
 13 14  2  0
 14 15  1  0
 15 16  2  0
 16 17  1  0
 17 18  1  6
 19 18  1  6
 19 20  1  0
 20 21  1  0
 21 22  1  0
 22 23  1  1
 23 24  1  0
 23 25  1  0
 22 26  1  0
 26 27  1  6
 26 28  1  0
 17 29  1  0
 29 30  1  1
 29 31  1  0
 31 32  1  0
 32 33  1  6
 33 34  1  0
 34 35  2  0
 32 36  1  0
 36 37  1  6
 38 37  1  6
 38 39  1  0
 39 40  1  0
 40 41  1  1
 40 42  1  0
 42 43  1  6
 44 43  1  1
 44 45  1  0
 45 46  1  0
 46 47  1  6
 46 48  1  0
 46 49  1  0
 49 50  1  1
 49 51  1  0
 51 52  1  6
 51 53  1  0
 42 54  1  0
 54 55  1  1
 55 56  1  0
 55 57  1  0
 54 58  1  0
 58 59  1  1
 36  3  1  0
 58 38  1  0
 28 19  1  0
 53 44  1  0
M  END
>  <zinc_id>  (1) 
ZINC000257373089

>  <smiles>  (1) 
CO[C@@H]1[C@@H](O[C@@H]2O[C@H](C)[C@@H](O[C@H]3C[C@@](C)(O)[C@@H](O)[C@H](C)O3)[C@H](N(C)C)[C@H]2O)[C@@H](CC=O)C[C@@H](C)[C@@H](O[C@H]2CC[C@H](N(C)C)[C@@H](C)O2)/C=C/C=C/C[C@@H](C)OC(=O)C[C@H]1O

$$$$
