
     RDKit          3D

 69 72  0  0  0  0  0  0  0  0999 V2000
    6.2354    1.6226   -3.2472 C   0  0  0  0  0  0  0  0  0  0  0  0
    5.7860    0.9645   -2.3538 O   0  0  0  0  0  0  0  0  0  0  0  0
    6.8690    0.0895   -1.7603 C   0  0  2  0  0  0  0  0  0  0  0  0
    6.0718   -0.6940   -0.6024 C   0  0  0  0  0  0  0  0  0  0  0  0
    4.7097   -0.0516   -0.0727 C   0  0  2  0  0  0  0  0  0  0  0  0
    3.8553   -0.2957   -1.4548 C   0  0  0  0  0  0  0  0  0  0  0  0
    2.7153    0.8442   -1.3384 C   0  0  1  0  0  0  0  0  0  0  0  0
    2.2923    0.7294   -2.9023 C   0  0  0  0  0  0  0  0  0  0  0  0
    1.3945   -0.1556   -0.9118 C   0  0  2  0  0  0  0  0  0  0  0  0
    0.6823    1.1289   -0.2151 C   0  0  0  0  0  0  0  0  0  0  0  0
    1.5263    1.9542    0.5592 C   0  0  0  0  0  0  0  0  0  0  0  0
    2.0446    1.5891    1.5743 O   0  0  0  0  0  0  0  0  0  0  0  0
    1.3997    3.5460    0.3251 C   0  0  2  0  0  0  0  0  0  0  0  0
    1.1972    3.9180    1.9121 C   0  0  0  0  0  0  0  0  0  0  0  0
   -0.1841    3.4426    0.1238 C   0  0  0  0  0  0  0  0  0  0  0  0
   -0.8499    4.1851   -0.7022 C   0  0  0  0  0  0  0  0  0  0  0  0
   -1.2136    3.5562   -2.0265 C   0  0  0  0  0  0  0  0  0  0  0  0
   -2.1477    4.5036    0.2151 C   0  0  1  0  0  0  0  0  0  0  0  0
   -1.3966    5.5218    1.0452 O   0  0  0  0  0  0  0  0  0  0  0  0
   -2.8486    5.7788   -0.7197 C   0  0  1  0  0  0  0  0  0  0  0  0
   -1.6930    5.9963   -1.6655 O   0  0  0  0  0  0  0  0  0  0  0  0
   -2.0235    7.1825   -2.2737 C   0  0  0  0  0  0  0  0  0  0  0  0
   -3.6098    4.7697   -1.7340 C   0  0  0  0  0  0  0  0  0  0  0  0
   -4.3196    5.4856   -2.3947 O   0  0  0  0  0  0  0  0  0  0  0  0
   -4.2883    3.5528   -0.9398 C   0  0  2  0  0  0  0  0  0  0  0  0
   -5.5732    3.3808   -1.9386 C   0  0  0  0  0  0  0  0  0  0  0  0
   -5.1159    4.5377    0.0677 C   0  0  0  0  0  0  0  0  0  0  0  0
   -6.3748    3.5759    0.4712 C   0  0  2  0  0  0  0  0  0  0  0  0
   -6.4106    4.1546    2.0001 C   0  0  0  0  0  0  0  0  0  0  0  0
   -5.4269    2.3505    0.8907 C   0  0  0  0  0  0  0  0  0  0  0  0
   -6.0706    1.3420    1.4721 C   0  0  0  0  0  0  0  0  0  0  0  0
   -5.9132   -0.0312    0.9769 C   0  0  0  0  0  0  0  0  0  0  0  0
   -6.0116   -0.1486   -0.3436 C   0  0  0  0  0  0  0  0  0  0  0  0
   -6.7070   -1.3505   -0.8230 C   0  0  0  0  0  0  0  0  0  0  0  0
   -6.3760   -2.5363   -0.3181 C   0  0  0  0  0  0  0  0  0  0  0  0
   -7.5519   -3.4823   -0.3565 C   0  0  0  0  0  0  0  0  0  0  0  0
   -5.1990   -3.3338   -1.1002 C   0  0  1  0  0  0  0  0  0  0  0  0
   -4.3735   -2.0823   -1.3554 O   0  0  0  0  0  0  0  0  0  0  0  0
   -3.9975   -2.3302   -2.6840 C   0  0  0  0  0  0  0  0  0  0  0  0
   -4.3635   -3.6308    0.2957 C   0  0  0  0  0  0  0  0  0  0  0  0
   -2.9495   -4.0527   -0.4459 C   0  0  2  0  0  0  0  0  0  0  0  0
   -3.4572   -5.6077   -0.6416 C   0  0  0  0  0  0  0  0  0  0  0  0
   -2.1788   -6.2803   -1.0504 C   0  0  0  0  0  0  0  0  0  0  0  0
   -1.3782   -6.4331    0.3621 C   0  0  1  0  0  0  0  0  0  0  0  0
    0.0302   -6.8411   -0.3526 C   0  0  0  0  0  0  0  0  0  0  0  0
   -1.0023   -4.8370    0.5720 C   0  0  1  0  0  0  0  0  0  0  0  0
   -0.6441   -4.6248   -0.6322 O   0  0  0  0  0  0  0  0  0  0  0  0
   -2.2989   -4.3812    0.8813 O   0  0  0  0  0  0  0  0  0  0  0  0
   -0.3684   -5.0317    1.8252 C   0  0  0  0  0  0  0  0  0  0  0  0
   -1.0294   -5.6639    2.7266 O   0  0  0  0  0  0  0  0  0  0  0  0
    0.8044   -4.3373    2.3601 C   0  0  0  0  0  0  0  0  0  0  0  0
    1.2752   -4.6275    3.4960 O   0  0  0  0  0  0  0  0  0  0  0  0
    1.0097   -3.0343    1.9311 N   0  0  0  0  0  0  0  0  0  0  0  0
    1.5675   -1.9422    2.7007 C   0  0  0  0  0  0  0  0  0  0  0  0
    0.3891   -1.1768    3.2623 C   0  0  0  0  0  0  0  0  0  0  0  0
   -0.7696   -1.4670    2.3222 C   0  0  0  0  0  0  0  0  0  0  0  0
   -0.2998   -1.3673    0.9595 C   0  0  0  0  0  0  0  0  0  0  0  0
    0.5371   -2.6848    0.4704 C   0  0  1  0  0  0  0  0  0  0  0  0
    1.9661   -2.0115    0.1507 C   0  0  0  0  0  0  0  0  0  0  0  0
    2.8350   -2.9293    0.1556 O   0  0  0  0  0  0  0  0  0  0  0  0
    2.1094   -0.6868    0.3369 O   0  0  0  0  0  0  0  0  0  0  0  0
    5.1024    1.5219   -0.2889 C   0  0  0  0  0  0  0  0  0  0  0  0
    6.4216    1.4712    0.3542 C   0  0  0  0  0  0  0  0  0  0  0  0
    7.5663    1.3589   -0.7972 C   0  0  1  0  0  0  0  0  0  0  0  0
    8.3402    0.3384    0.0013 O   0  0  0  0  0  0  0  0  0  0  0  0
    9.6041    1.2002    0.7358 P   0  0  0  0  0  0  0  0  0  0  0  0
    9.0018    2.2159    2.1101 C   0  0  0  0  0  0  0  0  0  0  0  0
   10.5225    2.1782   -0.4750 C   0  0  0  0  0  0  0  0  0  0  0  0
   10.5540    0.1528    1.2748 O   0  0  0  0  0  0  0  0  0  0  0  0
  1  2  1  0
  3  2  1  6
  3  4  1  0
  4  5  1  0
  5  6  1  6
  7  6  1  6
  7  8  1  0
  7  9  1  0
  9 10  1  1
 10 11  1  0
 11 12  2  0
 11 13  1  0
 13 14  1  1
 13 15  1  0
 15 16  2  0
 16 17  1  0
 16 18  1  0
 18 19  1  1
 18 20  1  0
 20 21  1  6
 21 22  1  0
 20 23  1  0
 23 24  2  0
 23 25  1  0
 25 26  1  6
 25 27  1  0
 27 28  1  0
 28 29  1  1
 28 30  1  0
 30 31  2  0
 31 32  1  0
 32 33  2  0
 33 34  1  0
 34 35  2  0
 35 36  1  0
 35 37  1  0
 37 38  1  6
 38 39  1  0
 37 40  1  0
 41 40  1  1
 41 42  1  0
 42 43  1  0
 43 44  1  0
 44 45  1  6
 44 46  1  0
 46 47  1  6
 46 48  1  0
 46 49  1  0
 49 50  2  0
 49 51  1  0
 51 52  2  0
 51 53  1  0
 53 54  1  0
 54 55  1  0
 55 56  1  0
 56 57  1  0
 58 57  1  1
 58 59  1  0
 59 60  2  0
 59 61  1  0
  5 62  1  0
 62 63  1  0
 63 64  1  0
 64 65  1  1
 65 66  1  0
 66 67  1  0
 66 68  1  0
 66 69  2  0
 64  3  1  0
 61  9  1  0
 48 41  1  0
 58 53  1  0
M  END
>  <zinc_id>  (1) 
ZINC000169677038

>  <smiles>  (1) 
CO[C@H]1C[C@@H]2CC[C@@H](C)[C@@](O)(O2)C(=O)C(=O)N2CCCC[C@H]2C(=O)O[C@H]([C@H](C)C[C@@H]2CC[C@@H](OP(C)(C)=O)[C@H](OC)C2)CC(=O)[C@H](C)/C=C(\C)[C@@H](O)[C@@H](OC)C(=O)[C@H](C)C[C@H](C)/C=C/C=C/C=C/1C

$$$$
