
     RDKit          3D

 62 68  0  0  0  0  0  0  0  0999 V2000
  -10.0936   -4.3975    0.3152 C   0  0  0  0  0  0  0  0  0  0  0  0
   -9.3565   -3.2599   -0.1278 C   0  0  0  0  0  0  0  0  0  0  0  0
   -8.1178   -3.3351   -0.2289 C   0  0  0  0  0  0  0  0  0  0  0  0
   -7.3732   -4.4859    0.4250 C   0  0  0  0  0  0  0  0  0  0  0  0
   -7.3410   -2.1789   -0.6656 C   0  0  0  0  0  0  0  0  0  0  0  0
   -6.2291   -2.3784   -1.2602 O   0  0  0  0  0  0  0  0  0  0  0  0
   -7.8779   -0.9318   -0.4480 O   0  0  0  0  0  0  0  0  0  0  0  0
   -6.9782    0.2597   -0.8309 C   0  0  2  0  0  0  0  0  0  0  0  0
   -5.8210   -0.1994    0.2445 C   0  0  0  0  0  0  0  0  0  0  0  0
   -4.8875    1.0971   -0.0155 C   0  0  1  0  0  0  0  0  0  0  0  0
   -5.5380    1.7871    1.3792 C   0  0  1  0  0  0  0  0  0  0  0  0
   -4.7294    3.1766    1.1927 C   0  0  0  0  0  0  0  0  0  0  0  0
   -3.2836    2.7682    1.2577 C   0  0  0  0  0  0  0  0  0  0  0  0
   -2.7598    1.6983    0.6900 C   0  0  0  0  0  0  0  0  0  0  0  0
   -2.0771    1.6913   -0.6212 C   0  0  0  0  0  0  0  0  0  0  0  0
   -0.9197    0.5424   -0.6333 C   0  0  1  0  0  0  0  0  0  0  0  0
   -0.8767    0.2607    0.8717 O   0  0  0  0  0  0  0  0  0  0  0  0
    0.3024   -0.6151    0.4166 C   0  0  1  0  0  0  0  0  0  0  0  0
    1.3858    0.5345    0.8910 C   0  0  0  0  0  0  0  0  0  0  0  0
    2.7964   -0.1003    0.3625 C   0  0  2  0  0  0  0  0  0  0  0  0
    2.2681   -0.8184   -0.8494 O   0  0  0  0  0  0  0  0  0  0  0  0
    2.6409    0.0420   -1.9099 C   0  0  0  0  0  0  0  0  0  0  0  0
    2.8449   -1.4411    1.4337 C   0  0  2  0  0  0  0  0  0  0  0  0
    3.7063   -2.3550    0.6002 O   0  0  0  0  0  0  0  0  0  0  0  0
    5.0542   -2.0910    1.2933 C   0  0  1  0  0  0  0  0  0  0  0  0
    5.9081   -2.9240    0.1494 C   0  0  0  0  0  0  0  0  0  0  0  0
    7.4471   -2.3626    0.2189 C   0  0  2  0  0  0  0  0  0  0  0  0
    7.4668   -1.9561    1.6594 O   0  0  0  0  0  0  0  0  0  0  0  0
    7.1326   -3.0569    2.4284 C   0  0  0  0  0  0  0  0  0  0  0  0
    6.9481   -0.8760   -0.4559 C   0  0  2  0  0  0  0  0  0  0  0  0
    8.1294   -0.0438   -0.2977 O   0  0  0  0  0  0  0  0  0  0  0  0
    9.3866   -0.7260    0.1044 C   0  0  2  0  0  0  0  0  0  0  0  0
    9.8765    0.3739    1.0169 O   0  0  0  0  0  0  0  0  0  0  0  0
   10.3013    1.6359    0.3970 C   0  0  2  0  0  0  0  0  0  0  0  0
    9.4964    2.5809    1.4980 C   0  0  0  0  0  0  0  0  0  0  0  0
    8.9608    1.7229   -0.6480 C   0  0  1  0  0  0  0  0  0  0  0  0
    9.2495    3.1067   -1.1700 O   0  0  0  0  0  0  0  0  0  0  0  0
    9.7483    1.0136   -1.9613 C   0  0  2  0  0  0  0  0  0  0  0  0
    8.5043    0.3182   -2.5028 O   0  0  0  0  0  0  0  0  0  0  0  0
    8.5233    0.5482   -3.8815 C   0  0  0  0  0  0  0  0  0  0  0  0
   10.3319   -0.4458   -1.3205 C   0  0  1  0  0  0  0  0  0  0  0  0
   11.5859    0.0951   -0.6595 O   0  0  0  0  0  0  0  0  0  0  0  0
    6.3233   -0.1752    0.9840 C   0  0  1  0  0  0  0  0  0  0  0  0
    5.9561    1.2264    0.2048 C   0  0  0  0  0  0  0  0  0  0  0  0
    5.0342   -0.7614    0.5505 O   0  0  0  0  0  0  0  0  0  0  0  0
    1.4279   -2.2068    0.8908 C   0  0  1  0  0  0  0  0  0  0  0  0
    1.5642   -3.3443    2.0536 C   0  0  0  0  0  0  0  0  0  0  0  0
    0.5142   -1.3440    1.7479 O   0  0  0  0  0  0  0  0  0  0  0  0
   -1.9550   -0.7123   -0.8400 C   0  0  0  0  0  0  0  0  0  0  0  0
   -3.2307   -0.5357   -0.2898 C   0  0  0  0  0  0  0  0  0  0  0  0
   -3.6010    0.4535    0.7321 C   0  0  2  0  0  0  0  0  0  0  0  0
   -3.9371   -0.0287    2.0704 C   0  0  0  0  0  0  0  0  0  0  0  0
   -6.8137    2.3539    0.5872 C   0  0  1  0  0  0  0  0  0  0  0  0
   -7.3229    3.2070    1.5309 O   0  0  0  0  0  0  0  0  0  0  0  0
   -6.4124    3.0112   -0.6946 C   0  0  0  0  0  0  0  0  0  0  0  0
   -7.8439    3.4341   -1.0252 C   0  0  0  0  0  0  0  0  0  0  0  0
   -8.5354    1.9542   -1.0678 C   0  0  2  0  0  0  0  0  0  0  0  0
   -9.7911    2.3729   -0.1627 C   0  0  0  0  0  0  0  0  0  0  0  0
  -10.9393    1.3934   -0.2123 C   0  0  0  0  0  0  0  0  0  0  0  0
   -9.8955    3.3951    0.3653 O   0  0  0  0  0  0  0  0  0  0  0  0
   -7.7109    1.3153    0.1874 C   0  0  1  0  0  0  0  0  0  0  0  0
   -8.5666    0.7169    1.1414 C   0  0  0  0  0  0  0  0  0  0  0  0
  1  2  1  0
  2  3  2  0
  3  4  1  0
  3  5  1  0
  5  6  2  0
  5  7  1  0
  8  7  1  1
  8  9  1  0
 10  9  1  1
 10 11  1  0
 11 12  1  6
 12 13  1  0
 13 14  2  0
 14 15  1  0
 15 16  1  0
 16 17  1  1
 18 17  1  1
 18 19  1  0
 19 20  1  0
 20 21  1  6
 21 22  1  0
 20 23  1  0
 23 24  1  6
 25 24  1  6
 25 26  1  0
 26 27  1  0
 27 28  1  1
 28 29  1  0
 27 30  1  0
 30 31  1  1
 32 31  1  6
 32 33  1  0
 33 34  1  0
 34 35  1  1
 34 36  1  0
 36 37  1  6
 36 38  1  0
 38 39  1  6
 39 40  1  0
 38 41  1  0
 41 42  1  1
 30 43  1  0
 43 44  1  6
 43 45  1  0
 23 46  1  0
 46 47  1  1
 46 48  1  0
 16 49  1  0
 49 50  1  0
 50 51  1  0
 51 52  1  1
 11 53  1  0
 53 54  1  1
 53 55  1  0
 55 56  1  0
 56 57  1  0
 57 58  1  1
 58 59  1  0
 58 60  2  0
 57 61  1  0
 61 62  1  1
 61  8  1  0
 51 10  1  0
 61 53  1  0
 51 14  1  0
 48 18  1  0
 45 25  1  0
 41 32  1  0
M  END
>  <zinc_id>  (1) 
ZINC000255201631

>  <smiles>  (1) 
C/C=C(\C)C(=O)O[C@@H]1C[C@H]2[C@@H](CC=C3C[C@@H](O[C@H]4C[C@H](OC)[C@H](O[C@H]5C[C@H](OC)[C@H](O[C@@H]6O[C@H](C)[C@@H](O)[C@H](OC)[C@H]6O)[C@@H](C)O5)[C@@H](C)O4)CC[C@@]32C)[C@@]2(O)CC[C@H](C(C)=O)[C@@]12C

$$$$
