2372
  -OEChem-10051719333D

 52 53  0     1  0  0  0  0  0999 V2000
   -2.6033   -1.5449   -0.2881 O   0  0  0  0  0  0  0  0  0  0  0  0
   -5.0952   -0.4214    0.2214 O   0  0  0  0  0  0  0  0  0  0  0  0
    2.1058    0.5651    2.1928 O   0  0  0  0  0  0  0  0  0  0  0  0
    3.7130   -0.0682    0.0157 O   0  0  0  0  0  0  0  0  0  0  0  0
   -2.2548    1.9479    0.0508 N   0  0  0  0  0  0  0  0  0  0  0  0
   -3.4857    1.2697   -0.3320 C   0  0  0  0  0  0  0  0  0  0  0  0
   -3.9058    0.2161    0.6958 C   0  0  2  0  0  0  0  0  0  0  0  0
   -1.8476    2.9039   -0.9699 C   0  0  0  0  0  0  0  0  0  0  0  0
   -0.5494    3.6083   -0.5740 C   0  0  0  0  0  0  0  0  0  0  0  0
    0.5854    2.6282   -0.4139 C   0  0  0  0  0  0  0  0  0  0  0  0
   -2.8425   -0.8538    0.9340 C   0  0  0  0  0  0  0  0  0  0  0  0
    0.8278    2.0391    0.8271 C   0  0  0  0  0  0  0  0  0  0  0  0
    1.3927    2.3109   -1.5063 C   0  0  0  0  0  0  0  0  0  0  0  0
    1.8775    1.1326    0.9756 C   0  0  0  0  0  0  0  0  0  0  0  0
    2.4425    1.4046   -1.3577 C   0  0  0  0  0  0  0  0  0  0  0  0
    2.6849    0.8155   -0.1167 C   0  0  0  0  0  0  0  0  0  0  0  0
   -1.3397   -2.0362   -0.4799 C   0  0  0  0  0  0  0  0  0  0  0  0
   -0.5690   -2.4260    0.6154 C   0  0  0  0  0  0  0  0  0  0  0  0
    0.7184   -2.9257    0.4198 C   0  0  0  0  0  0  0  0  0  0  0  0
   -0.8229   -2.1463   -1.7709 C   0  0  0  0  0  0  0  0  0  0  0  0
    1.2352   -3.0358   -0.8711 C   0  0  0  0  0  0  0  0  0  0  0  0
    0.4646   -2.6461   -1.9665 C   0  0  0  0  0  0  0  0  0  0  0  0
    1.5427   -3.3422    1.5906 C   0  0  0  0  0  0  0  0  0  0  0  0
    1.2351    0.9425    3.2575 C   0  0  0  0  0  0  0  0  0  0  0  0
    4.4903   -0.3377   -1.1495 C   0  0  0  0  0  0  0  0  0  0  0  0
   -3.3716    0.7906   -1.3132 H   0  0  0  0  0  0  0  0  0  0  0  0
   -4.3030    1.9941   -0.4449 H   0  0  0  0  0  0  0  0  0  0  0  0
   -4.1499    0.7068    1.6455 H   0  0  0  0  0  0  0  0  0  0  0  0
   -2.6271    3.6623   -1.1110 H   0  0  0  0  0  0  0  0  0  0  0  0
   -1.7046    2.3914   -1.9296 H   0  0  0  0  0  0  0  0  0  0  0  0
   -0.6869    4.1759    0.3556 H   0  0  0  0  0  0  0  0  0  0  0  0
   -0.2884    4.3507   -1.3388 H   0  0  0  0  0  0  0  0  0  0  0  0
   -2.3856    2.4240    0.9427 H   0  0  0  0  0  0  0  0  0  0  0  0
   -1.9409   -0.3731    1.3332 H   0  0  0  0  0  0  0  0  0  0  0  0
   -3.2135   -1.5825    1.6646 H   0  0  0  0  0  0  0  0  0  0  0  0
    0.1742    2.3284    1.6429 H   0  0  0  0  0  0  0  0  0  0  0  0
    1.2113    2.7623   -2.4782 H   0  0  0  0  0  0  0  0  0  0  0  0
   -5.3720   -1.0639    0.8968 H   0  0  0  0  0  0  0  0  0  0  0  0
    3.0268    1.2049   -2.2491 H   0  0  0  0  0  0  0  0  0  0  0  0
   -0.9541   -2.3784    1.6302 H   0  0  0  0  0  0  0  0  0  0  0  0
   -1.4182   -1.8424   -2.6275 H   0  0  0  0  0  0  0  0  0  0  0  0
    2.2384   -3.4197   -1.0366 H   0  0  0  0  0  0  0  0  0  0  0  0
    0.8679   -2.7297   -2.9714 H   0  0  0  0  0  0  0  0  0  0  0  0
    2.0874   -2.4816    1.9913 H   0  0  0  0  0  0  0  0  0  0  0  0
    0.9160   -3.7632    2.3841 H   0  0  0  0  0  0  0  0  0  0  0  0
    2.2674   -4.1145    1.3115 H   0  0  0  0  0  0  0  0  0  0  0  0
    1.3224    2.0088    3.4922 H   0  0  0  0  0  0  0  0  0  0  0  0
    0.2008    0.6409    3.0588 H   0  0  0  0  0  0  0  0  0  0  0  0
    1.5593    0.3939    4.1479 H   0  0  0  0  0  0  0  0  0  0  0  0
    5.2612   -1.0604   -0.8622 H   0  0  0  0  0  0  0  0  0  0  0  0
    5.0107    0.5585   -1.5039 H   0  0  0  0  0  0  0  0  0  0  0  0
    3.8897   -0.8096   -1.9346 H   0  0  0  0  0  0  0  0  0  0  0  0
  1 11  1  0  0  0  0
  1 17  1  0  0  0  0
  2  7  1  0  0  0  0
  2 38  1  0  0  0  0
  3 14  1  0  0  0  0
  3 24  1  0  0  0  0
  4 16  1  0  0  0  0
  4 25  1  0  0  0  0
  5  6  1  0  0  0  0
  5  8  1  0  0  0  0
  5 33  1  0  0  0  0
  6  7  1  0  0  0  0
  6 26  1  0  0  0  0
  6 27  1  0  0  0  0
  7 11  1  0  0  0  0
  7 28  1  0  0  0  0
  8  9  1  0  0  0  0
  8 29  1  0  0  0  0
  8 30  1  0  0  0  0
  9 10  1  0  0  0  0
  9 31  1  0  0  0  0
  9 32  1  0  0  0  0
 10 12  2  0  0  0  0
 10 13  1  0  0  0  0
 11 34  1  0  0  0  0
 11 35  1  0  0  0  0
 12 14  1  0  0  0  0
 12 36  1  0  0  0  0
 13 15  2  0  0  0  0
 13 37  1  0  0  0  0
 14 16  2  0  0  0  0
 15 16  1  0  0  0  0
 15 39  1  0  0  0  0
 17 18  1  0  0  0  0
 17 20  2  0  0  0  0
 18 19  2  0  0  0  0
 18 40  1  0  0  0  0
 19 21  1  0  0  0  0
 19 23  1  0  0  0  0
 20 22  1  0  0  0  0
 20 41  1  0  0  0  0
 21 22  2  0  0  0  0
 21 42  1  0  0  0  0
 22 43  1  0  0  0  0
 23 44  1  0  0  0  0
 23 45  1  0  0  0  0
 23 46  1  0  0  0  0
 24 47  1  0  0  0  0
 24 48  1  0  0  0  0
 24 49  1  0  0  0  0
 25 50  1  0  0  0  0
 25 51  1  0  0  0  0
 25 52  1  0  0  0  0
M  END
> <DATABASE_ID>
DB01295

> <DATABASE_NAME>
drugbank

> <ORIGINAL_SOURCE>
PUBCHEM

> <ORIGINAL_SOURCE_URL>
https://pubchem.ncbi.nlm.nih.gov/rest/pug/compound/inchikey/HXLAFSUPPDYFEO-UHFFFAOYSA-N/SDF?record_type=3d

> <SMILES>
COC1=C(OC)C=C(CCNCC(O)COC2=CC=CC(C)=C2)C=C1

> <INCHI_IDENTIFIER>
InChI=1S/C20H27NO4/c1-15-5-4-6-18(11-15)25-14-17(22)13-21-10-9-16-7-8-19(23-2)20(12-16)24-3/h4-8,11-12,17,21-22H,9-10,13-14H2,1-3H3

> <INCHI_KEY>
HXLAFSUPPDYFEO-UHFFFAOYSA-N

> <FORMULA>
C20H27NO4

> <MOLECULAR_WEIGHT>
345.4327

> <EXACT_MASS>
345.194008357

> <JCHEM_ACCEPTOR_COUNT>
5

> <JCHEM_ATOM_COUNT>
52

> <JCHEM_AVERAGE_NEUTRAL_MICROSPECIES_CHARGE>
0.995168736564197

> <JCHEM_AVERAGE_POLARIZABILITY>
39.74763139047602

> <JCHEM_BIOAVAILABILITY>
1

> <JCHEM_DONOR_COUNT>
2

> <JCHEM_FORMAL_CHARGE>
0

> <JCHEM_GHOSE_FILTER>
1

> <JCHEM_IUPAC>
1-{[2-(3,4-dimethoxyphenyl)ethyl]amino}-3-(3-methylphenoxy)propan-2-ol

> <ALOGPS_LOGP>
2.83

> <JCHEM_LOGP>
3.032049373666668

> <ALOGPS_LOGS>
-4.40

> <JCHEM_MDDR_LIKE_RULE>
0

> <JCHEM_NEUTRAL_CHARGE>
1

> <JCHEM_NUMBER_OF_RINGS>
2

> <JCHEM_PHYSIOLOGICAL_CHARGE>
1

> <JCHEM_PKA_STRONGEST_ACIDIC>
14.088176278612254

> <JCHEM_PKA_STRONGEST_BASIC>
9.313843379547583

> <JCHEM_POLAR_SURFACE_AREA>
59.95

> <JCHEM_REFRACTIVITY>
98.54330000000002

> <JCHEM_ROTATABLE_BOND_COUNT>
10

> <JCHEM_RULE_OF_FIVE>
1

> <ALOGPS_SOLUBILITY>
1.37e-02 g/l

> <JCHEM_TRADITIONAL_IUPAC>
tetrahydrofolic acid

> <JCHEM_VEBER_RULE>
0

$$$$
