
     RDKit          3D

 64 71  0  0  0  0  0  0  0  0999 V2000
    5.6268   -0.4036    3.5821 C   0  0  0  0  0  0  0  0  0  0  0  0
    5.6176    0.1668    2.5445 O   0  0  0  0  0  0  0  0  0  0  0  0
    5.4630   -1.0134    1.6218 C   0  0  1  0  0  0  0  0  0  0  0  0
    3.8638   -0.7624    1.4413 C   0  0  0  0  0  0  0  0  0  0  0  0
    3.7631    0.4899    0.3538 C   0  0  2  0  0  0  0  0  0  0  0  0
    2.2332    0.5380    0.4175 O   0  0  0  0  0  0  0  0  0  0  0  0
    1.8694   -0.3835   -0.7183 C   0  0  2  0  0  0  0  0  0  0  0  0
    0.3052   -0.0262   -0.7625 C   0  0  0  0  0  0  0  0  0  0  0  0
    0.0321   -0.3972   -2.2133 C   0  0  0  0  0  0  0  0  0  0  0  0
   -0.1295    1.1489   -0.5093 C   0  0  0  0  0  0  0  0  0  0  0  0
   -0.7717    1.9032    0.4489 C   0  0  0  0  0  0  0  0  0  0  0  0
   -2.1609    1.2488    1.0302 C   0  0  2  0  0  0  0  0  0  0  0  0
   -2.4809    0.1805   -0.1983 C   0  0  0  0  0  0  0  0  0  0  0  0
   -3.4127   -0.7970    0.7509 C   0  0  1  0  0  0  0  0  0  0  0  0
   -4.2733    0.4707    1.3577 C   0  0  0  0  0  0  0  0  0  0  0  0
   -4.2320    1.6034    0.4367 C   0  0  1  0  0  0  0  0  0  0  0  0
   -4.7793    1.4117   -0.9209 C   0  0  0  0  0  0  0  0  0  0  0  0
   -5.9249    1.9355   -1.2627 C   0  0  0  0  0  0  0  0  0  0  0  0
   -6.3289    3.3965   -0.7940 C   0  0  2  0  0  0  0  0  0  0  0  0
   -5.7520    4.0718   -2.1534 C   0  0  0  0  0  0  0  0  0  0  0  0
   -4.8563    3.6882    0.0172 C   0  0  1  0  0  0  0  0  0  0  0  0
   -5.5021    4.7925    1.0348 C   0  0  0  0  0  0  0  0  0  0  0  0
   -6.6714    5.4537    0.4142 C   0  0  0  0  0  0  0  0  0  0  0  0
   -6.6657    6.9506    0.5241 C   0  0  0  0  0  0  0  0  0  0  0  0
   -5.5830    7.4857   -0.4027 C   0  0  0  0  0  0  0  0  0  0  0  0
   -4.3417    6.6425   -0.2324 C   0  0  0  0  0  0  0  0  0  0  0  0
   -4.3918    5.8409    1.0504 C   0  0  0  0  0  0  0  0  0  0  0  0
   -5.1051    2.5588    0.9901 O   0  0  0  0  0  0  0  0  0  0  0  0
   -3.0184    2.2891    0.3318 O   0  0  0  0  0  0  0  0  0  0  0  0
   -4.4911   -1.1101   -0.2873 O   0  0  0  0  0  0  0  0  0  0  0  0
   -4.9033   -2.3640    0.2607 C   0  0  0  0  0  0  0  0  0  0  0  0
   -6.1891   -2.3257    0.2120 O   0  0  0  0  0  0  0  0  0  0  0  0
   -4.2266   -3.3250   -0.8472 C   0  0  2  0  0  0  0  0  0  0  0  0
   -5.3542   -4.4632   -0.5768 C   0  0  0  0  0  0  0  0  0  0  0  0
   -5.3693   -5.5282   -1.2511 C   0  0  0  0  0  0  0  0  0  0  0  0
   -6.1114   -6.6158   -0.5288 C   0  0  0  0  0  0  0  0  0  0  0  0
   -3.8562   -5.9693   -1.6067 C   0  0  1  0  0  0  0  0  0  0  0  0
   -3.5786   -4.6316   -2.2348 O   0  0  0  0  0  0  0  0  0  0  0  0
   -3.4493   -5.6592    0.0423 C   0  0  1  0  0  0  0  0  0  0  0  0
   -2.0619   -6.2059   -0.1954 O   0  0  0  0  0  0  0  0  0  0  0  0
   -1.6195   -5.4518   -1.2529 C   0  0  0  0  0  0  0  0  0  0  0  0
   -1.7524   -4.0471   -0.6500 C   0  0  0  0  0  0  0  0  0  0  0  0
   -0.9506   -3.5590    0.2391 C   0  0  0  0  0  0  0  0  0  0  0  0
    0.4205   -3.4005    0.4695 C   0  0  0  0  0  0  0  0  0  0  0  0
    0.7277   -2.4840   -0.4693 C   0  0  0  0  0  0  0  0  0  0  0  0
    1.7646   -1.6697    0.4164 C   0  0  2  0  0  0  0  0  0  0  0  0
    0.6652   -1.0140    1.4207 C   0  0  0  0  0  0  0  0  0  0  0  0
   -3.0768   -4.0879   -0.0087 C   0  0  1  0  0  0  0  0  0  0  0  0
   -3.1732   -3.7766    1.2850 O   0  0  0  0  0  0  0  0  0  0  0  0
    3.8452   -0.3881   -0.9055 O   0  0  0  0  0  0  0  0  0  0  0  0
    4.9391   -1.3542   -0.5763 C   0  0  1  0  0  0  0  0  0  0  0  0
    5.6712   -1.1722   -2.0298 C   0  0  0  0  0  0  0  0  0  0  0  0
    5.7504   -0.0729    0.2257 C   0  0  2  0  0  0  0  0  0  0  0  0
    7.1533   -0.5120   -0.0259 O   0  0  0  0  0  0  0  0  0  0  0  0
    7.3597    0.9966   -0.3081 C   0  0  1  0  0  0  0  0  0  0  0  0
    8.7897    1.0076    0.5324 C   0  0  0  0  0  0  0  0  0  0  0  0
    9.7929    1.6076   -0.6111 C   0  0  2  0  0  0  0  0  0  0  0  0
   10.4818    2.5222    0.3672 O   0  0  0  0  0  0  0  0  0  0  0  0
    9.5037    3.1433    1.1170 C   0  0  0  0  0  0  0  0  0  0  0  0
    8.6971    2.8527   -1.0296 C   0  0  1  0  0  0  0  0  0  0  0  0
    9.7313    3.4389   -1.9376 O   0  0  0  0  0  0  0  0  0  0  0  0
    7.9957    2.0067   -2.3394 C   0  0  2  0  0  0  0  0  0  0  0  0
    6.4949    2.4608   -1.8530 C   0  0  0  0  0  0  0  0  0  0  0  0
    7.9866    0.6671   -1.6551 O   0  0  0  0  0  0  0  0  0  0  0  0
  1  2  1  0
  3  2  1  1
  3  4  1  0
  4  5  1  0
  5  6  1  6
  7  6  1  1
  7  8  1  0
  8  9  1  0
  8 10  2  0
 10 11  1  0
 12 11  1  6
 12 13  1  0
 13 14  1  0
 14 15  1  1
 16 15  1  1
 16 17  1  0
 17 18  2  0
 18 19  1  0
 19 20  1  6
 19 21  1  0
 21 22  1  1
 22 23  1  0
 23 24  1  0
 24 25  1  0
 25 26  1  0
 26 27  1  0
 21 28  1  0
 16 29  1  0
 14 30  1  0
 30 31  1  0
 31 32  2  0
 33 31  1  1
 33 34  1  0
 34 35  2  0
 35 36  1  0
 35 37  1  0
 37 38  1  6
 37 39  1  0
 39 40  1  6
 40 41  1  0
 41 42  1  0
 42 43  2  0
 43 44  1  0
 44 45  2  0
 45 46  1  0
 46 47  1  1
 42 48  1  0
 48 49  1  1
  5 50  1  0
 50 51  1  0
 51 52  1  6
 51 53  1  0
 53 54  1  6
 55 54  1  1
 55 56  1  0
 56 57  1  0
 57 58  1  1
 58 59  1  0
 57 60  1  0
 60 61  1  6
 60 62  1  0
 62 63  1  1
 62 64  1  0
 53  3  1  0
 64 55  1  0
 46  7  1  0
 29 12  1  0
 48 33  1  0
 28 16  1  0
 48 39  1  0
 27 22  1  0
M  END
>  <zinc_id>  (1) 
ZINC000245253793

>  <smiles>  (1) 
CO[C@H]1C[C@H](O[C@H]2[C@H](C)O[C@@H](O[C@@H]3/C(C)=C/C[C@@H]4C[C@@H](C[C@]5(C=C[C@H](C)[C@@H](C6CCCCC6)O5)O4)OC(=O)[C@@H]4C=C(C)[C@@H](O)[C@H]5OC/C(=C\C=C\[C@@H]3C)[C@@]45O)C[C@@H]2OC)O[C@@H](C)[C@@H]1O

$$$$
