
     RDKit          3D

 54 56  0  0  0  0  0  0  0  0999 V2000
    5.4955    2.8034    4.3573 C   0  0  0  0  0  0  0  0  0  0  0  0
    5.1147    2.8821    2.9039 C   0  0  0  0  0  0  0  0  0  0  0  0
    5.3847    1.5708    2.1647 C   0  0  0  0  0  0  0  0  0  0  0  0
    4.5515    1.5424    1.0216 N   0  0  0  0  0  0  0  0  0  0  0  0
    4.6361    0.7891   -0.0180 C   0  0  0  0  0  0  0  0  0  0  0  0
    4.7071   -0.8191    0.1666 C   0  0  2  0  0  0  0  0  0  0  0  0
    6.0892   -0.9735   -0.6520 C   0  0  0  0  0  0  0  0  0  0  0  0
    3.5947   -0.9298   -1.1289 C   0  0  1  0  0  0  0  0  0  0  0  0
    4.5312   -0.4806   -2.2292 O   0  0  0  0  0  0  0  0  0  0  0  0
    3.7091   -2.5079   -1.4729 C   0  0  2  0  0  0  0  0  0  0  0  0
    4.8117   -3.2228   -1.0702 C   0  0  0  0  0  0  0  0  0  0  0  0
    3.3797   -2.4885   -2.8494 O   0  0  0  0  0  0  0  0  0  0  0  0
    2.2231   -3.0869   -1.0744 C   0  0  1  0  0  0  0  0  0  0  0  0
    2.5945   -3.2354    0.5221 C   0  0  0  0  0  0  0  0  0  0  0  0
    3.2838   -4.5901    0.6287 C   0  0  0  0  0  0  0  0  0  0  0  0
    1.5957   -1.6949   -0.8751 O   0  0  0  0  0  0  0  0  0  0  0  0
    0.9527   -1.0885   -1.9317 C   0  0  0  0  0  0  0  0  0  0  0  0
    1.0481   -0.0484   -2.4990 O   0  0  0  0  0  0  0  0  0  0  0  0
   -0.3723   -1.9451   -1.8112 C   0  0  2  0  0  0  0  0  0  0  0  0
   -1.0544   -1.3220   -3.1528 C   0  0  0  0  0  0  0  0  0  0  0  0
   -1.2795   -0.9352   -0.7624 C   0  0  1  0  0  0  0  0  0  0  0  0
   -1.2024   -2.1409    0.1404 O   0  0  0  0  0  0  0  0  0  0  0  0
   -2.4871   -2.8852   -0.1564 C   0  0  1  0  0  0  0  0  0  0  0  0
   -2.4522   -3.4294    1.4221 C   0  0  0  0  0  0  0  0  0  0  0  0
   -3.5807   -4.4175    1.4152 C   0  0  1  0  0  0  0  0  0  0  0  0
   -3.1609   -5.7533    0.9541 C   0  0  0  0  0  0  0  0  0  0  0  0
   -4.1721   -4.3050    2.6247 O   0  0  0  0  0  0  0  0  0  0  0  0
   -3.2112   -4.4863    3.5960 C   0  0  0  0  0  0  0  0  0  0  0  0
   -4.5184   -3.7239    0.2693 C   0  0  1  0  0  0  0  0  0  0  0  0
   -5.8190   -4.0492    0.9643 O   0  0  0  0  0  0  0  0  0  0  0  0
   -4.3877   -2.2183    1.1099 C   0  0  2  0  0  0  0  0  0  0  0  0
   -5.6049   -1.5715    0.2206 C   0  0  0  0  0  0  0  0  0  0  0  0
   -3.3389   -1.6656    0.1819 O   0  0  0  0  0  0  0  0  0  0  0  0
   -0.0468   -0.2849    0.1912 C   0  0  2  0  0  0  0  0  0  0  0  0
   -1.0346   -0.3012    1.4720 C   0  0  0  0  0  0  0  0  0  0  0  0
   -0.2037    1.3416   -0.2743 C   0  0  1  0  0  0  0  0  0  0  0  0
   -1.4182    1.7246    0.5105 O   0  0  0  0  0  0  0  0  0  0  0  0
   -2.4290    2.2567   -0.5029 C   0  0  2  0  0  0  0  0  0  0  0  0
   -1.4364    2.3270   -1.6283 O   0  0  0  0  0  0  0  0  0  0  0  0
   -2.0747    3.1440   -2.7279 C   0  0  2  0  0  0  0  0  0  0  0  0
   -1.1161    4.4447   -2.3324 C   0  0  0  0  0  0  0  0  0  0  0  0
   -3.4897    3.5491   -2.0546 C   0  0  0  0  0  0  0  0  0  0  0  0
   -3.5076    4.4533   -0.7476 C   0  0  2  0  0  0  0  0  0  0  0  0
   -2.9587    5.7684   -1.4207 N   0  0  0  0  0  0  0  0  0  0  0  0
   -3.9079    6.0043   -2.5166 C   0  0  0  0  0  0  0  0  0  0  0  0
   -3.2043    6.8394   -0.4877 C   0  0  0  0  0  0  0  0  0  0  0  0
   -2.0456    3.8885   -0.0774 C   0  0  1  0  0  0  0  0  0  0  0  0
   -2.7031    3.7260    1.2514 O   0  0  0  0  0  0  0  0  0  0  0  0
    0.8376    1.8496    0.8740 C   0  0  2  0  0  0  0  0  0  0  0  0
    0.4158    1.5989    2.2165 C   0  0  0  0  0  0  0  0  0  0  0  0
    0.8119    3.2674    0.7882 O   0  0  0  0  0  0  0  0  0  0  0  0
    2.2215    1.4426    0.4378 C   0  0  0  0  0  0  0  0  0  0  0  0
    3.2253    2.2596    1.4379 C   0  0  1  0  0  0  0  0  0  0  0  0
    3.0029    1.1272    2.6110 C   0  0  0  0  0  0  0  0  0  0  0  0
  1  2  1  0
  2  3  1  0
  3  4  1  0
  4  5  1  0
  5  6  1  0
  6  7  1  6
  6  8  1  0
  8  9  1  6
  8 10  1  0
 10 11  1  6
 10 12  1  0
 10 13  1  0
 13 14  1  1
 14 15  1  0
 13 16  1  0
 16 17  1  0
 17 18  2  0
 17 19  1  0
 19 20  1  6
 19 21  1  0
 21 22  1  1
 23 22  1  1
 23 24  1  0
 24 25  1  0
 25 26  1  6
 25 27  1  0
 27 28  1  0
 25 29  1  0
 29 30  1  1
 29 31  1  0
 31 32  1  6
 31 33  1  0
 21 34  1  0
 34 35  1  1
 34 36  1  0
 36 37  1  1
 38 37  1  1
 38 39  1  0
 39 40  1  0
 40 41  1  1
 40 42  1  0
 42 43  1  0
 43 44  1  6
 44 45  1  0
 44 46  1  0
 43 47  1  0
 47 48  1  1
 36 49  1  0
 49 50  1  1
 49 51  1  0
 49 52  1  0
 52 53  1  0
 53 54  1  1
 53  4  1  0
 33 23  1  0
 47 38  1  0
M  END
>  <zinc_id>  (1) 
ZINC000169292837

>  <smiles>  (1) 
CCCN1C[C@H](C)[C@@H](O)[C@](C)(O)[C@@H](CC)OC(=O)[C@H](C)[C@@H](O[C@H]2C[C@@](C)(OC)[C@@H](O)[C@H](C)O2)[C@H](C)[C@@H](O[C@@H]2O[C@H](C)C[C@H](N(C)C)[C@H]2O)[C@](C)(O)C[C@H]1C

$$$$
