
     RDKit          3D

 54 58  0  0  0  0  0  0  0  0999 V2000
   -9.5703    0.7328    0.5760 C   0  0  0  0  0  0  0  0  0  0  0  0
   -9.2307    0.8731   -0.1310 C   0  0  0  0  0  0  0  0  0  0  0  0
   -7.6597    0.5196   -0.3293 C   0  0  1  0  0  0  0  0  0  0  0  0
   -7.6504   -0.1636    1.1093 C   0  0  0  0  0  0  0  0  0  0  0  0
   -7.3341    0.7607    1.9247 O   0  0  0  0  0  0  0  0  0  0  0  0
   -6.9477   -1.3300    1.2813 O   0  0  0  0  0  0  0  0  0  0  0  0
   -7.8806   -0.9662   -1.1255 C   0  0  2  0  0  0  0  0  0  0  0  0
   -6.4848   -1.1449   -1.6216 O   0  0  0  0  0  0  0  0  0  0  0  0
   -5.7251    0.1079   -1.3787 C   0  0  1  0  0  0  0  0  0  0  0  0
   -4.3871   -0.5398   -2.1987 C   0  0  1  0  0  0  0  0  0  0  0  0
   -3.6975    0.8092   -2.7360 C   0  0  0  0  0  0  0  0  0  0  0  0
   -3.4026   -0.9742   -0.9015 C   0  0  2  0  0  0  0  0  0  0  0  0
   -4.4809   -1.0990    0.1523 O   0  0  0  0  0  0  0  0  0  0  0  0
   -2.8217    0.4488   -0.1756 C   0  0  2  0  0  0  0  0  0  0  0  0
   -3.8916    1.5710   -0.6060 C   0  0  0  0  0  0  0  0  0  0  0  0
   -1.6517    0.7206   -1.2619 C   0  0  0  0  0  0  0  0  0  0  0  0
   -1.0841   -0.3138   -1.6272 O   0  0  0  0  0  0  0  0  0  0  0  0
   -0.6893    1.8077   -0.5846 C   0  0  2  0  0  0  0  0  0  0  0  0
    0.5014    1.6072   -1.6727 C   0  0  0  0  0  0  0  0  0  0  0  0
    1.0769    2.9595   -1.9621 C   0  0  0  0  0  0  0  0  0  0  0  0
   -0.0907    0.6878    0.5525 C   0  0  1  0  0  0  0  0  0  0  0  0
    1.3413    1.1233    0.4784 O   0  0  0  0  0  0  0  0  0  0  0  0
    1.9320    0.0472    1.0055 C   0  0  1  0  0  0  0  0  0  0  0  0
    1.9038   -1.2001    0.2536 C   0  0  0  0  0  0  0  0  0  0  0  0
    3.0768   -1.8519    0.1441 C   0  0  0  0  0  0  0  0  0  0  0  0
    3.4738   -2.1117    1.7017 C   0  0  1  0  0  0  0  0  0  0  0  0
    4.8324   -2.6953    1.3420 O   0  0  0  0  0  0  0  0  0  0  0  0
    4.0297   -0.5834    1.8698 C   0  0  1  0  0  0  0  0  0  0  0  0
    4.4989   -0.5920    3.2709 C   0  0  0  0  0  0  0  0  0  0  0  0
    5.9771   -0.1744    3.1329 C   0  0  0  0  0  0  0  0  0  0  0  0
    5.7241    0.5770    1.8964 C   0  0  1  0  0  0  0  0  0  0  0  0
    4.9376    1.7987    2.1790 C   0  0  0  0  0  0  0  0  0  0  0  0
    7.0827    1.1523    1.2143 C   0  0  1  0  0  0  0  0  0  0  0  0
    8.0107   -0.1483    1.6528 C   0  0  0  0  0  0  0  0  0  0  0  0
    9.2073    0.2594    0.7808 C   0  0  0  0  0  0  0  0  0  0  0  0
    8.7804   -0.0428   -0.6508 C   0  0  2  0  0  0  0  0  0  0  0  0
    9.5092   -1.0601   -1.2142 O   0  0  0  0  0  0  0  0  0  0  0  0
    8.5889    1.1573   -1.4890 C   0  0  0  0  0  0  0  0  0  0  0  0
    8.5813    0.9319   -2.9583 C   0  0  0  0  0  0  0  0  0  0  0  0
    7.3030   -0.6789   -0.2891 C   0  0  2  0  0  0  0  0  0  0  0  0
    6.8679   -0.8143   -1.8682 C   0  0  0  0  0  0  0  0  0  0  0  0
    6.6781    0.6891   -0.1745 O   0  0  0  0  0  0  0  0  0  0  0  0
    5.1730   -0.4046    1.1400 O   0  0  0  0  0  0  0  0  0  0  0  0
    3.2117    0.2968    1.3611 O   0  0  0  0  0  0  0  0  0  0  0  0
    1.4590   -0.2262    2.5446 C   0  0  2  0  0  0  0  0  0  0  0  0
    0.1086   -1.0865    2.1883 C   0  0  0  0  0  0  0  0  0  0  0  0
    0.8445    1.2295    2.8387 C   0  0  0  0  0  0  0  0  0  0  0  0
   -0.3013    1.7515    1.8687 C   0  0  2  0  0  0  0  0  0  0  0  0
   -1.4613    0.9088    2.6471 C   0  0  0  0  0  0  0  0  0  0  0  0
   -6.1494    0.9588   -2.8037 C   0  0  1  0  0  0  0  0  0  0  0  0
   -6.2465   -0.3097   -3.8109 C   0  0  0  0  0  0  0  0  0  0  0  0
   -7.7293    1.1164   -2.4960 C   0  0  0  0  0  0  0  0  0  0  0  0
   -8.2988   -0.3804   -2.6710 C   0  0  2  0  0  0  0  0  0  0  0  0
   -9.8451   -0.0081   -2.3688 C   0  0  0  0  0  0  0  0  0  0  0  0
  1  2  1  0
  3  2  1  1
  3  4  1  0
  4  5  2  0
  4  6  1  0
  3  7  1  0
  7  8  1  6
  9  8  1  6
  9 10  1  0
 10 11  1  6
 10 12  1  0
 12 13  1  1
 12 14  1  0
 14 15  1  6
 14 16  1  0
 16 17  2  0
 18 16  1  6
 18 19  1  0
 19 20  1  0
 18 21  1  0
 21 22  1  6
 23 22  1  6
 23 24  1  0
 24 25  2  0
 25 26  1  0
 26 27  1  6
 26 28  1  0
 28 29  1  1
 29 30  1  0
 30 31  1  0
 31 32  1  1
 31 33  1  0
 33 34  1  1
 34 35  1  0
 35 36  1  0
 36 37  1  6
 36 38  1  0
 38 39  1  0
 36 40  1  0
 40 41  1  6
 40 42  1  0
 31 43  1  0
 28 44  1  0
 23 45  1  0
 45 46  1  6
 45 47  1  0
 47 48  1  0
 48 49  1  1
  9 50  1  0
 50 51  1  6
 50 52  1  0
 52 53  1  0
 53 54  1  1
 53  7  1  0
 48 21  1  0
 44 23  1  0
 43 28  1  0
 42 33  1  0
M  END
>  <zinc_id>  (1) 
ZINC000085540282

>  <smiles>  (1) 
CC[C@@H](C(=O)[C@@H](C)[C@@H](O)[C@H](C)[C@@H]1O[C@@H]([C@@H](CC)C(=O)O)[C@@H](C)C[C@@H]1C)[C@H]1O[C@]2(C=C[C@@H](O)[C@]3(CC[C@@](C)([C@H]4CC[C@](O)(CC)[C@H](C)O4)O3)O2)[C@H](C)C[C@@H]1C

$$$$
