
     RDKit          3D

 27 27  0  0  0  0  0  0  0  0999 V2000
    7.0425    4.8462   -0.6407 C   0  0  0  0  0  0  0  0  0  0  0  0
    6.6428    3.4596   -0.9171 C   0  0  0  0  0  0  0  0  0  0  0  0
    5.1762    3.1974   -0.6611 C   0  0  0  0  0  0  0  0  0  0  0  0
    5.0788    2.8402    0.8175 C   0  0  0  0  0  0  0  0  0  0  0  0
    3.9552    1.9018    1.0527 C   0  0  0  0  0  0  0  0  0  0  0  0
    4.0700    0.5630    0.3984 C   0  0  1  0  0  0  0  0  0  0  0  0
    4.9192    0.4958   -0.8137 C   0  0  0  0  0  0  0  0  0  0  0  0
    4.6468   -0.2884    1.3589 O   0  0  0  0  0  0  0  0  0  0  0  0
    2.6858    0.0893    0.2302 C   0  0  0  0  0  0  0  0  0  0  0  0
    2.0843   -0.4840   -0.7309 C   0  0  0  0  0  0  0  0  0  0  0  0
    1.2518   -1.8307   -0.5572 C   0  0  1  0  0  0  0  0  0  0  0  0
    0.9247   -1.5708    1.0847 C   0  0  2  0  0  0  0  0  0  0  0  0
    0.9057   -3.0690    1.3355 O   0  0  0  0  0  0  0  0  0  0  0  0
   -0.6993   -1.5013    0.9785 C   0  0  0  0  0  0  0  0  0  0  0  0
   -0.3909   -0.1394    0.1286 C   0  0  2  0  0  0  0  0  0  0  0  0
   -1.8350    0.0582   -0.2739 O   0  0  0  0  0  0  0  0  0  0  0  0
   -0.1002   -1.1163   -1.2245 C   0  0  2  0  0  0  0  0  0  0  0  0
   -1.0648   -2.3595   -0.8946 C   0  0  0  0  0  0  0  0  0  0  0  0
   -2.2656   -2.3481   -1.6778 C   0  0  0  0  0  0  0  0  0  0  0  0
   -3.3221   -2.7771   -1.0083 C   0  0  0  0  0  0  0  0  0  0  0  0
   -4.3681   -2.8258   -0.2072 C   0  0  0  0  0  0  0  0  0  0  0  0
   -5.2554   -1.6850   -0.2898 C   0  0  0  0  0  0  0  0  0  0  0  0
   -5.1926   -0.6592    0.7680 C   0  0  0  0  0  0  0  0  0  0  0  0
   -5.6606    0.6340    0.1775 C   0  0  0  0  0  0  0  0  0  0  0  0
   -4.9448    1.6521    0.4171 O   0  0  0  0  0  0  0  0  0  0  0  0
   -6.8701    0.7991   -0.4587 O   0  0  0  0  0  0  0  0  0  0  0  0
   -7.4142    2.1179   -0.4725 C   0  0  0  0  0  0  0  0  0  0  0  0
  1  2  1  0
  2  3  1  0
  3  4  1  0
  4  5  1  0
  6  5  1  1
  6  7  1  0
  6  8  1  0
  6  9  1  0
  9 10  2  0
 11 10  1  6
 11 12  1  0
 12 13  1  1
 12 14  1  0
 14 15  1  0
 15 16  1  6
 15 17  1  0
 17 18  1  1
 18 19  1  0
 19 20  2  3
 20 21  2  3
 21 22  1  0
 22 23  1  0
 23 24  1  0
 24 25  2  0
 24 26  1  0
 26 27  1  0
 17 11  1  0
M  END
>  <zinc_id>  (1) 
ZINC000005513458

>  <smiles>  (1) 
CCCCC[C@@](C)(O)/C=C/[C@H]1[C@H](O)C[C@H](O)[C@@H]1CC=C=CCCC(=O)OC

$$$$
