
     RDKit          3D

 61 64  0  0  0  0  0  0  0  0999 V2000
    3.6950   -0.9111   -2.9229 C   0  0  0  0  0  0  0  0  0  0  0  0
    2.7698   -0.7846   -2.3488 C   0  0  0  0  0  0  0  0  0  0  0  0
    2.9908    0.2331   -1.0781 C   0  0  1  0  0  0  0  0  0  0  0  0
    1.5410    0.0579   -0.6569 O   0  0  0  0  0  0  0  0  0  0  0  0
    1.1308    1.3983   -0.5865 C   0  0  0  0  0  0  0  0  0  0  0  0
    0.6043    2.1161   -1.4600 O   0  0  0  0  0  0  0  0  0  0  0  0
    1.2258    1.7309    0.8591 C   0  0  0  0  0  0  0  0  0  0  0  0
   -0.0159    0.9090    1.5720 C   0  0  1  0  0  0  0  0  0  0  0  0
   -0.2695    1.9877    2.5885 O   0  0  0  0  0  0  0  0  0  0  0  0
   -1.0923    1.4057    0.3548 C   0  0  2  0  0  0  0  0  0  0  0  0
   -1.0991    2.9522    0.7779 C   0  0  0  0  0  0  0  0  0  0  0  0
   -2.5212    1.0271    1.1672 C   0  0  1  0  0  0  0  0  0  0  0  0
   -3.3325    1.3555   -0.0599 O   0  0  0  0  0  0  0  0  0  0  0  0
   -3.5879    2.7836    0.4005 C   0  0  2  0  0  0  0  0  0  0  0  0
   -4.8541    2.4165    1.1660 O   0  0  0  0  0  0  0  0  0  0  0  0
   -4.9130    3.7798    1.8205 C   0  0  2  0  0  0  0  0  0  0  0  0
   -6.2929    3.4037    2.6182 C   0  0  0  0  0  0  0  0  0  0  0  0
   -5.8375    4.4775    0.5491 C   0  0  1  0  0  0  0  0  0  0  0  0
   -5.7299    5.8259    1.1918 O   0  0  0  0  0  0  0  0  0  0  0  0
   -4.4836    4.7703   -0.4301 C   0  0  2  0  0  0  0  0  0  0  0  0
   -5.3242    5.4323   -1.5421 N   0  0  0  0  0  0  0  0  0  0  0  0
   -4.3676    6.3165   -2.1235 C   0  0  0  0  0  0  0  0  0  0  0  0
   -5.7706    4.4893   -2.4954 C   0  0  0  0  0  0  0  0  0  0  0  0
   -4.5561    3.1630   -0.9745 C   0  0  1  0  0  0  0  0  0  0  0  0
   -3.3865    3.3288   -1.8855 O   0  0  0  0  0  0  0  0  0  0  0  0
   -2.4717   -0.6548    0.9079 C   0  0  1  0  0  0  0  0  0  0  0  0
   -4.0306   -0.8133    0.4959 C   0  0  0  0  0  0  0  0  0  0  0  0
   -4.6808   -1.8825    1.2913 C   0  0  0  0  0  0  0  0  0  0  0  0
   -5.2830   -2.9506    0.5985 N   0  0  0  0  0  0  0  0  0  0  0  0
   -4.5350   -4.0637    0.2160 C   0  0  0  0  0  0  0  0  0  0  0  0
   -5.3562   -5.4310    0.5332 C   0  0  2  0  0  0  0  0  0  0  0  0
   -4.5323   -6.2737   -0.5949 C   0  0  0  0  0  0  0  0  0  0  0  0
   -6.5504   -5.0389   -0.5050 C   0  0  0  0  0  0  0  0  0  0  0  0
   -7.3602   -4.0802    0.5368 C   0  0  2  0  0  0  0  0  0  0  0  0
   -8.5844   -3.8396   -0.5104 C   0  0  0  0  0  0  0  0  0  0  0  0
   -6.5640   -2.7476    0.0366 C   0  0  0  0  0  0  0  0  0  0  0  0
   -1.9751   -0.6097   -0.6233 C   0  0  0  0  0  0  0  0  0  0  0  0
   -1.5500   -2.1651   -0.9003 C   0  0  1  0  0  0  0  0  0  0  0  0
   -0.2559   -1.6812   -1.7765 C   0  0  0  0  0  0  0  0  0  0  0  0
   -0.7579   -2.3878    0.4735 C   0  0  0  0  0  0  0  0  0  0  0  0
   -1.4387   -2.8477    1.4329 O   0  0  0  0  0  0  0  0  0  0  0  0
    0.2472   -3.3577    0.1597 C   0  0  0  0  0  0  0  0  0  0  0  0
    1.3119   -3.1403   -0.5102 C   0  0  0  0  0  0  0  0  0  0  0  0
    2.4822   -2.9161    0.3704 C   0  0  0  0  0  0  0  0  0  0  0  0
    3.0629   -3.9587    1.2890 C   0  0  0  0  0  0  0  0  0  0  0  0
    2.5257   -1.6042    0.6410 C   0  0  0  0  0  0  0  0  0  0  0  0
    3.7448   -1.0039   -0.1888 C   0  0  2  0  0  0  0  0  0  0  0  0
    4.2236    0.1104    0.8991 C   0  0  0  0  0  0  0  0  0  0  0  0
    5.1773    0.8609    0.1622 O   0  0  0  0  0  0  0  0  0  0  0  0
    6.4987    0.2239    0.5479 C   0  0  2  0  0  0  0  0  0  0  0  0
    7.2612    1.5447    0.4966 O   0  0  0  0  0  0  0  0  0  0  0  0
    8.5686    1.0436    1.0492 C   0  0  2  0  0  0  0  0  0  0  0  0
    9.2741    2.5189    0.8236 C   0  0  0  0  0  0  0  0  0  0  0  0
    9.2604    0.5481   -0.4304 C   0  0  1  0  0  0  0  0  0  0  0  0
   10.3480   -0.2229    0.2587 O   0  0  0  0  0  0  0  0  0  0  0  0
    8.4145   -0.9115   -0.6251 C   0  0  1  0  0  0  0  0  0  0  0  0
    8.0495   -1.1973    0.7834 O   0  0  0  0  0  0  0  0  0  0  0  0
    8.7574   -1.9332    1.5064 C   0  0  0  0  0  0  0  0  0  0  0  0
    7.0157   -0.0351   -1.0779 C   0  0  1  0  0  0  0  0  0  0  0  0
    6.3572   -1.3490   -1.3329 O   0  0  0  0  0  0  0  0  0  0  0  0
    6.8220   -1.4183   -2.6715 C   0  0  0  0  0  0  0  0  0  0  0  0
  1  2  1  0
  3  2  1  6
  3  4  1  0
  4  5  1  0
  5  6  2  0
  5  7  1  0
  7  8  1  0
  8  9  1  1
  8 10  1  0
 10 11  1  1
 10 12  1  0
 12 13  1  6
 14 13  1  6
 14 15  1  0
 15 16  1  0
 16 17  1  1
 16 18  1  0
 18 19  1  1
 18 20  1  0
 20 21  1  6
 21 22  1  0
 21 23  1  0
 20 24  1  0
 24 25  1  6
 12 26  1  0
 26 27  1  6
 27 28  1  0
 28 29  1  0
 29 30  1  0
 30 31  1  0
 31 32  1  6
 31 33  1  0
 33 34  1  0
 34 35  1  6
 34 36  1  0
 26 37  1  0
 37 38  1  0
 38 39  1  6
 38 40  1  0
 40 41  2  0
 40 42  1  0
 42 43  2  0
 43 44  1  0
 44 45  1  0
 44 46  2  0
 46 47  1  0
 47 48  1  1
 48 49  1  0
 50 49  1  6
 50 51  1  0
 51 52  1  0
 52 53  1  6
 52 54  1  0
 54 55  1  1
 54 56  1  0
 56 57  1  1
 57 58  1  0
 56 59  1  0
 59 60  1  6
 60 61  1  0
 47  3  1  0
 59 50  1  0
 24 14  1  0
 36 29  1  0
M  END
>  <zinc_id>  (1) 
ZINC000245204941

>  <smiles>  (1) 
CC[C@H]1OC(=O)C[C@@H](O)[C@H](C)[C@@H](O[C@@H]2O[C@H](C)[C@@H](O)[C@H](N(C)C)[C@H]2O)[C@@H](CCN2C[C@@H](C)C[C@@H](C)C2)C[C@@H](C)C(=O)/C=C/C(C)=C/[C@@H]1CO[C@@H]1O[C@H](C)[C@@H](O)[C@@H](OC)[C@H]1OC

$$$$
