
     RDKit          3D

 64 67  0  0  0  0  0  0  0  0999 V2000
   -4.3481    0.1485   -2.9280 C   0  0  0  0  0  0  0  0  0  0  0  0
   -4.1578    0.5833   -1.7091 C   0  0  0  0  0  0  0  0  0  0  0  0
   -3.8325   -0.7550   -0.8256 C   0  0  1  0  0  0  0  0  0  0  0  0
   -3.1558    0.0396    0.2842 O   0  0  0  0  0  0  0  0  0  0  0  0
   -2.2778    1.0344    0.0024 C   0  0  0  0  0  0  0  0  0  0  0  0
   -1.5734    1.4003    0.9974 O   0  0  0  0  0  0  0  0  0  0  0  0
   -1.6862    1.1697   -1.3104 C   0  0  0  0  0  0  0  0  0  0  0  0
   -0.8200   -0.1837   -1.6452 C   0  0  1  0  0  0  0  0  0  0  0  0
   -0.0739    0.5290   -2.7509 O   0  0  0  0  0  0  0  0  0  0  0  0
    0.2902    0.1019   -0.3836 C   0  0  2  0  0  0  0  0  0  0  0  0
    1.2684    1.1507   -1.0974 C   0  0  0  0  0  0  0  0  0  0  0  0
    1.2125   -1.2574   -0.7820 C   0  0  1  0  0  0  0  0  0  0  0  0
    2.4224   -0.7577   -0.0520 O   0  0  0  0  0  0  0  0  0  0  0  0
    3.5217   -1.5618   -0.7516 C   0  0  2  0  0  0  0  0  0  0  0  0
    4.3046   -1.7969    0.5164 O   0  0  0  0  0  0  0  0  0  0  0  0
    5.5356   -2.0704   -0.2975 C   0  0  2  0  0  0  0  0  0  0  0  0
    6.1476   -3.0714    0.8564 C   0  0  0  0  0  0  0  0  0  0  0  0
    6.2471   -0.7193    0.4510 C   0  0  1  0  0  0  0  0  0  0  0  0
    7.2140   -0.4296   -0.6631 O   0  0  0  0  0  0  0  0  0  0  0  0
    7.1877    1.1070   -0.7084 C   0  0  1  0  0  0  0  0  0  0  0  0
    8.1713    1.3130    0.6260 C   0  0  0  0  0  0  0  0  0  0  0  0
    8.4370    2.7614    0.4398 C   0  0  1  0  0  0  0  0  0  0  0  0
    7.2867    3.5511   -0.1614 C   0  0  0  0  0  0  0  0  0  0  0  0
    8.8930    3.4660    1.4978 O   0  0  0  0  0  0  0  0  0  0  0  0
    9.4956    2.8779   -0.7993 C   0  0  1  0  0  0  0  0  0  0  0  0
   10.7126    2.8726    0.0934 O   0  0  0  0  0  0  0  0  0  0  0  0
    9.5687    1.1636   -0.9813 C   0  0  2  0  0  0  0  0  0  0  0  0
   10.4453    1.3324   -2.3549 C   0  0  0  0  0  0  0  0  0  0  0  0
    8.2929    1.1325   -1.7605 O   0  0  0  0  0  0  0  0  0  0  0  0
    5.1549    0.4961   -0.0011 C   0  0  2  0  0  0  0  0  0  0  0  0
    4.1333    0.3043    1.1739 N   0  0  0  0  0  0  0  0  0  0  0  0
    3.6233    1.6834    1.2201 C   0  0  0  0  0  0  0  0  0  0  0  0
    4.9780    0.3160    2.3746 C   0  0  0  0  0  0  0  0  0  0  0  0
    4.2546   -0.1016   -1.2950 C   0  0  1  0  0  0  0  0  0  0  0  0
    5.3760   -0.7480   -2.0800 O   0  0  0  0  0  0  0  0  0  0  0  0
    0.8116   -2.1882    0.5976 C   0  0  1  0  0  0  0  0  0  0  0  0
    0.6362   -0.9636    1.6475 C   0  0  0  0  0  0  0  0  0  0  0  0
    1.1790   -1.3781    2.9347 C   0  0  0  0  0  0  0  0  0  0  0  0
    2.3155   -1.1433    3.2903 O   0  0  0  0  0  0  0  0  0  0  0  0
   -0.7559   -2.2768    0.2684 C   0  0  0  0  0  0  0  0  0  0  0  0
   -1.0098   -3.7465   -0.3848 C   0  0  1  0  0  0  0  0  0  0  0  0
    0.4763   -4.3820   -0.1156 C   0  0  0  0  0  0  0  0  0  0  0  0
   -1.6451   -4.3529    0.9740 C   0  0  0  0  0  0  0  0  0  0  0  0
   -1.4606   -5.6149    1.0673 O   0  0  0  0  0  0  0  0  0  0  0  0
   -3.0790   -4.0542    0.7415 C   0  0  0  0  0  0  0  0  0  0  0  0
   -3.3854   -2.8749    1.1641 C   0  0  0  0  0  0  0  0  0  0  0  0
   -4.7243   -2.4048    1.5747 C   0  0  0  0  0  0  0  0  0  0  0  0
   -5.5892   -3.1769    2.5460 C   0  0  0  0  0  0  0  0  0  0  0  0
   -5.3112   -2.2264    0.4057 C   0  0  0  0  0  0  0  0  0  0  0  0
   -5.3289   -0.6793    0.0023 C   0  0  2  0  0  0  0  0  0  0  0  0
   -6.2004   -0.9702   -1.3349 C   0  0  0  0  0  0  0  0  0  0  0  0
   -7.5068   -0.5636   -0.9908 O   0  0  0  0  0  0  0  0  0  0  0  0
   -7.1046    0.8106   -0.4715 C   0  0  2  0  0  0  0  0  0  0  0  0
   -7.9058    0.6174    0.8139 O   0  0  0  0  0  0  0  0  0  0  0  0
   -7.2298    1.8679    1.3310 C   0  0  2  0  0  0  0  0  0  0  0  0
   -7.8407    1.6323    2.8308 C   0  0  0  0  0  0  0  0  0  0  0  0
   -8.5819    2.8202    0.9056 C   0  0  1  0  0  0  0  0  0  0  0  0
   -7.8854    4.0662    1.3620 O   0  0  0  0  0  0  0  0  0  0  0  0
   -8.1379    3.1242   -0.7166 C   0  0  1  0  0  0  0  0  0  0  0  0
   -6.6509    3.0174   -0.5634 O   0  0  0  0  0  0  0  0  0  0  0  0
   -6.0901    3.8291   -1.5306 C   0  0  0  0  0  0  0  0  0  0  0  0
   -8.4558    1.5341   -1.2521 C   0  0  1  0  0  0  0  0  0  0  0  0
   -7.6637    1.7507   -2.5030 O   0  0  0  0  0  0  0  0  0  0  0  0
   -8.1251    0.8450   -3.4405 C   0  0  0  0  0  0  0  0  0  0  0  0
  1  2  1  0
  3  2  1  6
  3  4  1  0
  4  5  1  0
  5  6  2  0
  5  7  1  0
  7  8  1  0
  8  9  1  6
  8 10  1  0
 10 11  1  6
 10 12  1  0
 12 13  1  1
 14 13  1  1
 14 15  1  0
 15 16  1  0
 16 17  1  1
 16 18  1  0
 18 19  1  6
 20 19  1  1
 20 21  1  0
 21 22  1  0
 22 23  1  6
 22 24  1  0
 22 25  1  0
 25 26  1  1
 25 27  1  0
 27 28  1  6
 27 29  1  0
 18 30  1  0
 30 31  1  1
 31 32  1  0
 31 33  1  0
 30 34  1  0
 34 35  1  6
 12 36  1  0
 36 37  1  1
 37 38  1  0
 38 39  2  0
 36 40  1  0
 40 41  1  0
 41 42  1  1
 41 43  1  0
 43 44  2  0
 43 45  1  0
 45 46  2  0
 46 47  1  0
 47 48  1  0
 47 49  2  0
 49 50  1  0
 50 51  1  6
 51 52  1  0
 53 52  1  6
 53 54  1  0
 54 55  1  0
 55 56  1  1
 55 57  1  0
 57 58  1  1
 57 59  1  0
 59 60  1  1
 60 61  1  0
 59 62  1  0
 62 63  1  6
 63 64  1  0
 50  3  1  0
 62 53  1  0
 34 14  1  0
 29 20  1  0
M  END
>  <zinc_id>  (1) 
ZINC000252441679

>  <smiles>  (1) 
CC[C@H]1OC(=O)C[C@@H](O)[C@H](C)[C@@H](O[C@@H]2O[C@H](C)[C@@H](O[C@H]3C[C@@](C)(O)[C@@H](O)[C@H](C)O3)[C@H](N(C)C)[C@H]2O)[C@@H](CC=O)C[C@@H](C)C(=O)/C=C/C(C)=C/[C@@H]1CO[C@@H]1O[C@H](C)[C@@H](O)[C@@H](OC)[C@H]1OC

$$$$
