
     RDKit          3D

 53 57  0  0  0  0  0  0  0  0999 V2000
  -10.9973   -1.0009    0.6313 C   0  0  0  0  0  0  0  0  0  0  0  0
   -9.6987   -0.5386    0.9558 C   0  0  0  0  0  0  0  0  0  0  0  0
   -8.6993   -1.7053    0.4192 C   0  0  1  0  0  0  0  0  0  0  0  0
   -8.8558   -1.4070   -1.1349 C   0  0  0  0  0  0  0  0  0  0  0  0
   -8.5740   -2.3959   -1.8786 O   0  0  0  0  0  0  0  0  0  0  0  0
   -9.7090   -0.4992   -1.6323 O   0  0  0  0  0  0  0  0  0  0  0  0
   -7.2322   -0.8069    0.4742 C   0  0  1  0  0  0  0  0  0  0  0  0
   -7.9165    0.6052   -0.0090 C   0  0  0  0  0  0  0  0  0  0  0  0
   -6.9730    1.6977    0.3480 C   0  0  0  0  0  0  0  0  0  0  0  0
   -7.2452    1.6435    1.9427 C   0  0  2  0  0  0  0  0  0  0  0  0
   -6.1685    2.7813    2.3698 C   0  0  0  0  0  0  0  0  0  0  0  0
   -6.2795    0.3040    2.3655 C   0  0  2  0  0  0  0  0  0  0  0  0
   -5.3438    0.1127    0.9756 C   0  0  1  0  0  0  0  0  0  0  0  0
   -4.5762    1.5142    0.9564 C   0  0  0  0  0  0  0  0  0  0  0  0
   -4.2426   -0.7979    1.9102 C   0  0  2  0  0  0  0  0  0  0  0  0
   -3.7173    0.3427    2.7291 O   0  0  0  0  0  0  0  0  0  0  0  0
   -3.0634   -0.8047    0.6709 C   0  0  2  0  0  0  0  0  0  0  0  0
   -2.4899   -2.2303    1.2045 C   0  0  0  0  0  0  0  0  0  0  0  0
   -1.9200    0.0401    1.3813 C   0  0  0  0  0  0  0  0  0  0  0  0
   -1.9691    1.1372    0.9592 O   0  0  0  0  0  0  0  0  0  0  0  0
   -0.4611   -0.5773    1.3355 C   0  0  2  0  0  0  0  0  0  0  0  0
    0.1389    0.4433    2.4355 C   0  0  0  0  0  0  0  0  0  0  0  0
   -0.2870    1.8009    2.3891 C   0  0  0  0  0  0  0  0  0  0  0  0
    0.1306    0.2844   -0.0224 C   0  0  1  0  0  0  0  0  0  0  0  0
    0.9868   -0.9017   -0.3331 O   0  0  0  0  0  0  0  0  0  0  0  0
    1.6860   -0.2601   -1.3077 C   0  0  1  0  0  0  0  0  0  0  0  0
    1.9092    1.1355   -1.2057 C   0  0  0  0  0  0  0  0  0  0  0  0
    2.6091    1.4860   -0.1603 C   0  0  0  0  0  0  0  0  0  0  0  0
    4.0507    0.7917    0.0897 C   0  0  1  0  0  0  0  0  0  0  0  0
    3.4752   -0.3896    0.8602 O   0  0  0  0  0  0  0  0  0  0  0  0
    4.0057   -0.0217   -1.3413 C   0  0  1  0  0  0  0  0  0  0  0  0
    4.3485    1.0822   -2.2544 C   0  0  0  0  0  0  0  0  0  0  0  0
    5.8807    1.0236   -2.2585 C   0  0  0  0  0  0  0  0  0  0  0  0
    6.0709   -0.4146   -2.1260 C   0  0  1  0  0  0  0  0  0  0  0  0
    6.2833   -1.2149   -3.3497 C   0  0  0  0  0  0  0  0  0  0  0  0
    7.3611   -0.7558   -1.1717 C   0  0  1  0  0  0  0  0  0  0  0  0
    8.3444    0.3809   -1.8547 C   0  0  0  0  0  0  0  0  0  0  0  0
    9.4275    0.1836   -0.8013 C   0  0  0  0  0  0  0  0  0  0  0  0
    9.0762    0.6438    0.5405 C   0  0  2  0  0  0  0  0  0  0  0  0
    8.7351    1.9697    0.6595 O   0  0  0  0  0  0  0  0  0  0  0  0
   10.0670    0.1684    1.5675 C   0  0  0  0  0  0  0  0  0  0  0  0
    9.4291    0.0195    2.9454 C   0  0  0  0  0  0  0  0  0  0  0  0
    7.7277   -0.1184    1.0979 C   0  0  2  0  0  0  0  0  0  0  0  0
    8.2581   -1.6029    0.6010 C   0  0  0  0  0  0  0  0  0  0  0  0
    6.9313    0.2463   -0.1354 O   0  0  0  0  0  0  0  0  0  0  0  0
    5.0888   -0.8995   -1.2941 O   0  0  0  0  0  0  0  0  0  0  0  0
    2.9465   -0.7755   -1.4597 O   0  0  0  0  0  0  0  0  0  0  0  0
    1.0003   -0.7591   -2.6884 C   0  0  2  0  0  0  0  0  0  0  0  0
    0.7040    0.7257   -3.3212 C   0  0  0  0  0  0  0  0  0  0  0  0
   -0.4767   -1.0352   -2.1578 C   0  0  0  0  0  0  0  0  0  0  0  0
   -1.1622   -0.1893   -1.0241 C   0  0  2  0  0  0  0  0  0  0  0  0
   -1.1950    1.2305   -1.8379 C   0  0  0  0  0  0  0  0  0  0  0  0
   -7.4191   -0.5767    1.9446 O   0  0  0  0  0  0  0  0  0  0  0  0
  1  2  1  0
  3  2  1  1
  3  4  1  0
  4  5  2  0
  4  6  1  0
  3  7  1  0
  7  8  1  6
  8  9  1  0
  9 10  1  0
 10 11  1  1
 10 12  1  0
 12 13  1  0
 13 14  1  1
 13 15  1  0
 15 16  1  1
 15 17  1  0
 17 18  1  1
 17 19  1  0
 19 20  2  0
 21 19  1  6
 21 22  1  0
 22 23  1  0
 21 24  1  0
 24 25  1  6
 26 25  1  1
 26 27  1  0
 27 28  2  0
 28 29  1  0
 29 30  1  1
 29 31  1  0
 31 32  1  6
 32 33  1  0
 33 34  1  0
 34 35  1  6
 34 36  1  0
 36 37  1  6
 37 38  1  0
 38 39  1  0
 39 40  1  6
 39 41  1  0
 41 42  1  0
 39 43  1  0
 43 44  1  6
 43 45  1  0
 34 46  1  0
 31 47  1  0
 26 48  1  0
 48 49  1  6
 48 50  1  0
 50 51  1  0
 51 52  1  6
 12 53  1  6
 53  7  1  0
 51 24  1  0
 47 26  1  0
 46 31  1  0
 45 36  1  0
M  END
>  <zinc_id>  (1) 
ZINC000085540254

>  <smiles>  (1) 
CC[C@@H](C(=O)[C@@H](C)[C@@H](O)[C@H](C)[C@@H]1O[C@@H]([C@@H](CC)C(=O)O)CC[C@@H]1C)[C@H]1O[C@]2(C=C[C@@H](O)[C@]3(CC[C@@](C)([C@H]4CC[C@](O)(CC)[C@H](C)O4)O3)O2)[C@H](C)C[C@@H]1C

$$$$
