
     RDKit          2D

 62 67  0  0  0  0  0  0  0  0999 V2000
   -1.2598    6.8612    0.0000 C   0  0  0  0  0  0  0  0  0  0  0  0
   -0.2472    5.7545    0.0000 C   0  0  0  0  0  0  0  0  0  0  0  0
    1.2175    6.0781    0.0000 O   0  0  0  0  0  0  0  0  0  0  0  0
   -0.6993    4.3243    0.0000 O   0  0  0  0  0  0  0  0  0  0  0  0
    0.3133    3.2176    0.0000 C   0  0  0  0  0  0  0  0  0  0  0  0
   -0.3216    1.8586    0.0000 C   0  0  0  0  0  0  0  0  0  0  0  0
   -1.3111    0.7180    0.0000 C   0  0  0  0  0  0  0  0  0  0  0  0
   -2.7414    1.1701    0.0000 C   0  0  0  0  0  0  0  0  0  0  0  0
   -0.9875   -0.7467    0.0000 C   0  0  0  0  0  0  0  0  0  0  0  0
   -2.0942   -1.7592    0.0000 O   0  0  0  0  0  0  0  0  0  0  0  0
   -3.5244   -1.3071    0.0000 C   0  0  0  0  0  0  0  0  0  0  0  0
   -3.8480    0.1575    0.0000 O   0  0  0  0  0  0  0  0  0  0  0  0
   -4.6311   -2.3197    0.0000 C   0  0  0  0  0  0  0  0  0  0  0  0
   -4.3075   -3.7844    0.0000 O   0  0  0  0  0  0  0  0  0  0  0  0
   -6.0613   -1.8676    0.0000 C   0  0  0  0  0  0  0  0  0  0  0  0
   -7.1680   -2.8802    0.0000 C   0  0  0  0  0  0  0  0  0  0  0  0
   -6.8444   -4.3449    0.0000 C   0  0  0  0  0  0  0  0  0  0  0  0
   -7.9510   -5.3575    0.0000 C   0  0  0  0  0  0  0  0  0  0  0  0
   -5.4141   -4.7970    0.0000 C   0  0  0  0  0  0  0  0  0  0  0  0
   -6.3849   -0.4030    0.0000 N   0  0  0  0  0  0  0  0  0  0  0  0
   -7.8152    0.0491    0.0000 C   0  0  0  0  0  0  0  0  0  0  0  0
   -8.9218   -0.9634    0.0000 O   0  0  0  0  0  0  0  0  0  0  0  0
   -8.1388    1.5138    0.0000 O   0  0  0  0  0  0  0  0  0  0  0  0
   -9.5690    1.9659    0.0000 C   0  0  0  0  0  0  0  0  0  0  0  0
   -9.1169    3.3962    0.0000 C   0  0  0  0  0  0  0  0  0  0  0  0
  -10.0211    0.5357    0.0000 C   0  0  0  0  0  0  0  0  0  0  0  0
  -10.9993    2.4180    0.0000 C   0  0  0  0  0  0  0  0  0  0  0  0
    0.4427   -1.1988    0.0000 C   0  0  0  0  0  0  0  0  0  0  0  0
    1.0638   -2.5642    0.0000 O   0  0  0  0  0  0  0  0  0  0  0  0
    2.5542   -2.3954    0.0000 C   0  0  0  0  0  0  0  0  0  0  0  0
    3.5668   -3.5021    0.0000 O   0  0  0  0  0  0  0  0  0  0  0  0
    2.8544   -0.9258    0.0000 O   0  0  0  0  0  0  0  0  0  0  0  0
    1.5494   -0.1862    0.0000 C   0  0  0  0  0  0  0  0  0  0  0  0
    2.9593    0.3258    0.0000 C   0  0  0  0  0  0  0  0  0  0  0  0
    3.9719   -0.7808    0.0000 O   0  0  0  0  0  0  0  0  0  0  0  0
    3.5198   -2.2111    0.0000 C   0  0  0  0  0  0  0  0  0  0  0  0
    2.8061   -2.5663    0.0000 O   0  0  0  0  0  0  0  0  0  0  0  0
    4.5323   -3.3177    0.0000 C   0  0  0  0  0  0  0  0  0  0  0  0
    5.9970   -2.9941    0.0000 C   0  0  0  0  0  0  0  0  0  0  0  0
    7.0096   -4.1008    0.0000 C   0  0  0  0  0  0  0  0  0  0  0  0
    6.5575   -5.5310    0.0000 C   0  0  0  0  0  0  0  0  0  0  0  0
    5.0928   -5.8546    0.0000 C   0  0  0  0  0  0  0  0  0  0  0  0
    4.0802   -4.7480    0.0000 C   0  0  0  0  0  0  0  0  0  0  0  0
    3.5942    1.6848    0.0000 C   0  0  0  0  0  0  0  0  0  0  0  0
    5.0712    1.4233    0.0000 C   0  0  0  0  0  0  0  0  0  0  0  0
    4.4363    0.0643    0.0000 O   0  0  0  0  0  0  0  0  0  0  0  0
    5.2958   -1.1651    0.0000 C   0  0  0  0  0  0  0  0  0  0  0  0
    4.6609   -2.5241    0.0000 C   0  0  0  0  0  0  0  0  0  0  0  0
    6.7902   -1.0354    0.0000 O   0  0  0  0  0  0  0  0  0  0  0  0
    6.2196    0.4583    0.0000 C   0  0  0  0  0  0  0  0  0  0  0  0
    7.1846    1.6066    0.0000 O   0  0  0  0  0  0  0  0  0  0  0  0
    6.0362    2.5716    0.0000 C   0  0  0  0  0  0  0  0  0  0  0  0
    5.5242    3.9816    0.0000 C   0  0  0  0  0  0  0  0  0  0  0  0
    4.0472    4.2431    0.0000 C   0  0  0  0  0  0  0  0  0  0  0  0
    3.5352    5.6530    0.0000 O   0  0  0  0  0  0  0  0  0  0  0  0
    3.0822    3.0947    0.0000 C   0  0  0  0  0  0  0  0  0  0  0  0
    2.7586    4.5594    0.0000 C   0  0  0  0  0  0  0  0  0  0  0  0
    1.7232    3.7297    0.0000 C   0  0  0  0  0  0  0  0  0  0  0  0
    1.7897    5.2282    0.0000 O   0  0  0  0  0  0  0  0  0  0  0  0
    0.1904    0.4487    0.0000 C   0  0  0  0  0  0  0  0  0  0  0  0
   -1.2282   -0.0387    0.0000 C   0  0  0  0  0  0  0  0  0  0  0  0
   -0.4208   -0.9211    0.0000 C   0  0  0  0  0  0  0  0  0  0  0  0
  1  2  1  0
  2  3  2  0
  2  4  1  0
  5  4  1  1
  5  6  1  0
  6  7  2  0
  7  8  1  0
  7  9  1  0
  9 10  1  6
 10 11  1  0
 11 12  2  0
 13 11  1  6
 13 14  1  0
 13 15  1  0
 15 16  1  6
 16 17  1  0
 17 18  1  0
 17 19  1  0
 15 20  1  0
 20 21  1  0
 21 22  2  0
 21 23  1  0
 23 24  1  0
 24 25  1  0
 24 26  1  0
 24 27  1  0
  9 28  1  0
 28 29  1  1
 29 30  1  0
 30 31  2  0
 30 32  1  0
 33 32  1  1
 33 34  1  0
 34 35  1  6
 35 36  1  0
 36 37  2  0
 36 38  1  0
 38 39  2  0
 39 40  1  0
 40 41  2  0
 41 42  1  0
 42 43  2  0
 44 34  1  1
 44 45  1  0
 45 46  1  6
 46 47  1  0
 47 48  1  0
 47 49  2  0
 45 50  1  0
 50 51  1  0
 52 51  1  1
 52 53  1  0
 53 54  1  0
 54 55  1  1
 54 56  1  0
 56 57  1  1
 56 58  1  0
 58 59  2  0
 33 60  1  0
 60 61  1  0
 60 62  1  0
 58  5  1  0
 60  6  1  0
 33 28  1  0
 43 38  1  0
 56 44  1  0
 52 45  1  0
M  END
>  <zinc_id>  (1) 
ZINC000169362007

>  <smiles>  (1) 
CC(=O)O[C@H]1C(=O)[C@]2(C)[C@@H](O)C[C@H]3OC[C@@]3(OC(C)=O)[C@H]2[C@H](OC(=O)c2ccccc2)[C@]23OC(=O)O[C@H]2[C@H](OC(=O)[C@H](O)[C@H](CC(C)C)NC(=O)OC(C)(C)C)C(C)=C1C3(C)C

$$$$
