
     RDKit          2D

 60 66  0  0  0  0  0  0  0  0999 V2000
   -4.5879    6.9195    0.0000 C   0  0  0  0  0  0  0  0  0  0  0  0
   -4.0411    5.5228    0.0000 C   0  0  0  0  0  0  0  0  0  0  0  0
   -2.5580    5.2979    0.0000 O   0  0  0  0  0  0  0  0  0  0  0  0
   -4.9773    4.3508    0.0000 O   0  0  0  0  0  0  0  0  0  0  0  0
   -4.4305    2.9540    0.0000 C   0  0  0  0  0  0  0  0  0  0  0  0
   -2.9308    2.9247    0.0000 C   0  0  0  0  0  0  0  0  0  0  0  0
   -1.4707    3.3099    0.0000 C   0  0  0  0  0  0  0  0  0  0  0  0
   -1.2459    4.7930    0.0000 C   0  0  0  0  0  0  0  0  0  0  0  0
   -0.2988    2.3737    0.0000 C   0  0  0  0  0  0  0  0  0  0  0  0
    1.0980    2.9205    0.0000 O   0  0  0  0  0  0  0  0  0  0  0  0
    2.2699    1.9843    0.0000 C   0  0  0  0  0  0  0  0  0  0  0  0
    2.0451    0.5012    0.0000 O   0  0  0  0  0  0  0  0  0  0  0  0
    3.6667    2.5311    0.0000 C   0  0  0  0  0  0  0  0  0  0  0  0
    3.8915    4.0141    0.0000 O   0  0  0  0  0  0  0  0  0  0  0  0
    4.8387    1.5949    0.0000 C   0  0  0  0  0  0  0  0  0  0  0  0
    4.6138    0.1118    0.0000 N   0  0  0  0  0  0  0  0  0  0  0  0
    5.7858   -0.8244    0.0000 C   0  0  0  0  0  0  0  0  0  0  0  0
    7.1826   -0.2776    0.0000 O   0  0  0  0  0  0  0  0  0  0  0  0
    5.5610   -2.3075    0.0000 O   0  0  0  0  0  0  0  0  0  0  0  0
    6.7329   -3.2437    0.0000 C   0  0  0  0  0  0  0  0  0  0  0  0
    5.7967   -4.4157    0.0000 C   0  0  0  0  0  0  0  0  0  0  0  0
    7.6692   -2.0718    0.0000 C   0  0  0  0  0  0  0  0  0  0  0  0
    7.9049   -4.1799    0.0000 C   0  0  0  0  0  0  0  0  0  0  0  0
    6.2354    2.1417    0.0000 C   0  0  0  0  0  0  0  0  0  0  0  0
    7.4074    1.2055    0.0000 C   0  0  0  0  0  0  0  0  0  0  0  0
    8.8042    1.7523    0.0000 C   0  0  0  0  0  0  0  0  0  0  0  0
    9.0290    3.2353    0.0000 C   0  0  0  0  0  0  0  0  0  0  0  0
    7.8570    4.1716    0.0000 C   0  0  0  0  0  0  0  0  0  0  0  0
    6.4603    3.6247    0.0000 C   0  0  0  0  0  0  0  0  0  0  0  0
   -0.5236    0.8906    0.0000 C   0  0  0  0  0  0  0  0  0  0  0  0
   -1.9204    0.3438    0.0000 C   0  0  0  0  0  0  0  0  0  0  0  0
   -0.5461   -0.2572    0.0000 O   0  0  0  0  0  0  0  0  0  0  0  0
   -3.0016   -0.6959    0.0000 C   0  0  0  0  0  0  0  0  0  0  0  0
   -2.4548   -2.0927    0.0000 O   0  0  0  0  0  0  0  0  0  0  0  0
   -0.9717   -2.3175    0.0000 C   0  0  0  0  0  0  0  0  0  0  0  0
   -0.0355   -1.1456    0.0000 O   0  0  0  0  0  0  0  0  0  0  0  0
   -0.4249   -3.7143    0.0000 C   0  0  0  0  0  0  0  0  0  0  0  0
   -1.3611   -4.8863    0.0000 C   0  0  0  0  0  0  0  0  0  0  0  0
   -0.8143   -6.2830    0.0000 C   0  0  0  0  0  0  0  0  0  0  0  0
    0.6688   -6.5079    0.0000 C   0  0  0  0  0  0  0  0  0  0  0  0
    1.6050   -5.3359    0.0000 C   0  0  0  0  0  0  0  0  0  0  0  0
    1.0582   -3.9391    0.0000 C   0  0  0  0  0  0  0  0  0  0  0  0
   -4.5013   -0.6666    0.0000 C   0  0  0  0  0  0  0  0  0  0  0  0
   -5.5410    0.4146    0.0000 C   0  0  0  0  0  0  0  0  0  0  0  0
   -6.5807    1.4958    0.0000 C   0  0  0  0  0  0  0  0  0  0  0  0
   -6.9972    0.0548    0.0000 C   0  0  0  0  0  0  0  0  0  0  0  0
   -7.4137   -1.3863    0.0000 C   0  0  0  0  0  0  0  0  0  0  0  0
   -6.3740   -2.4675    0.0000 C   0  0  0  0  0  0  0  0  0  0  0  0
   -6.0141   -3.9237    0.0000 O   0  0  0  0  0  0  0  0  0  0  0  0
   -4.5579   -3.5638    0.0000 C   0  0  0  0  0  0  0  0  0  0  0  0
   -4.9178   -2.1076    0.0000 C   0  0  0  0  0  0  0  0  0  0  0  0
   -3.4181   -2.1369    0.0000 O   0  0  0  0  0  0  0  0  0  0  0  0
   -2.6936   -3.4504    0.0000 C   0  0  0  0  0  0  0  0  0  0  0  0
   -1.1939   -3.4797    0.0000 C   0  0  0  0  0  0  0  0  0  0  0  0
   -3.4688   -4.7345    0.0000 O   0  0  0  0  0  0  0  0  0  0  0  0
   -5.5117    1.9143    0.0000 C   0  0  0  0  0  0  0  0  0  0  0  0
   -6.8860    2.5153    0.0000 O   0  0  0  0  0  0  0  0  0  0  0  0
   -1.8911    1.8435    0.0000 C   0  0  0  0  0  0  0  0  0  0  0  0
   -0.8281    2.9019    0.0000 C   0  0  0  0  0  0  0  0  0  0  0  0
   -0.7983    1.8031    0.0000 C   0  0  0  0  0  0  0  0  0  0  0  0
  1  2  1  0
  2  3  2  0
  2  4  1  0
  5  4  1  6
  5  6  1  0
  6  7  2  0
  7  8  1  0
  7  9  1  0
  9 10  1  1
 10 11  1  0
 11 12  2  0
 13 11  1  6
 13 14  1  0
 13 15  1  0
 15 16  1  6
 16 17  1  0
 17 18  2  0
 17 19  1  0
 19 20  1  0
 20 21  1  0
 20 22  1  0
 20 23  1  0
 15 24  1  0
 24 25  2  0
 25 26  1  0
 26 27  2  0
 27 28  1  0
 28 29  2  0
  9 30  1  0
 30 31  1  0
 31 32  1  6
 31 33  1  0
 33 34  1  1
 34 35  1  0
 35 36  2  0
 35 37  1  0
 37 38  2  0
 38 39  1  0
 39 40  2  0
 40 41  1  0
 41 42  2  0
 43 33  1  6
 43 44  1  0
 44 45  1  6
 46 45  1  6
 46 47  1  0
 48 47  1  6
 48 49  1  0
 49 50  1  0
 50 51  1  0
 51 52  1  1
 52 53  1  0
 53 54  1  0
 53 55  2  0
 44 56  1  0
 56 57  2  0
 31 58  1  0
 58 59  1  0
 58 60  1  0
 56  5  1  0
 58  6  1  0
 29 24  1  0
 42 37  1  0
 51 43  1  0
 46 44  1  0
 51 48  1  0
M  END
>  <zinc_id>  (1) 
ZINC000095627892

>  <smiles>  (1) 
CC(=O)O[C@H]1C(=O)[C@]23C[C@H]2C[C@H]2OC[C@@]2(OC(C)=O)[C@H]3[C@H](OC(=O)c2ccccc2)[C@]2(O)C[C@H](OC(=O)[C@H](O)[C@@H](NC(=O)OC(C)(C)C)c3ccccc3)C(C)=C1C2(C)C

$$$$
