
     RDKit          3D

 58 60  0  0  0  0  0  0  0  0999 V2000
    7.2869    3.3786    1.6390 C   0  0  0  0  0  0  0  0  0  0  0  0
    8.4097    3.7059    1.2208 C   0  0  0  0  0  0  0  0  0  0  0  0
    9.1443    2.6613    0.3888 C   0  0  0  0  0  0  0  0  0  0  0  0
    8.3671    1.3944    0.5693 C   0  0  0  0  0  0  0  0  0  0  0  0
    8.1007    1.0278    1.7543 O   0  0  0  0  0  0  0  0  0  0  0  0
    7.5927    0.8591   -0.4503 O   0  0  0  0  0  0  0  0  0  0  0  0
    6.1187    0.6380   -0.1080 C   0  0  1  0  0  0  0  0  0  0  0  0
    5.6808    0.6411   -1.7680 C   0  0  2  0  0  0  0  0  0  0  0  0
    5.9752    2.2502   -1.8821 C   0  0  0  0  0  0  0  0  0  0  0  0
    4.2284    0.8641   -1.4665 O   0  0  0  0  0  0  0  0  0  0  0  0
    3.9447   -0.1320   -0.3363 C   0  0  1  0  0  0  0  0  0  0  0  0
    2.7921   -0.7411   -1.1325 O   0  0  0  0  0  0  0  0  0  0  0  0
    1.7251   -0.8906   -0.0944 C   0  0  2  0  0  0  0  0  0  0  0  0
    0.5952   -0.8111   -1.3849 C   0  0  1  0  0  0  0  0  0  0  0  0
    0.5372   -2.4455   -1.4628 C   0  0  0  0  0  0  0  0  0  0  0  0
   -0.6237   -0.7463   -0.4886 O   0  0  0  0  0  0  0  0  0  0  0  0
   -0.4793    0.7689   -0.6819 C   0  0  1  0  0  0  0  0  0  0  0  0
   -1.8416    1.2056   -0.1881 O   0  0  0  0  0  0  0  0  0  0  0  0
   -2.6786   -0.0279   -0.1421 C   0  0  1  0  0  0  0  0  0  0  0  0
   -3.3791    0.6549    1.2644 C   0  0  1  0  0  0  0  0  0  0  0  0
   -4.0749    1.9446    0.5696 C   0  0  0  0  0  0  0  0  0  0  0  0
   -3.6872    3.1355    1.3611 C   0  0  0  0  0  0  0  0  0  0  0  0
   -3.2099    4.1188    0.7971 O   0  0  0  0  0  0  0  0  0  0  0  0
   -4.6924   -0.2668    1.1834 C   0  0  0  0  0  0  0  0  0  0  0  0
   -4.1489   -1.6412    1.8341 C   0  0  1  0  0  0  0  0  0  0  0  0
   -4.0216   -1.0157    3.3222 C   0  0  0  0  0  0  0  0  0  0  0  0
   -5.7488   -2.2657    1.9703 C   0  0  1  0  0  0  0  0  0  0  0  0
   -5.3861   -3.0086    3.2445 O   0  0  0  0  0  0  0  0  0  0  0  0
   -6.3383   -1.0222    2.7740 C   0  0  0  0  0  0  0  0  0  0  0  0
   -7.2079   -0.2330    2.6857 C   0  0  0  0  0  0  0  0  0  0  0  0
   -7.7021    0.7778    1.7429 C   0  0  0  0  0  0  0  0  0  0  0  0
   -8.5814    0.0420    1.1486 C   0  0  0  0  0  0  0  0  0  0  0  0
   -9.1531    0.0616   -0.1674 C   0  0  0  0  0  0  0  0  0  0  0  0
   -8.3243   -1.2076   -0.8164 C   0  0  1  0  0  0  0  0  0  0  0  0
   -9.6740   -1.7882   -1.5565 C   0  0  0  0  0  0  0  0  0  0  0  0
   -7.9202   -0.3814   -2.0520 O   0  0  0  0  0  0  0  0  0  0  0  0
   -6.5481   -0.1006   -2.1608 C   0  0  0  0  0  0  0  0  0  0  0  0
   -6.3465    1.1457   -2.3303 O   0  0  0  0  0  0  0  0  0  0  0  0
   -5.7451   -1.0923   -1.5799 C   0  0  0  0  0  0  0  0  0  0  0  0
   -4.1586   -1.0307   -1.9353 C   0  0  1  0  0  0  0  0  0  0  0  0
   -4.4451   -0.5033   -3.3278 O   0  0  0  0  0  0  0  0  0  0  0  0
   -3.8428    0.5261   -1.2689 C   0  0  2  0  0  0  0  0  0  0  0  0
   -2.7695    0.7581   -2.2864 O   0  0  0  0  0  0  0  0  0  0  0  0
   -3.0330    1.8819   -3.0029 C   0  0  0  0  0  0  0  0  0  0  0  0
    0.1877    0.8375    0.9103 C   0  0  2  0  0  0  0  0  0  0  0  0
    0.1647    2.3307    0.8723 O   0  0  0  0  0  0  0  0  0  0  0  0
    1.7388    0.7751    0.2342 C   0  0  1  0  0  0  0  0  0  0  0  0
    2.3902    0.5800    1.6268 N   0  0  0  0  0  0  0  0  0  0  0  0
    1.9954    1.6799    2.4643 C   0  0  0  0  0  0  0  0  0  0  0  0
    1.9188   -0.6084    2.2436 C   0  0  0  0  0  0  0  0  0  0  0  0
    4.9489   -1.3201   -0.9344 C   0  0  0  0  0  0  0  0  0  0  0  0
    6.2012   -0.9872   -0.1212 C   0  0  2  0  0  0  0  0  0  0  0  0
    6.0947   -1.4712    1.2576 C   0  0  0  0  0  0  0  0  0  0  0  0
    7.2002   -1.4212   -0.9474 O   0  0  0  0  0  0  0  0  0  0  0  0
    8.0403   -2.4805   -0.7047 C   0  0  0  0  0  0  0  0  0  0  0  0
    8.5916   -2.3593    0.4345 O   0  0  0  0  0  0  0  0  0  0  0  0
    7.9829   -3.7957   -1.4203 C   0  0  0  0  0  0  0  0  0  0  0  0
    7.8077   -4.8495   -0.3300 C   0  0  0  0  0  0  0  0  0  0  0  0
  1  2  1  0
  2  3  1  0
  3  4  1  0
  4  5  2  0
  4  6  1  0
  7  6  1  6
  7  8  1  0
  8  9  1  6
  8 10  1  0
 10 11  1  0
 11 12  1  6
 13 12  1  6
 13 14  1  0
 14 15  1  6
 14 16  1  0
 16 17  1  0
 17 18  1  1
 19 18  1  6
 19 20  1  0
 20 21  1  6
 21 22  1  0
 22 23  2  0
 20 24  1  0
 24 25  1  0
 25 26  1  1
 25 27  1  0
 27 28  1  1
 27 29  1  0
 29 30  2  0
 30 31  1  0
 31 32  2  0
 32 33  1  0
 33 34  1  0
 34 35  1  6
 34 36  1  0
 36 37  1  0
 37 38  2  0
 37 39  1  0
 39 40  1  0
 40 41  1  6
 40 42  1  0
 42 43  1  6
 43 44  1  0
 17 45  1  0
 45 46  1  6
 45 47  1  0
 47 48  1  1
 48 49  1  0
 48 50  1  0
 11 51  1  0
 51 52  1  0
 52 53  1  1
 52 54  1  0
 54 55  1  0
 55 56  2  0
 55 57  1  0
 57 58  1  0
 52  7  1  0
 47 13  1  0
 42 19  1  0
M  END
>  <zinc_id>  (1) 
ZINC000169676935

>  <smiles>  (1) 
CCCC(=O)O[C@H]1[C@H](C)O[C@@H](O[C@@H]2[C@@H](C)O[C@@H](O[C@@H]3[C@@H](OC)[C@H](O)CC(=O)O[C@H](C)C/C=C/C=C/[C@H](O)[C@H](C)C[C@@H]3CC=O)[C@H](O)[C@H]2N(C)C)C[C@@]1(C)OC(=O)CC

$$$$
