
     RDKit          3D

 57 59  0  0  0  0  0  0  0  0999 V2000
   -4.5065    5.0886    0.2651 C   0  0  0  0  0  0  0  0  0  0  0  0
   -3.7458    4.7706    0.7164 C   0  0  0  0  0  0  0  0  0  0  0  0
   -4.3574    3.5147    1.2013 C   0  0  0  0  0  0  0  0  0  0  0  0
   -5.2201    3.2218    0.3072 O   0  0  0  0  0  0  0  0  0  0  0  0
   -3.9288    2.5686    2.0712 O   0  0  0  0  0  0  0  0  0  0  0  0
   -3.8245    1.2458    1.3079 C   0  0  2  0  0  0  0  0  0  0  0  0
   -4.4918    0.3119    2.4833 C   0  0  0  0  0  0  0  0  0  0  0  0
   -5.8911    0.2983    1.9404 C   0  0  0  0  0  0  0  0  0  0  0  0
   -6.5955    1.2735    2.2977 O   0  0  0  0  0  0  0  0  0  0  0  0
   -6.0407   -0.4018    0.7332 O   0  0  0  0  0  0  0  0  0  0  0  0
   -6.0425   -1.8703    1.2065 C   0  0  2  0  0  0  0  0  0  0  0  0
   -4.4686   -2.0987    0.7887 C   0  0  0  0  0  0  0  0  0  0  0  0
   -6.5868   -2.5010   -0.2076 C   0  0  0  0  0  0  0  0  0  0  0  0
   -6.3428   -1.6943   -1.3298 C   0  0  0  0  0  0  0  0  0  0  0  0
   -7.0793   -1.2574   -2.3140 C   0  0  0  0  0  0  0  0  0  0  0  0
   -6.1505   -1.0754   -3.4144 C   0  0  0  0  0  0  0  0  0  0  0  0
   -5.2739   -0.5486   -3.8775 C   0  0  0  0  0  0  0  0  0  0  0  0
   -3.9186    0.1966   -3.4687 C   0  0  2  0  0  0  0  0  0  0  0  0
   -3.3453   -1.0816   -2.8991 O   0  0  0  0  0  0  0  0  0  0  0  0
   -4.6538    0.6523   -1.9813 C   0  0  2  0  0  0  0  0  0  0  0  0
   -4.5043    2.2450   -2.3679 C   0  0  0  0  0  0  0  0  0  0  0  0
   -3.4554    0.7318   -1.0465 C   0  0  0  0  0  0  0  0  0  0  0  0
   -2.1078    0.0296   -0.8184 C   0  0  2  0  0  0  0  0  0  0  0  0
   -2.6073   -0.9210    0.3971 C   0  0  0  0  0  0  0  0  0  0  0  0
   -2.6176   -2.2762    0.1400 C   0  0  0  0  0  0  0  0  0  0  0  0
   -2.2132   -3.3041    0.5562 O   0  0  0  0  0  0  0  0  0  0  0  0
   -1.7303    1.4386    0.0982 C   0  0  2  0  0  0  0  0  0  0  0  0
   -0.2595    1.2399    0.2128 O   0  0  0  0  0  0  0  0  0  0  0  0
   -0.0325   -0.2481    0.3256 C   0  0  2  0  0  0  0  0  0  0  0  0
    0.9898   -0.1386    1.4026 O   0  0  0  0  0  0  0  0  0  0  0  0
    2.2893    0.5257    1.2237 C   0  0  2  0  0  0  0  0  0  0  0  0
    2.0124    1.6043    0.0023 C   0  0  0  0  0  0  0  0  0  0  0  0
    3.1032   -0.5797    0.1678 C   0  0  1  0  0  0  0  0  0  0  0  0
    3.6417   -1.3713    1.3049 O   0  0  0  0  0  0  0  0  0  0  0  0
    5.1626   -1.1569    1.2164 C   0  0  1  0  0  0  0  0  0  0  0  0
    5.2496   -1.2030   -0.4551 C   0  0  0  0  0  0  0  0  0  0  0  0
    6.7313   -1.3509   -0.5278 C   0  0  1  0  0  0  0  0  0  0  0  0
    7.1194   -2.6266    0.1986 C   0  0  0  0  0  0  0  0  0  0  0  0
    7.3448   -1.3065   -1.6907 O   0  0  0  0  0  0  0  0  0  0  0  0
    7.2195   -0.2124    0.5261 C   0  0  1  0  0  0  0  0  0  0  0  0
    8.1030    0.5370   -0.4736 O   0  0  0  0  0  0  0  0  0  0  0  0
    9.3826    0.8021   -0.0564 C   0  0  0  0  0  0  0  0  0  0  0  0
    9.6731    0.8314    1.1714 O   0  0  0  0  0  0  0  0  0  0  0  0
   10.5550    0.7477   -0.9790 C   0  0  0  0  0  0  0  0  0  0  0  0
   11.5095   -0.2676   -0.3658 C   0  0  0  0  0  0  0  0  0  0  0  0
    5.8986    0.8229    0.1365 C   0  0  2  0  0  0  0  0  0  0  0  0
    6.5507    2.0295    1.0327 C   0  0  0  0  0  0  0  0  0  0  0  0
    5.0411    0.3664    1.2848 O   0  0  0  0  0  0  0  0  0  0  0  0
    1.7925   -1.6383   -0.0296 C   0  0  2  0  0  0  0  0  0  0  0  0
    2.4898   -2.4540   -1.1277 N   0  0  0  0  0  0  0  0  0  0  0  0
    2.6684   -3.6350   -0.2490 C   0  0  0  0  0  0  0  0  0  0  0  0
    1.5897   -3.0988   -2.0274 C   0  0  0  0  0  0  0  0  0  0  0  0
    1.1112   -0.4010   -0.9747 C   0  0  1  0  0  0  0  0  0  0  0  0
    0.2089   -1.2703   -1.7799 O   0  0  0  0  0  0  0  0  0  0  0  0
   -2.1839    0.8571    1.6353 C   0  0  1  0  0  0  0  0  0  0  0  0
   -1.7745    2.1501    2.2470 O   0  0  0  0  0  0  0  0  0  0  0  0
   -1.4872    1.8879    3.5913 C   0  0  0  0  0  0  0  0  0  0  0  0
  1  2  1  0
  2  3  1  0
  3  4  2  0
  3  5  1  0
  6  5  1  1
  6  7  1  0
  7  8  1  0
  8  9  2  0
  8 10  1  0
 10 11  1  0
 11 12  1  6
 11 13  1  0
 13 14  1  0
 14 15  2  0
 15 16  1  0
 16 17  2  0
 17 18  1  0
 18 19  1  1
 18 20  1  0
 20 21  1  6
 20 22  1  0
 22 23  1  0
 23 24  1  1
 24 25  1  0
 25 26  2  0
 23 27  1  0
 27 28  1  1
 29 28  1  6
 29 30  1  0
 30 31  1  0
 31 32  1  6
 31 33  1  0
 33 34  1  1
 35 34  1  6
 35 36  1  0
 36 37  1  0
 37 38  1  1
 37 39  1  0
 37 40  1  0
 40 41  1  6
 41 42  1  0
 42 43  2  0
 42 44  1  0
 44 45  1  0
 40 46  1  0
 46 47  1  1
 46 48  1  0
 33 49  1  0
 49 50  1  6
 50 51  1  0
 50 52  1  0
 49 53  1  0
 53 54  1  6
 27 55  1  0
 55 56  1  1
 56 57  1  0
 55  6  1  0
 53 29  1  0
 48 35  1  0
M  END
>  <zinc_id>  (1) 
ZINC000169368401

>  <smiles>  (1) 
CCC(=O)O[C@H]1[C@H](C)O[C@@H](O[C@@H]2[C@@H](C)O[C@@H](O[C@@H]3[C@@H](OC)[C@H](OC(=O)CC)CC(=O)O[C@H](C)C/C=C/C=C/[C@H](O)[C@H](C)C[C@@H]3CC=O)[C@H](O)[C@H]2N(C)C)C[C@@]1(C)O

$$$$
