448011
  -OEChem-10051720223D

 52 54  0     0  0  0  0  0  0999 V2000
    4.2930   -0.3575    0.1483 O   0  0  0  0  0  0  0  0  0  0  0  0
   -5.1487    0.1468   -0.4764 O   0  0  0  0  0  0  0  0  0  0  0  0
    5.5787    2.7329   -1.1427 O   0  0  0  0  0  0  0  0  0  0  0  0
    5.8857    1.7289    0.8785 O   0  0  0  0  0  0  0  0  0  0  0  0
   -0.6041   -3.1647    0.0010 C   0  0  0  0  0  0  0  0  0  0  0  0
    0.7100   -2.4109    0.0406 C   0  0  0  0  0  0  0  0  0  0  0  0
   -1.8025   -2.2857   -0.1217 C   0  0  0  0  0  0  0  0  0  0  0  0
    1.3802   -2.2802    1.2455 C   0  0  0  0  0  0  0  0  0  0  0  0
    1.2155   -1.8680   -1.1293 C   0  0  0  0  0  0  0  0  0  0  0  0
   -3.0312   -0.3361    0.5371 C   0  0  0  0  0  0  0  0  0  0  0  0
   -1.9112   -1.1391    0.6652 C   0  0  0  0  0  0  0  0  0  0  0  0
   -3.1320    0.9067    1.3984 C   0  0  0  0  0  0  0  0  0  0  0  0
   -2.8152   -2.6111   -1.0237 C   0  0  0  0  0  0  0  0  0  0  0  0
    2.5901   -1.5870    1.2819 C   0  0  0  0  0  0  0  0  0  0  0  0
    2.4254   -1.1749   -1.0931 C   0  0  0  0  0  0  0  0  0  0  0  0
   -4.0457   -0.6431   -0.3522 C   0  0  0  0  0  0  0  0  0  0  0  0
    3.1128   -1.0343    0.1126 C   0  0  0  0  0  0  0  0  0  0  0  0
    0.8428   -2.8633    2.5113 C   0  0  0  0  0  0  0  0  0  0  0  0
    0.4992   -2.0043   -2.4330 C   0  0  0  0  0  0  0  0  0  0  0  0
   -3.9367   -1.7898   -1.1392 C   0  0  0  0  0  0  0  0  0  0  0  0
   -2.5431    2.1258    0.7727 C   0  0  0  0  0  0  0  0  0  0  0  0
   -3.3366    2.9555   -0.0198 C   0  0  0  0  0  0  0  0  0  0  0  0
   -1.1992    2.4367    0.9802 C   0  0  0  0  0  0  0  0  0  0  0  0
   -2.7861    4.0958   -0.6048 C   0  0  0  0  0  0  0  0  0  0  0  0
   -0.6488    3.5770    0.3951 C   0  0  0  0  0  0  0  0  0  0  0  0
    4.4680    0.6932   -0.8010 C   0  0  0  0  0  0  0  0  0  0  0  0
   -1.4423    4.4066   -0.3974 C   0  0  0  0  0  0  0  0  0  0  0  0
    5.3819    1.7441   -0.2345 C   0  0  0  0  0  0  0  0  0  0  0  0
   -0.7474   -3.8044    0.8786 H   0  0  0  0  0  0  0  0  0  0  0  0
   -0.5635   -3.8890   -0.8231 H   0  0  0  0  0  0  0  0  0  0  0  0
   -1.1395   -0.8673    1.3774 H   0  0  0  0  0  0  0  0  0  0  0  0
   -2.6469    0.7169    2.3667 H   0  0  0  0  0  0  0  0  0  0  0  0
   -4.1796    1.0920    1.6726 H   0  0  0  0  0  0  0  0  0  0  0  0
   -2.7448   -3.5015   -1.6427 H   0  0  0  0  0  0  0  0  0  0  0  0
    3.1349   -1.4715    2.2158 H   0  0  0  0  0  0  0  0  0  0  0  0
    2.8258   -0.7758   -2.0209 H   0  0  0  0  0  0  0  0  0  0  0  0
    1.4546   -2.5741    3.3738 H   0  0  0  0  0  0  0  0  0  0  0  0
   -0.1712   -2.5143    2.7242 H   0  0  0  0  0  0  0  0  0  0  0  0
    0.8565   -3.9574    2.4665 H   0  0  0  0  0  0  0  0  0  0  0  0
    1.1155   -1.6416   -3.2641 H   0  0  0  0  0  0  0  0  0  0  0  0
    0.2703   -3.0493   -2.6617 H   0  0  0  0  0  0  0  0  0  0  0  0
   -0.4175   -1.4079   -2.4393 H   0  0  0  0  0  0  0  0  0  0  0  0
   -4.7184   -2.0555   -1.8459 H   0  0  0  0  0  0  0  0  0  0  0  0
   -4.3869    2.7337   -0.1853 H   0  0  0  0  0  0  0  0  0  0  0  0
   -0.5690    1.7994    1.5949 H   0  0  0  0  0  0  0  0  0  0  0  0
   -5.7386   -0.2349   -1.1489 H   0  0  0  0  0  0  0  0  0  0  0  0
   -3.4042    4.7428   -1.2204 H   0  0  0  0  0  0  0  0  0  0  0  0
    0.3977    3.8188    0.5562 H   0  0  0  0  0  0  0  0  0  0  0  0
    4.9257    0.2827   -1.7071 H   0  0  0  0  0  0  0  0  0  0  0  0
    3.5194    1.1974   -1.0239 H   0  0  0  0  0  0  0  0  0  0  0  0
   -1.0138    5.2946   -0.8527 H   0  0  0  0  0  0  0  0  0  0  0  0
    6.1729    3.4333   -0.7982 H   0  0  0  0  0  0  0  0  0  0  0  0
  1 17  1  0  0  0  0
  1 26  1  0  0  0  0
  2 16  1  0  0  0  0
  2 46  1  0  0  0  0
  3 28  1  0  0  0  0
  3 52  1  0  0  0  0
  4 28  2  0  0  0  0
  5  6  1  0  0  0  0
  5  7  1  0  0  0  0
  5 29  1  0  0  0  0
  5 30  1  0  0  0  0
  6  8  2  0  0  0  0
  6  9  1  0  0  0  0
  7 11  2  0  0  0  0
  7 13  1  0  0  0  0
  8 14  1  0  0  0  0
  8 18  1  0  0  0  0
  9 15  2  0  0  0  0
  9 19  1  0  0  0  0
 10 11  1  0  0  0  0
 10 12  1  0  0  0  0
 10 16  2  0  0  0  0
 11 31  1  0  0  0  0
 12 21  1  0  0  0  0
 12 32  1  0  0  0  0
 12 33  1  0  0  0  0
 13 20  2  0  0  0  0
 13 34  1  0  0  0  0
 14 17  2  0  0  0  0
 14 35  1  0  0  0  0
 15 17  1  0  0  0  0
 15 36  1  0  0  0  0
 16 20  1  0  0  0  0
 18 37  1  0  0  0  0
 18 38  1  0  0  0  0
 18 39  1  0  0  0  0
 19 40  1  0  0  0  0
 19 41  1  0  0  0  0
 19 42  1  0  0  0  0
 20 43  1  0  0  0  0
 21 22  2  0  0  0  0
 21 23  1  0  0  0  0
 22 24  1  0  0  0  0
 22 44  1  0  0  0  0
 23 25  2  0  0  0  0
 23 45  1  0  0  0  0
 24 27  2  0  0  0  0
 24 47  1  0  0  0  0
 25 27  1  0  0  0  0
 25 48  1  0  0  0  0
 26 28  1  0  0  0  0
 26 49  1  0  0  0  0
 26 50  1  0  0  0  0
 27 51  1  0  0  0  0
M  END
> <DATABASE_ID>
DB03788

> <DATABASE_NAME>
drugbank

> <ORIGINAL_SOURCE>
PUBCHEM

> <ORIGINAL_SOURCE_URL>
https://pubchem.ncbi.nlm.nih.gov/rest/pug/compound/inchikey/JYHIGYLGYNCMGI-UHFFFAOYSA-N/SDF?record_type=3d

> <SMILES>
CC1=CC(OCC(O)=O)=CC(C)=C1CC1=CC=C(O)C(CC2=CC=CC=C2)=C1

> <INCHI_IDENTIFIER>
InChI=1S/C24H24O4/c1-16-10-21(28-15-24(26)27)11-17(2)22(16)14-19-8-9-23(25)20(13-19)12-18-6-4-3-5-7-18/h3-11,13,25H,12,14-15H2,1-2H3,(H,26,27)

> <INCHI_KEY>
JYHIGYLGYNCMGI-UHFFFAOYSA-N

> <FORMULA>
C24H24O4

> <MOLECULAR_WEIGHT>
376.445

> <EXACT_MASS>
376.167459256

> <JCHEM_ACCEPTOR_COUNT>
4

> <JCHEM_ATOM_COUNT>
52

> <JCHEM_AVERAGE_NEUTRAL_MICROSPECIES_CHARGE>
-0.9997863886995106

> <JCHEM_AVERAGE_POLARIZABILITY>
41.06330429659706

> <JCHEM_BIOAVAILABILITY>
1

> <JCHEM_DONOR_COUNT>
2

> <JCHEM_FORMAL_CHARGE>
0

> <JCHEM_GHOSE_FILTER>
0

> <JCHEM_IUPAC>
2-{4-[(3-benzyl-4-hydroxyphenyl)methyl]-3,5-dimethylphenoxy}acetic acid

> <ALOGPS_LOGP>
5.21

> <JCHEM_LOGP>
6.200423369666667

> <ALOGPS_LOGS>
-5.97

> <JCHEM_MDDR_LIKE_RULE>
1

> <JCHEM_NEUTRAL_CHARGE>
-1

> <JCHEM_NUMBER_OF_RINGS>
3

> <JCHEM_PHYSIOLOGICAL_CHARGE>
-1

> <JCHEM_PKA>
10.215609603934618

> <JCHEM_PKA_STRONGEST_ACIDIC>
3.915188161053081

> <JCHEM_PKA_STRONGEST_BASIC>
-4.884769581890522

> <JCHEM_POLAR_SURFACE_AREA>
66.76

> <JCHEM_REFRACTIVITY>
110.1435

> <JCHEM_ROTATABLE_BOND_COUNT>
7

> <JCHEM_RULE_OF_FIVE>
0

> <ALOGPS_SOLUBILITY>
4.04e-04 g/l

> <JCHEM_TRADITIONAL_IUPAC>
biotin

> <JCHEM_VEBER_RULE>
0

$$$$
