
     RDKit          3D

 51 56  0  0  0  0  0  0  0  0999 V2000
    2.2744   -0.0463   -4.3513 C   0  0  0  0  0  0  0  0  0  0  0  0
    2.1024    0.2184   -3.4109 O   0  0  0  0  0  0  0  0  0  0  0  0
    2.8804    1.4824   -3.1156 C   0  0  2  0  0  0  0  0  0  0  0  0
    4.2980    0.7637   -2.8987 C   0  0  0  0  0  0  0  0  0  0  0  0
    4.3600   -0.3621   -1.7335 C   0  0  1  0  0  0  0  0  0  0  0  0
    4.5089    0.7864   -0.5502 C   0  0  0  0  0  0  0  0  0  0  0  0
    5.7506    0.2187    0.3672 C   0  0  1  0  0  0  0  0  0  0  0  0
    6.4727   -0.5381   -0.9051 C   0  0  0  0  0  0  0  0  0  0  0  0
    7.8796   -0.7628   -0.5912 C   0  0  0  0  0  0  0  0  0  0  0  0
    8.2758    0.7969   -0.7642 C   0  0  2  0  0  0  0  0  0  0  0  0
    9.8407    0.5980   -0.4098 C   0  0  0  0  0  0  0  0  0  0  0  0
    7.8254    1.3614    0.7752 C   0  0  2  0  0  0  0  0  0  0  0  0
    7.5416   -0.1190    1.5622 C   0  0  1  0  0  0  0  0  0  0  0  0
    9.0863   -0.5632    1.7820 C   0  0  0  0  0  0  0  0  0  0  0  0
    7.4918    0.5974    2.9841 C   0  0  0  0  0  0  0  0  0  0  0  0
    8.4164    1.4164    3.2694 O   0  0  0  0  0  0  0  0  0  0  0  0
    7.3897   -0.4229    3.9419 O   0  0  0  0  0  0  0  0  0  0  0  0
    6.4396    1.5549    0.2432 O   0  0  0  0  0  0  0  0  0  0  0  0
    2.8985   -0.7036   -1.5734 O   0  0  0  0  0  0  0  0  0  0  0  0
    2.1265    0.1474   -1.0959 C   0  0  1  0  0  0  0  0  0  0  0  0
    0.8493   -0.1633   -1.4378 O   0  0  0  0  0  0  0  0  0  0  0  0
    0.3934   -0.8975   -0.4634 C   0  0  2  0  0  0  0  0  0  0  0  0
    0.8374   -2.3401   -0.5077 C   0  0  0  0  0  0  0  0  0  0  0  0
   -1.1766   -1.3105   -0.6541 C   0  0  1  0  0  0  0  0  0  0  0  0
   -1.3208   -1.5997    0.9700 C   0  0  0  0  0  0  0  0  0  0  0  0
   -2.4011   -0.6493    1.3547 C   0  0  0  0  0  0  0  0  0  0  0  0
   -2.9402   -0.5100   -0.0841 C   0  0  1  0  0  0  0  0  0  0  0  0
   -3.2790   -1.9087   -0.3745 C   0  0  0  0  0  0  0  0  0  0  0  0
   -4.2360    0.3779    0.2465 C   0  0  2  0  0  0  0  0  0  0  0  0
   -5.1367   -0.4102   -0.6685 O   0  0  0  0  0  0  0  0  0  0  0  0
   -6.2986    0.5449   -0.6651 C   0  0  1  0  0  0  0  0  0  0  0  0
   -6.2308    0.8789    1.0344 C   0  0  1  0  0  0  0  0  0  0  0  0
   -7.6404    1.2404    1.0215 O   0  0  0  0  0  0  0  0  0  0  0  0
   -8.5834    0.5063    0.7414 C   0  0  1  0  0  0  0  0  0  0  0  0
   -9.7254    1.2971    0.4917 O   0  0  0  0  0  0  0  0  0  0  0  0
   -8.6644   -0.5363   -0.3192 C   0  0  0  0  0  0  0  0  0  0  0  0
   -9.0562   -1.7909    0.0803 O   0  0  0  0  0  0  0  0  0  0  0  0
   -8.8884   -0.2391    2.1657 C   0  0  2  0  0  0  0  0  0  0  0  0
   -8.1834    0.8372    3.1943 C   0  0  0  0  0  0  0  0  0  0  0  0
   -7.6209   -1.1464    2.0751 C   0  0  0  0  0  0  0  0  0  0  0  0
   -6.2389   -0.7639    1.4898 C   0  0  2  0  0  0  0  0  0  0  0  0
   -5.6901   -0.3661    3.0033 C   0  0  0  0  0  0  0  0  0  0  0  0
   -5.5123    1.8953   -1.1145 C   0  0  0  0  0  0  0  0  0  0  0  0
   -3.9527    1.5286   -0.9764 C   0  0  2  0  0  0  0  0  0  0  0  0
   -3.9025    0.5155   -2.2467 C   0  0  0  0  0  0  0  0  0  0  0  0
   -1.8428    0.0606   -0.5364 O   0  0  0  0  0  0  0  0  0  0  0  0
    0.5710   -0.1235    0.7362 C   0  0  0  0  0  0  0  0  0  0  0  0
    2.1342    0.2611    0.5214 C   0  0  1  0  0  0  0  0  0  0  0  0
    2.5765   -1.2818    0.8649 C   0  0  0  0  0  0  0  0  0  0  0  0
    2.3996    1.6858   -1.4881 C   0  0  2  0  0  0  0  0  0  0  0  0
    0.9008    2.0864   -1.9802 C   0  0  0  0  0  0  0  0  0  0  0  0
  1  2  1  0
  3  2  1  6
  3  4  1  0
  4  5  1  0
  5  6  1  1
  7  6  1  6
  7  8  1  0
  8  9  1  0
  9 10  1  0
 10 11  1  1
 10 12  1  0
 12 13  1  0
 13 14  1  1
 13 15  1  0
 15 16  2  0
 15 17  1  0
 12 18  1  6
  5 19  1  0
 20 19  1  1
 20 21  1  0
 21 22  1  0
 22 23  1  1
 22 24  1  0
 24 25  1  1
 25 26  1  0
 26 27  1  0
 27 28  1  6
 27 29  1  0
 29 30  1  6
 31 30  1  1
 31 32  1  0
 32 33  1  1
 33 34  1  0
 34 35  1  6
 34 36  1  0
 36 37  1  0
 34 38  1  0
 38 39  1  1
 38 40  1  0
 40 41  1  0
 41 42  1  1
 31 43  1  0
 43 44  1  0
 44 45  1  6
 27 46  1  0
 22 47  1  0
 47 48  1  0
 48 49  1  1
 20 50  1  0
 50 51  1  6
 50  3  1  0
 18  7  1  0
 48 20  1  0
 46 24  1  0
 44 29  1  0
 41 32  1  0
M  END
>  <zinc_id>  (1) 
ZINC000085552063

>  <smiles>  (1) 
CO[C@@H]1C[C@@H](C[C@H]2CC[C@H](C)[C@H]([C@@H](C)C(=O)O)O2)O[C@]2(O[C@](C)([C@H]3CC[C@@](C)([C@@H]4O[C@@H]([C@H]5O[C@@](O)(CO)[C@H](C)C[C@@H]5C)C[C@@H]4C)O3)C[C@H]2C)[C@@H]1C

$$$$
