46174145
  -OEChem-05201910363D

117121  0     1  0  0  0  0  0999 V2000
   -4.3425   -2.1576   -1.7334 O   0  0  0  0  0  0  0  0  0  0  0  0
   -4.1482    1.0343   -0.5525 O   0  0  0  0  0  0  0  0  0  0  0  0
   -2.7672    0.6084   -2.3800 O   0  0  0  0  0  0  0  0  0  0  0  0
   -7.4794    0.3998   -2.9166 O   0  0  0  0  0  0  0  0  0  0  0  0
   -5.4972    3.0692    0.8155 O   0  0  0  0  0  0  0  0  0  0  0  0
   -4.0123    0.2916    2.6803 O   0  0  0  0  0  0  0  0  0  0  0  0
   -8.8700    2.6482   -0.1871 O   0  0  0  0  0  0  0  0  0  0  0  0
   -2.9624    2.3177    4.2235 O   0  0  0  0  0  0  0  0  0  0  0  0
   -2.6122   -1.3380   -0.4095 N   0  0  0  0  0  0  0  0  0  0  0  0
   -7.7993    0.5883   -0.0139 N   0  0  0  0  0  0  0  0  0  0  0  0
    5.0663   -1.0374    0.8947 C   0  0  1  0  0  0  0  0  0  0  0  0
    4.3581   -1.1908   -0.4690 C   0  0  2  0  0  0  0  0  0  0  0  0
    3.1478   -2.1294   -0.4110 C   0  0  1  0  0  0  0  0  0  0  0  0
    2.1199   -1.5519    0.6161 C   0  0  1  0  0  0  0  0  0  0  0  0
    0.8161   -2.4307    0.6990 C   0  0  2  0  0  0  0  0  0  0  0  0
    6.2265   -0.1058    0.4662 C   0  0  2  0  0  0  0  0  0  0  0  0
    0.2277   -2.5269   -0.7450 C   0  0  1  0  0  0  0  0  0  0  0  0
    4.0658   -0.4106    1.8761 C   0  0  0  0  0  0  0  0  0  0  0  0
    2.7777   -1.2471    1.9878 C   0  0  0  0  0  0  0  0  0  0  0  0
    5.4979   -1.5083   -1.4321 C   0  0  0  0  0  0  0  0  0  0  0  0
    2.5106   -2.3117   -1.7959 C   0  0  0  0  0  0  0  0  0  0  0  0
    6.6867   -0.6942   -0.8883 C   0  0  0  0  0  0  0  0  0  0  0  0
    1.2230   -3.1313   -1.7424 C   0  0  0  0  0  0  0  0  0  0  0  0
   -0.2511   -1.7450    1.5980 C   0  0  0  0  0  0  0  0  0  0  0  0
    5.6065   -2.3662    1.4807 C   0  0  0  0  0  0  0  0  0  0  0  0
   -1.1262   -3.2548   -0.7949 C   0  0  0  0  0  0  0  0  0  0  0  0
    7.3688    0.0616    1.4577 C   0  0  1  0  0  0  0  0  0  0  0  0
    1.1327   -3.8270    1.2939 C   0  0  0  0  0  0  0  0  0  0  0  0
   -1.6249   -2.4259    1.5521 C   0  0  0  0  0  0  0  0  0  0  0  0
   -2.1611   -2.6032    0.1299 C   0  0  1  0  0  0  0  0  0  0  0  0
    8.6654    0.5780    0.7969 C   0  0  0  0  0  0  0  0  0  0  0  0
    6.9497    1.0206    2.5788 C   0  0  0  0  0  0  0  0  0  0  0  0
    8.4850    1.9144    0.0697 C   0  0  0  0  0  0  0  0  0  0  0  0
   -3.6676   -1.2289   -1.2970 C   0  0  0  0  0  0  0  0  0  0  0  0
    9.7544    2.3995   -0.6430 C   0  0  0  0  0  0  0  0  0  0  0  0
   -3.9425    0.2011   -1.6791 C   0  0  1  0  0  0  0  0  0  0  0  0
    9.6607    3.7716   -1.3369 C   0  0  0  0  0  0  0  0  0  0  0  0
   -5.1076    0.3133   -2.6581 C   0  0  0  0  0  0  0  0  0  0  0  0
   -6.4533    0.0718   -1.9828 C   0  0  1  0  0  0  0  0  0  0  0  0
    8.5658    3.7340   -2.4073 C   0  0  0  0  0  0  0  0  0  0  0  0
   10.9858    4.1994   -1.9683 C   0  0  0  0  0  0  0  0  0  0  0  0
   -5.3535    0.7751    0.1767 C   0  0  2  0  0  0  0  0  0  0  0  0
   -6.5886    0.9347   -0.7242 C   0  0  2  0  0  0  0  0  0  0  0  0
   -5.3730    1.7537    1.3488 C   0  0  1  0  0  0  0  0  0  0  0  0
   -2.6534    2.0217   -2.4141 C   0  0  0  0  0  0  0  0  0  0  0  0
   -4.1243    1.6476    2.2329 C   0  0  1  0  0  0  0  0  0  0  0  0
   -8.8373    1.4805    0.1924 C   0  0  0  0  0  0  0  0  0  0  0  0
   -4.1578    2.5313    3.4776 C   0  0  0  0  0  0  0  0  0  0  0  0
   -9.9860    0.8551    0.9372 C   0  0  0  0  0  0  0  0  0  0  0  0
    3.9726   -0.2028   -0.7729 H   0  0  0  0  0  0  0  0  0  0  0  0
    3.4829   -3.1180   -0.0823 H   0  0  0  0  0  0  0  0  0  0  0  0
    1.8067   -0.5716    0.2222 H   0  0  0  0  0  0  0  0  0  0  0  0
    5.8002    0.8847    0.2457 H   0  0  0  0  0  0  0  0  0  0  0  0
    0.0382   -1.4986   -1.0902 H   0  0  0  0  0  0  0  0  0  0  0  0
    3.8007    0.6044    1.5540 H   0  0  0  0  0  0  0  0  0  0  0  0
    4.4879   -0.3242    2.8801 H   0  0  0  0  0  0  0  0  0  0  0  0
    3.0032   -2.1779    2.5175 H   0  0  0  0  0  0  0  0  0  0  0  0
    2.0770   -0.6929    2.6220 H   0  0  0  0  0  0  0  0  0  0  0  0
    5.2560   -1.2201   -2.4603 H   0  0  0  0  0  0  0  0  0  0  0  0
    5.7348   -2.5783   -1.4345 H   0  0  0  0  0  0  0  0  0  0  0  0
    3.2162   -2.8070   -2.4732 H   0  0  0  0  0  0  0  0  0  0  0  0
    2.2907   -1.3297   -2.2345 H   0  0  0  0  0  0  0  0  0  0  0  0
    6.9607    0.0838   -1.6064 H   0  0  0  0  0  0  0  0  0  0  0  0
    7.5400   -1.3731   -0.7865 H   0  0  0  0  0  0  0  0  0  0  0  0
    0.7788   -3.1508   -2.7452 H   0  0  0  0  0  0  0  0  0  0  0  0
    1.4507   -4.1719   -1.4851 H   0  0  0  0  0  0  0  0  0  0  0  0
    0.0811   -1.7304    2.6430 H   0  0  0  0  0  0  0  0  0  0  0  0
   -0.3639   -0.6951    1.2985 H   0  0  0  0  0  0  0  0  0  0  0  0
    6.0063   -2.2159    2.4898 H   0  0  0  0  0  0  0  0  0  0  0  0
    4.8309   -3.1309    1.5752 H   0  0  0  0  0  0  0  0  0  0  0  0
    6.4048   -2.8011    0.8713 H   0  0  0  0  0  0  0  0  0  0  0  0
   -0.9997   -4.3078   -0.5183 H   0  0  0  0  0  0  0  0  0  0  0  0
   -1.5018   -3.2557   -1.8264 H   0  0  0  0  0  0  0  0  0  0  0  0
    7.6439   -0.8934    1.9163 H   0  0  0  0  0  0  0  0  0  0  0  0
    1.4472   -3.7501    2.3400 H   0  0  0  0  0  0  0  0  0  0  0  0
    0.2651   -4.4924    1.2822 H   0  0  0  0  0  0  0  0  0  0  0  0
    1.9275   -4.3468    0.7536 H   0  0  0  0  0  0  0  0  0  0  0  0
   -2.3326   -1.8418    2.1516 H   0  0  0  0  0  0  0  0  0  0  0  0
   -1.5589   -3.4079    2.0353 H   0  0  0  0  0  0  0  0  0  0  0  0
   -3.0376   -3.2617    0.1751 H   0  0  0  0  0  0  0  0  0  0  0  0
    9.4356    0.6998    1.5703 H   0  0  0  0  0  0  0  0  0  0  0  0
    9.0731   -0.1669    0.1052 H   0  0  0  0  0  0  0  0  0  0  0  0
    7.8233    1.3732    3.1392 H   0  0  0  0  0  0  0  0  0  0  0  0
    6.3124    0.5195    3.3095 H   0  0  0  0  0  0  0  0  0  0  0  0
    6.4188    1.9013    2.2033 H   0  0  0  0  0  0  0  0  0  0  0  0
   -2.0992   -0.4969   -0.1616 H   0  0  0  0  0  0  0  0  0  0  0  0
    8.1897    2.6847    0.7919 H   0  0  0  0  0  0  0  0  0  0  0  0
    7.6773    1.8512   -0.6594 H   0  0  0  0  0  0  0  0  0  0  0  0
   10.5668    2.4431    0.0943 H   0  0  0  0  0  0  0  0  0  0  0  0
   10.0537    1.6428   -1.3803 H   0  0  0  0  0  0  0  0  0  0  0  0
    9.3850    4.5246   -0.5880 H   0  0  0  0  0  0  0  0  0  0  0  0
   -5.1487    1.3038   -3.1261 H   0  0  0  0  0  0  0  0  0  0  0  0
   -4.9819   -0.3723   -3.5072 H   0  0  0  0  0  0  0  0  0  0  0  0
   -6.5790   -0.9863   -1.7272 H   0  0  0  0  0  0  0  0  0  0  0  0
   11.7752    4.2492   -1.2111 H   0  0  0  0  0  0  0  0  0  0  0  0
   10.8989    5.1897   -2.4276 H   0  0  0  0  0  0  0  0  0  0  0  0
    7.5724    3.6164   -1.9643 H   0  0  0  0  0  0  0  0  0  0  0  0
    8.5489    4.6714   -2.9745 H   0  0  0  0  0  0  0  0  0  0  0  0
    8.7275    2.9159   -3.1174 H   0  0  0  0  0  0  0  0  0  0  0  0
   11.3030    3.4917   -2.7417 H   0  0  0  0  0  0  0  0  0  0  0  0
   -5.3166   -0.2492    0.5697 H   0  0  0  0  0  0  0  0  0  0  0  0
   -6.6698    1.9755   -1.0628 H   0  0  0  0  0  0  0  0  0  0  0  0
   -6.2612    1.5535    1.9608 H   0  0  0  0  0  0  0  0  0  0  0  0
   -1.8375    2.2682   -3.1008 H   0  0  0  0  0  0  0  0  0  0  0  0
   -2.3701    2.4117   -1.4309 H   0  0  0  0  0  0  0  0  0  0  0  0
   -3.5496    2.5291   -2.7776 H   0  0  0  0  0  0  0  0  0  0  0  0
   -7.8849   -0.3594    0.3425 H   0  0  0  0  0  0  0  0  0  0  0  0
   -7.3673   -0.1777   -3.6910 H   0  0  0  0  0  0  0  0  0  0  0  0
   -3.2185    1.8819    1.6609 H   0  0  0  0  0  0  0  0  0  0  0  0
   -5.6920    3.6712    1.5531 H   0  0  0  0  0  0  0  0  0  0  0  0
   -4.2158    3.5915    3.2158 H   0  0  0  0  0  0  0  0  0  0  0  0
   -5.0027    2.2670    4.1218 H   0  0  0  0  0  0  0  0  0  0  0  0
   -3.2097    0.2307    3.2262 H   0  0  0  0  0  0  0  0  0  0  0  0
   -9.6227    0.3477    1.8356 H   0  0  0  0  0  0  0  0  0  0  0  0
  -10.6970    1.6302    1.2363 H   0  0  0  0  0  0  0  0  0  0  0  0
  -10.4916    0.1335    0.2897 H   0  0  0  0  0  0  0  0  0  0  0  0
   -3.0125    2.8875    5.0099 H   0  0  0  0  0  0  0  0  0  0  0  0
  1 34  2  0  0  0  0
  2 36  1  0  0  0  0
  2 42  1  0  0  0  0
  3 36  1  0  0  0  0
  3 45  1  0  0  0  0
  4 39  1  0  0  0  0
  4108  1  0  0  0  0
  5 44  1  0  0  0  0
  5110  1  0  0  0  0
  6 46  1  0  0  0  0
  6113  1  0  0  0  0
  7 47  2  0  0  0  0
  8 48  1  0  0  0  0
  8117  1  0  0  0  0
  9 30  1  0  0  0  0
  9 34  1  0  0  0  0
  9 86  1  0  0  0  0
 10 43  1  0  0  0  0
 10 47  1  0  0  0  0
 10107  1  0  0  0  0
 11 12  1  0  0  0  0
 11 16  1  0  0  0  0
 11 18  1  0  0  0  0
 11 25  1  0  0  0  0
 12 13  1  0  0  0  0
 12 20  1  0  0  0  0
 12 50  1  0  0  0  0
 13 14  1  0  0  0  0
 13 21  1  0  0  0  0
 13 51  1  0  0  0  0
 14 15  1  0  0  0  0
 14 19  1  0  0  0  0
 14 52  1  0  0  0  0
 15 17  1  0  0  0  0
 15 24  1  0  0  0  0
 15 28  1  0  0  0  0
 16 22  1  0  0  0  0
 16 27  1  0  0  0  0
 16 53  1  0  0  0  0
 17 23  1  0  0  0  0
 17 26  1  0  0  0  0
 17 54  1  0  0  0  0
 18 19  1  0  0  0  0
 18 55  1  0  0  0  0
 18 56  1  0  0  0  0
 19 57  1  0  0  0  0
 19 58  1  0  0  0  0
 20 22  1  0  0  0  0
 20 59  1  0  0  0  0
 20 60  1  0  0  0  0
 21 23  1  0  0  0  0
 21 61  1  0  0  0  0
 21 62  1  0  0  0  0
 22 63  1  0  0  0  0
 22 64  1  0  0  0  0
 23 65  1  0  0  0  0
 23 66  1  0  0  0  0
 24 29  1  0  0  0  0
 24 67  1  0  0  0  0
 24 68  1  0  0  0  0
 25 69  1  0  0  0  0
 25 70  1  0  0  0  0
 25 71  1  0  0  0  0
 26 30  1  0  0  0  0
 26 72  1  0  0  0  0
 26 73  1  0  0  0  0
 27 31  1  0  0  0  0
 27 32  1  0  0  0  0
 27 74  1  0  0  0  0
 28 75  1  0  0  0  0
 28 76  1  0  0  0  0
 28 77  1  0  0  0  0
 29 30  1  0  0  0  0
 29 78  1  0  0  0  0
 29 79  1  0  0  0  0
 30 80  1  0  0  0  0
 31 33  1  0  0  0  0
 31 81  1  0  0  0  0
 31 82  1  0  0  0  0
 32 83  1  0  0  0  0
 32 84  1  0  0  0  0
 32 85  1  0  0  0  0
 33 35  1  0  0  0  0
 33 87  1  0  0  0  0
 33 88  1  0  0  0  0
 34 36  1  0  0  0  0
 35 37  1  0  0  0  0
 35 89  1  0  0  0  0
 35 90  1  0  0  0  0
 36 38  1  0  0  0  0
 37 40  1  0  0  0  0
 37 41  1  0  0  0  0
 37 91  1  0  0  0  0
 38 39  1  0  0  0  0
 38 92  1  0  0  0  0
 38 93  1  0  0  0  0
 39 43  1  0  0  0  0
 39 94  1  0  0  0  0
 40 97  1  0  0  0  0
 40 98  1  0  0  0  0
 40 99  1  0  0  0  0
 41 95  1  0  0  0  0
 41 96  1  0  0  0  0
 41100  1  0  0  0  0
 42 43  1  0  0  0  0
 42 44  1  0  0  0  0
 42101  1  0  0  0  0
 43102  1  0  0  0  0
 44 46  1  0  0  0  0
 44103  1  0  0  0  0
 45104  1  0  0  0  0
 45105  1  0  0  0  0
 45106  1  0  0  0  0
 46 48  1  0  0  0  0
 46109  1  0  0  0  0
 47 49  1  0  0  0  0
 48111  1  0  0  0  0
 48112  1  0  0  0  0
 49114  1  0  0  0  0
 49115  1  0  0  0  0
 49116  1  0  0  0  0
M  END
> <DATABASE_ID>
DB14932

> <DATABASE_NAME>
drugbank

> <ORIGINAL_SOURCE>
PUBCHEM

> <ORIGINAL_SOURCE_URL>
https://pubchem.ncbi.nlm.nih.gov/rest/pug/compound/inchikey/CHMRTBYTCBDIRG-JQZMMWJVSA-N/SDF?record_type=3d

> <SMILES>
CO[C@@]1(C[C@H](O)[C@@H](NC(C)=O)[C@@H](O1)[C@H](O)[C@H](O)CO)C(=O)N[C@@H]1CC[C@@]2(C)[C@@H](CC[C@H]3[C@@H]4CC[C@H]([C@H](C)CCCC(C)C)[C@@]4(C)CC[C@H]23)C1

> <INCHI_IDENTIFIER>
InChI=1S/C39H68N2O8/c1-22(2)9-8-10-23(3)28-13-14-29-27-12-11-25-19-26(15-17-37(25,5)30(27)16-18-38(28,29)6)41-36(47)39(48-7)20-31(44)33(40-24(4)43)35(49-39)34(46)32(45)21-42/h22-23,25-35,42,44-46H,8-21H2,1-7H3,(H,40,43)(H,41,47)/t23-,25+,26-,27+,28-,29+,30+,31+,32-,33-,34-,35-,37+,38-,39-/m1/s1

> <INCHI_KEY>
CHMRTBYTCBDIRG-JQZMMWJVSA-N

> <FORMULA>
C39H68N2O8

> <MOLECULAR_WEIGHT>
692.979

> <EXACT_MASS>
692.497567158

> <JCHEM_ACCEPTOR_COUNT>
8

> <JCHEM_ATOM_COUNT>
117

> <JCHEM_AVERAGE_POLARIZABILITY>
81.47152163928271

> <JCHEM_BIOAVAILABILITY>
0

> <JCHEM_DONOR_COUNT>
6

> <JCHEM_FORMAL_CHARGE>
0

> <JCHEM_GHOSE_FILTER>
0

> <JCHEM_IUPAC>
(2R,4S,5R,6R)-N-[(1R,3aS,3bR,5aS,7R,9aS,9bS,11aR)-9a,11a-dimethyl-1-[(2R)-6-methylheptan-2-yl]-hexadecahydro-1H-cyclopenta[a]phenanthren-7-yl]-5-acetamido-4-hydroxy-2-methoxy-6-[(1R,2R)-1,2,3-trihydroxypropyl]oxane-2-carboxamide

> <ALOGPS_LOGP>
4.33

> <JCHEM_LOGP>
4.532968017333337

> <ALOGPS_LOGS>
-5.66

> <JCHEM_MDDR_LIKE_RULE>
1

> <JCHEM_NUMBER_OF_RINGS>
5

> <JCHEM_PHYSIOLOGICAL_CHARGE>
0

> <JCHEM_PKA>
13.161035648116483

> <JCHEM_PKA_STRONGEST_ACIDIC>
12.63191068006113

> <JCHEM_PKA_STRONGEST_BASIC>
-1.342654404613787

> <JCHEM_POLAR_SURFACE_AREA>
157.58

> <JCHEM_REFRACTIVITY>
186.7567

> <JCHEM_ROTATABLE_BOND_COUNT>
12

> <JCHEM_RULE_OF_FIVE>
0

> <ALOGPS_SOLUBILITY>
1.53e-03 g/l

> <JCHEM_TRADITIONAL_IUPAC>
(2R)-14-fluoro-2-methyl-6,9,10,19-tetraazapentacyclo[14.2.1.0^{2,6}.0^{8,18}.0^{12,17}]nonadeca-1(18),8,12(17),13,15-pentaen-11-one

> <JCHEM_VEBER_RULE>
0

$$$$
