
     RDKit          3D

 62 64  0  0  0  0  0  0  0  0999 V2000
   -7.9326   -4.5543    0.1772 C   0  0  0  0  0  0  0  0  0  0  0  0
   -7.4906   -4.5525   -0.1390 C   0  0  0  0  0  0  0  0  0  0  0  0
   -6.5815   -3.7160   -0.9965 C   0  0  0  0  0  0  0  0  0  0  0  0
   -5.5205   -4.1443   -1.5129 O   0  0  0  0  0  0  0  0  0  0  0  0
   -6.8291   -2.3975   -1.0554 O   0  0  0  0  0  0  0  0  0  0  0  0
   -5.7151   -1.3636   -1.2407 C   0  0  1  0  0  0  0  0  0  0  0  0
   -6.1213   -0.6007    0.1155 C   0  0  0  0  0  0  0  0  0  0  0  0
   -7.3744   -0.3964    0.3839 C   0  0  0  0  0  0  0  0  0  0  0  0
   -7.9957    0.8395   -0.1204 C   0  0  0  0  0  0  0  0  0  0  0  0
   -7.4091    1.3293   -1.2138 C   0  0  0  0  0  0  0  0  0  0  0  0
   -7.0310    2.7329   -1.3136 C   0  0  0  0  0  0  0  0  0  0  0  0
   -5.4006    2.8122   -1.1170 C   0  0  1  0  0  0  0  0  0  0  0  0
   -5.3975    4.4343   -1.3900 C   0  0  0  0  0  0  0  0  0  0  0  0
   -5.5267    3.0169    0.4019 O   0  0  0  0  0  0  0  0  0  0  0  0
   -4.3871    2.5189    1.0502 C   0  0  0  0  0  0  0  0  0  0  0  0
   -4.6430    1.8048    2.0724 O   0  0  0  0  0  0  0  0  0  0  0  0
   -3.0324    2.8664    0.6010 C   0  0  0  0  0  0  0  0  0  0  0  0
   -2.6465    1.9020   -0.6574 C   0  0  1  0  0  0  0  0  0  0  0  0
   -1.3526    2.6573   -0.9405 O   0  0  0  0  0  0  0  0  0  0  0  0
   -1.4220    4.0130   -1.1641 C   0  0  0  0  0  0  0  0  0  0  0  0
   -0.5068    4.5286   -2.2307 C   0  0  0  0  0  0  0  0  0  0  0  0
   -2.3802    4.6972   -0.7434 O   0  0  0  0  0  0  0  0  0  0  0  0
   -2.0112    0.7225    0.4228 C   0  0  2  0  0  0  0  0  0  0  0  0
   -0.8122    1.4929    0.8415 O   0  0  0  0  0  0  0  0  0  0  0  0
   -0.8416    1.6176    2.2251 C   0  0  0  0  0  0  0  0  0  0  0  0
   -1.3571   -0.2700   -0.8109 C   0  0  1  0  0  0  0  0  0  0  0  0
    0.0189   -0.4603   -0.2838 O   0  0  0  0  0  0  0  0  0  0  0  0
    0.2789   -1.9537   -0.2541 C   0  0  2  0  0  0  0  0  0  0  0  0
    1.0143   -2.0472    1.0500 O   0  0  0  0  0  0  0  0  0  0  0  0
    2.3274   -1.4208    1.1298 C   0  0  2  0  0  0  0  0  0  0  0  0
    1.9278   -0.6550    2.5398 C   0  0  0  0  0  0  0  0  0  0  0  0
    1.8158   -0.0588    0.2539 C   0  0  1  0  0  0  0  0  0  0  0  0
    2.9288    0.7628    0.7708 O   0  0  0  0  0  0  0  0  0  0  0  0
    4.2034    0.0082    0.4599 C   0  0  1  0  0  0  0  0  0  0  0  0
    4.6961    1.3466   -0.4050 C   0  0  0  0  0  0  0  0  0  0  0  0
    6.1339    1.2958   -0.4241 C   0  0  1  0  0  0  0  0  0  0  0  0
    6.6052    1.4161   -1.8392 C   0  0  0  0  0  0  0  0  0  0  0  0
    6.6792    2.1383    0.4715 O   0  0  0  0  0  0  0  0  0  0  0  0
    6.3737   -0.2516    0.0122 C   0  0  1  0  0  0  0  0  0  0  0  0
    7.8815   -0.0549    0.0398 O   0  0  0  0  0  0  0  0  0  0  0  0
    8.5284   -1.0313   -0.6797 C   0  0  0  0  0  0  0  0  0  0  0  0
    8.0425   -2.1778   -0.7084 O   0  0  0  0  0  0  0  0  0  0  0  0
    9.9943   -0.8211   -0.7823 C   0  0  0  0  0  0  0  0  0  0  0  0
   10.5350    0.1680    0.1922 C   0  0  0  0  0  0  0  0  0  0  0  0
    9.8685    1.4930    0.2311 C   0  0  0  0  0  0  0  0  0  0  0  0
   10.8924   -0.3897    1.5296 C   0  0  0  0  0  0  0  0  0  0  0  0
    6.2681    0.0948    1.6867 C   0  0  2  0  0  0  0  0  0  0  0  0
    5.8831   -1.4566    2.0493 C   0  0  0  0  0  0  0  0  0  0  0  0
    4.8508    0.5712    1.7178 O   0  0  0  0  0  0  0  0  0  0  0  0
    2.5101   -0.6624   -1.1507 C   0  0  2  0  0  0  0  0  0  0  0  0
    1.5673    0.0456   -2.1815 N   0  0  0  0  0  0  0  0  0  0  0  0
    2.1667    1.2129   -2.7068 C   0  0  0  0  0  0  0  0  0  0  0  0
    1.5767   -0.8264   -3.3672 C   0  0  0  0  0  0  0  0  0  0  0  0
    1.6020   -2.0694   -1.3524 C   0  0  1  0  0  0  0  0  0  0  0  0
    2.4693   -2.9888   -0.5204 O   0  0  0  0  0  0  0  0  0  0  0  0
   -2.0424   -1.7058   -0.1579 C   0  0  1  0  0  0  0  0  0  0  0  0
   -1.8561   -1.3587    1.3967 C   0  0  0  0  0  0  0  0  0  0  0  0
   -2.3946   -2.3845    2.2767 C   0  0  0  0  0  0  0  0  0  0  0  0
   -2.5632   -1.9462    3.4328 O   0  0  0  0  0  0  0  0  0  0  0  0
   -3.5265   -1.0473   -0.2176 C   0  0  0  0  0  0  0  0  0  0  0  0
   -4.4510   -2.3177   -0.5798 C   0  0  1  0  0  0  0  0  0  0  0  0
   -5.0877   -2.4581    0.8996 C   0  0  0  0  0  0  0  0  0  0  0  0
  1  2  1  0
  2  3  1  0
  3  4  2  0
  3  5  1  0
  6  5  1  1
  6  7  1  0
  7  8  2  0
  8  9  1  0
  9 10  2  0
 10 11  1  0
 11 12  1  0
 12 13  1  6
 12 14  1  0
 14 15  1  0
 15 16  2  0
 15 17  1  0
 17 18  1  0
 18 19  1  6
 19 20  1  0
 20 21  1  0
 20 22  2  0
 18 23  1  0
 23 24  1  1
 24 25  1  0
 23 26  1  0
 26 27  1  1
 28 27  1  1
 28 29  1  0
 29 30  1  0
 30 31  1  1
 30 32  1  0
 32 33  1  1
 34 33  1  1
 34 35  1  0
 35 36  1  0
 36 37  1  6
 36 38  1  0
 36 39  1  0
 39 40  1  1
 40 41  1  0
 41 42  2  0
 41 43  1  0
 43 44  1  0
 44 45  1  0
 44 46  1  0
 39 47  1  0
 47 48  1  1
 47 49  1  0
 32 50  1  0
 50 51  1  6
 51 52  1  0
 51 53  1  0
 50 54  1  0
 54 55  1  1
 26 56  1  0
 56 57  1  1
 57 58  1  0
 58 59  2  0
 56 60  1  0
 60 61  1  0
 61 62  1  1
 61  6  1  0
 54 28  1  0
 49 34  1  0
M  END
>  <zinc_id>  (1) 
ZINC000169320743

>  <smiles>  (1) 
CCC(=O)O[C@H]1/C=C/C=C/C[C@@H](C)OC(=O)C[C@@H](OC(C)=O)[C@H](OC)[C@@H](O[C@@H]2O[C@H](C)[C@@H](O[C@H]3C[C@@](C)(O)[C@@H](OC(=O)CC(C)C)[C@H](C)O3)[C@H](N(C)C)[C@H]2O)[C@@H](CC=O)C[C@H]1C

$$$$
