126573394
  -OEChem-12152013043D

 76 80  0     1  0  0  0  0  0999 V2000
    4.0911   -0.4665    1.5229 O   0  0  0  0  0  0  0  0  0  0  0  0
    4.3693    1.8296   -2.1293 O   0  0  0  0  0  0  0  0  0  0  0  0
    2.3654    1.6845    1.9442 O   0  0  0  0  0  0  0  0  0  0  0  0
    0.2647    1.9311    0.1744 O   0  0  0  0  0  0  0  0  0  0  0  0
   -1.0976    3.7558    0.4778 O   0  0  0  0  0  0  0  0  0  0  0  0
   -9.4099   -1.7014   -0.8924 O   0  0  0  0  0  0  0  0  0  0  0  0
   -1.9538    1.6275    0.4622 N   0  0  0  0  0  0  0  0  0  0  0  0
   -6.7978   -1.2357    0.1381 N   0  0  0  0  0  0  0  0  0  0  0  0
    3.0281    0.8511   -0.2650 C   0  0  1  0  0  0  0  0  0  0  0  0
    3.1068    1.2733   -1.7300 C   0  0  2  0  0  0  0  0  0  0  0  0
    4.2864    0.1970    0.2695 C   0  0  2  0  0  0  0  0  0  0  0  0
    4.3117   -1.3100    0.3845 C   0  0  1  0  0  0  0  0  0  0  0  0
    2.6444    2.0793    0.6011 C   0  0  1  0  0  0  0  0  0  0  0  0
    4.0071    0.5773   -2.7308 C   0  0  0  0  0  0  0  0  0  0  0  0
    1.9177    2.0250   -2.2671 C   0  0  0  0  0  0  0  0  0  0  0  0
    1.3965    2.8023    0.0734 C   0  0  1  0  0  0  0  0  0  0  0  0
    1.5817    3.2244   -1.3827 C   0  0  0  0  0  0  0  0  0  0  0  0
    5.5337    1.0081    0.1818 C   0  0  0  0  0  0  0  0  0  0  0  0
    5.5714   -2.0987    0.4290 C   0  0  0  0  0  0  0  0  0  0  0  0
    5.4045   -3.5315    0.8694 C   0  0  0  0  0  0  0  0  0  0  0  0
    2.4638    2.7850    2.8323 C   0  0  0  0  0  0  0  0  0  0  0  0
   -0.9414    2.5419    0.3794 C   0  0  0  0  0  0  0  0  0  0  0  0
    5.1901   -4.6109    0.0936 C   0  0  0  0  0  0  0  0  0  0  0  0
   -3.3903    0.2387    0.9204 C   0  0  0  0  0  0  0  0  0  0  0  0
   -1.9511    0.1816    0.3703 C   0  0  0  0  0  0  0  0  0  0  0  0
   -3.3894    1.7504    0.6166 C   0  0  0  0  0  0  0  0  0  0  0  0
   -4.4236   -0.5935    0.1870 C   0  0  0  0  0  0  0  0  0  0  0  0
    5.0322   -6.0173    0.5985 C   0  0  0  0  0  0  0  0  0  0  0  0
    5.0757   -4.4676   -1.4005 C   0  0  0  0  0  0  0  0  0  0  0  0
   -5.8025   -0.4130    0.8222 C   0  0  0  0  0  0  0  0  0  0  0  0
   -7.9335   -1.5257    1.0245 C   0  0  0  0  0  0  0  0  0  0  0  0
   -7.2707   -0.5731   -1.0854 C   0  0  0  0  0  0  0  0  0  0  0  0
   -8.9634   -2.3749    0.2851 C   0  0  0  0  0  0  0  0  0  0  0  0
   -8.3171   -1.4439   -1.7750 C   0  0  0  0  0  0  0  0  0  0  0  0
    2.2113    0.1197   -0.1879 H   0  0  0  0  0  0  0  0  0  0  0  0
    3.4738   -1.8621   -0.0230 H   0  0  0  0  0  0  0  0  0  0  0  0
    3.4730    2.7974    0.5922 H   0  0  0  0  0  0  0  0  0  0  0  0
    4.5532   -0.3075   -2.4327 H   0  0  0  0  0  0  0  0  0  0  0  0
    3.7315    0.5891   -3.7782 H   0  0  0  0  0  0  0  0  0  0  0  0
    1.0606    1.3430   -2.3216 H   0  0  0  0  0  0  0  0  0  0  0  0
    2.1026    2.3778   -3.2890 H   0  0  0  0  0  0  0  0  0  0  0  0
    1.2287    3.7075    0.6666 H   0  0  0  0  0  0  0  0  0  0  0  0
    2.3883    3.9649   -1.4473 H   0  0  0  0  0  0  0  0  0  0  0  0
    0.6697    3.6964   -1.7653 H   0  0  0  0  0  0  0  0  0  0  0  0
    6.1745    0.8218    1.0523 H   0  0  0  0  0  0  0  0  0  0  0  0
    5.3740    2.0880    0.1589 H   0  0  0  0  0  0  0  0  0  0  0  0
    6.1227    0.7265   -0.6971 H   0  0  0  0  0  0  0  0  0  0  0  0
    6.0588   -2.0517   -0.5512 H   0  0  0  0  0  0  0  0  0  0  0  0
    6.2914   -1.6350    1.1161 H   0  0  0  0  0  0  0  0  0  0  0  0
    5.4664   -3.6859    1.9457 H   0  0  0  0  0  0  0  0  0  0  0  0
    2.4222    2.3919    3.8527 H   0  0  0  0  0  0  0  0  0  0  0  0
    1.6242    3.4748    2.7187 H   0  0  0  0  0  0  0  0  0  0  0  0
    3.4158    3.3131    2.7185 H   0  0  0  0  0  0  0  0  0  0  0  0
   -3.4033    0.0337    2.0015 H   0  0  0  0  0  0  0  0  0  0  0  0
   -1.2252   -0.3085    1.0239 H   0  0  0  0  0  0  0  0  0  0  0  0
   -1.8383   -0.1717   -0.6588 H   0  0  0  0  0  0  0  0  0  0  0  0
   -3.8824    2.0634   -0.3083 H   0  0  0  0  0  0  0  0  0  0  0  0
   -3.6939    2.3916    1.4472 H   0  0  0  0  0  0  0  0  0  0  0  0
   -4.1379   -1.6520    0.2393 H   0  0  0  0  0  0  0  0  0  0  0  0
   -4.4360   -0.3224   -0.8747 H   0  0  0  0  0  0  0  0  0  0  0  0
    5.1335   -6.0682    1.6876 H   0  0  0  0  0  0  0  0  0  0  0  0
    4.9728   -3.4381   -1.7504 H   0  0  0  0  0  0  0  0  0  0  0  0
    4.1881   -5.0016   -1.7583 H   0  0  0  0  0  0  0  0  0  0  0  0
    5.7964   -6.6673    0.1605 H   0  0  0  0  0  0  0  0  0  0  0  0
    5.9539   -4.9058   -1.8861 H   0  0  0  0  0  0  0  0  0  0  0  0
    4.0447   -6.4099    0.3356 H   0  0  0  0  0  0  0  0  0  0  0  0
   -6.0945    0.6448    0.8490 H   0  0  0  0  0  0  0  0  0  0  0  0
   -5.7157   -0.7277    1.8713 H   0  0  0  0  0  0  0  0  0  0  0  0
   -6.4489   -0.4036   -1.7884 H   0  0  0  0  0  0  0  0  0  0  0  0
   -7.5969   -2.0756    1.9109 H   0  0  0  0  0  0  0  0  0  0  0  0
   -8.4013   -0.5908    1.3597 H   0  0  0  0  0  0  0  0  0  0  0  0
   -7.7158    0.4011   -0.8438 H   0  0  0  0  0  0  0  0  0  0  0  0
   -8.7145   -0.9244   -2.6529 H   0  0  0  0  0  0  0  0  0  0  0  0
   -7.8906   -2.3948   -2.1172 H   0  0  0  0  0  0  0  0  0  0  0  0
   -8.5585   -3.3575    0.0137 H   0  0  0  0  0  0  0  0  0  0  0  0
   -9.8366   -2.5417    0.9240 H   0  0  0  0  0  0  0  0  0  0  0  0
  1 11  1  0  0  0  0
  1 12  1  0  0  0  0
  2 10  1  0  0  0  0
  2 14  1  0  0  0  0
  3 13  1  0  0  0  0
  3 21  1  0  0  0  0
  4 16  1  0  0  0  0
  4 22  1  0  0  0  0
  5 22  2  0  0  0  0
  6 33  1  0  0  0  0
  6 34  1  0  0  0  0
  7 22  1  0  0  0  0
  7 25  1  0  0  0  0
  7 26  1  0  0  0  0
  8 30  1  0  0  0  0
  8 31  1  0  0  0  0
  8 32  1  0  0  0  0
  9 10  1  0  0  0  0
  9 11  1  0  0  0  0
  9 13  1  0  0  0  0
  9 35  1  0  0  0  0
 10 14  1  0  0  0  0
 10 15  1  0  0  0  0
 11 12  1  0  0  0  0
 11 18  1  0  0  0  0
 12 19  1  0  0  0  0
 12 36  1  0  0  0  0
 13 16  1  0  0  0  0
 13 37  1  0  0  0  0
 14 38  1  0  0  0  0
 14 39  1  0  0  0  0
 15 17  1  0  0  0  0
 15 40  1  0  0  0  0
 15 41  1  0  0  0  0
 16 17  1  0  0  0  0
 16 42  1  0  0  0  0
 17 43  1  0  0  0  0
 17 44  1  0  0  0  0
 18 45  1  0  0  0  0
 18 46  1  0  0  0  0
 18 47  1  0  0  0  0
 19 20  1  0  0  0  0
 19 48  1  0  0  0  0
 19 49  1  0  0  0  0
 20 23  2  0  0  0  0
 20 50  1  0  0  0  0
 21 51  1  0  0  0  0
 21 52  1  0  0  0  0
 21 53  1  0  0  0  0
 23 28  1  0  0  0  0
 23 29  1  0  0  0  0
 24 25  1  0  0  0  0
 24 26  1  0  0  0  0
 24 27  1  0  0  0  0
 24 54  1  0  0  0  0
 25 55  1  0  0  0  0
 25 56  1  0  0  0  0
 26 57  1  0  0  0  0
 26 58  1  0  0  0  0
 27 30  1  0  0  0  0
 27 59  1  0  0  0  0
 27 60  1  0  0  0  0
 28 61  1  0  0  0  0
 28 64  1  0  0  0  0
 28 66  1  0  0  0  0
 29 62  1  0  0  0  0
 29 63  1  0  0  0  0
 29 65  1  0  0  0  0
 30 67  1  0  0  0  0
 30 68  1  0  0  0  0
 31 33  1  0  0  0  0
 31 70  1  0  0  0  0
 31 71  1  0  0  0  0
 32 34  1  0  0  0  0
 32 69  1  0  0  0  0
 32 72  1  0  0  0  0
 33 75  1  0  0  0  0
 33 76  1  0  0  0  0
 34 73  1  0  0  0  0
 34 74  1  0  0  0  0
M  END
> <DATABASE_ID>
DB16079

> <DATABASE_NAME>
drugbank

> <ORIGINAL_SOURCE>
PUBCHEM

> <ORIGINAL_SOURCE_URL>
https://pubchem.ncbi.nlm.nih.gov/rest/pug/compound/inchikey/QJWJPMLDQYEPPW-AUKZVGPFSA-N/SDF?record_type=3d

> <SMILES>
[H][C@@]1([C@H](OC)[C@@H](CC[C@]11CO1)OC(=O)N1CC(CCN2CCOCC2)C1)[C@@]1(C)O[C@@H]1CC=C(C)C

> <INCHI_IDENTIFIER>
InChI=1S/C26H42N2O6/c1-18(2)5-6-21-25(3,34-21)23-22(30-4)20(7-9-26(23)17-32-26)33-24(29)28-15-19(16-28)8-10-27-11-13-31-14-12-27/h5,19-23H,6-17H2,1-4H3/t20-,21-,22-,23-,25+,26+/m1/s1

> <INCHI_KEY>
QJWJPMLDQYEPPW-AUKZVGPFSA-N

> <FORMULA>
C26H42N2O6

> <MOLECULAR_WEIGHT>
478.63

> <EXACT_MASS>
478.30428708

> <JCHEM_ACCEPTOR_COUNT>
6

> <JCHEM_ATOM_COUNT>
76

> <JCHEM_AVERAGE_NEUTRAL_MICROSPECIES_CHARGE>
0.7878800836421862

> <JCHEM_AVERAGE_POLARIZABILITY>
54.23474762942999

> <JCHEM_BIOAVAILABILITY>
1

> <JCHEM_DONOR_COUNT>
0

> <JCHEM_FORMAL_CHARGE>
0

> <JCHEM_GHOSE_FILTER>
0

> <JCHEM_IUPAC>
(3R,4S,5S,6R)-5-methoxy-4-[(2R,3R)-2-methyl-3-(3-methylbut-2-en-1-yl)oxiran-2-yl]-1-oxaspiro[2.5]octan-6-yl 3-[2-(morpholin-4-yl)ethyl]azetidine-1-carboxylate

> <ALOGPS_LOGP>
2.48

> <JCHEM_LOGP>
2.0309443516666663

> <ALOGPS_LOGS>
-3.50

> <JCHEM_MDDR_LIKE_RULE>
1

> <JCHEM_NEUTRAL_CHARGE>
1

> <JCHEM_NUMBER_OF_RINGS>
5

> <JCHEM_PHYSIOLOGICAL_CHARGE>
1

> <JCHEM_PKA_STRONGEST_BASIC>
7.569878675076406

> <JCHEM_POLAR_SURFACE_AREA>
76.30000000000001

> <JCHEM_REFRACTIVITY>
128.56959999999998

> <JCHEM_ROTATABLE_BOND_COUNT>
9

> <JCHEM_RULE_OF_FIVE>
1

> <ALOGPS_SOLUBILITY>
1.52e-01 g/l

> <JCHEM_TRADITIONAL_IUPAC>
2-methoxy-4-[(1E)-3-[4-(nitrooxy)butoxy]-3-oxoprop-1-en-1-yl]phenyl (4R)-4-[(1R,3aS,3bR,4S,5aS,7R,9aS,9bS,11aR)-4,7-dihydroxy-9a,11a-dimethyl-tetradecahydro-1H-cyclopenta[a]phenanthren-1-yl]pentanoate

> <JCHEM_VEBER_RULE>
0

$$$$
