71398
  -OEChem-10051719093D

 44 45  0     1  0  0  0  0  0999 V2000
   -5.9747    0.6459   -1.6586 O   0  0  0  0  0  0  0  0  0  0  0  0
    6.3605    1.1186    0.2735 O   0  0  0  0  0  0  0  0  0  0  0  0
   -6.9745   -0.7393    0.5343 O   0  0  0  0  0  0  0  0  0  0  0  0
    6.6618   -1.6342    0.0326 O   0  0  0  0  0  0  0  0  0  0  0  0
   -0.7850    0.9751    0.4564 C   0  0  2  0  0  0  0  0  0  0  0  0
    0.7530    0.8467    0.7002 C   0  0  1  0  0  0  0  0  0  0  0  0
   -1.4015   -0.2716   -0.2196 C   0  0  0  0  0  0  0  0  0  0  0  0
    1.5754    0.7249   -0.6064 C   0  0  0  0  0  0  0  0  0  0  0  0
   -1.1020    2.2467   -0.3490 C   0  0  0  0  0  0  0  0  0  0  0  0
    1.3309    1.9942    1.5408 C   0  0  0  0  0  0  0  0  0  0  0  0
   -2.8948   -0.3955   -0.0212 C   0  0  0  0  0  0  0  0  0  0  0  0
    2.9371    0.0972   -0.4343 C   0  0  0  0  0  0  0  0  0  0  0  0
   -3.7510    0.1880   -0.9401 C   0  0  0  0  0  0  0  0  0  0  0  0
    4.0282    0.9058   -0.1578 C   0  0  0  0  0  0  0  0  0  0  0  0
   -3.3767   -1.0891    1.0764 C   0  0  0  0  0  0  0  0  0  0  0  0
    3.0723   -1.2769   -0.5568 C   0  0  0  0  0  0  0  0  0  0  0  0
   -5.1290    0.0744   -0.7562 C   0  0  0  0  0  0  0  0  0  0  0  0
    5.2868    0.3257    0.0004 C   0  0  0  0  0  0  0  0  0  0  0  0
   -4.7547   -1.2027    1.2603 C   0  0  0  0  0  0  0  0  0  0  0  0
    4.3307   -1.8570   -0.3987 C   0  0  0  0  0  0  0  0  0  0  0  0
   -5.6309   -0.6210    0.3439 C   0  0  0  0  0  0  0  0  0  0  0  0
    5.4381   -1.0557   -0.1201 C   0  0  0  0  0  0  0  0  0  0  0  0
   -1.2499    1.0921    1.4454 H   0  0  0  0  0  0  0  0  0  0  0  0
    0.8922   -0.0728    1.2864 H   0  0  0  0  0  0  0  0  0  0  0  0
   -1.1809   -0.2817   -1.2947 H   0  0  0  0  0  0  0  0  0  0  0  0
   -0.9268   -1.1775    0.1809 H   0  0  0  0  0  0  0  0  0  0  0  0
    1.0307    0.1210   -1.3419 H   0  0  0  0  0  0  0  0  0  0  0  0
    1.6865    1.7078   -1.0837 H   0  0  0  0  0  0  0  0  0  0  0  0
   -2.1797    2.4322   -0.3827 H   0  0  0  0  0  0  0  0  0  0  0  0
   -0.7427    2.1723   -1.3804 H   0  0  0  0  0  0  0  0  0  0  0  0
   -0.6549    3.1358    0.1045 H   0  0  0  0  0  0  0  0  0  0  0  0
    1.4335    2.9200    0.9660 H   0  0  0  0  0  0  0  0  0  0  0  0
    0.6870    2.2007    2.4025 H   0  0  0  0  0  0  0  0  0  0  0  0
    2.3165    1.7347    1.9396 H   0  0  0  0  0  0  0  0  0  0  0  0
   -3.3652    0.7248   -1.8024 H   0  0  0  0  0  0  0  0  0  0  0  0
    3.9097    1.9826   -0.0707 H   0  0  0  0  0  0  0  0  0  0  0  0
   -2.7021   -1.5431    1.7965 H   0  0  0  0  0  0  0  0  0  0  0  0
    2.2155   -1.9094   -0.7708 H   0  0  0  0  0  0  0  0  0  0  0  0
   -5.1321   -1.7467    2.1221 H   0  0  0  0  0  0  0  0  0  0  0  0
    4.4418   -2.9338   -0.4930 H   0  0  0  0  0  0  0  0  0  0  0  0
   -6.8888    0.4687   -1.3758 H   0  0  0  0  0  0  0  0  0  0  0  0
    6.0668    2.0445    0.3219 H   0  0  0  0  0  0  0  0  0  0  0  0
   -7.1356   -1.2521    1.3449 H   0  0  0  0  0  0  0  0  0  0  0  0
    7.3101   -0.9333    0.2205 H   0  0  0  0  0  0  0  0  0  0  0  0
  1 17  1  0  0  0  0
  1 41  1  0  0  0  0
  2 18  1  0  0  0  0
  2 42  1  0  0  0  0
  3 21  1  0  0  0  0
  3 43  1  0  0  0  0
  4 22  1  0  0  0  0
  4 44  1  0  0  0  0
  5  6  1  0  0  0  0
  5  7  1  0  0  0  0
  5  9  1  0  0  0  0
  5 23  1  0  0  0  0
  6  8  1  0  0  0  0
  6 10  1  0  0  0  0
  6 24  1  0  0  0  0
  7 11  1  0  0  0  0
  7 25  1  0  0  0  0
  7 26  1  0  0  0  0
  8 12  1  0  0  0  0
  8 27  1  0  0  0  0
  8 28  1  0  0  0  0
  9 29  1  0  0  0  0
  9 30  1  0  0  0  0
  9 31  1  0  0  0  0
 10 32  1  0  0  0  0
 10 33  1  0  0  0  0
 10 34  1  0  0  0  0
 11 13  2  0  0  0  0
 11 15  1  0  0  0  0
 12 14  2  0  0  0  0
 12 16  1  0  0  0  0
 13 17  1  0  0  0  0
 13 35  1  0  0  0  0
 14 18  1  0  0  0  0
 14 36  1  0  0  0  0
 15 19  2  0  0  0  0
 15 37  1  0  0  0  0
 16 20  2  0  0  0  0
 16 38  1  0  0  0  0
 17 21  2  0  0  0  0
 18 22  2  0  0  0  0
 19 21  1  0  0  0  0
 19 39  1  0  0  0  0
 20 22  1  0  0  0  0
 20 40  1  0  0  0  0
M  END
> <DATABASE_ID>
DB00179

> <DATABASE_NAME>
drugbank

> <ORIGINAL_SOURCE>
PUBCHEM

> <ORIGINAL_SOURCE_URL>
https://pubchem.ncbi.nlm.nih.gov/rest/pug/compound/inchikey/HCZKYJDFEPMADG-TXEJJXNPSA-N/SDF?record_type=3d

> <SMILES>
C[C@@H](CC1=CC(O)=C(O)C=C1)[C@H](C)CC1=CC(O)=C(O)C=C1

> <INCHI_IDENTIFIER>
InChI=1S/C18H22O4/c1-11(7-13-3-5-15(19)17(21)9-13)12(2)8-14-4-6-16(20)18(22)10-14/h3-6,9-12,19-22H,7-8H2,1-2H3/t11-,12+

> <INCHI_KEY>
HCZKYJDFEPMADG-TXEJJXNPSA-N

> <FORMULA>
C18H22O4

> <MOLECULAR_WEIGHT>
302.3649

> <EXACT_MASS>
302.151809192

> <JCHEM_ACCEPTOR_COUNT>
4

> <JCHEM_ATOM_COUNT>
44

> <JCHEM_AVERAGE_NEUTRAL_MICROSPECIES_CHARGE>
-0.0077349855726304255

> <JCHEM_AVERAGE_POLARIZABILITY>
33.629093382907094

> <JCHEM_BIOAVAILABILITY>
1

> <JCHEM_DONOR_COUNT>
4

> <JCHEM_FORMAL_CHARGE>
0

> <JCHEM_GHOSE_FILTER>
1

> <JCHEM_IUPAC>
4-[(2S,3R)-4-(3,4-dihydroxyphenyl)-2,3-dimethylbutyl]benzene-1,2-diol

> <ALOGPS_LOGP>
3.44

> <JCHEM_LOGP>
4.758522743999999

> <ALOGPS_LOGS>
-4.35

> <JCHEM_MDDR_LIKE_RULE>
0

> <JCHEM_NEUTRAL_CHARGE>
0

> <JCHEM_NUMBER_OF_RINGS>
2

> <JCHEM_PHYSIOLOGICAL_CHARGE>
0

> <JCHEM_PKA>
9.808299093340917

> <JCHEM_PKA_STRONGEST_ACIDIC>
9.206546692580925

> <JCHEM_PKA_STRONGEST_BASIC>
-6.250429853405109

> <JCHEM_POLAR_SURFACE_AREA>
80.92

> <JCHEM_REFRACTIVITY>
86.619

> <JCHEM_ROTATABLE_BOND_COUNT>
5

> <JCHEM_RULE_OF_FIVE>
1

> <ALOGPS_SOLUBILITY>
1.36e-02 g/l

> <JCHEM_TRADITIONAL_IUPAC>
biotin

> <JCHEM_VEBER_RULE>
0

$$$$
