
     RDKit          3D

 16 16  0  0  0  0  0  0  0  0999 V2000
   -5.0008   -0.7393   -0.7114 O   0  0  0  0  0  0  0  0  0  0  0  0
   -3.9317   -0.1807   -0.3151 C   0  0  0  0  0  0  0  0  0  0  0  0
   -3.8630    1.1887   -0.5942 O   0  0  0  0  0  0  0  0  0  0  0  0
   -3.4284   -0.6842    0.9703 C   0  0  0  0  0  0  0  0  0  0  0  0
   -4.0829   -0.3248    2.1521 O   0  0  0  0  0  0  0  0  0  0  0  0
   -2.2881   -1.3306    0.9326 C   0  0  0  0  0  0  0  0  0  0  0  0
   -1.1953   -0.8612    0.0729 C   0  0  0  0  0  0  0  0  0  0  0  0
   -0.0166   -0.5601    0.5880 C   0  0  0  0  0  0  0  0  0  0  0  0
    0.8744    0.4591    0.0664 C   0  0  0  0  0  0  0  0  0  0  0  0
    0.5079    1.6723    0.1367 O   0  0  0  0  0  0  0  0  0  0  0  0
    2.3274    0.2523    0.1331 C   0  0  0  0  0  0  0  0  0  0  0  0
    3.1563    1.1267    0.8225 C   0  0  0  0  0  0  0  0  0  0  0  0
    4.5381    1.0422    0.7285 C   0  0  0  0  0  0  0  0  0  0  0  0
    5.1312    0.1209   -0.0943 C   0  0  0  0  0  0  0  0  0  0  0  0
    4.3253   -0.6059   -0.9300 C   0  0  0  0  0  0  0  0  0  0  0  0
    2.9460   -0.5753   -0.7965 C   0  0  0  0  0  0  0  0  0  0  0  0
  1  2  2  0
  2  3  1  0
  2  4  1  0
  4  5  1  0
  4  6  2  0
  6  7  1  0
  7  8  2  0
  8  9  1  0
  9 10  2  0
  9 11  1  0
 11 12  2  0
 12 13  1  0
 13 14  2  0
 14 15  1  0
 15 16  2  0
 16 11  1  0
M  END
>  <zinc_id>  (1) 
ZINC000100036081

>  <smiles>  (1) 
O=C(O)/C(O)=C\C=C\C(=O)c1ccccc1

$$$$
