25022868
  -OEChem-01051815273D

 46 49  0     1  0  0  0  0  0999 V2000
    2.2124   -1.9336    1.3494 O   0  0  0  0  0  0  0  0  0  0  0  0
    6.3155   -0.0187   -0.0104 O   0  0  0  0  0  0  0  0  0  0  0  0
   -2.0682    4.3623    0.6321 O   0  0  0  0  0  0  0  0  0  0  0  0
   -5.4858   -2.2367   -0.1459 O   0  0  0  0  0  0  0  0  0  0  0  0
    0.6847   -0.4228   -0.6948 C   0  0  2  0  0  0  0  0  0  0  0  0
    0.1553   -1.6977    0.0191 C   0  0  1  0  0  0  0  0  0  0  0  0
    2.1857   -0.3177   -0.4906 C   0  0  0  0  0  0  0  0  0  0  0  0
    0.7870   -1.8200    1.4114 C   0  0  0  0  0  0  0  0  0  0  0  0
   -0.0566    0.8634   -0.3376 C   0  0  0  0  0  0  0  0  0  0  0  0
   -1.3555   -1.8434   -0.0251 C   0  0  0  0  0  0  0  0  0  0  0  0
    2.8407   -1.0579    0.5038 C   0  0  0  0  0  0  0  0  0  0  0  0
    2.9443    0.5289   -1.3163 C   0  0  0  0  0  0  0  0  0  0  0  0
   -1.2047    1.2262   -1.0420 C   0  0  0  0  0  0  0  0  0  0  0  0
    0.4155    1.6766    0.6928 C   0  0  0  0  0  0  0  0  0  0  0  0
   -1.9684   -2.4293   -1.1328 C   0  0  0  0  0  0  0  0  0  0  0  0
   -2.1309   -1.3894    1.0420 C   0  0  0  0  0  0  0  0  0  0  0  0
    4.2274   -0.9603    0.6560 C   0  0  0  0  0  0  0  0  0  0  0  0
    4.3257    0.6319   -1.1531 C   0  0  0  0  0  0  0  0  0  0  0  0
    4.9670   -0.1135   -0.1678 C   0  0  0  0  0  0  0  0  0  0  0  0
   -1.8805    2.4019   -0.7163 C   0  0  0  0  0  0  0  0  0  0  0  0
   -0.2604    2.8525    1.0187 C   0  0  0  0  0  0  0  0  0  0  0  0
   -3.3562   -2.5614   -1.1734 C   0  0  0  0  0  0  0  0  0  0  0  0
   -3.5189   -1.5214    1.0014 C   0  0  0  0  0  0  0  0  0  0  0  0
   -1.4084    3.2152    0.3140 C   0  0  0  0  0  0  0  0  0  0  0  0
   -4.1315   -2.1074   -0.1065 C   0  0  0  0  0  0  0  0  0  0  0  0
   -3.2350    4.6724   -0.1281 C   0  0  0  0  0  0  0  0  0  0  0  0
    0.5373   -0.5820   -1.7746 H   0  0  0  0  0  0  0  0  0  0  0  0
    0.5614   -2.5546   -0.5438 H   0  0  0  0  0  0  0  0  0  0  0  0
    0.5428   -0.9746    2.0648 H   0  0  0  0  0  0  0  0  0  0  0  0
    0.4225   -2.7243    1.9128 H   0  0  0  0  0  0  0  0  0  0  0  0
    2.4605    1.1115   -2.0967 H   0  0  0  0  0  0  0  0  0  0  0  0
   -1.5785    0.6095   -1.8549 H   0  0  0  0  0  0  0  0  0  0  0  0
    1.2944    1.4191    1.2757 H   0  0  0  0  0  0  0  0  0  0  0  0
   -1.3758   -2.7840   -1.9719 H   0  0  0  0  0  0  0  0  0  0  0  0
   -1.6874   -0.9179    1.9132 H   0  0  0  0  0  0  0  0  0  0  0  0
    4.7267   -1.5475    1.4236 H   0  0  0  0  0  0  0  0  0  0  0  0
    4.8955    1.2922   -1.8010 H   0  0  0  0  0  0  0  0  0  0  0  0
   -2.7639    2.6244   -1.3050 H   0  0  0  0  0  0  0  0  0  0  0  0
    0.1093    3.4800    1.8250 H   0  0  0  0  0  0  0  0  0  0  0  0
   -3.8278   -3.0178   -2.0393 H   0  0  0  0  0  0  0  0  0  0  0  0
   -4.1121   -1.1610    1.8375 H   0  0  0  0  0  0  0  0  0  0  0  0
    6.5905   -0.6034    0.7165 H   0  0  0  0  0  0  0  0  0  0  0  0
   -5.8612   -1.8702    0.6731 H   0  0  0  0  0  0  0  0  0  0  0  0
   -2.9953    4.8364   -1.1842 H   0  0  0  0  0  0  0  0  0  0  0  0
   -4.0164    3.9171    0.0079 H   0  0  0  0  0  0  0  0  0  0  0  0
   -3.6320    5.6163    0.2597 H   0  0  0  0  0  0  0  0  0  0  0  0
  1  8  1  0  0  0  0
  1 11  1  0  0  0  0
  2 19  1  0  0  0  0
  2 42  1  0  0  0  0
  3 24  1  0  0  0  0
  3 26  1  0  0  0  0
  4 25  1  0  0  0  0
  4 43  1  0  0  0  0
  5  6  1  0  0  0  0
  5  7  1  0  0  0  0
  5  9  1  0  0  0  0
  5 27  1  0  0  0  0
  6  8  1  0  0  0  0
  6 10  1  0  0  0  0
  6 28  1  0  0  0  0
  7 11  2  0  0  0  0
  7 12  1  0  0  0  0
  8 29  1  0  0  0  0
  8 30  1  0  0  0  0
  9 13  2  0  0  0  0
  9 14  1  0  0  0  0
 10 15  2  0  0  0  0
 10 16  1  0  0  0  0
 11 17  1  0  0  0  0
 12 18  2  0  0  0  0
 12 31  1  0  0  0  0
 13 20  1  0  0  0  0
 13 32  1  0  0  0  0
 14 21  2  0  0  0  0
 14 33  1  0  0  0  0
 15 22  1  0  0  0  0
 15 34  1  0  0  0  0
 16 23  2  0  0  0  0
 16 35  1  0  0  0  0
 17 19  2  0  0  0  0
 17 36  1  0  0  0  0
 18 19  1  0  0  0  0
 18 37  1  0  0  0  0
 20 24  2  0  0  0  0
 20 38  1  0  0  0  0
 21 24  1  0  0  0  0
 21 39  1  0  0  0  0
 22 25  2  0  0  0  0
 22 40  1  0  0  0  0
 23 25  1  0  0  0  0
 23 41  1  0  0  0  0
 26 44  1  0  0  0  0
 26 45  1  0  0  0  0
 26 46  1  0  0  0  0
M  END
> <DATABASE_ID>
DB06588

> <DATABASE_NAME>
drugbank

> <ORIGINAL_SOURCE>
PUBCHEM

> <ORIGINAL_SOURCE_URL>
https://pubchem.ncbi.nlm.nih.gov/rest/pug/compound/inchikey/KQCJZAUNKSGEFM-UNMCSNQZSA-N/SDF?record_type=3d

> <SMILES>
COC1=CC=C(C=C1)[C@@H]1[C@@H](COC2=CC(O)=CC=C12)C1=CC=C(O)C=C1

> <INCHI_IDENTIFIER>
InChI=1S/C22H20O4/c1-25-18-9-4-15(5-10-18)22-19-11-8-17(24)12-21(19)26-13-20(22)14-2-6-16(23)7-3-14/h2-12,20,22-24H,13H2,1H3/t20-,22-/m0/s1

> <INCHI_KEY>
KQCJZAUNKSGEFM-UNMCSNQZSA-N

> <FORMULA>
C22H20O4

> <MOLECULAR_WEIGHT>
348.398

> <EXACT_MASS>
348.136159124

> <JCHEM_ACCEPTOR_COUNT>
4

> <JCHEM_ATOM_COUNT>
46

> <JCHEM_AVERAGE_POLARIZABILITY>
36.72103540622845

> <JCHEM_BIOAVAILABILITY>
1

> <JCHEM_DONOR_COUNT>
2

> <JCHEM_FORMAL_CHARGE>
0

> <JCHEM_GHOSE_FILTER>
1

> <JCHEM_IUPAC>
(3R,4S)-3-(4-hydroxyphenyl)-4-(4-methoxyphenyl)-3,4-dihydro-2H-1-benzopyran-7-ol

> <ALOGPS_LOGP>
4.22

> <JCHEM_LOGP>
4.454829680666667

> <ALOGPS_LOGS>
-4.69

> <JCHEM_MDDR_LIKE_RULE>
0

> <JCHEM_NUMBER_OF_RINGS>
4

> <JCHEM_PHYSIOLOGICAL_CHARGE>
0

> <JCHEM_PKA>
10.222207124659077

> <JCHEM_PKA_STRONGEST_ACIDIC>
9.502423677050439

> <JCHEM_PKA_STRONGEST_BASIC>
-4.540132979037869

> <JCHEM_POLAR_SURFACE_AREA>
58.92

> <JCHEM_REFRACTIVITY>
100.06700000000002

> <JCHEM_ROTATABLE_BOND_COUNT>
3

> <JCHEM_RULE_OF_FIVE>
1

> <ALOGPS_SOLUBILITY>
7.10e-03 g/l

> <JCHEM_TRADITIONAL_IUPAC>
(3R,4S)-3-(4-hydroxyphenyl)-4-(4-methoxyphenyl)-3,4-dihydro-2H-1-benzopyran-7-ol

> <JCHEM_VEBER_RULE>
0

$$$$
