
     RDKit          3D

 28 27  0  0  0  0  0  0  0  0999 V2000
    9.6904   -0.4922    0.2997 C   0  0  0  0  0  0  0  0  0  0  0  0
    8.4000   -0.9419   -0.3367 C   0  0  0  0  0  0  0  0  0  0  0  0
    7.3823   -1.0956    0.7604 C   0  0  0  0  0  0  0  0  0  0  0  0
    5.9979   -1.4157    0.2290 C   0  0  0  0  0  0  0  0  0  0  0  0
    5.6981   -0.6685   -1.0519 C   0  0  0  0  0  0  0  0  0  0  0  0
    4.9215    0.6014   -0.7252 C   0  0  0  0  0  0  0  0  0  0  0  0
    3.8354    0.8712   -1.7421 C   0  0  0  0  0  0  0  0  0  0  0  0
    2.6964    1.6670   -1.1652 C   0  0  0  0  0  0  0  0  0  0  0  0
    1.9664    0.8305    0.2547 S   0  0  0  0  0  0  0  0  0  0  0  0
    0.4951   -0.1171   -0.1982 C   0  0  0  0  0  0  0  0  0  0  0  0
   -0.6051    0.3933    0.9620 C   0  0  2  0  0  0  0  0  0  0  0  0
   -1.5991   -0.8012    0.5655 N   0  0  0  0  0  0  0  0  0  0  0  0
   -2.9179   -0.4178    0.2817 C   0  0  0  0  0  0  0  0  0  0  0  0
   -2.8746    0.2307   -0.8104 O   0  0  0  0  0  0  0  0  0  0  0  0
   -4.1459   -1.0046    0.8448 C   0  0  0  0  0  0  0  0  0  0  0  0
   -3.9971   -2.4946    1.0511 C   0  0  0  0  0  0  0  0  0  0  0  0
   -3.7037   -2.9357   -0.5404 C   0  0  2  0  0  0  0  0  0  0  0  0
   -5.2107   -2.5806   -0.9690 N   0  0  0  0  0  0  0  0  0  0  0  0
   -4.0820   -4.5078   -0.2593 C   0  0  0  0  0  0  0  0  0  0  0  0
   -5.0946   -4.7124    0.4035 O   0  0  0  0  0  0  0  0  0  0  0  0
   -3.0245   -5.3688   -0.4610 O   0  0  0  0  0  0  0  0  0  0  0  0
   -1.2841    1.5312   -0.0255 C   0  0  0  0  0  0  0  0  0  0  0  0
   -0.4071    2.1795   -0.6782 O   0  0  0  0  0  0  0  0  0  0  0  0
   -1.9788    2.4358    0.8575 N   0  0  0  0  0  0  0  0  0  0  0  0
   -1.8289    3.8513    0.9000 C   0  0  0  0  0  0  0  0  0  0  0  0
   -2.5437    4.5912   -0.1470 C   0  0  0  0  0  0  0  0  0  0  0  0
   -3.8082    4.5713   -0.1124 O   0  0  0  0  0  0  0  0  0  0  0  0
   -1.9777    5.8000   -0.5643 O   0  0  0  0  0  0  0  0  0  0  0  0
  1  2  1  0
  2  3  1  0
  3  4  1  0
  4  5  1  0
  5  6  1  0
  6  7  1  0
  7  8  1  0
  8  9  1  0
  9 10  1  0
 11 10  1  6
 11 12  1  0
 12 13  1  0
 13 14  2  0
 13 15  1  0
 15 16  1  0
 17 16  1  1
 17 18  1  0
 17 19  1  0
 19 20  2  0
 19 21  1  0
 11 22  1  0
 22 23  2  0
 22 24  1  0
 24 25  1  0
 25 26  1  0
 26 27  2  0
 26 28  1  0
M  END
>  <zinc_id>  (1) 
ZINC000008234408

>  <smiles>  (1) 
CCCCCCCCSC[C@H](NC(=O)CC[C@H](N)C(=O)O)C(=O)NCC(=O)O

$$$$
