REMARK  Name = 16231
REMARK  3 active torsions:
REMARK  status: ('A' for Active; 'I' for Inactive)
REMARK    1  A    between atoms: N_5  and  C_11
REMARK    2  A    between atoms: N_6  and  C_14
REMARK    3  A    between atoms: C_10  and  C_14
REMARK                            x       y       z     vdW  Elec       q    Type
REMARK                         _______ _______ _______ _____ _____    ______ ____
ROOT
ATOM      1 CL   UNL     1      -2.355   2.660  -0.523  0.00  0.00    +0.000 Cl
ATOM      2  N   UNL     1      -2.090  -1.179   0.517  0.00  0.00    +0.000 NA
ATOM      3  N   UNL     1      -0.515   0.852  -0.606  0.00  0.00    +0.000 NA
ATOM      4  N   UNL     1      -3.905   0.338   0.677  0.00  0.00    +0.000 N 
ATOM      5  C   UNL     1      -0.070  -0.386  -0.391  0.00  0.00    +0.000 A 
ATOM      6  C   UNL     1      -0.810  -1.389   0.150  0.00  0.00    +0.000 A 
ATOM      7  C   UNL     1      -2.569   0.064   0.312  0.00  0.00    +0.000 A 
ATOM      8  C   UNL     1      -1.795   1.062  -0.240  0.00  0.00    +0.000 A 
ATOM      9  H   UNL     1      -4.439  -0.419   1.087  0.00  0.00    +0.000 HD
ATOM     10  H   UNL     1      -4.153   1.288   0.921  0.00  0.00    +0.000 HD
ENDROOT
BRANCH   6  11
ATOM     11  N   UNL     1      -0.250  -2.672   0.340  0.00  0.00    +0.000 N 
ATOM     12  H   UNL     1      -0.855  -3.377   0.744  0.00  0.00    +0.000 HD
ATOM     13  H   UNL     1       0.743  -2.748   0.519  0.00  0.00    +0.000 HD
ENDBRANCH   6  11
BRANCH   5  15
ATOM     14  O   UNL     1       1.693  -1.699  -1.216  0.00  0.00    +0.000 OA
ATOM     15  C   UNL     1       1.347  -0.596  -0.804  0.00  0.00    +0.000 C 
BRANCH  15  16
ATOM     16  N   UNL     1       2.160   0.512  -0.721  0.00  0.00    +0.000 NA
ATOM     17  N   UNL     1       3.660   1.795   0.658  0.00  0.00    +0.000 N 
ATOM     18  N   UNL     1       2.693  -0.109   1.459  0.00  0.00    +0.000 N 
ATOM     19  C   UNL     1       2.808   0.747   0.390  0.00  0.00    +0.000 C 
ATOM     20  H   UNL     1       3.849   2.507  -0.039  0.00  0.00    +0.000 HD
ATOM     21  H   UNL     1       4.119   1.888   1.557  0.00  0.00    +0.000 HD
ATOM     22  H   UNL     1       2.120  -0.945   1.438  0.00  0.00    +0.000 HD
ATOM     23  H   UNL     1       3.194   0.070   2.322  0.00  0.00    +0.000 HD
ENDBRANCH  15  16
ENDBRANCH   5  15
TORSDOF 3
