REMARK  Name = 71663
REMARK  4 active torsions:
REMARK  status: ('A' for Active; 'I' for Inactive)
REMARK    1  A    between atoms: N_7  and  C_19
REMARK    2  A    between atoms: N_8  and  C_20
REMARK    3  A    between atoms: N_9  and  C_21
REMARK    4  A    between atoms: N_10  and  C_22
REMARK                            x       y       z     vdW  Elec       q    Type
REMARK                         _______ _______ _______ _____ _____    ______ ____
ROOT
ATOM      1  N   UNL     1       1.430  -0.298   0.153  0.00  0.00    +0.000 N 
ATOM      2  N   UNL     1      -1.431  -0.305  -0.184  0.00  0.00    +0.000 N 
ATOM      3  N   UNL     1       3.178   0.600   1.278  0.00  0.00    +0.000 N 
ATOM      4  N   UNL     1      -3.189   0.561  -1.317  0.00  0.00    +0.000 N 
ATOM      5  N   UNL     1       3.647  -1.029  -0.323  0.00  0.00    +0.000 NA
ATOM      6  N   UNL     1      -3.644  -1.021   0.334  0.00  0.00    +0.000 NA
ATOM      7  C   UNL     1       0.718  -1.504  -0.264  0.00  0.00    +0.000 C 
ATOM      8  C   UNL     1       0.635   0.907   0.385  0.00  0.00    +0.000 C 
ATOM      9  C   UNL     1      -0.715  -1.500   0.261  0.00  0.00    +0.000 C 
ATOM     10  C   UNL     1      -0.637   0.892  -0.458  0.00  0.00    +0.000 C 
ATOM     11  C   UNL     1       2.774  -0.295   0.317  0.00  0.00    +0.000 C 
ATOM     12  C   UNL     1      -2.776  -0.306  -0.335  0.00  0.00    +0.000 C 
ATOM     13  H   UNL     1       4.154   0.741   1.510  0.00  0.00    +0.000 HD
ATOM     14  H   UNL     1       2.519   1.083   1.879  0.00  0.00    +0.000 HD
ATOM     15  H   UNL     1      -4.168   0.696  -1.544  0.00  0.00    +0.000 HD
ATOM     16  H   UNL     1      -2.537   1.025  -1.939  0.00  0.00    +0.000 HD
ENDROOT
BRANCH   5  19
ATOM     17  N   UNL     1       5.603   0.039  -0.700  0.00  0.00    +0.000 NA
ATOM     18  N   UNL     1       5.513  -1.666   0.991  0.00  0.00    +0.000 N 
ATOM     19  C   UNL     1       4.979  -0.867   0.002  0.00  0.00    +0.000 C 
ATOM     20  H   UNL     1       4.938  -2.349   1.473  0.00  0.00    +0.000 HD
ATOM     21  H   UNL     1       6.485  -1.603   1.273  0.00  0.00    +0.000 HD
BRANCH  17  23
ATOM     22 CL   UNL     1      11.325   1.045   0.378  0.00  0.00    +0.000 Cl
ATOM     23  C   UNL     1       6.963   0.278  -0.443  0.00  0.00    +0.000 A 
ATOM     24  C   UNL     1       7.933  -0.443  -1.133  0.00  0.00    +0.000 A 
ATOM     25  C   UNL     1       7.331   1.235   0.498  0.00  0.00    +0.000 A 
ATOM     26  C   UNL     1       9.284  -0.206  -0.878  0.00  0.00    +0.000 A 
ATOM     27  C   UNL     1       8.682   1.472   0.752  0.00  0.00    +0.000 A 
ATOM     28  C   UNL     1       9.658   0.752   0.065  0.00  0.00    +0.000 A 
ENDBRANCH  17  23
ENDBRANCH   5  19
BRANCH   6  31
ATOM     29  N   UNL     1      -5.595   0.058   0.698  0.00  0.00    +0.000 NA
ATOM     30  N   UNL     1      -5.523  -1.694  -0.944  0.00  0.00    +0.000 N 
ATOM     31  C   UNL     1      -4.979  -0.867   0.017  0.00  0.00    +0.000 C 
ATOM     32  H   UNL     1      -4.952  -2.391  -1.411  0.00  0.00    +0.000 HD
ATOM     33  H   UNL     1      -6.497  -1.639  -1.218  0.00  0.00    +0.000 HD
BRANCH  29  35
ATOM     34 CL   UNL     1     -11.327   1.036  -0.354  0.00  0.00    +0.000 Cl
ATOM     35  C   UNL     1      -6.958   0.291   0.448  0.00  0.00    +0.000 A 
ATOM     36  C   UNL     1      -7.922  -0.410   1.167  0.00  0.00    +0.000 A 
ATOM     37  C   UNL     1      -7.335   1.220  -0.517  0.00  0.00    +0.000 A 
ATOM     38  C   UNL     1      -9.275  -0.179   0.918  0.00  0.00    +0.000 A 
ATOM     39  C   UNL     1      -8.688   1.451  -0.765  0.00  0.00    +0.000 A 
ATOM     40  C   UNL     1      -9.658   0.751  -0.048  0.00  0.00    +0.000 A 
ENDBRANCH  29  35
ENDBRANCH   6  31
TORSDOF 4
