REMARK  Name = 11957417
REMARK  10 active torsions:
REMARK  status: ('A' for Active; 'I' for Inactive)
REMARK    1  A    between atoms: O_3  and  C_12
REMARK    2  A    between atoms: O_3  and  C_14
REMARK    3  A    between atoms: O_4  and  C_21
REMARK    4  A    between atoms: O_4  and  C_30
REMARK    5  A    between atoms: O_5  and  C_22
REMARK    6  A    between atoms: O_5  and  C_31
REMARK    7  A    between atoms: N_7  and  C_11
REMARK    8  A    between atoms: C_12  and  C_19
REMARK    9  A    between atoms: C_12  and  C_23
REMARK   10  A    between atoms: C_18  and  C_26
REMARK                            x       y       z     vdW  Elec       q    Type
REMARK                         _______ _______ _______ _____ _____    ______ ____
ROOT
ATOM      1  S   UNL     1      -1.429  -3.213  -0.286  0.00  0.00    +0.000 S 
ATOM      2  C   UNL     1      -0.416  -1.918   0.160  0.00  0.00    +0.000 A 
ATOM      3  C   UNL     1      -2.464  -0.875  -0.041  0.00  0.00    +0.000 A 
ATOM      4  C   UNL     1      -1.079  -0.727   0.259  0.00  0.00    +0.000 A 
ATOM      5  C   UNL     1      -2.790  -2.176  -0.354  0.00  0.00    +0.000 A 
ENDROOT
BRANCH   2   6
ATOM      6  N   UNL     1       0.922  -2.182   0.370  0.00  0.00    +0.000 N 
ATOM      7  N   UNL     1       2.743  -3.328   0.925  0.00  0.00    +0.000 NA
ATOM      8  C   UNL     1       1.971  -1.322   0.169  0.00  0.00    +0.000 A 
ATOM      9  C   UNL     1       3.097  -2.061   0.522  0.00  0.00    +0.000 A 
ATOM     10  C   UNL     1       2.030  -0.001  -0.277  0.00  0.00    +0.000 A 
ATOM     11  C   UNL     1       1.434  -3.366   0.821  0.00  0.00    +0.000 A 
ATOM     12  C   UNL     1       4.365  -1.463   0.431  0.00  0.00    +0.000 A 
ATOM     13  C   UNL     1       3.301   0.578  -0.362  0.00  0.00    +0.000 A 
ATOM     14  C   UNL     1       4.449  -0.138  -0.015  0.00  0.00    +0.000 A 
BRANCH  13  15
ATOM     15  O   UNL     1       3.405   1.869  -0.794  0.00  0.00    +0.000 OA
ATOM     16  C   UNL     1       3.348   2.889   0.200  0.00  0.00    +0.000 C 
ENDBRANCH  13  15
BRANCH  14  17
ATOM     17  O   UNL     1       5.677   0.450  -0.106  0.00  0.00    +0.000 OA
ATOM     18  C   UNL     1       6.365   0.318  -1.347  0.00  0.00    +0.000 C 
ENDBRANCH  14  17
ENDBRANCH   2   6
BRANCH   5  21
ATOM     19  O   UNL     1      -4.254  -3.934  -0.998  0.00  0.00    +0.000 OA
ATOM     20  N   UNL     1      -5.163  -1.868  -0.760  0.00  0.00    +0.000 N 
ATOM     21  C   UNL     1      -4.058  -2.729  -0.708  0.00  0.00    +0.000 C 
ATOM     22  H   UNL     1      -5.100  -0.877  -0.550  0.00  0.00    +0.000 HD
ATOM     23  H   UNL     1      -6.080  -2.221  -1.015  0.00  0.00    +0.000 HD
ENDBRANCH   5  21
BRANCH   3  24
ATOM     24  O   UNL     1      -3.368   0.121  -0.025  0.00  0.00    +0.000 OA
BRANCH  24  25
ATOM     25  C   UNL     1      -3.147   1.206   0.886  0.00  0.00    +0.000 C 
ATOM     26  C   UNL     1      -4.489   1.761   1.350  0.00  0.00    +0.000 C 
BRANCH  25  28
ATOM     27 CL   UNL     1      -1.182   2.817   2.633  0.00  0.00    +0.000 Cl
ATOM     28  C   UNL     1      -2.300   2.259   0.211  0.00  0.00    +0.000 A 
ATOM     29  C   UNL     1      -1.395   3.023   0.933  0.00  0.00    +0.000 A 
ATOM     30  C   UNL     1      -2.460   2.439  -1.156  0.00  0.00    +0.000 A 
ATOM     31  C   UNL     1      -0.632   3.987   0.274  0.00  0.00    +0.000 A 
ATOM     32  C   UNL     1      -1.697   3.403  -1.815  0.00  0.00    +0.000 A 
ATOM     33  C   UNL     1      -0.783   4.177  -1.099  0.00  0.00    +0.000 A 
ENDBRANCH  25  28
ENDBRANCH  24  25
ENDBRANCH   3  24
TORSDOF 7
