REMARK  Name = 5277135
REMARK  12 active torsions:
REMARK  status: ('A' for Active; 'I' for Inactive)
REMARK    1  A    between atoms: O_3  and  C_12
REMARK    2  A    between atoms: O_4  and  C_22
REMARK    3  A    between atoms: O_4  and  C_28
REMARK    4  A    between atoms: O_6  and  C_25
REMARK    5  A    between atoms: N_8  and  C_9
REMARK    6  A    between atoms: C_9  and  C_10
REMARK    7  A    between atoms: C_9  and  C_12
REMARK    8  A    between atoms: C_10  and  C_14
REMARK    9  A    between atoms: C_10  and  C_15
REMARK   10  A    between atoms: C_18  and  C_25
REMARK   11  A    between atoms: C_19  and  C_23
REMARK   12  A    between atoms: C_23  and  C_24
REMARK                            x       y       z     vdW  Elec       q    Type
REMARK                         _______ _______ _______ _____ _____    ______ ____
ROOT
ATOM      1  O   UNL     1      -0.716  -3.127   0.731  0.00  0.00    +0.000 OA
ATOM      2  N   UNL     1      -2.601   0.403  -0.057  0.00  0.00    +0.000 N 
ATOM      3  C   UNL     1      -1.251   0.444   0.361  0.00  0.00    +0.000 A 
ATOM      4  C   UNL     1      -0.570  -0.763   0.641  0.00  0.00    +0.000 A 
ATOM      5  C   UNL     1      -3.235  -0.820  -0.185  0.00  0.00    +0.000 A 
ATOM      6  C   UNL     1      -0.528   1.640   0.519  0.00  0.00    +0.000 A 
ATOM      7  C   UNL     1      -2.691  -2.019   0.052  0.00  0.00    +0.000 A 
ATOM      8  C   UNL     1       1.454   0.433   1.204  0.00  0.00    +0.000 A 
ATOM      9  C   UNL     1      -1.276  -2.063   0.495  0.00  0.00    +0.000 A 
ATOM     10  C   UNL     1       0.768  -0.768   1.059  0.00  0.00    +0.000 A 
ATOM     11  C   UNL     1       0.807   1.635   0.935  0.00  0.00    +0.000 A 
ENDROOT
BRANCH  11  12
ATOM     12  O   UNL     1       1.463   2.822   1.072  0.00  0.00    +0.000 OA
ATOM     13  C   UNL     1       0.727   4.006   0.776  0.00  0.00    +0.000 C 
ENDBRANCH  11  12
BRANCH   7  15
ATOM     14  O   UNL     1      -4.726  -3.247   0.015  0.00  0.00    +0.000 OA
ATOM     15  C   UNL     1      -3.517  -3.211  -0.137  0.00  0.00    +0.000 C 
BRANCH  15  16
ATOM     16  O   UNL     1      -2.738  -4.251  -0.502  0.00  0.00    +0.000 OA
ATOM     17  H   UNL     1      -3.258  -5.072  -0.638  0.00  0.00    +0.000 HD
ENDBRANCH  15  16
ENDBRANCH   7  15
BRANCH   2  18
ATOM     18  C   UNL     1      -3.289   1.659  -0.343  0.00  0.00    +0.000 C 
BRANCH  18  19
ATOM     19  C   UNL     1      -3.743   1.710  -1.820  0.00  0.00    +0.000 C 
ATOM     20  C   UNL     1      -4.414   3.048  -2.153  0.00  0.00    +0.000 C 
ATOM     21  C   UNL     1      -2.619   1.429  -2.823  0.00  0.00    +0.000 C 
ENDBRANCH  18  19
BRANCH  18  22
ATOM     22  C   UNL     1      -4.453   1.826   0.638  0.00  0.00    +0.000 C 
BRANCH  22  23
ATOM     23  O   UNL     1      -3.957   1.761   1.971  0.00  0.00    +0.000 OA
ATOM     24  H   UNL     1      -3.577   0.875   2.100  0.00  0.00    +0.000 HD
ENDBRANCH  22  23
ENDBRANCH  18  22
ENDBRANCH   2  18
BRANCH   8  25
ATOM     25  C   UNL     1       2.879   0.415   1.648  0.00  0.00    +0.000 C 
BRANCH  25  28
ATOM     26 CL   UNL     1       5.736  -2.509  -1.575  0.00  0.00    +0.000 Cl
ATOM     27  F   UNL     1       3.812  -2.030   0.619  0.00  0.00    +0.000 F 
ATOM     28  C   UNL     1       3.875   0.333   0.510  0.00  0.00    +0.000 A 
ATOM     29  C   UNL     1       4.287  -0.908   0.059  0.00  0.00    +0.000 A 
ATOM     30  C   UNL     1       4.350   1.505  -0.051  0.00  0.00    +0.000 A 
ATOM     31  C   UNL     1       5.204  -0.979  -0.990  0.00  0.00    +0.000 A 
ATOM     32  C   UNL     1       5.267   1.434  -1.099  0.00  0.00    +0.000 A 
ATOM     33  C   UNL     1       5.694   0.192  -1.569  0.00  0.00    +0.000 A 
ENDBRANCH  25  28
ENDBRANCH   8  25
TORSDOF 9
