REMARK  Name = 59098743
REMARK  4 active torsions:
REMARK  status: ('A' for Active; 'I' for Inactive)
REMARK    1  A    between atoms: N_3  and  C_6
REMARK    2  A    between atoms: N_3  and  C_8
REMARK    3  A    between atoms: N_4  and  C_7
REMARK    4  A    between atoms: C_6  and  C_9
REMARK                            x       y       z     vdW  Elec       q    Type
REMARK                         _______ _______ _______ _____ _____    ______ ____
ROOT
ATOM      1  N   UNL     1      -0.510  -0.511  -0.315  0.00  0.00    +0.000 N 
ATOM      2  N   UNL     1      -1.261   1.744  -0.027  0.00  0.00    +0.000 NA
ATOM      3  C   UNL     1      -1.439   0.461   0.041  0.00  0.00    +0.000 C 
ATOM      4  C   UNL     1      -0.830  -1.930  -0.193  0.00  0.00    +0.000 C 
ATOM      5  H   UNL     1      -0.323   1.964  -0.368  0.00  0.00    +0.000 HD
ENDROOT
BRANCH   3   6
ATOM      6  N   UNL     1      -2.743   0.014   0.537  0.00  0.00    +0.000 NA
ATOM      7  H   UNL     1      -3.352   0.827   0.691  0.00  0.00    +0.000 HD
ATOM      8  H   UNL     1      -2.634  -0.485   1.429  0.00  0.00    +0.000 HD
ATOM      9  H   UNL     1      -3.193  -0.607  -0.145  0.00  0.00    +0.000 HD
ENDBRANCH   3   6
BRANCH   1  10
ATOM     10  C   UNL     1       0.733  -0.191  -1.009  0.00  0.00    +0.000 C 
BRANCH  10  13
ATOM     11  O   UNL     1       1.988  -0.889   0.856  0.00  0.00    +0.000 OA
ATOM     12  O   UNL     1       2.292   1.226   0.040  0.00  0.00    +0.000 OA
ATOM     13  C   UNL     1       1.769   0.076   0.070  0.00  0.00    +0.000 C 
ENDBRANCH  10  13
ENDBRANCH   1  10
TORSDOF 3
