REMARK  Name = 4091
REMARK  3 active torsions:
REMARK  status: ('A' for Active; 'I' for Inactive)
REMARK    1  A    between atoms: N_1  and  C_6
REMARK    2  A    between atoms: N_1  and  C_7
REMARK    3  A    between atoms: N_2  and  C_8
REMARK                            x       y       z     vdW  Elec       q    Type
REMARK                         _______ _______ _______ _____ _____    ______ ____
ROOT
ATOM      1  N   UNL     1       0.717   0.215  -0.819  0.00  0.00    +0.000 NA
ATOM      2  N   UNL     1       2.901  -0.448  -0.336  0.00  0.00    +0.000 N 
ATOM      3  N   UNL     1       1.520  -0.030   1.435  0.00  0.00    +0.000 N 
ATOM      4  C   UNL     1       1.642  -0.066   0.063  0.00  0.00    +0.000 C 
ATOM      5  H   UNL     1       3.626  -0.669   0.337  0.00  0.00    +0.000 HD
ATOM      6  H   UNL     1       3.139  -0.519  -1.319  0.00  0.00    +0.000 HD
ATOM      7  H   UNL     1       0.652   0.231   1.889  0.00  0.00    +0.000 HD
ATOM      8  H   UNL     1       2.301  -0.268   2.037  0.00  0.00    +0.000 HD
ENDROOT
BRANCH   1  13
ATOM      9  N   UNL     1      -1.516  -0.360  -0.079  0.00  0.00    +0.000 N 
ATOM     10  N   UNL     1      -0.660   1.874  -0.162  0.00  0.00    +0.000 NA
ATOM     11  C   UNL     1      -1.298  -1.784  -0.308  0.00  0.00    +0.000 C 
ATOM     12  C   UNL     1      -2.780   0.005   0.551  0.00  0.00    +0.000 C 
ATOM     13  C   UNL     1      -0.526   0.593  -0.345  0.00  0.00    +0.000 C 
ATOM     14  H   UNL     1      -1.595   2.090   0.192  0.00  0.00    +0.000 HD
ENDBRANCH   1  13
TORSDOF 1
