REMARK  Name = 447950
REMARK  2 active torsions:
REMARK  status: ('A' for Active; 'I' for Inactive)
REMARK    1  A    between atoms: N_8  and  C_19
REMARK    2  A    between atoms: C_19  and  C_22
REMARK                            x       y       z     vdW  Elec       q    Type
REMARK                         _______ _______ _______ _____ _____    ______ ____
ROOT
ATOM      1  F   UNL     1       5.393  -1.189  -1.462  0.00  0.00    +0.000 F 
ATOM      2  O   UNL     1      -0.262   1.463   2.027  0.00  0.00    +0.000 OA
ATOM      3  O   UNL     1       2.804   2.020   1.803  0.00  0.00    +0.000 OA
ATOM      4  O   UNL     1       0.924   3.574  -2.092  0.00  0.00    +0.000 OA
ATOM      5  O   UNL     1      -0.243  -2.965   0.643  0.00  0.00    +0.000 OA
ATOM      6  N   UNL     1      -0.383  -0.714   1.228  0.00  0.00    +0.000 N 
ATOM      7  N   UNL     1       2.014   3.070  -0.107  0.00  0.00    +0.000 N 
ATOM      8  C   UNL     1       1.278   0.870   0.277  0.00  0.00    +0.000 C 
ATOM      9  C   UNL     1       0.634   1.428  -1.016  0.00  0.00    +0.000 C 
ATOM     10  C   UNL     1       2.122  -0.349  -0.045  0.00  0.00    +0.000 A 
ATOM     11  C   UNL     1       0.157   0.578   1.276  0.00  0.00    +0.000 C 
ATOM     12  C   UNL     1       2.135   2.030   0.779  0.00  0.00    +0.000 C 
ATOM     13  C   UNL     1       1.605  -1.637   0.124  0.00  0.00    +0.000 A 
ATOM     14  C   UNL     1       1.188   2.818  -1.169  0.00  0.00    +0.000 C 
ATOM     15  C   UNL     1       0.247  -1.837   0.669  0.00  0.00    +0.000 C 
ATOM     16  C   UNL     1       3.410  -0.221  -0.600  0.00  0.00    +0.000 A 
ATOM     17  C   UNL     1       2.366  -2.765  -0.224  0.00  0.00    +0.000 A 
ATOM     18  C   UNL     1       4.168  -1.342  -0.942  0.00  0.00    +0.000 A 
ATOM     19  C   UNL     1       3.646  -2.615  -0.752  0.00  0.00    +0.000 A 
ATOM     20  H   UNL     1       2.499   3.953   0.014  0.00  0.00    +0.000 HD
ENDROOT
BRANCH   6  21
ATOM     21  C   UNL     1      -1.707  -0.908   1.808  0.00  0.00    +0.000 C 
BRANCH  21  24
ATOM     22 BR   UNL     1      -6.082  -0.009  -2.450  0.00  0.00    +0.000 Br
ATOM     23  F   UNL     1      -2.878   1.618   1.329  0.00  0.00    +0.000 F 
ATOM     24  C   UNL     1      -2.774  -0.687   0.772  0.00  0.00    +0.000 A 
ATOM     25  C   UNL     1      -3.304   0.584   0.591  0.00  0.00    +0.000 A 
ATOM     26  C   UNL     1      -3.215  -1.759   0.007  0.00  0.00    +0.000 A 
ATOM     27  C   UNL     1      -4.293   0.786  -0.372  0.00  0.00    +0.000 A 
ATOM     28  C   UNL     1      -4.204  -1.557  -0.956  0.00  0.00    +0.000 A 
ATOM     29  C   UNL     1      -4.743  -0.284  -1.145  0.00  0.00    +0.000 A 
ENDBRANCH  21  24
ENDBRANCH   6  21
TORSDOF 2
