REMARK  Name = 15951529
REMARK  8 active torsions:
REMARK  status: ('A' for Active; 'I' for Inactive)
REMARK    1  A    between atoms: N_8  and  C_17
REMARK    2  A    between atoms: N_9  and  C_18
REMARK    3  A    between atoms: N_10  and  C_32
REMARK    4  A    between atoms: C_12  and  C_14
REMARK    5  A    between atoms: C_12  and  C_15
REMARK    6  A    between atoms: C_25  and  C_29
REMARK    7  A    between atoms: C_26  and  C_30
REMARK    8  A    between atoms: C_28  and  C_31
REMARK                            x       y       z     vdW  Elec       q    Type
REMARK                         _______ _______ _______ _____ _____    ______ ____
ROOT
ATOM      1  S   UNL     1       0.166   1.115   1.411  0.00  0.00    +0.000 S 
ATOM      2  O   UNL     1       1.328  -3.253  -0.853  0.00  0.00    +0.000 OA
ATOM      3  N   UNL     1      -1.121  -1.010   0.164  0.00  0.00    +0.000 N 
ATOM      4  N   UNL     1       1.145  -1.113   0.097  0.00  0.00    +0.000 N 
ATOM      5  C   UNL     1      -0.834  -2.413  -0.143  0.00  0.00    +0.000 C 
ATOM      6  C   UNL     1       0.679  -2.332  -0.367  0.00  0.00    +0.000 C 
ATOM      7  C   UNL     1      -1.028  -3.352   1.056  0.00  0.00    +0.000 C 
ATOM      8  C   UNL     1      -1.487  -2.945  -1.422  0.00  0.00    +0.000 C 
ATOM      9  C   UNL     1       0.076  -0.306   0.509  0.00  0.00    +0.000 C 
ENDROOT
BRANCH   3  11
ATOM     10  F   UNL     1      -5.899  -1.428   0.525  0.00  0.00    +0.000 F 
ATOM     11  C   UNL     1      -2.434  -0.439   0.071  0.00  0.00    +0.000 A 
ATOM     12  C   UNL     1      -3.552  -1.222   0.347  0.00  0.00    +0.000 A 
ATOM     13  C   UNL     1      -2.585   0.897  -0.295  0.00  0.00    +0.000 A 
ATOM     14  C   UNL     1      -4.829  -0.667   0.257  0.00  0.00    +0.000 A 
ATOM     15  C   UNL     1      -3.862   1.452  -0.385  0.00  0.00    +0.000 A 
ATOM     16  C   UNL     1      -4.984   0.670  -0.109  0.00  0.00    +0.000 A 
BRANCH  16  19
ATOM     17  O   UNL     1      -7.293   0.545  -0.494  0.00  0.00    +0.000 OA
ATOM     18  N   UNL     1      -6.427   2.621   0.068  0.00  0.00    +0.000 N 
ATOM     19  C   UNL     1      -6.313   1.253  -0.204  0.00  0.00    +0.000 C 
ATOM     20  C   UNL     1      -7.681   3.340   0.038  0.00  0.00    +0.000 C 
ATOM     21  H   UNL     1      -5.615   3.144   0.381  0.00  0.00    +0.000 HD
ENDBRANCH  16  19
ENDBRANCH   3  11
BRANCH   4  22
ATOM     22  C   UNL     1       2.534  -0.782   0.093  0.00  0.00    +0.000 A 
ATOM     23  C   UNL     1       2.935   0.546  -0.048  0.00  0.00    +0.000 A 
ATOM     24  C   UNL     1       3.491  -1.788   0.231  0.00  0.00    +0.000 A 
ATOM     25  C   UNL     1       4.292   0.869  -0.051  0.00  0.00    +0.000 A 
ATOM     26  C   UNL     1       4.848  -1.465   0.229  0.00  0.00    +0.000 A 
ATOM     27  C   UNL     1       5.248  -0.136   0.087  0.00  0.00    +0.000 A 
BRANCH  25  31
ATOM     28  F   UNL     1       3.619   3.149  -0.326  0.00  0.00    +0.000 F 
ATOM     29  F   UNL     1       5.405   2.785   0.850  0.00  0.00    +0.000 F 
ATOM     30  F   UNL     1       5.455   2.519  -1.308  0.00  0.00    +0.000 F 
ATOM     31  C   UNL     1       4.684   2.304  -0.204  0.00  0.00    +0.000 C 
ENDBRANCH  25  31
BRANCH  27  33
ATOM     32  N   UNL     1       7.779   0.417   0.086  0.00  0.00    +0.000 NA
ATOM     33  C   UNL     1       6.647   0.169   0.087  0.00  0.00    +0.000 C 
ENDBRANCH  27  33
ENDBRANCH   4  22
TORSDOF 5
