REMARK  Name = 49836093
REMARK  3 active torsions:
REMARK  status: ('A' for Active; 'I' for Inactive)
REMARK    1  A    between atoms: N_9  and  C_18
REMARK    2  A    between atoms: C_18  and  C_26
REMARK    3  A    between atoms: C_29  and  C_31
REMARK                            x       y       z     vdW  Elec       q    Type
REMARK                         _______ _______ _______ _____ _____    ______ ____
ROOT
ATOM      1  O   UNL     1       3.398  -0.542   2.102  0.00  0.00    +0.000 OA
ATOM      2  O   UNL     1      -0.088  -0.251   2.408  0.00  0.00    +0.000 OA
ATOM      3  O   UNL     1       2.175   2.933  -1.903  0.00  0.00    +0.000 OA
ATOM      4  O   UNL     1       4.046   3.507  -0.495  0.00  0.00    +0.000 OA
ATOM      5  N   UNL     1      -0.815  -1.859   0.841  0.00  0.00    +0.000 N 
ATOM      6  C   UNL     1       1.472  -1.252   0.785  0.00  0.00    +0.000 C 
ATOM      7  C   UNL     1       1.144  -2.284  -0.255  0.00  0.00    +0.000 A 
ATOM      8  C   UNL     1       2.064   0.021   0.292  0.00  0.00    +0.000 A 
ATOM      9  C   UNL     1       2.555  -1.680   1.791  0.00  0.00    +0.000 C 
ATOM     10  C   UNL     1       0.113  -1.023   1.482  0.00  0.00    +0.000 C 
ATOM     11  C   UNL     1      -0.213  -2.604  -0.182  0.00  0.00    +0.000 A 
ATOM     12  C   UNL     1       3.149   0.363   1.102  0.00  0.00    +0.000 A 
ATOM     13  C   UNL     1       1.662   0.843  -0.753  0.00  0.00    +0.000 A 
ATOM     14  C   UNL     1       1.963  -2.892  -1.193  0.00  0.00    +0.000 A 
ATOM     15  C   UNL     1      -0.791  -3.531  -1.032  0.00  0.00    +0.000 A 
ATOM     16  C   UNL     1       3.880   1.525   0.917  0.00  0.00    +0.000 A 
ATOM     17  C   UNL     1       2.400   1.996  -0.940  0.00  0.00    +0.000 A 
ATOM     18  C   UNL     1       3.474   2.327  -0.131  0.00  0.00    +0.000 A 
ATOM     19  C   UNL     1       1.396  -3.830  -2.059  0.00  0.00    +0.000 A 
ATOM     20  C   UNL     1       0.030  -4.146  -1.979  0.00  0.00    +0.000 A 
ATOM     21  C   UNL     1       3.223   3.882  -1.617  0.00  0.00    +0.000 C 
ENDROOT
BRANCH   5  22
ATOM     22  C   UNL     1      -2.216  -1.958   1.175  0.00  0.00    +0.000 C 
BRANCH  22  24
ATOM     23  O   UNL     1      -3.004   0.295   0.715  0.00  0.00    +0.000 OA
ATOM     24  C   UNL     1      -3.055  -1.016   0.361  0.00  0.00    +0.000 A 
ATOM     25  C   UNL     1      -3.901  -1.195  -0.710  0.00  0.00    +0.000 A 
ATOM     26  C   UNL     1      -3.825   0.961  -0.139  0.00  0.00    +0.000 A 
ATOM     27  C   UNL     1      -4.401   0.089  -1.034  0.00  0.00    +0.000 A 
BRANCH  26  31
ATOM     28  F   UNL     1      -4.771   3.028  -0.835  0.00  0.00    +0.000 F 
ATOM     29  F   UNL     1      -4.399   2.789   1.294  0.00  0.00    +0.000 F 
ATOM     30  F   UNL     1      -2.737   3.090  -0.068  0.00  0.00    +0.000 F 
ATOM     31  C   UNL     1      -3.928   2.413   0.058  0.00  0.00    +0.000 C 
ENDBRANCH  26  31
ENDBRANCH  22  24
ENDBRANCH   5  22
TORSDOF 3
