REMARK  Name = 66548125
REMARK  10 active torsions:
REMARK  status: ('A' for Active; 'I' for Inactive)
REMARK    1  A    between atoms: S_1  and  N_10
REMARK    2  A    between atoms: S_1  and  C_25
REMARK    3  A    between atoms: O_7  and  C_36
REMARK    4  A    between atoms: O_7  and  C_38
REMARK    5  A    between atoms: O_8  and  C_37
REMARK    6  A    between atoms: N_10  and  C_16
REMARK    7  A    between atoms: N_10  and  C_21
REMARK    8  A    between atoms: C_12  and  C_15
REMARK    9  A    between atoms: C_21  and  C_26
REMARK   10  A    between atoms: C_35  and  C_37
REMARK                            x       y       z     vdW  Elec       q    Type
REMARK                         _______ _______ _______ _____ _____    ______ ____
ROOT
ATOM      1  N   UNL     1       0.603  -0.204   0.756  0.00  0.00    +0.000 N 
ENDROOT
BRANCH   1   4
ATOM      2  N   UNL     1       1.543   1.739  -0.161  0.00  0.00    +0.000 NA
ATOM      3  C   UNL     1      -0.822   1.745   0.345  0.00  0.00    +0.000 A 
ATOM      4  C   UNL     1       0.424   1.140   0.300  0.00  0.00    +0.000 A 
ATOM      5  C   UNL     1      -0.942   3.062  -0.114  0.00  0.00    +0.000 A 
ATOM      6  C   UNL     1       0.205   3.721  -0.603  0.00  0.00    +0.000 A 
ATOM      7  C   UNL     1      -2.169   3.745  -0.101  0.00  0.00    +0.000 A 
ATOM      8  C   UNL     1       1.407   3.011  -0.599  0.00  0.00    +0.000 A 
ATOM      9  C   UNL     1       0.107   5.043  -1.068  0.00  0.00    +0.000 A 
ATOM     10  C   UNL     1      -2.255   5.059  -0.566  0.00  0.00    +0.000 A 
ATOM     11  C   UNL     1      -1.120   5.707  -1.048  0.00  0.00    +0.000 A 
BRANCH   3  12
ATOM     12  C   UNL     1      -1.998   0.986   0.877  0.00  0.00    +0.000 C 
ATOM     13  C   UNL     1      -1.926   0.378   2.247  0.00  0.00    +0.000 C 
ATOM     14  C   UNL     1      -2.807   1.567   1.999  0.00  0.00    +0.000 C 
ENDBRANCH   3  12
ENDBRANCH   1   4
BRANCH   1  15
ATOM     15  S   UNL     1       1.833  -0.463   1.960  0.00  0.00    +0.000 S 
ATOM     16  O   UNL     1       1.544  -1.672   2.709  0.00  0.00    +0.000 OA
ATOM     17  O   UNL     1       2.078   0.775   2.678  0.00  0.00    +0.000 OA
BRANCH  15  18
ATOM     18  C   UNL     1       3.277  -0.790   0.986  0.00  0.00    +0.000 A 
ATOM     19  C   UNL     1       3.586  -2.099   0.615  0.00  0.00    +0.000 A 
ATOM     20  C   UNL     1       4.107   0.260   0.593  0.00  0.00    +0.000 A 
ATOM     21  C   UNL     1       4.724  -2.358  -0.149  0.00  0.00    +0.000 A 
ATOM     22  C   UNL     1       5.245   0.001  -0.171  0.00  0.00    +0.000 A 
ATOM     23  C   UNL     1       5.553  -1.308  -0.542  0.00  0.00    +0.000 A 
BRANCH  23  25
ATOM     24  O   UNL     1       7.107  -2.694  -1.721  0.00  0.00    +0.000 OA
ATOM     25  C   UNL     1       6.740  -1.578  -1.338  0.00  0.00    +0.000 C 
BRANCH  25  26
ATOM     26  O   UNL     1       7.436  -0.446  -1.636  0.00  0.00    +0.000 OA
ATOM     27  H   UNL     1       8.234  -0.639  -2.173  0.00  0.00    +0.000 HD
ENDBRANCH  25  26
ENDBRANCH  23  25
ENDBRANCH  15  18
ENDBRANCH   1  15
BRANCH   1  28
ATOM     28  C   UNL     1       0.423  -1.290  -0.256  0.00  0.00    +0.000 C 
BRANCH  28  29
ATOM     29  C   UNL     1      -1.006  -1.743  -0.357  0.00  0.00    +0.000 A 
ATOM     30  C   UNL     1      -1.549  -2.567   0.628  0.00  0.00    +0.000 A 
ATOM     31  C   UNL     1      -1.790  -1.339  -1.438  0.00  0.00    +0.000 A 
ATOM     32  C   UNL     1      -2.876  -2.987   0.534  0.00  0.00    +0.000 A 
ATOM     33  C   UNL     1      -3.117  -1.759  -1.533  0.00  0.00    +0.000 A 
ATOM     34  C   UNL     1      -3.660  -2.583  -0.547  0.00  0.00    +0.000 A 
BRANCH  34  35
ATOM     35  O   UNL     1      -4.955  -2.992  -0.638  0.00  0.00    +0.000 OA
BRANCH  35  39
ATOM     36  F   UNL     1      -5.602  -0.903   0.030  0.00  0.00    +0.000 F 
ATOM     37  F   UNL     1      -7.086  -2.504  -0.080  0.00  0.00    +0.000 F 
ATOM     38  F   UNL     1      -6.289  -1.657  -1.930  0.00  0.00    +0.000 F 
ATOM     39  C   UNL     1      -5.975  -2.000  -0.663  0.00  0.00    +0.000 C 
ENDBRANCH  35  39
ENDBRANCH  34  35
ENDBRANCH  28  29
ENDBRANCH   1  28
TORSDOF 10
