REMARK  Name = 
REMARK  6 active torsions:
REMARK  status: ('A' for Active; 'I' for Inactive)
REMARK    1  A    between atoms: C_2  and  O_3
REMARK    2  A    between atoms: C_2  and  C_4
REMARK    3  A    between atoms: C_7  and  C_8
REMARK    4  A    between atoms: N_13  and  C_14
REMARK    5  A    between atoms: C_14  and  C_15
REMARK    6  A    between atoms: C_19  and  C_20
REMARK                            x       y       z     vdW  Elec       q    Type
REMARK                         _______ _______ _______ _____ _____    ______ ____
ROOT
ATOM      1  C   UNL     1       2.040  -0.137   1.344  0.00  0.00    +0.000 C 
ATOM      2  C   UNL     1       1.086  -0.511   0.517  0.00  0.00    +0.000 C 
ATOM      3  S   UNL     1       1.375  -1.778  -0.732  0.00  0.00    +0.000 S 
ATOM      4  C   UNL     1       0.004  -1.305  -1.802  0.00  0.00    +0.000 C 
ATOM      5  S   UNL     1      -0.403  -2.056  -3.179  0.00  0.00    +0.000 S 
ATOM      6  N   UNL     1      -0.805  -0.500  -0.931  0.00  0.00    +0.000 N 
ATOM      7  C   UNL     1       0.010   0.293  -0.080  0.00  0.00    +0.000 C 
ATOM      8  O   UNL     1      -0.347   1.420   0.379  0.00  0.00    +0.000 OA
ENDROOT
BRANCH   1  12
ATOM      9  C   UNL     1       5.896   0.104  -0.146  0.00  0.00    +0.000 A 
ATOM     10  C   UNL     1       5.558   0.759   1.026  0.00  0.00    +0.000 A 
ATOM     11  C   UNL     1       4.359   0.464   1.663  0.00  0.00    +0.000 A 
ATOM     12  C   UNL     1       3.458  -0.459   1.147  0.00  0.00    +0.000 A 
ATOM     13  C   UNL     1       3.919  -1.273   0.148  0.00  0.00    +0.000 A 
ATOM     14  C   UNL     1       5.147  -1.018  -0.451  0.00  0.00    +0.000 A 
BRANCH   9  16
ATOM     15  O   UNL     1       8.220   0.193   0.239  0.00  0.00    +0.000 OA
ATOM     16  C   UNL     1       7.279   0.275  -0.602  0.00  0.00    +0.000 C 
BRANCH  16  17
ATOM     17  O   UNL     1       7.604   0.405  -1.946  0.00  0.00    +0.000 OA
ATOM     18  H   UNL     1       6.924   0.468  -2.588  0.00  0.00    +0.000 HD
ENDBRANCH  16  17
ENDBRANCH   9  16
ENDBRANCH   1  12
BRANCH   6  19
ATOM     19  C   UNL     1      -2.150  -0.119  -1.362  0.00  0.00    +0.000 C 
BRANCH  19  20
ATOM     20  C   UNL     1      -3.118  -0.150  -0.243  0.00  0.00    +0.000 A 
ATOM     21  C   UNL     1      -2.785  -0.393   1.063  0.00  0.00    +0.000 A 
ATOM     22  C   UNL     1      -3.649  -0.015   2.082  0.00  0.00    +0.000 A 
ATOM     23  C   UNL     1      -4.817   0.673   1.779  0.00  0.00    +0.000 A 
ATOM     24  C   UNL     1      -5.273   0.705   0.484  0.00  0.00    +0.000 A 
ATOM     25  C   UNL     1      -4.385   0.319  -0.502  0.00  0.00    +0.000 A 
BRANCH  24  26
ATOM     26  C   UNL     1      -6.723   0.619   0.128  0.00  0.00    +0.000 C 
ATOM     27  F   UNL     1      -7.532   1.141   1.105  0.00  0.00    +0.000 F 
ATOM     28  F   UNL     1      -7.102  -0.687  -0.093  0.00  0.00    +0.000 F 
ATOM     29  F   UNL     1      -6.865   1.367  -1.036  0.00  0.00    +0.000 F 
ENDBRANCH  24  26
ENDBRANCH  19  20
ENDBRANCH   6  19
TORSDOF 6
