REMARK  Name = 17975425
REMARK  3 active torsions:
REMARK  status: ('A' for Active; 'I' for Inactive)
REMARK    1  A    between atoms: O_1  and  C_11
REMARK    2  A    between atoms: N_2  and  C_6
REMARK    3  A    between atoms: C_5  and  C_11
REMARK                            x       y       z     vdW  Elec       q    Type
REMARK                         _______ _______ _______ _____ _____    ______ ____
ROOT
ATOM      1  C   UNL     1      -2.080  -0.250  -0.000  0.00  0.00    +0.000 A 
ATOM      2  C   UNL     1       0.688  -0.598  -0.001  0.00  0.00    +0.000 A 
ATOM      3  C   UNL     1      -1.387  -0.339   1.208  0.00  0.00    +0.000 A 
ATOM      4  C   UNL     1      -1.388  -0.335  -1.208  0.00  0.00    +0.000 A 
ATOM      5  C   UNL     1      -0.004  -0.513   1.207  0.00  0.00    +0.000 A 
ATOM      6  C   UNL     1      -0.004  -0.509  -1.209  0.00  0.00    +0.000 A 
ENDROOT
BRANCH   2   7
ATOM      7  N   UNL     1       2.076  -0.772  -0.001  0.00  0.00    +0.000 NA
ATOM      8  N   UNL     1       4.217   0.160   0.000  0.00  0.00    +0.000 N 
ATOM      9  N   UNL     1       2.453   1.608   0.003  0.00  0.00    +0.000 N 
ATOM     10  C   UNL     1       2.848   0.288   0.000  0.00  0.00    +0.000 C 
ATOM     11  H   UNL     1       4.658  -0.753  -0.002  0.00  0.00    +0.000 HD
ATOM     12  H   UNL     1       4.825   0.972   0.001  0.00  0.00    +0.000 HD
ATOM     13  H   UNL     1       1.476   1.879   0.004  0.00  0.00    +0.000 HD
ATOM     14  H   UNL     1       3.136   2.358   0.005  0.00  0.00    +0.000 HD
ENDBRANCH   2   7
BRANCH   1  15
ATOM     15  C   UNL     1      -3.559  -0.065  -0.001  0.00  0.00    +0.000 C 
BRANCH  15  16
ATOM     16  O   UNL     1      -3.861   1.325   0.002  0.00  0.00    +0.000 OA
ATOM     17  H   UNL     1      -4.830   1.406   0.002  0.00  0.00    +0.000 HD
ENDBRANCH  15  16
ENDBRANCH   1  15
TORSDOF 3
