REMARK  Name = 199
REMARK  5 active torsions:
REMARK  status: ('A' for Active; 'I' for Inactive)
REMARK    1  A    between atoms: N_1  and  C_7
REMARK    2  A    between atoms: N_2  and  C_8
REMARK    3  A    between atoms: C_5  and  C_6
REMARK    4  A    between atoms: C_5  and  C_7
REMARK    5  A    between atoms: C_6  and  C_8
REMARK                            x       y       z     vdW  Elec       q    Type
REMARK                         _______ _______ _______ _____ _____    ______ ____
ROOT
ATOM      1  N   UNL     1       1.102  -0.147  -0.331  0.00  0.00    +0.000 NA
ATOM      2  N   UNL     1       3.005  -1.469  -0.298  0.00  0.00    +0.000 N 
ATOM      3  N   UNL     1       3.164   0.597   0.651  0.00  0.00    +0.000 N 
ATOM      4  C   UNL     1       2.346  -0.300   0.000  0.00  0.00    +0.000 C 
ATOM      5  H   UNL     1       2.533  -2.228  -0.778  0.00  0.00    +0.000 HD
ATOM      6  H   UNL     1       3.978  -1.609  -0.047  0.00  0.00    +0.000 HD
ATOM      7  H   UNL     1       4.130   0.367   0.860  0.00  0.00    +0.000 HD
ATOM      8  H   UNL     1       2.840   1.511   0.944  0.00  0.00    +0.000 HD
ENDROOT
BRANCH   1   9
ATOM      9  C   UNL     1       0.478   1.129   0.025  0.00  0.00    +0.000 C 
BRANCH   9  10
ATOM     10  C   UNL     1      -0.976   1.144  -0.436  0.00  0.00    +0.000 C 
BRANCH  10  11
ATOM     11  C   UNL     1      -1.810   0.037   0.222  0.00  0.00    +0.000 C 
BRANCH  11  12
ATOM     12  C   UNL     1      -3.274   0.046  -0.221  0.00  0.00    +0.000 C 
BRANCH  12  13
ATOM     13  N   UNL     1      -4.036  -1.038   0.387  0.00  0.00    +0.000 NA
ATOM     14  H   UNL     1      -5.015  -0.958   0.114  0.00  0.00    +0.000 HD
ATOM     15  H   UNL     1      -4.013  -0.945   1.402  0.00  0.00    +0.000 HD
ENDBRANCH  12  13
ENDBRANCH  11  12
ENDBRANCH  10  11
ENDBRANCH   9  10
ENDBRANCH   1   9
TORSDOF 5
