REMARK  Name = 46906075
REMARK  7 active torsions:
REMARK  status: ('A' for Active; 'I' for Inactive)
REMARK    1  A    between atoms: N_3  and  CA_8
REMARK    2  A    between atoms: N_4  and  C_10
REMARK    3  A    between atoms: N_6  and  C_13
REMARK    4  A    between atoms: C_7  and  CA_8
REMARK    5  A    between atoms: C_7  and  C_9
REMARK    6  A    between atoms: CA_8  and  C_11
REMARK    7  A    between atoms: C_9  and  C_10
REMARK                            x       y       z     vdW  Elec       q    Type
REMARK                         _______ _______ _______ _____ _____    ______ ____
ROOT
ATOM      1  C   UNL     1       0.489   0.190  -0.175  0.00  0.00    +0.000 C 
ENDROOT
BRANCH   1   2
ATOM      2  C   UNL     1       1.525   1.007   0.613  0.00  0.00    +0.000 C 
BRANCH   2   3
ATOM      3  CA  UNL     1       2.974   0.808   0.148  0.00  0.00    +0.000 C 
BRANCH   3   4
ATOM      4  N   UNL     1       3.087   1.378  -1.232  0.00  0.00    +0.000 N 
ATOM      5  H1  UNL     1       2.587   0.807  -1.926  0.00  0.00    +0.000 HD
ATOM      6  H2  UNL     1       4.070   1.421  -1.530  0.00  0.00    +0.000 HD
ATOM      7  H3  UNL     1       2.713   2.335  -1.283  0.00  0.00    +0.000 HD
ENDBRANCH   3   4
BRANCH   3  10
ATOM      8  O   UNL     1       4.428  -0.947  -0.534  0.00  0.00    +0.000 OA
ATOM      9  OXT UNL     1       3.034  -1.296   1.237  0.00  0.00    +0.000 OA
ATOM     10  C   UNL     1       3.528  -0.621   0.290  0.00  0.00    +0.000 C 
ENDBRANCH   3  10
ENDBRANCH   2   3
ENDBRANCH   1   2
BRANCH   1  11
ATOM     11  C   UNL     1      -0.941   0.458   0.288  0.00  0.00    +0.000 C 
BRANCH  11  12
ATOM     12  N   UNL     1      -1.883  -0.323  -0.478  0.00  0.00    +0.000 N 
ATOM     13  N   UNL     1      -3.884  -1.158  -1.179  0.00  0.00    +0.000 N 
ATOM     14  N   UNL     1      -3.825   0.437   0.608  0.00  0.00    +0.000 NA
ATOM     15  C   UNL     1      -3.256  -0.306  -0.295  0.00  0.00    +0.000 C 
ATOM     16  C   UNL     1      -5.277   0.373   0.709  0.00  0.00    +0.000 C 
ATOM     17  H   UNL     1      -1.503  -0.926  -1.202  0.00  0.00    +0.000 HD
ATOM     18  H   UNL     1      -3.352  -1.700  -1.852  0.00  0.00    +0.000 HD
ATOM     19  H   UNL     1      -4.890  -1.277  -1.193  0.00  0.00    +0.000 HD
ENDBRANCH  11  12
ENDBRANCH   1  11
TORSDOF 6
