REMARK  Name = 443958
REMARK  8 active torsions:
REMARK  status: ('A' for Active; 'I' for Inactive)
REMARK    1  A    between atoms: O_4  and  C_17
REMARK    2  A    between atoms: O_6  and  C_31
REMARK    3  A    between atoms: O_6  and  C_35
REMARK    4  A    between atoms: C_9  and  C_20
REMARK    5  A    between atoms: C_11  and  C_22
REMARK    6  A    between atoms: C_18  and  C_27
REMARK    7  A    between atoms: C_22  and  C_31
REMARK    8  A    between atoms: C_35  and  C_36
REMARK                            x       y       z     vdW  Elec       q    Type
REMARK                         _______ _______ _______ _____ _____    ______ ____
ROOT
ATOM      1  F   UNL     1       2.183  -0.265   1.041  0.00  0.00    +0.000 F 
ATOM      2  O   UNL     1      -2.123  -0.927   0.541  0.00  0.00    +0.000 OA
ATOM      3  O   UNL     1      -2.405  -2.662  -1.018  0.00  0.00    +0.000 OA
ATOM      4  O   UNL     1       6.897  -0.319   2.289  0.00  0.00    +0.000 OA
ATOM      5  C   UNL     1      -0.650   0.412  -0.925  0.00  0.00    +0.000 C 
ATOM      6  C   UNL     1       0.320  -0.789  -1.023  0.00  0.00    +0.000 C 
ATOM      7  C   UNL     1      -1.988  -0.350  -0.755  0.00  0.00    +0.000 C 
ATOM      8  C   UNL     1       1.776  -0.376  -1.278  0.00  0.00    +0.000 C 
ATOM      9  C   UNL     1      -1.877  -1.538  -1.714  0.00  0.00    +0.000 C 
ATOM     10  C   UNL     1       2.262   0.529  -0.093  0.00  0.00    +0.000 C 
ATOM     11  C   UNL     1      -0.374  -1.731  -2.010  0.00  0.00    +0.000 C 
ATOM     12  C   UNL     1      -0.202   1.264   0.277  0.00  0.00    +0.000 C 
ATOM     13  C   UNL     1       1.278   1.705   0.189  0.00  0.00    +0.000 C 
ATOM     14  C   UNL     1       3.786   0.918  -0.233  0.00  0.00    +0.000 C 
ATOM     15  C   UNL     1       2.668  -1.622  -1.428  0.00  0.00    +0.000 C 
ATOM     16  C   UNL     1      -0.704   1.267  -2.220  0.00  0.00    +0.000 C 
ATOM     17  C   UNL     1      -2.553  -2.276   0.345  0.00  0.00    +0.000 C 
ATOM     18  C   UNL     1       4.143  -1.263  -1.564  0.00  0.00    +0.000 C 
ATOM     19  C   UNL     1       4.576  -0.384  -0.418  0.00  0.00    +0.000 C 
ATOM     20  C   UNL     1      -4.021  -2.416   0.781  0.00  0.00    +0.000 C 
ATOM     21  C   UNL     1      -1.749  -3.214   1.250  0.00  0.00    +0.000 C 
ATOM     22  C   UNL     1       4.095   1.838  -1.436  0.00  0.00    +0.000 C 
ATOM     23  C   UNL     1       4.252   1.671   1.005  0.00  0.00    +0.000 C 
ATOM     24  C   UNL     1      -4.032  -3.524   1.829  0.00  0.00    +0.000 C 
ATOM     25  C   UNL     1      -2.650  -3.446   2.454  0.00  0.00    +0.000 C 
ATOM     26  C   UNL     1       5.570  -0.775   0.395  0.00  0.00    +0.000 C 
ATOM     27  C   UNL     1       5.239   1.285   1.819  0.00  0.00    +0.000 C 
ATOM     28  C   UNL     1       5.978   0.037   1.559  0.00  0.00    +0.000 C 
ENDROOT
BRANCH  13  29
ATOM     29  O   UNL     1       1.413   2.741  -0.771  0.00  0.00    +0.000 OA
ATOM     30  H   UNL     1       0.820   3.467  -0.512  0.00  0.00    +0.000 HD
ENDBRANCH  13  29
BRANCH   7  32
ATOM     31  O   UNL     1      -4.042   0.206  -1.827  0.00  0.00    +0.000 OA
ATOM     32  C   UNL     1      -3.218   0.484  -0.957  0.00  0.00    +0.000 C 
BRANCH  32  33
ATOM     33  C   UNL     1      -3.380   1.674  -0.036  0.00  0.00    +0.000 C 
BRANCH  33  34
ATOM     34  O   UNL     1      -4.747   1.945   0.193  0.00  0.00    +0.000 OA
BRANCH  34  36
ATOM     35  O   UNL     1      -4.194   3.724   1.559  0.00  0.00    +0.000 OA
ATOM     36  C   UNL     1      -5.024   3.006   1.016  0.00  0.00    +0.000 C 
ATOM     37  C   UNL     1      -6.505   3.174   1.166  0.00  0.00    +0.000 C 
ENDBRANCH  34  36
ENDBRANCH  33  34
ENDBRANCH  32  33
ENDBRANCH   7  32
TORSDOF 5
