REMARK  Name = 40973
REMARK  4 active torsions:
REMARK  status: ('A' for Active; 'I' for Inactive)
REMARK    1  A    between atoms: O_1  and  C_6
REMARK    2  A    between atoms: C_2  and  C_13
REMARK    3  A    between atoms: C_6  and  C_18
REMARK    4  A    between atoms: C_13  and  C_17
REMARK                            x       y       z     vdW  Elec       q    Type
REMARK                         _______ _______ _______ _____ _____    ______ ____
ROOT
ATOM      1  C   UNL     1       1.957   0.270   0.240  0.00  0.00    +0.000 C 
ATOM      2  C   UNL     1       1.096  -1.008   0.088  0.00  0.00    +0.000 C 
ATOM      3  C   UNL     1      -0.329  -0.849   0.650  0.00  0.00    +0.000 C 
ATOM      4  C   UNL     1      -1.038   0.320  -0.116  0.00  0.00    +0.000 C 
ATOM      5  C   UNL     1       3.314  -0.237  -0.333  0.00  0.00    +0.000 C 
ATOM      6  C   UNL     1       1.996  -2.110   0.639  0.00  0.00    +0.000 C 
ATOM      7  C   UNL     1       1.255   1.418  -0.518  0.00  0.00    +0.000 C 
ATOM      8  C   UNL     1       3.426  -1.669   0.255  0.00  0.00    +0.000 C 
ATOM      9  C   UNL     1      -2.553   0.458   0.255  0.00  0.00    +0.000 C 
ATOM     10  C   UNL     1      -1.118  -2.158   0.526  0.00  0.00    +0.000 C 
ATOM     11  C   UNL     1      -0.166   1.583   0.011  0.00  0.00    +0.000 C 
ATOM     12  C   UNL     1      -2.532  -1.988   1.060  0.00  0.00    +0.000 C 
ATOM     13  C   UNL     1      -3.254  -0.896   0.322  0.00  0.00    +0.000 C 
ATOM     14  C   UNL     1      -3.269   1.403  -0.747  0.00  0.00    +0.000 C 
ATOM     15  C   UNL     1      -4.786   1.336  -0.614  0.00  0.00    +0.000 C 
ATOM     16  C   UNL     1      -4.464  -1.123  -0.221  0.00  0.00    +0.000 C 
ATOM     17  C   UNL     1      -0.526   2.738   0.594  0.00  0.00    +0.000 C 
ATOM     18  C   UNL     1      -5.288  -0.074  -0.899  0.00  0.00    +0.000 C 
ENDROOT
BRANCH   5  19
ATOM     19  O   UNL     1       4.415   0.544   0.110  0.00  0.00    +0.000 OA
ATOM     20  H   UNL     1       4.415   1.380  -0.387  0.00  0.00    +0.000 HD
ENDBRANCH   5  19
BRANCH   1  21
ATOM     21  C   UNL     1       2.156   0.710   1.724  0.00  0.00    +0.000 C 
ATOM     22  C   UNL     1       2.975   1.970   1.787  0.00  0.00    +0.000 C 
ENDBRANCH   1  21
BRANCH   5  23
ATOM     23  C   UNL     1       3.352  -0.295  -1.807  0.00  0.00    +0.000 C 
ATOM     24  C   UNL     1       3.382  -0.343  -3.006  0.00  0.00    +0.000 C 
ENDBRANCH   5  23
TORSDOF 3
