REMARK  Name = 21700
REMARK  14 active torsions:
REMARK  status: ('A' for Active; 'I' for Inactive)
REMARK    1  A    between atoms: O_2  and  C_13
REMARK    2  A    between atoms: O_2  and  C_30
REMARK    3  A    between atoms: O_3  and  C_17
REMARK    4  A    between atoms: O_5  and  C_28
REMARK    5  A    between atoms: O_5  and  C_34
REMARK    6  A    between atoms: C_9  and  C_20
REMARK    7  A    between atoms: C_13  and  C_23
REMARK    8  A    between atoms: C_16  and  C_24
REMARK    9  A    between atoms: C_18  and  C_25
REMARK   10  A    between atoms: C_23  and  C_28
REMARK   11  A    between atoms: C_30  and  C_32
REMARK   12  A    between atoms: C_32  and  C_33
REMARK   13  A    between atoms: C_34  and  C_35
REMARK   14  A    between atoms: C_35  and  C_36
REMARK                            x       y       z     vdW  Elec       q    Type
REMARK                         _______ _______ _______ _____ _____    ______ ____
ROOT
ATOM      1 CL   UNL     1       2.473  -0.027  -1.776  0.00  0.00    +0.000 Cl
ATOM      2  O   UNL     1       7.308  -1.026  -2.021  0.00  0.00    +0.000 OA
ATOM      3  C   UNL     1      -0.430   0.347   0.789  0.00  0.00    +0.000 C 
ATOM      4  C   UNL     1       0.648   1.400   0.441  0.00  0.00    +0.000 C 
ATOM      5  C   UNL     1       2.073   0.951   0.808  0.00  0.00    +0.000 C 
ATOM      6  C   UNL     1       2.454  -0.384   0.051  0.00  0.00    +0.000 C 
ATOM      7  C   UNL     1      -1.712   1.125   0.355  0.00  0.00    +0.000 C 
ATOM      8  C   UNL     1       0.090   2.677   1.063  0.00  0.00    +0.000 C 
ATOM      9  C   UNL     1      -0.109  -0.938  -0.008  0.00  0.00    +0.000 C 
ATOM     10  C   UNL     1      -1.418   2.620   0.703  0.00  0.00    +0.000 C 
ATOM     11  C   UNL     1       1.330  -1.466   0.229  0.00  0.00    +0.000 C 
ATOM     12  C   UNL     1       3.930  -0.846   0.449  0.00  0.00    +0.000 C 
ATOM     13  C   UNL     1       3.103   2.073   0.572  0.00  0.00    +0.000 C 
ATOM     14  C   UNL     1      -0.508   0.026   2.309  0.00  0.00    +0.000 C 
ATOM     15  C   UNL     1       4.525   1.629   0.904  0.00  0.00    +0.000 C 
ATOM     16  C   UNL     1       4.882   0.337   0.211  0.00  0.00    +0.000 C 
ATOM     17  C   UNL     1      -2.258   3.250   1.810  0.00  0.00    +0.000 C 
ATOM     18  C   UNL     1       4.092  -1.258   1.935  0.00  0.00    +0.000 C 
ATOM     19  C   UNL     1       4.356  -2.074  -0.347  0.00  0.00    +0.000 C 
ATOM     20  C   UNL     1       5.962   0.270  -0.584  0.00  0.00    +0.000 C 
ATOM     21  C   UNL     1       5.432  -2.142  -1.138  0.00  0.00    +0.000 C 
ATOM     22  C   UNL     1       6.315  -0.971  -1.304  0.00  0.00    +0.000 C 
ENDROOT
BRANCH  11  23
ATOM     23  O   UNL     1       1.388  -2.065   1.518  0.00  0.00    +0.000 OA
ATOM     24  H   UNL     1       0.724  -2.775   1.548  0.00  0.00    +0.000 HD
ENDBRANCH  11  23
BRANCH   7  26
ATOM     25  O   UNL     1      -3.778   1.252   1.533  0.00  0.00    +0.000 OA
ATOM     26  C   UNL     1      -3.002   0.564   0.872  0.00  0.00    +0.000 C 
BRANCH  26  27
ATOM     27  C   UNL     1      -3.286  -0.884   0.535  0.00  0.00    +0.000 C 
BRANCH  27  28
ATOM     28  O   UNL     1      -4.676  -1.107   0.423  0.00  0.00    +0.000 OA
BRANCH  28  30
ATOM     29  O   UNL     1      -4.303  -3.332  -0.058  0.00  0.00    +0.000 OA
ATOM     30  C   UNL     1      -5.063  -2.390   0.119  0.00  0.00    +0.000 C 
BRANCH  30  31
ATOM     31  C   UNL     1      -6.570  -2.458   0.036  0.00  0.00    +0.000 C 
ATOM     32  C   UNL     1      -7.060  -3.852  -0.317  0.00  0.00    +0.000 C 
ENDBRANCH  30  31
ENDBRANCH  28  30
ENDBRANCH  27  28
ENDBRANCH  26  27
ENDBRANCH   7  26
BRANCH   7  33
ATOM     33  O   UNL     1      -1.942   1.003  -1.054  0.00  0.00    +0.000 OA
BRANCH  33  35
ATOM     34  O   UNL     1      -3.787   2.377  -0.872  0.00  0.00    +0.000 OA
ATOM     35  C   UNL     1      -3.022   1.688  -1.533  0.00  0.00    +0.000 C 
BRANCH  35  36
ATOM     36  C   UNL     1      -3.123   1.458  -3.023  0.00  0.00    +0.000 C 
ATOM     37  C   UNL     1      -4.315   2.174  -3.632  0.00  0.00    +0.000 C 
ENDBRANCH  35  36
ENDBRANCH  33  35
ENDBRANCH   7  33
TORSDOF 9
