REMARK  Name = 5865
REMARK  6 active torsions:
REMARK  status: ('A' for Active; 'I' for Inactive)
REMARK    1  A    between atoms: O_1  and  C_10
REMARK    2  A    between atoms: O_4  and  C_24
REMARK    3  A    between atoms: C_6  and  C_17
REMARK    4  A    between atoms: C_10  and  C_20
REMARK    5  A    between atoms: C_14  and  C_21
REMARK    6  A    between atoms: C_20  and  C_24
REMARK                            x       y       z     vdW  Elec       q    Type
REMARK                         _______ _______ _______ _____ _____    ______ ____
ROOT
ATOM      1  O   UNL     1      -0.594   2.564   0.695  0.00  0.00    +0.000 OA
ATOM      2  O   UNL     1      -6.243   0.040  -1.516  0.00  0.00    +0.000 OA
ATOM      3  C   UNL     1       1.853   0.155   0.171  0.00  0.00    +0.000 C 
ATOM      4  C   UNL     1       0.963  -1.075  -0.132  0.00  0.00    +0.000 C 
ATOM      5  C   UNL     1      -0.423  -0.992   0.526  0.00  0.00    +0.000 C 
ATOM      6  C   UNL     1      -1.164   0.279  -0.004  0.00  0.00    +0.000 C 
ATOM      7  C   UNL     1       3.162  -0.295  -0.527  0.00  0.00    +0.000 C 
ATOM      8  C   UNL     1       1.862  -2.260   0.213  0.00  0.00    +0.000 C 
ATOM      9  C   UNL     1       1.162   1.389  -0.416  0.00  0.00    +0.000 C 
ATOM     10  C   UNL     1       3.279  -1.796  -0.183  0.00  0.00    +0.000 C 
ATOM     11  C   UNL     1      -2.621   0.415   0.565  0.00  0.00    +0.000 C 
ATOM     12  C   UNL     1      -1.244  -2.261   0.253  0.00  0.00    +0.000 C 
ATOM     13  C   UNL     1      -0.241   1.510   0.169  0.00  0.00    +0.000 C 
ATOM     14  C   UNL     1       2.096   0.382   1.689  0.00  0.00    +0.000 C 
ATOM     15  C   UNL     1      -2.649  -2.158   0.835  0.00  0.00    +0.000 C 
ATOM     16  C   UNL     1      -3.340  -0.919   0.322  0.00  0.00    +0.000 C 
ATOM     17  C   UNL     1      -2.643   0.713   2.082  0.00  0.00    +0.000 C 
ATOM     18  C   UNL     1      -3.352   1.560  -0.124  0.00  0.00    +0.000 C 
ATOM     19  C   UNL     1      -4.497  -1.032  -0.351  0.00  0.00    +0.000 C 
ATOM     20  C   UNL     1      -4.502   1.452  -0.796  0.00  0.00    +0.000 C 
ATOM     21  C   UNL     1      -5.170   0.146  -0.931  0.00  0.00    +0.000 C 
ENDROOT
BRANCH   7  22
ATOM     22  O   UNL     1       3.095  -0.176  -1.945  0.00  0.00    +0.000 OA
ATOM     23  H   UNL     1       3.028   0.766  -2.171  0.00  0.00    +0.000 HD
ENDBRANCH   7  22
BRANCH   7  25
ATOM     24  O   UNL     1       4.339   1.649   0.186  0.00  0.00    +0.000 OA
ATOM     25  C   UNL     1       4.395   0.465  -0.140  0.00  0.00    +0.000 C 
BRANCH  25  26
ATOM     26  C   UNL     1       5.697  -0.307  -0.176  0.00  0.00    +0.000 C 
BRANCH  26  27
ATOM     27  O   UNL     1       6.779   0.554  -0.463  0.00  0.00    +0.000 OA
ATOM     28  H   UNL     1       6.867   1.171   0.283  0.00  0.00    +0.000 HD
ENDBRANCH  26  27
ENDBRANCH  25  26
ENDBRANCH   7  25
TORSDOF 4
