REMARK  Name = 16490
REMARK  8 active torsions:
REMARK  status: ('A' for Active; 'I' for Inactive)
REMARK    1  A    between atoms: O_3  and  C_12
REMARK    2  A    between atoms: O_4  and  C_16
REMARK    3  A    between atoms: O_6  and  C_27
REMARK    4  A    between atoms: C_8  and  C_19
REMARK    5  A    between atoms: C_12  and  C_22
REMARK    6  A    between atoms: C_15  and  C_23
REMARK    7  A    between atoms: C_17  and  C_24
REMARK    8  A    between atoms: C_22  and  C_27
REMARK                            x       y       z     vdW  Elec       q    Type
REMARK                         _______ _______ _______ _____ _____    ______ ____
ROOT
ATOM      1  F   UNL     1      -1.273   0.211  -1.308  0.00  0.00    +0.000 F 
ATOM      2  F   UNL     1      -3.302  -3.027   0.746  0.00  0.00    +0.000 F 
ATOM      3  O   UNL     1      -6.125   0.163  -1.685  0.00  0.00    +0.000 OA
ATOM      4  C   UNL     1       1.884   0.380   0.216  0.00  0.00    +0.000 C 
ATOM      5  C   UNL     1       0.972  -0.853   0.034  0.00  0.00    +0.000 C 
ATOM      6  C   UNL     1      -0.412  -0.701   0.685  0.00  0.00    +0.000 C 
ATOM      7  C   UNL     1      -1.149   0.522   0.039  0.00  0.00    +0.000 C 
ATOM      8  C   UNL     1       3.159  -0.144  -0.512  0.00  0.00    +0.000 C 
ATOM      9  C   UNL     1       1.861  -2.025   0.449  0.00  0.00    +0.000 C 
ATOM     10  C   UNL     1       1.177   1.583  -0.442  0.00  0.00    +0.000 C 
ATOM     11  C   UNL     1       3.284  -1.618  -0.017  0.00  0.00    +0.000 C 
ATOM     12  C   UNL     1      -0.269   1.810   0.053  0.00  0.00    +0.000 C 
ATOM     13  C   UNL     1      -2.629   0.679   0.568  0.00  0.00    +0.000 C 
ATOM     14  C   UNL     1      -1.227  -1.993   0.511  0.00  0.00    +0.000 C 
ATOM     15  C   UNL     1       2.200   0.692   1.704  0.00  0.00    +0.000 C 
ATOM     16  C   UNL     1      -2.656  -1.856   1.018  0.00  0.00    +0.000 C 
ATOM     17  C   UNL     1      -3.333  -0.672   0.373  0.00  0.00    +0.000 C 
ATOM     18  C   UNL     1       3.852  -2.594  -1.042  0.00  0.00    +0.000 C 
ATOM     19  C   UNL     1      -2.724   1.058   2.063  0.00  0.00    +0.000 C 
ATOM     20  C   UNL     1      -3.341   1.787  -0.196  0.00  0.00    +0.000 C 
ATOM     21  C   UNL     1      -4.451  -0.828  -0.352  0.00  0.00    +0.000 C 
ATOM     22  C   UNL     1      -4.454   1.635  -0.920  0.00  0.00    +0.000 C 
ATOM     23  C   UNL     1      -5.095   0.312  -1.036  0.00  0.00    +0.000 C 
ENDROOT
BRANCH   8  24
ATOM     24  O   UNL     1       3.065  -0.044  -1.928  0.00  0.00    +0.000 OA
ATOM     25  H   UNL     1       3.024   0.894  -2.176  0.00  0.00    +0.000 HD
ENDBRANCH   8  24
BRANCH  12  26
ATOM     26  O   UNL     1      -0.238   2.396   1.347  0.00  0.00    +0.000 OA
ATOM     27  H   UNL     1       0.275   3.220   1.288  0.00  0.00    +0.000 HD
ENDBRANCH  12  26
BRANCH   8  29
ATOM     28  O   UNL     1       4.345   1.862  -0.019  0.00  0.00    +0.000 OA
ATOM     29  C   UNL     1       4.397   0.650  -0.226  0.00  0.00    +0.000 C 
BRANCH  29  30
ATOM     30  C   UNL     1       5.699  -0.121  -0.207  0.00  0.00    +0.000 C 
BRANCH  30  31
ATOM     31  O   UNL     1       6.782   0.736   0.085  0.00  0.00    +0.000 OA
ATOM     32  H   UNL     1       6.664   1.058   0.995  0.00  0.00    +0.000 HD
ENDBRANCH  30  31
ENDBRANCH  29  30
ENDBRANCH   8  29
TORSDOF 5
