REMARK  Name = 6230
REMARK  3 active torsions:
REMARK  status: ('A' for Active; 'I' for Inactive)
REMARK    1  A    between atoms: O_1  and  C_8
REMARK    2  A    between atoms: C_4  and  C_14
REMARK    3  A    between atoms: C_8  and  C_18
REMARK                            x       y       z     vdW  Elec       q    Type
REMARK                         _______ _______ _______ _____ _____    ______ ____
ROOT
ATOM      1  O   UNL     1      -5.518  -0.841   1.324  0.00  0.00    +0.000 OA
ATOM      2  C   UNL     1       1.436   0.769   0.247  0.00  0.00    +0.000 C 
ATOM      3  C   UNL     1       2.240  -0.234  -0.611  0.00  0.00    +0.000 C 
ATOM      4  C   UNL     1       0.047   1.060  -0.326  0.00  0.00    +0.000 C 
ATOM      5  C   UNL     1      -0.759  -0.281  -0.403  0.00  0.00    +0.000 C 
ATOM      6  C   UNL     1       1.464  -1.564  -0.648  0.00  0.00    +0.000 C 
ATOM      7  C   UNL     1       3.602  -0.227   0.148  0.00  0.00    +0.000 C 
ATOM      8  C   UNL     1       2.407   1.931   0.441  0.00  0.00    +0.000 C 
ATOM      9  C   UNL     1       0.023  -1.380  -1.159  0.00  0.00    +0.000 C 
ATOM     10  C   UNL     1      -2.161   0.005  -1.005  0.00  0.00    +0.000 C 
ATOM     11  C   UNL     1       3.801   1.273   0.490  0.00  0.00    +0.000 C 
ATOM     12  C   UNL     1      -0.710   2.119   0.500  0.00  0.00    +0.000 C 
ATOM     13  C   UNL     1       2.465   0.239  -2.078  0.00  0.00    +0.000 C 
ATOM     14  C   UNL     1      -2.134   2.340  -0.018  0.00  0.00    +0.000 C 
ATOM     15  C   UNL     1      -2.845   1.016  -0.102  0.00  0.00    +0.000 C 
ATOM     16  C   UNL     1      -3.058  -1.218  -1.251  0.00  0.00    +0.000 C 
ATOM     17  C   UNL     1      -3.710  -1.729   0.022  0.00  0.00    +0.000 C 
ATOM     18  C   UNL     1      -3.932   0.754   0.639  0.00  0.00    +0.000 C 
ATOM     19  C   UNL     1      -4.489  -0.620   0.688  0.00  0.00    +0.000 C 
ENDROOT
BRANCH   7  20
ATOM     20  O   UNL     1       4.661  -0.693  -0.676  0.00  0.00    +0.000 OA
ATOM     21  H   UNL     1       4.448  -1.600  -0.955  0.00  0.00    +0.000 HD
ENDBRANCH   7  20
BRANCH   7  22
ATOM     22  C   UNL     1       3.590  -1.032   1.386  0.00  0.00    +0.000 C 
ATOM     23  C   UNL     1       3.580  -1.687   2.392  0.00  0.00    +0.000 C 
ENDBRANCH   7  22
TORSDOF 2
