REMARK  Name = 441290
REMARK  10 active torsions:
REMARK  status: ('A' for Active; 'I' for Inactive)
REMARK    1  A    between atoms: O_1  and  C_13
REMARK    2  A    between atoms: O_1  and  C_32
REMARK    3  A    between atoms: O_2  and  C_27
REMARK    4  A    between atoms: N_5  and  C_12
REMARK    5  A    between atoms: N_5  and  C_28
REMARK    6  A    between atoms: N_6  and  C_23
REMARK    7  A    between atoms: C_8  and  C_21
REMARK    8  A    between atoms: C_11  and  C_24
REMARK    9  A    between atoms: C_28  and  C_31
REMARK   10  A    between atoms: C_32  and  C_37
REMARK                            x       y       z     vdW  Elec       q    Type
REMARK                         _______ _______ _______ _____ _____    ______ ____
ROOT
ATOM      1  C   UNL     1      -1.282   0.664  -0.723  0.00  0.00    +0.000 C 
ATOM      2  C   UNL     1      -1.698  -0.631   0.006  0.00  0.00    +0.000 C 
ATOM      3  C   UNL     1      -0.020   1.297  -0.126  0.00  0.00    +0.000 C 
ATOM      4  C   UNL     1       1.153   0.273  -0.254  0.00  0.00    +0.000 C 
ATOM      5  C   UNL     1       2.518   0.855   0.275  0.00  0.00    +0.000 C 
ATOM      6  C   UNL     1      -3.648   0.406  -1.058  0.00  0.00    +0.000 C 
ATOM      7  C   UNL     1      -2.991  -0.965  -0.772  0.00  0.00    +0.000 C 
ATOM      8  C   UNL     1      -2.576   1.474  -0.771  0.00  0.00    +0.000 C 
ATOM      9  C   UNL     1      -0.567  -1.657  -0.175  0.00  0.00    +0.000 C 
ATOM     10  C   UNL     1       2.792   2.208  -0.447  0.00  0.00    +0.000 C 
ATOM     11  C   UNL     1       0.779  -1.114   0.339  0.00  0.00    +0.000 C 
ATOM     12  C   UNL     1       0.325   2.618  -0.825  0.00  0.00    +0.000 C 
ATOM     13  C   UNL     1       1.636   3.208  -0.317  0.00  0.00    +0.000 C 
ATOM     14  C   UNL     1       3.684  -0.134  -0.057  0.00  0.00    +0.000 C 
ATOM     15  C   UNL     1      -1.981  -0.457   1.519  0.00  0.00    +0.000 C 
ATOM     16  C   UNL     1       4.119   2.861  -0.021  0.00  0.00    +0.000 C 
ATOM     17  C   UNL     1       4.993   0.530  -0.528  0.00  0.00    +0.000 C 
ATOM     18  C   UNL     1       2.464   1.049   1.814  0.00  0.00    +0.000 C 
ATOM     19  C   UNL     1       5.266   1.860   0.175  0.00  0.00    +0.000 C 
ENDROOT
BRANCH  17  21
ATOM     20  O   UNL     1       7.186  -2.888   0.534  0.00  0.00    +0.000 OA
ATOM     21  N   UNL     1       6.102  -0.401  -0.328  0.00  0.00    +0.000 NA
ATOM     22  C   UNL     1       6.270  -0.713   1.099  0.00  0.00    +0.000 C 
ATOM     23  C   UNL     1       5.891  -1.637  -1.093  0.00  0.00    +0.000 C 
ATOM     24  C   UNL     1       7.424  -1.694   1.282  0.00  0.00    +0.000 C 
ATOM     25  C   UNL     1       7.054  -2.597  -0.858  0.00  0.00    +0.000 C 
ENDBRANCH  17  21
BRANCH   6  26
ATOM     26  N   UNL     1      -4.883   0.666  -0.209  0.00  0.00    +0.000 N 
ATOM     27  C   UNL     1      -5.966  -0.397  -0.486  0.00  0.00    +0.000 C 
ATOM     28  C   UNL     1      -5.518   2.020  -0.588  0.00  0.00    +0.000 C 
ATOM     29  C   UNL     1      -7.014   0.328  -1.308  0.00  0.00    +0.000 C 
ATOM     30  C   UNL     1      -6.998   1.724  -0.727  0.00  0.00    +0.000 C 
BRANCH  26  31
ATOM     31  C   UNL     1      -4.493   0.652   1.261  0.00  0.00    +0.000 C 
BRANCH  31  32
ATOM     32  C   UNL     1      -5.643   0.943   2.169  0.00  0.00    +0.000 C 
ATOM     33  C   UNL     1      -6.100   0.088   3.090  0.00  0.00    +0.000 C 
ENDBRANCH  31  32
ENDBRANCH  26  31
ENDBRANCH   6  26
BRANCH  19  34
ATOM     34  O   UNL     1       6.470   2.449  -0.319  0.00  0.00    +0.000 OA
ATOM     35  H   UNL     1       6.608   3.282   0.164  0.00  0.00    +0.000 HD
ENDBRANCH  19  34
BRANCH   7  36
ATOM     36  O   UNL     1      -3.833  -1.913  -0.147  0.00  0.00    +0.000 OA
BRANCH  36  38
ATOM     37  O   UNL     1      -2.744  -3.637  -1.233  0.00  0.00    +0.000 OA
ATOM     38  C   UNL     1      -3.604  -3.227  -0.465  0.00  0.00    +0.000 C 
ATOM     39  C   UNL     1      -4.566  -4.112   0.269  0.00  0.00    +0.000 C 
ENDBRANCH  36  38
ENDBRANCH   7  36
TORSDOF 7
