REMARK  Name = 107765
REMARK  10 active torsions:
REMARK  status: ('A' for Active; 'I' for Inactive)
REMARK    1  A    between atoms: O_2  and  C_8
REMARK    2  A    between atoms: O_2  and  C_27
REMARK    3  A    between atoms: O_3  and  C_18
REMARK    4  A    between atoms: O_4  and  C_26
REMARK    5  A    between atoms: N_5  and  C_23
REMARK    6  A    between atoms: C_11  and  C_18
REMARK    7  A    between atoms: C_18  and  C_22
REMARK    8  A    between atoms: C_18  and  C_24
REMARK    9  A    between atoms: C_22  and  C_29
REMARK   10  A    between atoms: C_29  and  C_30
REMARK                            x       y       z     vdW  Elec       q    Type
REMARK                         _______ _______ _______ _____ _____    ______ ____
ROOT
ATOM      1  O   UNL     1       0.531   2.124   0.798  0.00  0.00    +0.000 OA
ATOM      2  N   UNL     1       1.677  -3.060   0.637  0.00  0.00    +0.000 NA
ATOM      3  C   UNL     1       0.414  -1.242  -0.461  0.00  0.00    +0.000 C 
ATOM      4  C   UNL     1       0.814  -0.302   0.701  0.00  0.00    +0.000 C 
ATOM      5  C   UNL     1      -1.343   0.680  -0.100  0.00  0.00    +0.000 C 
ATOM      6  C   UNL     1      -0.179   0.849   0.916  0.00  0.00    +0.000 C 
ATOM      7  C   UNL     1      -0.970  -1.859  -0.116  0.00  0.00    +0.000 C 
ATOM      8  C   UNL     1      -1.995  -0.719   0.162  0.00  0.00    +0.000 C 
ATOM      9  C   UNL     1       1.605  -2.251  -0.602  0.00  0.00    +0.000 C 
ATOM     10  C   UNL     1       0.149  -0.449  -1.789  0.00  0.00    +0.000 C 
ATOM     11  C   UNL     1      -0.808   0.726  -1.541  0.00  0.00    +0.000 C 
ATOM     12  C   UNL     1       1.101  -1.068   2.010  0.00  0.00    +0.000 C 
ATOM     13  C   UNL     1       2.001   0.454   0.251  0.00  0.00    +0.000 A 
ATOM     14  C   UNL     1       2.969  -1.513  -0.938  0.00  0.00    +0.000 C 
ATOM     15  C   UNL     1       2.033  -2.273   1.821  0.00  0.00    +0.000 C 
ATOM     16  C   UNL     1       3.069  -0.082  -0.449  0.00  0.00    +0.000 A 
ATOM     17  C   UNL     1       1.806   1.807   0.401  0.00  0.00    +0.000 A 
ATOM     18  C   UNL     1       2.520  -4.244   0.508  0.00  0.00    +0.000 C 
ATOM     19  C   UNL     1       4.085   0.798  -0.820  0.00  0.00    +0.000 A 
ATOM     20  C   UNL     1       2.790   2.697   0.031  0.00  0.00    +0.000 A 
ATOM     21  C   UNL     1       3.954   2.177  -0.555  0.00  0.00    +0.000 A 
ENDROOT
BRANCH   5  22
ATOM     22  O   UNL     1      -2.295   1.714   0.102  0.00  0.00    +0.000 OA
ATOM     23  C   UNL     1      -1.726   2.998  -0.116  0.00  0.00    +0.000 C 
ENDBRANCH   5  22
BRANCH  20  24
ATOM     24  O   UNL     1       2.629   4.036   0.180  0.00  0.00    +0.000 OA
ATOM     25  H   UNL     1       1.759   4.196   0.584  0.00  0.00    +0.000 HD
ENDBRANCH  20  24
BRANCH   8  26
ATOM     26  C   UNL     1      -3.293  -0.952  -0.618  0.00  0.00    +0.000 C 
ATOM     27  C   UNL     1      -3.921  -2.285  -0.198  0.00  0.00    +0.000 C 
BRANCH  26  28
ATOM     28  O   UNL     1      -2.976  -1.034  -2.009  0.00  0.00    +0.000 OA
ATOM     29  H   UNL     1      -2.733  -1.946  -2.236  0.00  0.00    +0.000 HD
ENDBRANCH  26  28
BRANCH  26  30
ATOM     30  C   UNL     1      -4.312   0.187  -0.417  0.00  0.00    +0.000 C 
BRANCH  30  31
ATOM     31  C   UNL     1      -4.693   0.450   1.045  0.00  0.00    +0.000 C 
ATOM     32  C   UNL     1      -5.636   1.638   1.166  0.00  0.00    +0.000 C 
ENDBRANCH  30  31
ENDBRANCH  26  30
ENDBRANCH   8  26
TORSDOF 6
