REMARK  Name = 242493
REMARK  5 active torsions:
REMARK  status: ('A' for Active; 'I' for Inactive)
REMARK    1  A    between atoms: O_1  and  C_9
REMARK    2  A    between atoms: O_2  and  C_21
REMARK    3  A    between atoms: C_6  and  C_18
REMARK    4  A    between atoms: C_7  and  C_19
REMARK    5  A    between atoms: C_9  and  C_22
REMARK                            x       y       z     vdW  Elec       q    Type
REMARK                         _______ _______ _______ _____ _____    ______ ____
ROOT
ATOM      1  C   UNL     1      -0.383   0.830   0.341  0.00  0.00    +0.000 C 
ATOM      2  C   UNL     1      -1.800   0.755  -0.243  0.00  0.00    +0.000 C 
ATOM      3  C   UNL     1       0.419  -0.430  -0.120  0.00  0.00    +0.000 C 
ATOM      4  C   UNL     1      -2.572  -0.507   0.200  0.00  0.00    +0.000 C 
ATOM      5  C   UNL     1       1.906  -0.403   0.396  0.00  0.00    +0.000 C 
ATOM      6  C   UNL     1       2.548   0.930  -0.106  0.00  0.00    +0.000 C 
ATOM      7  C   UNL     1      -3.968  -0.230  -0.440  0.00  0.00    +0.000 C 
ATOM      8  C   UNL     1      -0.342  -1.747   0.185  0.00  0.00    +0.000 C 
ATOM      9  C   UNL     1      -1.800  -1.734  -0.314  0.00  0.00    +0.000 C 
ATOM     10  C   UNL     1       0.328   2.126  -0.076  0.00  0.00    +0.000 C 
ATOM     11  C   UNL     1      -2.772   1.891   0.059  0.00  0.00    +0.000 C 
ATOM     12  C   UNL     1       1.785   2.166   0.382  0.00  0.00    +0.000 C 
ATOM     13  C   UNL     1      -4.165   1.293  -0.215  0.00  0.00    +0.000 C 
ATOM     14  C   UNL     1       2.720  -1.578  -0.216  0.00  0.00    +0.000 C 
ATOM     15  C   UNL     1       4.048   1.033   0.221  0.00  0.00    +0.000 C 
ATOM     16  C   UNL     1      -2.728  -0.628   1.744  0.00  0.00    +0.000 C 
ATOM     17  C   UNL     1       1.953  -0.527   1.940  0.00  0.00    +0.000 C 
ATOM     18  C   UNL     1       4.226  -1.495   0.067  0.00  0.00    +0.000 C 
ATOM     19  C   UNL     1       4.831  -0.154  -0.342  0.00  0.00    +0.000 C 
ATOM     20  C   UNL     1      -4.089  -0.578  -1.929  0.00  0.00    +0.000 C 
ENDROOT
BRANCH   7  21
ATOM     21  O   UNL     1      -4.993  -0.957   0.233  0.00  0.00    +0.000 OA
ATOM     22  H   UNL     1      -5.851  -0.648  -0.105  0.00  0.00    +0.000 HD
ENDBRANCH   7  21
BRANCH  19  23
ATOM     23  O   UNL     1       4.846  -0.054  -1.766  0.00  0.00    +0.000 OA
ATOM     24  H   UNL     1       5.371  -0.798  -2.107  0.00  0.00    +0.000 HD
ENDBRANCH  19  23
TORSDOF 2
