REMARK  Name = 15818
REMARK  4 active torsions:
REMARK  status: ('A' for Active; 'I' for Inactive)
REMARK    1  A    between atoms: O_1  and  C_13
REMARK    2  A    between atoms: O_2  and  C_21
REMARK    3  A    between atoms: C_6  and  C_18
REMARK    4  A    between atoms: C_7  and  C_19
REMARK                            x       y       z     vdW  Elec       q    Type
REMARK                         _______ _______ _______ _____ _____    ______ ____
ROOT
ATOM      1  C   UNL     1       0.234  -0.438  -0.211  0.00  0.00    +0.000 C 
ATOM      2  C   UNL     1      -0.599   0.789   0.287  0.00  0.00    +0.000 C 
ATOM      3  C   UNL     1      -1.989   0.726  -0.356  0.00  0.00    +0.000 C 
ATOM      4  C   UNL     1       1.701  -0.422   0.362  0.00  0.00    +0.000 C 
ATOM      5  C   UNL     1      -2.755  -0.562   0.006  0.00  0.00    +0.000 C 
ATOM      6  C   UNL     1       2.344   0.943  -0.044  0.00  0.00    +0.000 C 
ATOM      7  C   UNL     1      -0.522  -1.778  -0.004  0.00  0.00    +0.000 C 
ATOM      8  C   UNL     1      -1.964  -1.757  -0.543  0.00  0.00    +0.000 C 
ATOM      9  C   UNL     1       0.110   2.112  -0.034  0.00  0.00    +0.000 C 
ATOM     10  C   UNL     1      -2.996   1.835  -0.064  0.00  0.00    +0.000 C 
ATOM     11  C   UNL     1      -4.080  -0.275  -0.728  0.00  0.00    +0.000 C 
ATOM     12  C   UNL     1       1.547   2.143   0.480  0.00  0.00    +0.000 C 
ATOM     13  C   UNL     1       2.552  -1.554  -0.281  0.00  0.00    +0.000 C 
ATOM     14  C   UNL     1      -4.354   1.216  -0.441  0.00  0.00    +0.000 C 
ATOM     15  C   UNL     1       3.829   1.044   0.345  0.00  0.00    +0.000 C 
ATOM     16  C   UNL     1       1.693  -0.629   1.898  0.00  0.00    +0.000 C 
ATOM     17  C   UNL     1      -3.000  -0.760   1.523  0.00  0.00    +0.000 C 
ATOM     18  C   UNL     1       4.045  -1.470   0.060  0.00  0.00    +0.000 C 
ATOM     19  C   UNL     1       4.647  -0.102  -0.254  0.00  0.00    +0.000 C 
ENDROOT
BRANCH  11  20
ATOM     20  O   UNL     1      -5.154  -1.105  -0.329  0.00  0.00    +0.000 OA
ATOM     21  H   UNL     1      -5.417  -0.860   0.573  0.00  0.00    +0.000 HD
ENDBRANCH  11  20
BRANCH  19  22
ATOM     22  O   UNL     1       4.713   0.044  -1.672  0.00  0.00    +0.000 OA
ATOM     23  H   UNL     1       5.119   0.907  -1.859  0.00  0.00    +0.000 HD
ENDBRANCH  19  22
TORSDOF 2
