REMARK  Name = 31401
REMARK  10 active torsions:
REMARK  status: ('A' for Active; 'I' for Inactive)
REMARK    1  A    between atoms: O_1  and  C_14
REMARK    2  A    between atoms: O_2  and  C_24
REMARK    3  A    between atoms: O_3  and  C_28
REMARK    4  A    between atoms: C_6  and  C_19
REMARK    5  A    between atoms: C_9  and  C_22
REMARK    6  A    between atoms: C_10  and  C_20
REMARK    7  A    between atoms: C_20  and  C_25
REMARK    8  A    between atoms: C_20  and  C_26
REMARK    9  A    between atoms: C_25  and  C_27
REMARK   10  A    between atoms: C_27  and  C_28
REMARK                            x       y       z     vdW  Elec       q    Type
REMARK                         _______ _______ _______ _____ _____    ______ ____
ROOT
ATOM      1  C   UNL     1      -0.062  -0.932   0.417  0.00  0.00    +0.000 C 
ATOM      2  C   UNL     1      -1.060   0.079  -0.194  0.00  0.00    +0.000 C 
ATOM      3  C   UNL     1       1.268  -1.010  -0.359  0.00  0.00    +0.000 C 
ATOM      4  C   UNL     1       1.922   0.415  -0.353  0.00  0.00    +0.000 C 
ATOM      5  C   UNL     1       3.318   0.437  -1.082  0.00  0.00    +0.000 C 
ATOM      6  C   UNL     1      -2.251  -0.123   0.774  0.00  0.00    +0.000 C 
ATOM      7  C   UNL     1       4.252  -0.643  -0.447  0.00  0.00    +0.000 C 
ATOM      8  C   UNL     1      -0.424   1.473  -0.132  0.00  0.00    +0.000 C 
ATOM      9  C   UNL     1       0.937   1.508  -0.846  0.00  0.00    +0.000 C 
ATOM     10  C   UNL     1       2.227  -2.065   0.225  0.00  0.00    +0.000 C 
ATOM     11  C   UNL     1      -0.911  -2.187   0.610  0.00  0.00    +0.000 C 
ATOM     12  C   UNL     1      -2.311  -1.654   0.966  0.00  0.00    +0.000 C 
ATOM     13  C   UNL     1       3.603  -2.032  -0.440  0.00  0.00    +0.000 C 
ATOM     14  C   UNL     1       4.027   1.819  -0.974  0.00  0.00    +0.000 C 
ATOM     15  C   UNL     1      -1.468  -0.242  -1.654  0.00  0.00    +0.000 C 
ATOM     16  C   UNL     1       4.726  -0.267   0.972  0.00  0.00    +0.000 C 
ATOM     17  C   UNL     1       3.155   0.153  -2.598  0.00  0.00    +0.000 C 
ATOM     18  C   UNL     1       4.463   2.181   0.441  0.00  0.00    +0.000 C 
ATOM     19  C   UNL     1       5.379   1.111   1.019  0.00  0.00    +0.000 C 
ENDROOT
BRANCH  10  20
ATOM     20  O   UNL     1       1.685  -3.370   0.025  0.00  0.00    +0.000 OA
ATOM     21  H   UNL     1       1.561  -3.501  -0.931  0.00  0.00    +0.000 HD
ENDBRANCH  10  20
BRANCH  19  22
ATOM     22  O   UNL     1       5.681   1.453   2.368  0.00  0.00    +0.000 OA
ATOM     23  H   UNL     1       4.848   1.466   2.869  0.00  0.00    +0.000 HD
ENDBRANCH  19  22
BRANCH   6  24
ATOM     24  C   UNL     1      -3.586   0.473   0.349  0.00  0.00    +0.000 C 
ATOM     25  C   UNL     1      -3.439   1.981   0.122  0.00  0.00    +0.000 C 
BRANCH  24  26
ATOM     26  C   UNL     1      -4.671   0.148   1.396  0.00  0.00    +0.000 C 
BRANCH  26  27
ATOM     27  C   UNL     1      -6.033   0.771   1.084  0.00  0.00    +0.000 C 
BRANCH  27  29
ATOM     28  O   UNL     1      -6.428  -0.884  -0.658  0.00  0.00    +0.000 OA
ATOM     29  C   UNL     1      -6.615   0.236  -0.205  0.00  0.00    +0.000 C 
BRANCH  29  30
ATOM     30  O   UNL     1      -7.384   1.168  -0.826  0.00  0.00    +0.000 OA
ATOM     31  H   UNL     1      -7.762   0.830  -1.666  0.00  0.00    +0.000 HD
ENDBRANCH  29  30
ENDBRANCH  27  29
ENDBRANCH  26  27
ENDBRANCH  24  26
ENDBRANCH   6  24
TORSDOF 7
