REMARK  Name = 5881
REMARK  3 active torsions:
REMARK  status: ('A' for Active; 'I' for Inactive)
REMARK    1  A    between atoms: O_2  and  C_21
REMARK    2  A    between atoms: C_6  and  C_17
REMARK    3  A    between atoms: C_7  and  C_18
REMARK                            x       y       z     vdW  Elec       q    Type
REMARK                         _______ _______ _______ _____ _____    ______ ____
ROOT
ATOM      1  O   UNL     1       5.046   1.039  -0.660  0.00  0.00    +0.000 OA
ATOM      2  C   UNL     1      -0.148   0.449  -0.287  0.00  0.00    +0.000 C 
ATOM      3  C   UNL     1       0.642  -0.778   0.260  0.00  0.00    +0.000 C 
ATOM      4  C   UNL     1       2.078  -0.723  -0.266  0.00  0.00    +0.000 C 
ATOM      5  C   UNL     1       2.804   0.568   0.159  0.00  0.00    +0.000 C 
ATOM      6  C   UNL     1      -1.632   0.470   0.257  0.00  0.00    +0.000 C 
ATOM      7  C   UNL     1       0.616   1.792  -0.107  0.00  0.00    +0.000 C 
ATOM      8  C   UNL     1       2.097   1.736  -0.521  0.00  0.00    +0.000 C 
ATOM      9  C   UNL     1       3.055  -1.838   0.090  0.00  0.00    +0.000 C 
ATOM     10  C   UNL     1      -0.049  -2.082  -0.163  0.00  0.00    +0.000 C 
ATOM     11  C   UNL     1      -2.260  -0.929   0.179  0.00  0.00    +0.000 C 
ATOM     12  C   UNL     1      -2.461   1.452  -0.623  0.00  0.00    +0.000 C 
ATOM     13  C   UNL     1       4.189   0.220  -0.355  0.00  0.00    +0.000 C 
ATOM     14  C   UNL     1       4.397  -1.285  -0.412  0.00  0.00    +0.000 C 
ATOM     15  C   UNL     1      -1.537  -2.044  -0.022  0.00  0.00    +0.000 C 
ATOM     16  C   UNL     1       2.939   0.793   1.676  0.00  0.00    +0.000 C 
ATOM     17  C   UNL     1      -1.684   0.935   1.732  0.00  0.00    +0.000 C 
ATOM     18  C   UNL     1      -3.760  -1.021   0.333  0.00  0.00    +0.000 C 
ATOM     19  C   UNL     1      -3.970   1.379  -0.399  0.00  0.00    +0.000 C 
ATOM     20  C   UNL     1      -4.487  -0.044  -0.587  0.00  0.00    +0.000 C 
ENDROOT
BRANCH  20  21
ATOM     21  O   UNL     1      -5.878  -0.088  -0.286  0.00  0.00    +0.000 OA
ATOM     22  H   UNL     1      -6.182  -1.000  -0.433  0.00  0.00    +0.000 HD
ENDBRANCH  20  21
TORSDOF 1
