REMARK  Name = 
REMARK  23 active torsions:
REMARK  status: ('A' for Active; 'I' for Inactive)
REMARK    1  A    between atoms: C_9  and  C_10
REMARK    2  A    between atoms: C_9  and  C_13
REMARK    3  A    between atoms: C_10  and  O_12
REMARK    4  A    between atoms: C_13  and  O_15
REMARK    5  A    between atoms: C_17  and  O_18
REMARK    6  A    between atoms: O_18  and  C_19
REMARK    7  A    between atoms: C_21  and  C_22
REMARK    8  A    between atoms: C_22  and  O_23
REMARK    9  A    between atoms: O_23  and  O_24
REMARK   10  A    between atoms: C_25  and  O_26
REMARK   11  A    between atoms: O_26  and  S_27
REMARK   12  A    between atoms: S_27  and  O_30
REMARK   13  A    between atoms: C_31  and  O_32
REMARK   14  A    between atoms: O_32  and  S_33
REMARK   15  A    between atoms: S_33  and  O_36
REMARK   16  A    between atoms: C_37  and  O_38
REMARK   17  A    between atoms: O_38  and  C_39
REMARK   18  A    between atoms: C_39  and  C_41
REMARK   19  A    between atoms: C_41  and  C_42
REMARK   20  A    between atoms: C_42  and  C_43
REMARK   21  A    between atoms: C_42  and  C_44
REMARK   22  A    between atoms: C_46  and  C_47
REMARK   23  A    between atoms: C_51  and  O_52
REMARK                            x       y       z     vdW  Elec       q    Type
REMARK                         _______ _______ _______ _____ _____    ______ ____
ROOT
ATOM      1  O   UNL     1      -0.632   0.074  -1.627  0.00  0.00    +0.000 OA
ENDROOT
BRANCH   1  12
ATOM      2  C   UNL     1       8.610  -0.316  -0.849  0.00  0.00    +0.000 C 
ATOM      3  C   UNL     1       7.433  -0.782  -0.690  0.00  0.00    +0.000 C 
ATOM      4  C   UNL     1       6.846  -1.898  -1.677  0.00  0.00    +0.000 C 
ATOM      5  C   UNL     1       5.673  -2.247  -0.610  0.00  0.00    +0.000 C 
ATOM      6  C   UNL     1       5.086  -1.008  -0.188  0.00  0.00    +0.000 C 
ATOM      7  C   UNL     1       4.676  -1.137   1.147  0.00  0.00    +0.000 C 
ATOM      8  C   UNL     1       3.850   0.110   1.434  0.00  0.00    +0.000 C 
ATOM      9  C   UNL     1       2.592  -0.462   0.573  0.00  0.00    +0.000 C 
ATOM     10  C   UNL     1       1.598   0.704   1.132  0.00  0.00    +0.000 C 
ATOM     11  C   UNL     1       0.696   0.373   0.220  0.00  0.00    +0.000 C 
ATOM     12  C   UNL     1       0.571   1.005  -1.263  0.00  0.00    +0.000 C 
ATOM     13  C   UNL     1       1.834   0.077  -1.777  0.00  0.00    +0.000 C 
ATOM     14  C   UNL     1       2.997   0.294  -0.808  0.00  0.00    +0.000 C 
ATOM     15  C   UNL     1       3.784   1.416  -0.732  0.00  0.00    +0.000 C 
ATOM     16  C   UNL     1       3.906  -0.993  -1.308  0.00  0.00    +0.000 C 
ATOM     17  C   UNL     1       4.882  -0.232  -2.373  0.00  0.00    +0.000 C 
ATOM     18  C   UNL     1       6.062  -0.860  -2.635  0.00  0.00    +0.000 C 
ATOM     19  C   UNL     1       6.140   0.179  -0.501  0.00  0.00    +0.000 C 
BRANCH  10  20
ATOM     20  C   UNL     1       2.281   1.939   1.364  0.00  0.00    +0.000 C 
ATOM     21  O   UNL     1       1.679   2.989   0.979  0.00  0.00    +0.000 OA
BRANCH  20  22
ATOM     22  O   UNL     1       2.892   2.108   2.612  0.00  0.00    +0.000 OA
ATOM     23  H   UNL     1       3.367   1.401   3.001  0.00  0.00    +0.000 HD
ENDBRANCH  20  22
ENDBRANCH  10  20
BRANCH  10  24
ATOM     24  C   UNL     1       1.083   0.070   2.403  0.00  0.00    +0.000 C 
ATOM     25  O   UNL     1       0.161   0.705   2.987  0.00  0.00    +0.000 OA
BRANCH  24  26
ATOM     26  O   UNL     1       1.944  -0.670   3.142  0.00  0.00    +0.000 OA
ATOM     27  H   UNL     1       2.633  -1.146   2.721  0.00  0.00    +0.000 HD
ENDBRANCH  24  26
ENDBRANCH  10  24
BRANCH  19  28
ATOM     28  O   UNL     1       6.499   0.380   0.968  0.00  0.00    +0.000 OA
ATOM     29  H   UNL     1       6.685  -0.479   1.377  0.00  0.00    +0.000 HD
ENDBRANCH  19  28
ENDBRANCH   1  12
BRANCH   1  30
ATOM     30  C   UNL     1      -1.067   0.203  -0.151  0.00  0.00    +0.000 C 
ATOM     31  O   UNL     1      -1.390   1.715  -0.342  0.00  0.00    +0.000 OA
ATOM     32  C   UNL     1      -2.772   1.540   0.234  0.00  0.00    +0.000 C 
ATOM     33  C   UNL     1      -3.383   1.745  -1.359  0.00  0.00    +0.000 C 
ATOM     34  C   UNL     1      -3.026   0.110  -1.821  0.00  0.00    +0.000 C 
ATOM     35  C   UNL     1      -2.721  -0.289  -0.198  0.00  0.00    +0.000 C 
BRANCH  32  36
ATOM     36  C   UNL     1      -2.954   3.076   0.733  0.00  0.00    +0.000 C 
BRANCH  36  37
ATOM     37  O   UNL     1      -2.917   2.741   2.112  0.00  0.00    +0.000 OA
BRANCH  37  38
ATOM     38  O   UNL     1      -1.681   2.882   2.550  0.00  0.00    +0.000 OA
ATOM     39  H   UNL     1      -1.643   2.656   3.492  0.00  0.00    +0.000 HD
ENDBRANCH  37  38
ENDBRANCH  36  37
ENDBRANCH  32  36
BRANCH  33  40
ATOM     40  O   UNL     1      -4.708   1.439  -0.817  0.00  0.00    +0.000 OA
BRANCH  40  41
ATOM     41  S   UNL     1      -5.739   2.508  -0.472  0.00  0.00    +0.000 S 
ATOM     42  O   UNL     1      -5.944   3.713  -1.383  0.00  0.00    +0.000 OA
ATOM     43  O   UNL     1      -7.009   1.660  -0.642  0.00  0.00    +0.000 OA
BRANCH  41  44
ATOM     44  O   UNL     1      -5.930   3.009   1.137  0.00  0.00    +0.000 OA
ATOM     45  H   UNL     1      -5.181   3.570   1.392  0.00  0.00    +0.000 HD
ENDBRANCH  41  44
ENDBRANCH  40  41
ENDBRANCH  33  40
BRANCH  34  46
ATOM     46  O   UNL     1      -4.375  -0.433  -1.740  0.00  0.00    +0.000 OA
BRANCH  46  47
ATOM     47  S   UNL     1      -5.310  -1.462  -1.374  0.00  0.00    +0.000 S 
ATOM     48  O   UNL     1      -5.733  -1.548   0.095  0.00  0.00    +0.000 OA
ATOM     49  O   UNL     1      -6.658  -1.023  -1.992  0.00  0.00    +0.000 OA
BRANCH  47  50
ATOM     50  O   UNL     1      -5.276  -3.095  -1.850  0.00  0.00    +0.000 OA
ATOM     51  H   UNL     1      -4.462  -3.511  -1.523  0.00  0.00    +0.000 HD
ENDBRANCH  47  50
ENDBRANCH  46  47
ENDBRANCH  34  46
BRANCH  35  52
ATOM     52  O   UNL     1      -2.528  -1.746  -0.268  0.00  0.00    +0.000 OA
BRANCH  52  53
ATOM     53  C   UNL     1      -1.837  -2.688  -0.608  0.00  0.00    +0.000 C 
ATOM     54  O   UNL     1      -1.885  -2.596  -1.822  0.00  0.00    +0.000 OA
BRANCH  53  55
ATOM     55  C   UNL     1      -1.972  -3.848   0.292  0.00  0.00    +0.000 C 
BRANCH  55  56
ATOM     56  C   UNL     1      -1.901  -3.524   1.756  0.00  0.00    +0.000 C 
ATOM     57  C   UNL     1      -3.163  -3.627   2.530  0.00  0.00    +0.000 C 
ATOM     58  C   UNL     1      -1.262  -2.280   2.120  0.00  0.00    +0.000 C 
ENDBRANCH  55  56
ENDBRANCH  53  55
ENDBRANCH  52  53
ENDBRANCH  35  52
ENDBRANCH   1  30
TORSDOF 20
