REMARK  Name = 3000226
REMARK  16 active torsions:
REMARK  status: ('A' for Active; 'I' for Inactive)
REMARK    1  A    between atoms: O_1  and  C_14
REMARK    2  A    between atoms: O_2  and  C_22
REMARK    3  A    between atoms: O_2  and  C_31
REMARK    4  A    between atoms: O_3  and  C_26
REMARK    5  A    between atoms: O_4  and  C_30
REMARK    6  A    between atoms: C_7  and  C_20
REMARK    7  A    between atoms: C_9  and  C_23
REMARK    8  A    between atoms: C_10  and  C_24
REMARK    9  A    between atoms: C_19  and  C_27
REMARK   10  A    between atoms: C_28  and  C_29
REMARK   11  A    between atoms: C_28  and  C_30
REMARK   12  A    between atoms: C_29  and  C_32
REMARK   13  A    between atoms: C_31  and  C_33
REMARK   14  A    between atoms: C_32  and  C_34
REMARK   15  A    between atoms: C_35  and  C_36
REMARK   16  A    between atoms: C_35  and  C_37
REMARK                            x       y       z     vdW  Elec       q    Type
REMARK                         _______ _______ _______ _____ _____    ______ ____
ROOT
ATOM      1  C   UNL     1      -1.725  -0.901  -0.101  0.00  0.00    +0.000 C 
ATOM      2  C   UNL     1      -2.008   0.525   0.527  0.00  0.00    +0.000 C 
ATOM      3  C   UNL     1      -0.184  -1.260   0.140  0.00  0.00    +0.000 C 
ATOM      4  C   UNL     1      -3.559   0.912   0.685  0.00  0.00    +0.000 C 
ATOM      5  C   UNL     1      -4.517  -0.186   0.109  0.00  0.00    +0.000 C 
ATOM      6  C   UNL     1       0.703  -0.138  -0.472  0.00  0.00    +0.000 C 
ATOM      7  C   UNL     1      -2.650  -1.900   0.647  0.00  0.00    +0.000 C 
ATOM      8  C   UNL     1      -1.034   1.627   0.020  0.00  0.00    +0.000 C 
ATOM      9  C   UNL     1      -4.152  -1.606   0.562  0.00  0.00    +0.000 C 
ATOM     10  C   UNL     1       0.449   1.220   0.181  0.00  0.00    +0.000 C 
ATOM     11  C   UNL     1       0.366  -2.502  -0.617  0.00  0.00    +0.000 C 
ATOM     12  C   UNL     1      -3.936   2.259   0.009  0.00  0.00    +0.000 C 
ATOM     13  C   UNL     1      -6.026   0.157   0.309  0.00  0.00    +0.000 C 
ATOM     14  C   UNL     1      -2.055  -0.949  -1.624  0.00  0.00    +0.000 C 
ATOM     15  C   UNL     1       2.067  -0.776  -0.483  0.00  0.00    +0.000 C 
ATOM     16  C   UNL     1       1.889  -2.260  -0.736  0.00  0.00    +0.000 C 
ATOM     17  C   UNL     1       0.137  -1.487   1.658  0.00  0.00    +0.000 C 
ATOM     18  C   UNL     1      -3.793   1.071   2.222  0.00  0.00    +0.000 C 
ATOM     19  C   UNL     1      -5.417   2.634   0.150  0.00  0.00    +0.000 C 
ATOM     20  C   UNL     1      -6.355   1.526  -0.325  0.00  0.00    +0.000 C 
ATOM     21  C   UNL     1      -6.953  -0.924  -0.270  0.00  0.00    +0.000 C 
ATOM     22  C   UNL     1       3.236  -0.171  -0.241  0.00  0.00    +0.000 C 
ENDROOT
BRANCH   8  23
ATOM     23  O   UNL     1      -1.281   1.928  -1.349  0.00  0.00    +0.000 OA
ATOM     24  H   UNL     1      -0.695   2.661  -1.602  0.00  0.00    +0.000 HD
ENDBRANCH   8  23
BRANCH  20  25
ATOM     25  O   UNL     1      -6.267   1.429  -1.748  0.00  0.00    +0.000 OA
ATOM     26  H   UNL     1      -5.342   1.304  -2.010  0.00  0.00    +0.000 HD
ENDBRANCH  20  25
BRANCH  22  28
ATOM     27  O   UNL     1       5.011  -1.488   0.687  0.00  0.00    +0.000 OA
ATOM     28  C   UNL     1       4.517  -0.928  -0.281  0.00  0.00    +0.000 C 
BRANCH  28  29
ATOM     29  O   UNL     1       5.093  -0.905  -1.505  0.00  0.00    +0.000 OA
ATOM     30  H   UNL     1       5.942  -1.396  -1.520  0.00  0.00    +0.000 HD
ENDBRANCH  28  29
ENDBRANCH  22  28
BRANCH  16  31
ATOM     31  O   UNL     1       2.598  -3.026   0.226  0.00  0.00    +0.000 OA
BRANCH  31  33
ATOM     32  O   UNL     1       1.877  -4.982  -0.770  0.00  0.00    +0.000 OA
ATOM     33  C   UNL     1       2.507  -4.385   0.092  0.00  0.00    +0.000 C 
ATOM     34  C   UNL     1       3.301  -5.059   1.170  0.00  0.00    +0.000 C 
ENDBRANCH  31  33
ENDBRANCH  16  31
BRANCH  22  35
ATOM     35  C   UNL     1       3.316   1.291   0.137  0.00  0.00    +0.000 C 
BRANCH  35  36
ATOM     36  C   UNL     1       4.741   1.770   0.445  0.00  0.00    +0.000 C 
BRANCH  36  37
ATOM     37  C   UNL     1       4.783   3.203   0.902  0.00  0.00    +0.000 C 
ATOM     38  C   UNL     1       5.019   4.302   0.161  0.00  0.00    +0.000 C 
ATOM     39  C   UNL     1       5.038   5.664   0.803  0.00  0.00    +0.000 C 
ATOM     40  C   UNL     1       5.265   4.314  -1.322  0.00  0.00    +0.000 C 
ENDBRANCH  36  37
ENDBRANCH  35  36
ENDBRANCH  22  35
TORSDOF 9
