REMARK  Name = 5880
REMARK  3 active torsions:
REMARK  status: ('A' for Active; 'I' for Inactive)
REMARK    1  A    between atoms: O_1  and  C_20
REMARK    2  A    between atoms: C_4  and  C_16
REMARK    3  A    between atoms: C_8  and  C_21
REMARK                            x       y       z     vdW  Elec       q    Type
REMARK                         _______ _______ _______ _____ _____    ______ ____
ROOT
ATOM      1  O   UNL     1       4.589  -1.207   1.122  0.00  0.00    +0.000 OA
ATOM      2  C   UNL     1      -0.395  -0.423  -0.250  0.00  0.00    +0.000 C 
ATOM      3  C   UNL     1      -1.762  -0.332  -1.026  0.00  0.00    +0.000 C 
ATOM      4  C   UNL     1       0.500   0.838  -0.494  0.00  0.00    +0.000 C 
ATOM      5  C   UNL     1       1.784   0.681   0.327  0.00  0.00    +0.000 C 
ATOM      6  C   UNL     1      -2.487   1.004  -0.649  0.00  0.00    +0.000 C 
ATOM      7  C   UNL     1       2.588  -0.563  -0.102  0.00  0.00    +0.000 C 
ATOM      8  C   UNL     1       0.388  -1.746  -0.481  0.00  0.00    +0.000 C 
ATOM      9  C   UNL     1      -0.246   2.128  -0.135  0.00  0.00    +0.000 C 
ATOM     10  C   UNL     1       1.753  -1.795   0.231  0.00  0.00    +0.000 C 
ATOM     11  C   UNL     1      -1.588   2.235  -0.854  0.00  0.00    +0.000 C 
ATOM     12  C   UNL     1      -2.711  -1.522  -0.698  0.00  0.00    +0.000 C 
ATOM     13  C   UNL     1       2.816   1.803   0.350  0.00  0.00    +0.000 C 
ATOM     14  C   UNL     1      -3.051   0.992   0.788  0.00  0.00    +0.000 C 
ATOM     15  C   UNL     1      -1.535  -0.376  -2.560  0.00  0.00    +0.000 C 
ATOM     16  C   UNL     1       3.823  -0.329   0.748  0.00  0.00    +0.000 C 
ATOM     17  C   UNL     1      -3.233  -1.521   0.734  0.00  0.00    +0.000 C 
ATOM     18  C   UNL     1       4.014   1.148   1.053  0.00  0.00    +0.000 C 
ATOM     19  C   UNL     1      -3.948  -0.214   1.050  0.00  0.00    +0.000 C 
ATOM     20  C   UNL     1       3.062  -0.587  -1.567  0.00  0.00    +0.000 C 
ENDROOT
BRANCH  19  21
ATOM     21  O   UNL     1      -4.362  -0.214   2.412  0.00  0.00    +0.000 OA
ATOM     22  H   UNL     1      -3.567  -0.290   2.968  0.00  0.00    +0.000 HD
ENDBRANCH  19  21
TORSDOF 1
