REMARK  Name = 222528
REMARK  10 active torsions:
REMARK  status: ('A' for Active; 'I' for Inactive)
REMARK    1  A    between atoms: O_1  and  C_11
REMARK    2  A    between atoms: O_2  and  C_24
REMARK    3  A    between atoms: O_3  and  C_28
REMARK    4  A    between atoms: C_5  and  C_19
REMARK    5  A    between atoms: C_9  and  C_22
REMARK    6  A    between atoms: C_10  and  C_20
REMARK    7  A    between atoms: C_20  and  C_25
REMARK    8  A    between atoms: C_20  and  C_26
REMARK    9  A    between atoms: C_25  and  C_27
REMARK   10  A    between atoms: C_27  and  C_28
REMARK                            x       y       z     vdW  Elec       q    Type
REMARK                         _______ _______ _______ _____ _____    ______ ____
ROOT
ATOM      1  C   UNL     1      -0.996   0.084   0.209  0.00  0.00    +0.000 C 
ATOM      2  C   UNL     1      -0.014   1.033  -0.517  0.00  0.00    +0.000 C 
ATOM      3  C   UNL     1       1.308   1.219   0.239  0.00  0.00    +0.000 C 
ATOM      4  C   UNL     1       1.996  -0.175   0.408  0.00  0.00    +0.000 C 
ATOM      5  C   UNL     1       3.388  -0.059   1.139  0.00  0.00    +0.000 C 
ATOM      6  C   UNL     1      -2.196   0.191  -0.769  0.00  0.00    +0.000 C 
ATOM      7  C   UNL     1      -0.338  -1.306   0.325  0.00  0.00    +0.000 C 
ATOM      8  C   UNL     1       1.030  -1.220   1.035  0.00  0.00    +0.000 C 
ATOM      9  C   UNL     1       4.291   0.971   0.381  0.00  0.00    +0.000 C 
ATOM     10  C   UNL     1      -0.862   2.265  -0.826  0.00  0.00    +0.000 C 
ATOM     11  C   UNL     1       2.228   2.211  -0.484  0.00  0.00    +0.000 C 
ATOM     12  C   UNL     1      -2.266   1.699  -1.103  0.00  0.00    +0.000 C 
ATOM     13  C   UNL     1       3.593   2.327   0.187  0.00  0.00    +0.000 C 
ATOM     14  C   UNL     1       4.141  -1.420   1.204  0.00  0.00    +0.000 C 
ATOM     15  C   UNL     1      -1.399   0.572   1.627  0.00  0.00    +0.000 C 
ATOM     16  C   UNL     1       4.797   0.435  -0.976  0.00  0.00    +0.000 C 
ATOM     17  C   UNL     1       3.208   0.401   2.609  0.00  0.00    +0.000 C 
ATOM     18  C   UNL     1       4.607  -1.936  -0.151  0.00  0.00    +0.000 C 
ATOM     19  C   UNL     1       5.497  -0.913  -0.845  0.00  0.00    +0.000 C 
ENDROOT
BRANCH   7  20
ATOM     20  O   UNL     1      -0.144  -1.877  -0.969  0.00  0.00    +0.000 OA
ATOM     21  H   UNL     1       0.261  -2.753  -0.848  0.00  0.00    +0.000 HD
ENDBRANCH   7  20
BRANCH  19  22
ATOM     22  O   UNL     1       5.835  -1.379  -2.147  0.00  0.00    +0.000 OA
ATOM     23  H   UNL     1       6.285  -2.235  -2.045  0.00  0.00    +0.000 HD
ENDBRANCH  19  22
BRANCH   6  24
ATOM     24  C   UNL     1      -3.523  -0.369  -0.276  0.00  0.00    +0.000 C 
ATOM     25  C   UNL     1      -3.365  -1.849   0.089  0.00  0.00    +0.000 C 
BRANCH  24  26
ATOM     26  C   UNL     1      -4.620  -0.149  -1.338  0.00  0.00    +0.000 C 
BRANCH  26  27
ATOM     27  C   UNL     1      -5.976  -0.747  -0.957  0.00  0.00    +0.000 C 
BRANCH  27  29
ATOM     28  O   UNL     1      -6.365   1.062   0.627  0.00  0.00    +0.000 OA
ATOM     29  C   UNL     1      -6.549  -0.097   0.283  0.00  0.00    +0.000 C 
BRANCH  29  30
ATOM     30  O   UNL     1      -7.306  -0.972   0.996  0.00  0.00    +0.000 OA
ATOM     31  H   UNL     1      -7.678  -0.558   1.804  0.00  0.00    +0.000 HD
ENDBRANCH  29  30
ENDBRANCH  27  29
ENDBRANCH  26  27
ENDBRANCH  24  26
ENDBRANCH   6  24
TORSDOF 7
