REMARK  Name = 16394575
REMARK  11 active torsions:
REMARK  status: ('A' for Active; 'I' for Inactive)
REMARK    1  A    between atoms: O_3  and  C_27
REMARK    2  A    between atoms: O_3  and  C_32
REMARK    3  A    between atoms: C_5  and  C_17
REMARK    4  A    between atoms: C_13  and  C_21
REMARK    5  A    between atoms: C_15  and  C_24
REMARK    6  A    between atoms: C_29  and  C_31
REMARK    7  A    between atoms: C_32  and  C_33
REMARK    8  A    between atoms: C_33  and  C_34
REMARK    9  A    between atoms: C_34  and  C_35
REMARK   10  A    between atoms: C_35  and  C_36
REMARK   11  A    between atoms: C_36  and  C_37
REMARK                            x       y       z     vdW  Elec       q    Type
REMARK                         _______ _______ _______ _____ _____    ______ ____
ROOT
ATOM      1  O   UNL     1      -5.548  -0.938  -0.325  0.00  0.00    +0.000 OA
ATOM      2  O   UNL     1      -6.955  -0.058   1.397  0.00  0.00    +0.000 OA
ATOM      3  C   UNL     1      -2.740   0.966  -0.056  0.00  0.00    +0.000 C 
ATOM      4  C   UNL     1      -2.036  -0.402   0.105  0.00  0.00    +0.000 C 
ATOM      5  C   UNL     1      -4.087   0.669   0.668  0.00  0.00    +0.000 C 
ATOM      6  C   UNL     1      -0.661  -0.465  -0.566  0.00  0.00    +0.000 C 
ATOM      7  C   UNL     1      -4.338  -0.834   0.417  0.00  0.00    +0.000 C 
ATOM      8  C   UNL     1       0.253   0.647   0.027  0.00  0.00    +0.000 C 
ATOM      9  C   UNL     1      -3.116  -1.394  -0.313  0.00  0.00    +0.000 C 
ATOM     10  C   UNL     1      -1.863   2.010   0.652  0.00  0.00    +0.000 C 
ATOM     11  C   UNL     1      -5.376   1.341   0.181  0.00  0.00    +0.000 C 
ATOM     12  C   UNL     1      -0.437   2.039   0.073  0.00  0.00    +0.000 C 
ATOM     13  C   UNL     1       1.676   0.653  -0.663  0.00  0.00    +0.000 C 
ATOM     14  C   UNL     1      -6.374   0.168   0.104  0.00  0.00    +0.000 C 
ATOM     15  C   UNL     1      -2.937   1.376  -1.537  0.00  0.00    +0.000 C 
ATOM     16  C   UNL     1      -0.016  -1.844  -0.359  0.00  0.00    +0.000 C 
ATOM     17  C   UNL     1       2.218  -0.776  -0.806  0.00  0.00    +0.000 C 
ATOM     18  C   UNL     1       2.648   1.481   0.231  0.00  0.00    +0.000 C 
ATOM     19  C   UNL     1      -5.798   2.504   1.071  0.00  0.00    +0.000 C 
ATOM     20  C   UNL     1      -7.474   0.420  -0.934  0.00  0.00    +0.000 C 
ATOM     21  C   UNL     1       1.450  -1.868  -0.652  0.00  0.00    +0.000 C 
ATOM     22  C   UNL     1       1.614   1.285  -2.074  0.00  0.00    +0.000 C 
ATOM     23  C   UNL     1       3.687  -0.927  -1.127  0.00  0.00    +0.000 C 
ATOM     24  C   UNL     1       4.121   1.355  -0.157  0.00  0.00    +0.000 C 
ATOM     25  C   UNL     1       4.562  -0.105  -0.185  0.00  0.00    +0.000 C 
ATOM     26  C   UNL     1      -8.501  -0.711  -0.940  0.00  0.00    +0.000 C 
ATOM     27  C   UNL     1      -9.025  -0.962   0.476  0.00  0.00    +0.000 C 
ATOM     28  C   UNL     1      -7.852  -1.167   1.435  0.00  0.00    +0.000 C 
ATOM     29  C   UNL     1      -9.977  -2.152   0.508  0.00  0.00    +0.000 C 
ENDROOT
BRANCH  25  30
ATOM     30  O   UNL     1       5.911  -0.185  -0.634  0.00  0.00    +0.000 OA
BRANCH  30  32
ATOM     31  O   UNL     1       6.656   0.008   1.540  0.00  0.00    +0.000 OA
ATOM     32  C   UNL     1       6.869  -0.116   0.342  0.00  0.00    +0.000 C 
BRANCH  32  33
ATOM     33  C   UNL     1       8.236  -0.249  -0.291  0.00  0.00    +0.000 C 
BRANCH  33  34
ATOM     34  C   UNL     1       9.373  -0.276   0.731  0.00  0.00    +0.000 C 
BRANCH  34  35
ATOM     35  C   UNL     1      10.749  -0.402   0.071  0.00  0.00    +0.000 C 
BRANCH  35  36
ATOM     36  C   UNL     1      11.861  -0.460   1.119  0.00  0.00    +0.000 C 
ATOM     37  C   UNL     1      13.227  -0.631   0.473  0.00  0.00    +0.000 C 
ENDBRANCH  35  36
ENDBRANCH  34  35
ENDBRANCH  33  34
ENDBRANCH  32  33
ENDBRANCH  30  32
ENDBRANCH  25  30
TORSDOF 6
