REMARK  Name = 9867361
REMARK  5 active torsions:
REMARK  status: ('A' for Active; 'I' for Inactive)
REMARK    1  A    between atoms: O_1  and  C_8
REMARK    2  A    between atoms: C_5  and  C_15
REMARK    3  A    between atoms: C_8  and  C_20
REMARK    4  A    between atoms: C_11  and  C_18
REMARK    5  A    between atoms: C_27  and  C_31
REMARK                            x       y       z     vdW  Elec       q    Type
REMARK                         _______ _______ _______ _____ _____    ______ ____
ROOT
ATOM      1  O   UNL     1      -0.518  -6.277  -0.859  0.00  0.00    +0.000 OA
ATOM      2  C   UNL     1       1.667   1.617   0.277  0.00  0.00    +0.000 C 
ATOM      3  C   UNL     1       2.048   0.346   1.062  0.00  0.00    +0.000 C 
ATOM      4  C   UNL     1       0.843  -0.529   1.420  0.00  0.00    +0.000 C 
ATOM      5  C   UNL     1       3.062   2.320   0.184  0.00  0.00    +0.000 C 
ATOM      6  C   UNL     1       1.033   1.169  -1.053  0.00  0.00    +0.000 C 
ATOM      7  C   UNL     1       2.921   0.878   2.198  0.00  0.00    +0.000 C 
ATOM      8  C   UNL     1      -0.151   0.162  -0.905  0.00  0.00    +0.000 C 
ATOM      9  C   UNL     1       3.663   2.089   1.596  0.00  0.00    +0.000 C 
ATOM     10  C   UNL     1       0.093  -0.950   0.138  0.00  0.00    +0.000 C 
ATOM     11  C   UNL     1       1.294  -1.720   2.286  0.00  0.00    +0.000 C 
ATOM     12  C   UNL     1       0.673   2.545   1.028  0.00  0.00    +0.000 C 
ATOM     13  C   UNL     1      -0.338  -2.228  -0.035  0.00  0.00    +0.000 C 
ATOM     14  C   UNL     1       0.196  -2.767   2.376  0.00  0.00    +0.000 C 
ATOM     15  C   UNL     1      -0.130  -3.257   0.992  0.00  0.00    +0.000 C 
ATOM     16  C   UNL     1      -1.135  -2.737  -1.220  0.00  0.00    +0.000 C 
ATOM     17  C   UNL     1      -0.212  -4.574   0.736  0.00  0.00    +0.000 C 
ATOM     18  C   UNL     1      -0.571  -4.050  -1.748  0.00  0.00    +0.000 C 
ATOM     19  C   UNL     1      -0.463  -5.068  -0.640  0.00  0.00    +0.000 C 
ENDROOT
BRANCH   8  22
ATOM     20  O   UNL     1      -4.121   1.858   1.551  0.00  0.00    +0.000 OA
ATOM     21  O   UNL     1      -5.191   2.631  -0.466  0.00  0.00    +0.000 OA
ATOM     22  C   UNL     1      -1.522   0.838  -0.823  0.00  0.00    +0.000 A 
ATOM     23  C   UNL     1      -2.136   1.000   0.418  0.00  0.00    +0.000 A 
ATOM     24  C   UNL     1      -2.142   1.286  -2.000  0.00  0.00    +0.000 A 
ATOM     25  C   UNL     1      -3.371   1.615   0.441  0.00  0.00    +0.000 A 
ATOM     26  C   UNL     1      -3.393   1.906  -1.948  0.00  0.00    +0.000 A 
ATOM     27  C   UNL     1      -3.982   2.056  -0.710  0.00  0.00    +0.000 A 
ATOM     28  C   UNL     1      -5.273   2.503   0.968  0.00  0.00    +0.000 C 
ENDBRANCH   8  22
BRANCH   5  29
ATOM     29  C   UNL     1       3.955   1.727  -0.832  0.00  0.00    +0.000 C 
ATOM     30  C   UNL     1       4.681   1.246  -1.658  0.00  0.00    +0.000 C 
ATOM     31  C   UNL     1       5.566   0.660  -2.664  0.00  0.00    +0.000 C 
ENDBRANCH   5  29
BRANCH   5  32
ATOM     32  O   UNL     1       2.957   3.705  -0.111  0.00  0.00    +0.000 OA
ATOM     33  H   UNL     1       3.826   4.114   0.044  0.00  0.00    +0.000 HD
ENDBRANCH   5  32
TORSDOF 3
