REMARK  Name = 132971
REMARK  4 active torsions:
REMARK  status: ('A' for Active; 'I' for Inactive)
REMARK    1  A    between atoms: O_1  and  C_21
REMARK    2  A    between atoms: C_6  and  C_16
REMARK    3  A    between atoms: C_7  and  C_17
REMARK    4  A    between atoms: C_14  and  C_22
REMARK                            x       y       z     vdW  Elec       q    Type
REMARK                         _______ _______ _______ _____ _____    ______ ____
ROOT
ATOM      1  C   UNL     1      -1.373   0.283  -0.167  0.00  0.00    +0.000 C 
ATOM      2  C   UNL     1      -0.855  -1.105   0.308  0.00  0.00    +0.000 C 
ATOM      3  C   UNL     1       0.614  -1.254  -0.098  0.00  0.00    +0.000 C 
ATOM      4  C   UNL     1       1.537  -0.163   0.507  0.00  0.00    +0.000 C 
ATOM      5  C   UNL     1      -2.874   0.519   0.270  0.00  0.00    +0.000 C 
ATOM      6  C   UNL     1      -0.410   1.446   0.198  0.00  0.00    +0.000 C 
ATOM      7  C   UNL     1       1.073   1.165  -0.114  0.00  0.00    +0.000 C 
ATOM      8  C   UNL     1      -1.713  -2.223  -0.303  0.00  0.00    +0.000 C 
ATOM      9  C   UNL     1       1.340  -2.566   0.172  0.00  0.00    +0.000 C 
ATOM     10  C   UNL     1      -3.720  -0.735   0.004  0.00  0.00    +0.000 C 
ATOM     11  C   UNL     1      -3.444   1.706  -0.562  0.00  0.00    +0.000 C 
ATOM     12  C   UNL     1       2.874  -0.760   0.078  0.00  0.00    +0.000 C 
ATOM     13  C   UNL     1      -3.180  -1.938  -0.262  0.00  0.00    +0.000 C 
ATOM     14  C   UNL     1       1.487  -0.102   2.055  0.00  0.00    +0.000 C 
ATOM     15  C   UNL     1      -2.975   0.854   1.778  0.00  0.00    +0.000 C 
ATOM     16  C   UNL     1       2.754  -2.100  -0.034  0.00  0.00    +0.000 C 
ATOM     17  C   UNL     1      -5.222  -0.574   0.043  0.00  0.00    +0.000 C 
ATOM     18  C   UNL     1      -4.958   1.880  -0.453  0.00  0.00    +0.000 C 
ATOM     19  C   UNL     1      -5.690   0.594  -0.820  0.00  0.00    +0.000 C 
ENDROOT
BRANCH  12  21
ATOM     20  N   UNL     1       5.516   1.904   0.381  0.00  0.00    +0.000 NA
ATOM     21  C   UNL     1       4.127  -0.014  -0.141  0.00  0.00    +0.000 A 
ATOM     22  C   UNL     1       5.096  -0.470  -1.034  0.00  0.00    +0.000 A 
ATOM     23  C   UNL     1       4.390   1.172   0.535  0.00  0.00    +0.000 A 
ATOM     24  C   UNL     1       6.267   0.255  -1.220  0.00  0.00    +0.000 A 
ATOM     25  C   UNL     1       6.428   1.425  -0.495  0.00  0.00    +0.000 A 
ENDBRANCH  12  21
BRANCH  19  26
ATOM     26  O   UNL     1      -7.086   0.800  -0.627  0.00  0.00    +0.000 OA
ATOM     27  H   UNL     1      -7.357   1.535  -1.203  0.00  0.00    +0.000 HD
ENDBRANCH  19  26
TORSDOF 2
