REMARK  Name = 23728517
REMARK  6 active torsions:
REMARK  status: ('A' for Active; 'I' for Inactive)
REMARK    1  A    between atoms: O_1  and  C_10
REMARK    2  A    between atoms: O_2  and  C_17
REMARK    3  A    between atoms: O_2  and  C_23
REMARK    4  A    between atoms: O_3  and  C_22
REMARK    5  A    between atoms: C_4  and  C_14
REMARK    6  A    between atoms: C_9  and  C_17
REMARK                            x       y       z     vdW  Elec       q    Type
REMARK                         _______ _______ _______ _____ _____    ______ ____
ROOT
ATOM      1  C   UNL     1      -2.625   0.001  -0.172  0.00  0.00    +0.000 C 
ATOM      2  C   UNL     1      -1.825   1.317  -0.204  0.00  0.00    +0.000 C 
ATOM      3  C   UNL     1      -0.393   1.142   0.304  0.00  0.00    +0.000 C 
ATOM      4  C   UNL     1       0.345   0.174  -0.676  0.00  0.00    +0.000 C 
ATOM      5  C   UNL     1      -1.915  -1.026  -1.072  0.00  0.00    +0.000 C 
ATOM      6  C   UNL     1      -0.396  -1.203  -0.783  0.00  0.00    +0.000 C 
ATOM      7  C   UNL     1      -3.966   0.525  -0.732  0.00  0.00    +0.000 C 
ATOM      8  C   UNL     1      -2.763   2.316   0.465  0.00  0.00    +0.000 C 
ATOM      9  C   UNL     1      -4.159   1.885  -0.027  0.00  0.00    +0.000 C 
ATOM     10  C   UNL     1       0.364   2.469   0.387  0.00  0.00    +0.000 C 
ATOM     11  C   UNL     1      -2.861  -0.589   1.242  0.00  0.00    +0.000 C 
ATOM     12  C   UNL     1       1.851   0.120  -0.432  0.00  0.00    +0.000 A 
ATOM     13  C   UNL     1       1.741   2.233   0.998  0.00  0.00    +0.000 C 
ATOM     14  C   UNL     1       2.498   1.109   0.338  0.00  0.00    +0.000 A 
ATOM     15  C   UNL     1       2.643  -0.860  -1.056  0.00  0.00    +0.000 A 
ATOM     16  C   UNL     1       3.889   1.046   0.533  0.00  0.00    +0.000 A 
ATOM     17  C   UNL     1       4.026  -0.905  -0.866  0.00  0.00    +0.000 A 
ATOM     18  C   UNL     1       4.648   0.043  -0.064  0.00  0.00    +0.000 A 
ENDROOT
BRANCH   7  19
ATOM     19  O   UNL     1      -5.063  -0.334  -0.483  0.00  0.00    +0.000 OA
ATOM     20  H   UNL     1      -5.865   0.117  -0.797  0.00  0.00    +0.000 HD
ENDBRANCH   7  19
BRANCH  18  21
ATOM     21  O   UNL     1       5.994  -0.001   0.128  0.00  0.00    +0.000 OA
ATOM     22  H   UNL     1       6.254   0.734   0.709  0.00  0.00    +0.000 HD
ENDBRANCH  18  21
BRANCH   6  23
ATOM     23  C   UNL     1      -0.126  -2.134   0.406  0.00  0.00    +0.000 C 
BRANCH  23  24
ATOM     24  O   UNL     1      -1.045  -3.205   0.345  0.00  0.00    +0.000 OA
ATOM     25  C   UNL     1      -0.863  -4.122   1.421  0.00  0.00    +0.000 C 
ENDBRANCH  23  24
ENDBRANCH   6  23
TORSDOF 4
