REMARK  Name = 6466
REMARK  5 active torsions:
REMARK  status: ('A' for Active; 'I' for Inactive)
REMARK    1  A    between atoms: O_2  and  C_14
REMARK    2  A    between atoms: O_3  and  C_20
REMARK    3  A    between atoms: O_5  and  C_22
REMARK    4  A    between atoms: C_11  and  C_22
REMARK    5  A    between atoms: C_13  and  C_23
REMARK                            x       y       z     vdW  Elec       q    Type
REMARK                         _______ _______ _______ _____ _____    ______ ____
ROOT
ATOM      1  O   UNL     1      -1.126   1.483  -1.009  0.00  0.00    +0.000 OA
ATOM      2  O   UNL     1      -2.828   0.946  -2.467  0.00  0.00    +0.000 OA
ATOM      3  C   UNL     1       1.183  -0.329  -0.011  0.00  0.00    +0.000 C 
ATOM      4  C   UNL     1       0.708   1.037   0.609  0.00  0.00    +0.000 C 
ATOM      5  C   UNL     1      -1.228  -0.377   0.368  0.00  0.00    +0.000 C 
ATOM      6  C   UNL     1      -0.800   1.087   0.340  0.00  0.00    +0.000 C 
ATOM      7  C   UNL     1      -0.103  -1.098  -0.396  0.00  0.00    +0.000 C 
ATOM      8  C   UNL     1       2.133  -0.087  -1.196  0.00  0.00    +0.000 C 
ATOM      9  C   UNL     1      -2.592  -0.229  -0.317  0.00  0.00    +0.000 C 
ATOM     10  C   UNL     1       3.319   0.571  -0.480  0.00  0.00    +0.000 C 
ATOM     11  C   UNL     1       2.145  -1.041   0.973  0.00  0.00    +0.000 C 
ATOM     12  C   UNL     1       1.473   2.262   0.083  0.00  0.00    +0.000 C 
ATOM     13  C   UNL     1       2.978   2.019  -0.087  0.00  0.00    +0.000 C 
ATOM     14  C   UNL     1       3.442  -0.303   0.754  0.00  0.00    +0.000 C 
ATOM     15  C   UNL     1      -1.637   1.926   1.270  0.00  0.00    +0.000 C 
ATOM     16  C   UNL     1      -3.579   0.477   0.670  0.00  0.00    +0.000 C 
ATOM     17  C   UNL     1      -2.237   0.772  -1.414  0.00  0.00    +0.000 C 
ATOM     18  C   UNL     1      -3.140  -1.527  -0.895  0.00  0.00    +0.000 C 
ATOM     19  C   UNL     1      -2.937   1.621   1.431  0.00  0.00    +0.000 C 
ATOM     20  C   UNL     1       4.527  -0.441   1.526  0.00  0.00    +0.000 C 
ENDROOT
BRANCH  10  21
ATOM     21  O   UNL     1       4.488   0.546  -1.278  0.00  0.00    +0.000 OA
ATOM     22  H   UNL     1       4.283   0.986  -2.121  0.00  0.00    +0.000 HD
ENDBRANCH  10  21
BRANCH  16  23
ATOM     23  O   UNL     1      -4.073  -0.446   1.637  0.00  0.00    +0.000 OA
ATOM     24  H   UNL     1      -4.684  -1.050   1.182  0.00  0.00    +0.000 HD
ENDBRANCH  16  23
BRANCH   7  26
ATOM     25  O   UNL     1      -0.434  -3.028   1.022  0.00  0.00    +0.000 OA
ATOM     26  C   UNL     1      -0.079  -2.555  -0.048  0.00  0.00    +0.000 C 
BRANCH  26  27
ATOM     27  O   UNL     1       0.398  -3.287  -1.085  0.00  0.00    +0.000 OA
ATOM     28  H   UNL     1       0.423  -4.245  -0.875  0.00  0.00    +0.000 HD
ENDBRANCH  26  27
ENDBRANCH   7  26
TORSDOF 4
