REMARK  Name = 5289324
REMARK  10 active torsions:
REMARK  status: ('A' for Active; 'I' for Inactive)
REMARK    1  A    between atoms: O_1  and  C_24
REMARK    2  A    between atoms: O_1  and  C_27
REMARK    3  A    between atoms: O_4  and  C_30
REMARK    4  A    between atoms: C_9  and  C_21
REMARK    5  A    between atoms: C_10  and  C_22
REMARK    6  A    between atoms: C_15  and  C_25
REMARK    7  A    between atoms: C_25  and  C_26
REMARK    8  A    between atoms: C_27  and  C_28
REMARK    9  A    between atoms: C_28  and  C_29
REMARK   10  A    between atoms: C_29  and  C_30
REMARK                            x       y       z     vdW  Elec       q    Type
REMARK                         _______ _______ _______ _____ _____    ______ ____
ROOT
ATOM      1  C   UNL     1       1.498  -0.047   0.293  0.00  0.00    +0.000 C 
ATOM      2  C   UNL     1       2.432   1.082  -0.251  0.00  0.00    +0.000 C 
ATOM      3  C   UNL     1       3.845   0.852   0.297  0.00  0.00    +0.000 C 
ATOM      4  C   UNL     1       4.437  -0.514  -0.117  0.00  0.00    +0.000 C 
ATOM      5  C   UNL     1       0.009   0.144  -0.180  0.00  0.00    +0.000 C 
ATOM      6  C   UNL     1      -0.446   1.568   0.275  0.00  0.00    +0.000 C 
ATOM      7  C   UNL     1       2.080  -1.460   0.027  0.00  0.00    +0.000 C 
ATOM      8  C   UNL     1       3.545  -1.612   0.477  0.00  0.00    +0.000 C 
ATOM      9  C   UNL     1       1.903   2.473   0.127  0.00  0.00    +0.000 C 
ATOM     10  C   UNL     1       5.833  -0.387   0.532  0.00  0.00    +0.000 C 
ATOM     11  C   UNL     1       4.949   1.840  -0.063  0.00  0.00    +0.000 C 
ATOM     12  C   UNL     1       0.448   2.677  -0.290  0.00  0.00    +0.000 C 
ATOM     13  C   UNL     1      -0.924  -0.892   0.511  0.00  0.00    +0.000 C 
ATOM     14  C   UNL     1       6.246   1.075   0.259  0.00  0.00    +0.000 C 
ATOM     15  C   UNL     1      -1.927   1.842  -0.013  0.00  0.00    +0.000 C 
ATOM     16  C   UNL     1       4.557  -0.707  -1.652  0.00  0.00    +0.000 C 
ATOM     17  C   UNL     1      -0.109  -0.041  -1.715  0.00  0.00    +0.000 C 
ATOM     18  C   UNL     1      -2.412  -0.629   0.274  0.00  0.00    +0.000 C 
ATOM     19  C   UNL     1      -2.818   0.793   0.649  0.00  0.00    +0.000 C 
ENDROOT
BRANCH  10  21
ATOM     20  O   UNL     1       7.549  -1.130  -0.948  0.00  0.00    +0.000 OA
ATOM     21  C   UNL     1       6.851  -1.367   0.037  0.00  0.00    +0.000 C 
ATOM     22  C   UNL     1       6.980  -2.655   0.804  0.00  0.00    +0.000 C 
ENDBRANCH  10  21
BRANCH  19  23
ATOM     23  O   UNL     1      -4.166   1.027   0.255  0.00  0.00    +0.000 OA
BRANCH  23  25
ATOM     24  O   UNL     1      -5.021  -0.352   1.894  0.00  0.00    +0.000 OA
ATOM     25  C   UNL     1      -5.101   0.185   0.798  0.00  0.00    +0.000 C 
BRANCH  25  26
ATOM     26  C   UNL     1      -6.247   0.025  -0.177  0.00  0.00    +0.000 C 
BRANCH  26  27
ATOM     27  C   UNL     1      -7.385  -0.828   0.371  0.00  0.00    +0.000 C 
BRANCH  27  29
ATOM     28  O   UNL     1      -8.524  -0.381  -1.712  0.00  0.00    +0.000 OA
ATOM     29  C   UNL     1      -8.527  -0.915  -0.611  0.00  0.00    +0.000 C 
BRANCH  29  30
ATOM     30  O   UNL     1      -9.555  -1.669  -0.151  0.00  0.00    +0.000 OA
ATOM     31  H   UNL     1     -10.287  -1.727  -0.801  0.00  0.00    +0.000 HD
ENDBRANCH  29  30
ENDBRANCH  27  29
ENDBRANCH  26  27
ENDBRANCH  25  26
ENDBRANCH  23  25
ENDBRANCH  19  23
TORSDOF 7
