REMARK  Name = 16122802
REMARK  12 active torsions:
REMARK  status: ('A' for Active; 'I' for Inactive)
REMARK    1  A    between atoms: O_6  and  C_21
REMARK    2  A    between atoms: O_6  and  C_26
REMARK    3  A    between atoms: O_7  and  C_28
REMARK    4  A    between atoms: O_8  and  C_30
REMARK    5  A    between atoms: N_10  and  C_34
REMARK    6  A    between atoms: C_11  and  C_19
REMARK    7  A    between atoms: C_14  and  C_21
REMARK    8  A    between atoms: C_21  and  C_23
REMARK    9  A    between atoms: C_22  and  C_24
REMARK   10  A    between atoms: C_26  and  C_32
REMARK   11  A    between atoms: C_34  and  C_35
REMARK   12  A    between atoms: C_35  and  C_36
REMARK                            x       y       z     vdW  Elec       q    Type
REMARK                         _______ _______ _______ _____ _____    ______ ____
ROOT
ATOM      1  C   UNL     1      -0.767   2.561   0.346  0.00  0.00    +0.000 C 
ATOM      2  C   UNL     1      -1.670   2.174  -0.855  0.00  0.00    +0.000 C 
ATOM      3  C   UNL     1      -1.370   3.830   0.977  0.00  0.00    +0.000 C 
ATOM      4  C   UNL     1       0.553   2.683  -0.389  0.00  0.00    +0.000 C 
ATOM      5  C   UNL     1      -0.790   1.262  -1.715  0.00  0.00    +0.000 C 
ATOM      6  C   UNL     1      -3.048   1.807  -0.383  0.00  0.00    +0.000 C 
ATOM      7  C   UNL     1      -2.825   3.592   1.430  0.00  0.00    +0.000 C 
ATOM      8  C   UNL     1      -3.722   2.949   0.354  0.00  0.00    +0.000 C 
ATOM      9  C   UNL     1      -0.614   1.447   1.411  0.00  0.00    +0.000 C 
ATOM     10  C   UNL     1       0.543   1.928  -1.502  0.00  0.00    +0.000 C 
ATOM     11  C   UNL     1      -3.640   0.622  -0.582  0.00  0.00    +0.000 C 
ENDROOT
BRANCH  11  12
ATOM     12  C   UNL     1      -4.970   0.315  -0.118  0.00  0.00    +0.000 C 
ATOM     13  C   UNL     1      -5.564  -0.873  -0.318  0.00  0.00    +0.000 C 
ATOM     14  C   UNL     1      -6.941  -1.174   0.219  0.00  0.00    +0.000 C 
ATOM     15  C   UNL     1      -6.985  -2.497   0.987  0.00  0.00    +0.000 C 
ATOM     16  C   UNL     1      -4.919  -1.975  -1.028  0.00  0.00    +0.000 C 
ATOM     17  C   UNL     1      -4.994  -3.323  -0.349  0.00  0.00    +0.000 C 
ATOM     18  C   UNL     1      -6.412  -3.639   0.140  0.00  0.00    +0.000 C 
ATOM     19  C   UNL     1      -4.342  -1.824  -2.231  0.00  0.00    +0.000 C 
BRANCH  15  20
ATOM     20  O   UNL     1      -8.340  -2.784   1.317  0.00  0.00    +0.000 OA
ATOM     21  H   UNL     1      -8.351  -3.627   1.802  0.00  0.00    +0.000 HD
ENDBRANCH  15  20
BRANCH  17  22
ATOM     22  O   UNL     1      -4.096  -3.315   0.761  0.00  0.00    +0.000 OA
ATOM     23  H   UNL     1      -4.146  -4.189   1.185  0.00  0.00    +0.000 HD
ENDBRANCH  17  22
ENDBRANCH  11  12
BRANCH   4  24
ATOM     24  C   UNL     1       1.696   3.473   0.139  0.00  0.00    +0.000 C 
ATOM     25  C   UNL     1       1.736   4.879  -0.446  0.00  0.00    +0.000 C 
BRANCH  24  26
ATOM     26  O   UNL     1       2.924   2.828  -0.194  0.00  0.00    +0.000 OA
BRANCH  26  27
ATOM     27  C   UNL     1       3.202   1.757   0.695  0.00  0.00    +0.000 C 
BRANCH  27  30
ATOM     28  O   UNL     1       5.205   1.455  -0.611  0.00  0.00    +0.000 OA
ATOM     29  N   UNL     1       4.793   0.025   1.176  0.00  0.00    +0.000 N 
ATOM     30  C   UNL     1       4.508   1.084   0.329  0.00  0.00    +0.000 C 
ATOM     31  H   UNL     1       4.141  -0.204   1.920  0.00  0.00    +0.000 HD
BRANCH  29  32
ATOM     32  C   UNL     1       5.980  -0.790   1.049  0.00  0.00    +0.000 C 
BRANCH  32  35
ATOM     33  F   UNL     1       4.738  -2.744   0.639  0.00  0.00    +0.000 F 
ATOM     34  F   UNL     1       5.336  -1.546  -1.082  0.00  0.00    +0.000 F 
ATOM     35  C   UNL     1       5.742  -1.980   0.138  0.00  0.00    +0.000 C 
BRANCH  35  39
ATOM     36  F   UNL     1       7.380  -3.332   1.152  0.00  0.00    +0.000 F 
ATOM     37  F   UNL     1       7.989  -2.140  -0.571  0.00  0.00    +0.000 F 
ATOM     38  F   UNL     1       6.716  -3.892  -0.849  0.00  0.00    +0.000 F 
ATOM     39  C   UNL     1       6.967  -2.843  -0.037  0.00  0.00    +0.000 C 
ENDBRANCH  35  39
ENDBRANCH  32  35
ENDBRANCH  29  32
ENDBRANCH  27  30
ENDBRANCH  26  27
ENDBRANCH  24  26
ENDBRANCH   4  24
TORSDOF 10
