REMARK  Name = 92786
REMARK  5 active torsions:
REMARK  status: ('A' for Active; 'I' for Inactive)
REMARK    1  A    between atoms: O_1  and  C_21
REMARK    2  A    between atoms: C_6  and  C_18
REMARK    3  A    between atoms: C_7  and  C_19
REMARK    4  A    between atoms: C_12  and  C_22
REMARK    5  A    between atoms: C_22  and  C_23
REMARK                            x       y       z     vdW  Elec       q    Type
REMARK                         _______ _______ _______ _____ _____    ______ ____
ROOT
ATOM      1  C   UNL     1      -0.708  -0.368   0.166  0.00  0.00    +0.000 C 
ATOM      2  C   UNL     1       0.023   0.954  -0.236  0.00  0.00    +0.000 C 
ATOM      3  C   UNL     1       1.421   0.950   0.393  0.00  0.00    +0.000 C 
ATOM      4  C   UNL     1       2.285  -0.245  -0.067  0.00  0.00    +0.000 C 
ATOM      5  C   UNL     1      -2.177  -0.422  -0.397  0.00  0.00    +0.000 C 
ATOM      6  C   UNL     1      -2.920   0.852   0.120  0.00  0.00    +0.000 C 
ATOM      7  C   UNL     1       0.148  -1.623  -0.151  0.00  0.00    +0.000 C 
ATOM      8  C   UNL     1       1.586  -1.534   0.390  0.00  0.00    +0.000 C 
ATOM      9  C   UNL     1      -0.782   2.189   0.193  0.00  0.00    +0.000 C 
ATOM     10  C   UNL     1       3.591   0.088   0.687  0.00  0.00    +0.000 C 
ATOM     11  C   UNL     1       2.334   2.151   0.177  0.00  0.00    +0.000 C 
ATOM     12  C   UNL     1      -2.224   2.149  -0.310  0.00  0.00    +0.000 C 
ATOM     13  C   UNL     1      -2.932  -1.664   0.156  0.00  0.00    +0.000 C 
ATOM     14  C   UNL     1       3.732   1.619   0.539  0.00  0.00    +0.000 C 
ATOM     15  C   UNL     1      -4.413   0.868  -0.251  0.00  0.00    +0.000 C 
ATOM     16  C   UNL     1       2.527  -0.293  -1.598  0.00  0.00    +0.000 C 
ATOM     17  C   UNL     1      -2.170  -0.504  -1.945  0.00  0.00    +0.000 C 
ATOM     18  C   UNL     1      -4.430  -1.670  -0.173  0.00  0.00    +0.000 C 
ATOM     19  C   UNL     1      -5.133  -0.383   0.254  0.00  0.00    +0.000 C 
ENDROOT
BRANCH  10  21
ATOM     20  O   UNL     1       5.499  -0.204  -0.715  0.00  0.00    +0.000 OA
ATOM     21  C   UNL     1       4.805  -0.643   0.201  0.00  0.00    +0.000 C 
ATOM     22  C   UNL     1       5.133  -1.940   0.889  0.00  0.00    +0.000 C 
ENDBRANCH  10  21
BRANCH  19  23
ATOM     23  O   UNL     1      -5.196  -0.326   1.679  0.00  0.00    +0.000 OA
ATOM     24  H   UNL     1      -5.682  -1.112   1.982  0.00  0.00    +0.000 HD
ENDBRANCH  19  23
TORSDOF 2
