REMARK  Name = 7074810
REMARK  6 active torsions:
REMARK  status: ('A' for Active; 'I' for Inactive)
REMARK    1  A    between atoms: O_1  and  C_8
REMARK    2  A    between atoms: O_3  and  C_24
REMARK    3  A    between atoms: C_5  and  C_15
REMARK    4  A    between atoms: C_8  and  C_19
REMARK    5  A    between atoms: C_13  and  C_21
REMARK    6  A    between atoms: C_19  and  C_24
REMARK                            x       y       z     vdW  Elec       q    Type
REMARK                         _______ _______ _______ _____ _____    ______ ____
ROOT
ATOM      1  O   UNL     1       6.380   0.636   1.095  0.00  0.00    +0.000 OA
ATOM      2  C   UNL     1      -1.900   0.036  -0.151  0.00  0.00    +0.000 C 
ATOM      3  C   UNL     1      -1.018  -1.160   0.265  0.00  0.00    +0.000 C 
ATOM      4  C   UNL     1       0.396  -1.104  -0.338  0.00  0.00    +0.000 C 
ATOM      5  C   UNL     1      -3.258  -0.406   0.451  0.00  0.00    +0.000 C 
ATOM      6  C   UNL     1      -1.873  -2.382  -0.068  0.00  0.00    +0.000 C 
ATOM      7  C   UNL     1      -3.325  -1.920   0.157  0.00  0.00    +0.000 C 
ATOM      8  C   UNL     1       1.013   0.299  -0.209  0.00  0.00    +0.000 C 
ATOM      9  C   UNL     1      -1.242   1.291   0.447  0.00  0.00    +0.000 C 
ATOM     10  C   UNL     1       2.519   0.432  -0.577  0.00  0.00    +0.000 C 
ATOM     11  C   UNL     1       1.285  -2.161   0.331  0.00  0.00    +0.000 C 
ATOM     12  C   UNL     1      -2.013   0.197  -1.694  0.00  0.00    +0.000 C 
ATOM     13  C   UNL     1       0.242   1.349   0.165  0.00  0.00    +0.000 C 
ATOM     14  C   UNL     1       2.692  -2.138  -0.244  0.00  0.00    +0.000 C 
ATOM     15  C   UNL     1       3.325  -0.777  -0.078  0.00  0.00    +0.000 C 
ATOM     16  C   UNL     1       3.140   1.736   0.009  0.00  0.00    +0.000 C 
ATOM     17  C   UNL     1       2.617   0.484  -2.120  0.00  0.00    +0.000 C 
ATOM     18  C   UNL     1       4.657   1.799  -0.089  0.00  0.00    +0.000 C 
ATOM     19  C   UNL     1       4.549  -0.696   0.470  0.00  0.00    +0.000 C 
ATOM     20  C   UNL     1       5.274   0.591   0.560  0.00  0.00    +0.000 C 
ENDROOT
BRANCH   5  21
ATOM     21  O   UNL     1      -3.314  -0.239   1.865  0.00  0.00    +0.000 OA
ATOM     22  H   UNL     1      -4.121  -0.669   2.195  0.00  0.00    +0.000 HD
ENDBRANCH   5  21
BRANCH   5  24
ATOM     23  O   UNL     1      -5.364  -0.274  -0.654  0.00  0.00    +0.000 OA
ATOM     24  C   UNL     1      -4.461   0.321  -0.068  0.00  0.00    +0.000 C 
BRANCH  24  25
ATOM     25  C   UNL     1      -4.495   1.816   0.169  0.00  0.00    +0.000 C 
BRANCH  25  26
ATOM     26  O   UNL     1      -5.825   2.269   0.305  0.00  0.00    +0.000 OA
ATOM     27  H   UNL     1      -6.189   1.871   1.114  0.00  0.00    +0.000 HD
ENDBRANCH  25  26
ENDBRANCH  24  25
ENDBRANCH   5  24
TORSDOF 4
