REMARK  Name = 5857
REMARK  3 active torsions:
REMARK  status: ('A' for Active; 'I' for Inactive)
REMARK    1  A    between atoms: O_1  and  C_7
REMARK    2  A    between atoms: C_3  and  C_13
REMARK    3  A    between atoms: C_7  and  C_18
REMARK                            x       y       z     vdW  Elec       q    Type
REMARK                         _______ _______ _______ _____ _____    ______ ____
ROOT
ATOM      1  C   UNL     1      -1.172  -0.787   0.176  0.00  0.00    +0.000 C 
ATOM      2  C   UNL     1      -1.966   0.274  -0.619  0.00  0.00    +0.000 C 
ATOM      3  C   UNL     1       0.256  -0.974  -0.345  0.00  0.00    +0.000 C 
ATOM      4  C   UNL     1       1.018   0.391  -0.241  0.00  0.00    +0.000 C 
ATOM      5  C   UNL     1      -1.239   1.624  -0.473  0.00  0.00    +0.000 C 
ATOM      6  C   UNL     1      -3.365   0.145   0.056  0.00  0.00    +0.000 C 
ATOM      7  C   UNL     1      -2.108  -1.993   0.195  0.00  0.00    +0.000 C 
ATOM      8  C   UNL     1       0.233   1.540  -0.918  0.00  0.00    +0.000 C 
ATOM      9  C   UNL     1       2.461   0.217  -0.796  0.00  0.00    +0.000 C 
ATOM     10  C   UNL     1      -3.526  -1.389   0.230  0.00  0.00    +0.000 C 
ATOM     11  C   UNL     1       1.004  -2.087   0.413  0.00  0.00    +0.000 C 
ATOM     12  C   UNL     1      -2.094  -0.049  -2.137  0.00  0.00    +0.000 C 
ATOM     13  C   UNL     1       3.132  -0.880   0.015  0.00  0.00    +0.000 C 
ATOM     14  C   UNL     1       2.453  -2.220  -0.058  0.00  0.00    +0.000 C 
ATOM     15  C   UNL     1       3.319   1.497  -0.840  0.00  0.00    +0.000 C 
ATOM     16  C   UNL     1       3.931   1.829   0.516  0.00  0.00    +0.000 C 
ATOM     17  C   UNL     1       4.203  -0.663   0.799  0.00  0.00    +0.000 C 
ATOM     18  C   UNL     1       4.824   0.686   0.997  0.00  0.00    +0.000 C 
ENDROOT
BRANCH   6  19
ATOM     19  O   UNL     1      -4.395   0.661  -0.776  0.00  0.00    +0.000 OA
ATOM     20  H   UNL     1      -4.201   1.599  -0.947  0.00  0.00    +0.000 HD
ENDBRANCH   6  19
BRANCH   6  21
ATOM     21  C   UNL     1      -3.450   0.816   1.369  0.00  0.00    +0.000 C 
ATOM     22  C   UNL     1      -3.519   1.362   2.435  0.00  0.00    +0.000 C 
ENDBRANCH   6  21
TORSDOF 2
