REMARK  Name = 11541511
REMARK  13 active torsions:
REMARK  status: ('A' for Active; 'I' for Inactive)
REMARK    1  A    between atoms: O_1  and  C_10
REMARK    2  A    between atoms: O_2  and  C_21
REMARK    3  A    between atoms: O_2  and  C_32
REMARK    4  A    between atoms: O_3  and  C_28
REMARK    5  A    between atoms: O_3  and  C_34
REMARK    6  A    between atoms: O_8  and  C_37
REMARK    7  A    between atoms: O_8  and  C_41
REMARK    8  A    between atoms: O_9  and  C_39
REMARK    9  A    between atoms: C_12  and  C_24
REMARK   10  A    between atoms: C_14  and  C_26
REMARK   11  A    between atoms: C_16  and  C_29
REMARK   12  A    between atoms: C_32  and  C_36
REMARK   13  A    between atoms: C_38  and  C_40
REMARK                            x       y       z     vdW  Elec       q    Type
REMARK                         _______ _______ _______ _____ _____    ______ ____
ROOT
ATOM      1  C   UNL     1       2.862   0.344   0.278  0.00  0.00    +0.000 C 
ATOM      2  C   UNL     1       1.361   0.750   0.342  0.00  0.00    +0.000 C 
ATOM      3  C   UNL     1       3.627   0.934  -0.939  0.00  0.00    +0.000 C 
ATOM      4  C   UNL     1       0.596   0.605  -0.994  0.00  0.00    +0.000 C 
ATOM      5  C   UNL     1      -0.902   1.143  -0.907  0.00  0.00    +0.000 C 
ATOM      6  C   UNL     1      -1.432   1.101   0.567  0.00  0.00    +0.000 C 
ATOM      7  C   UNL     1       4.932   0.072  -1.006  0.00  0.00    +0.000 C 
ATOM      8  C   UNL     1       2.817   0.692  -2.244  0.00  0.00    +0.000 C 
ATOM      9  C   UNL     1       1.386   1.210  -2.170  0.00  0.00    +0.000 C 
ATOM     10  C   UNL     1       3.125  -1.175   0.166  0.00  0.00    +0.000 C 
ATOM     11  C   UNL     1       0.633   0.004   1.490  0.00  0.00    +0.000 C 
ATOM     12  C   UNL     1       4.456  -1.339  -0.590  0.00  0.00    +0.000 C 
ATOM     13  C   UNL     1      -0.879  -0.115   1.307  0.00  0.00    +0.000 C 
ATOM     14  C   UNL     1      -1.766   0.243  -1.841  0.00  0.00    +0.000 C 
ATOM     15  C   UNL     1       3.920   2.442  -0.797  0.00  0.00    +0.000 C 
ATOM     16  C   UNL     1      -2.964   1.181   0.683  0.00  0.00    +0.000 C 
ATOM     17  C   UNL     1      -1.022   2.611  -1.389  0.00  0.00    +0.000 C 
ATOM     18  C   UNL     1      -3.270   0.430  -1.687  0.00  0.00    +0.000 C 
ATOM     19  C   UNL     1      -3.700   0.222  -0.242  0.00  0.00    +0.000 C 
ENDROOT
BRANCH   7  22
ATOM     20  O   UNL     1       8.058   1.660   0.269  0.00  0.00    +0.000 OA
ATOM     21  O   UNL     1       8.197   0.960   2.457  0.00  0.00    +0.000 OA
ATOM     22  C   UNL     1       6.110   0.557  -0.210  0.00  0.00    +0.000 C 
ATOM     23  C   UNL     1       7.135   1.441  -0.802  0.00  0.00    +0.000 C 
ATOM     24  C   UNL     1       6.389   0.281   1.061  0.00  0.00    +0.000 C 
ATOM     25  C   UNL     1       7.635   0.982   1.376  0.00  0.00    +0.000 C 
ENDBRANCH   7  22
BRANCH   1  26
ATOM     26  O   UNL     1       3.442   0.806   1.508  0.00  0.00    +0.000 OA
ATOM     27  H   UNL     1       3.230   1.748   1.618  0.00  0.00    +0.000 HD
ENDBRANCH   1  26
BRANCH  12  28
ATOM     28  O   UNL     1       5.411  -2.035   0.196  0.00  0.00    +0.000 OA
BRANCH  28  30
ATOM     29  O   UNL     1       4.652  -4.054  -0.631  0.00  0.00    +0.000 OA
ATOM     30  C   UNL     1       5.401  -3.399   0.080  0.00  0.00    +0.000 C 
ATOM     31  C   UNL     1       6.456  -3.996   0.962  0.00  0.00    +0.000 C 
ENDBRANCH  28  30
ENDBRANCH  12  28
BRANCH  19  32
ATOM     32  O   UNL     1      -5.102   0.454  -0.151  0.00  0.00    +0.000 OA
BRANCH  32  34
ATOM     33  O   UNL     1      -6.054  -1.652   0.396  0.00  0.00    +0.000 OA
ATOM     34  C   UNL     1      -5.698  -0.349   0.864  0.00  0.00    +0.000 C 
ATOM     35  C   UNL     1      -6.885   0.348   1.523  0.00  0.00    +0.000 C 
ATOM     36  C   UNL     1      -8.113   0.362   0.614  0.00  0.00    +0.000 C 
ATOM     37  C   UNL     1      -7.126  -1.646  -0.551  0.00  0.00    +0.000 C 
ATOM     38  C   UNL     1      -8.391  -1.037   0.065  0.00  0.00    +0.000 C 
ATOM     39  C   UNL     1      -7.354  -3.088  -0.992  0.00  0.00    +0.000 C 
BRANCH  36  40
ATOM     40  O   UNL     1      -9.247   0.798   1.361  0.00  0.00    +0.000 OA
ATOM     41  C   UNL     1      -9.269   2.212   1.490  0.00  0.00    +0.000 C 
ENDBRANCH  36  40
BRANCH  38  42
ATOM     42  O   UNL     1      -9.426  -0.964  -0.913  0.00  0.00    +0.000 OA
ATOM     43  H   UNL     1      -9.105  -0.414  -1.648  0.00  0.00    +0.000 HD
ENDBRANCH  38  42
ENDBRANCH  32  34
ENDBRANCH  19  32
TORSDOF 8
