REMARK  Name = 94320
REMARK  12 active torsions:
REMARK  status: ('A' for Active; 'I' for Inactive)
REMARK    1  A    between atoms: O_1  and  C_22
REMARK    2  A    between atoms: O_1  and  C_36
REMARK    3  A    between atoms: O_3  and  C_35
REMARK    4  A    between atoms: C_6  and  C_21
REMARK    5  A    between atoms: C_7  and  C_23
REMARK    6  A    between atoms: C_9  and  C_25
REMARK    7  A    between atoms: C_13  and  C_31
REMARK    8  A    between atoms: C_13  and  C_32
REMARK    9  A    between atoms: C_16  and  C_33
REMARK   10  A    between atoms: C_29  and  C_34
REMARK   11  A    between atoms: C_29  and  C_35
REMARK   12  A    between atoms: C_36  and  C_37
REMARK                            x       y       z     vdW  Elec       q    Type
REMARK                         _______ _______ _______ _____ _____    ______ ____
ROOT
ATOM      1  O   UNL     1       0.558   1.861  -1.905  0.00  0.00    +0.000 OA
ATOM      2  C   UNL     1       0.112  -1.249  -0.023  0.00  0.00    +0.000 C 
ATOM      3  C   UNL     1       2.444   0.003  -0.606  0.00  0.00    +0.000 C 
ATOM      4  C   UNL     1       0.896   0.107  -0.238  0.00  0.00    +0.000 C 
ATOM      5  C   UNL     1      -1.347  -0.911   0.626  0.00  0.00    +0.000 C 
ATOM      6  C   UNL     1       3.118  -0.954   0.453  0.00  0.00    +0.000 C 
ATOM      7  C   UNL     1       0.952  -2.171   0.906  0.00  0.00    +0.000 C 
ATOM      8  C   UNL     1       2.418  -2.325   0.493  0.00  0.00    +0.000 C 
ATOM      9  C   UNL     1       4.691  -1.019   0.431  0.00  0.00    +0.000 C 
ATOM     10  C   UNL     1      -2.068   0.142  -0.229  0.00  0.00    +0.000 C 
ATOM     11  C   UNL     1      -3.597   0.134  -0.275  0.00  0.00    +0.000 C 
ATOM     12  C   UNL     1      -4.173  -1.249  -0.718  0.00  0.00    +0.000 C 
ATOM     13  C   UNL     1      -2.265  -2.171   0.767  0.00  0.00    +0.000 C 
ATOM     14  C   UNL     1       3.112   1.406  -0.433  0.00  0.00    +0.000 C 
ATOM     15  C   UNL     1      -3.207  -2.426  -0.413  0.00  0.00    +0.000 C 
ATOM     16  C   UNL     1       0.068   1.046  -1.126  0.00  0.00    +0.000 C 
ATOM     17  C   UNL     1      -0.073  -2.017  -1.361  0.00  0.00    +0.000 C 
ATOM     18  C   UNL     1       5.242   0.431   0.539  0.00  0.00    +0.000 C 
ATOM     19  C   UNL     1       2.647  -0.454  -2.071  0.00  0.00    +0.000 C 
ATOM     20  C   UNL     1       4.639   1.390  -0.480  0.00  0.00    +0.000 C 
ATOM     21  C   UNL     1      -1.183  -0.333   2.066  0.00  0.00    +0.000 C 
ATOM     22  C   UNL     1      -1.410   1.014  -1.010  0.00  0.00    +0.000 C 
ATOM     23  C   UNL     1      -4.253   0.653   1.022  0.00  0.00    +0.000 C 
ATOM     24  C   UNL     1      -5.537  -1.529  -0.029  0.00  0.00    +0.000 C 
ATOM     25  C   UNL     1      -5.779   0.845   0.873  0.00  0.00    +0.000 C 
ATOM     26  C   UNL     1      -6.430  -0.289   0.054  0.00  0.00    +0.000 C 
ATOM     27  C   UNL     1       5.271  -1.753  -0.795  0.00  0.00    +0.000 C 
ATOM     28  C   UNL     1       5.207  -1.794   1.677  0.00  0.00    +0.000 C 
ATOM     29  C   UNL     1      -4.393  -1.232  -2.253  0.00  0.00    +0.000 C 
ATOM     30  C   UNL     1      -6.418   0.933   2.268  0.00  0.00    +0.000 C 
ENDROOT
BRANCH  25  32
ATOM     31  O   UNL     1      -5.149   2.919  -0.220  0.00  0.00    +0.000 OA
ATOM     32  C   UNL     1      -6.023   2.167   0.185  0.00  0.00    +0.000 C 
BRANCH  32  33
ATOM     33  O   UNL     1      -7.351   2.414   0.078  0.00  0.00    +0.000 OA
ATOM     34  H   UNL     1      -7.530   3.270  -0.366  0.00  0.00    +0.000 HD
ENDBRANCH  32  33
ENDBRANCH  25  32
BRANCH  18  35
ATOM     35  O   UNL     1       6.662   0.441   0.392  0.00  0.00    +0.000 OA
BRANCH  35  37
ATOM     36  O   UNL     1       6.861   2.603   1.183  0.00  0.00    +0.000 OA
ATOM     37  C   UNL     1       7.258   1.664   0.506  0.00  0.00    +0.000 C 
ATOM     38  C   UNL     1       8.498   1.701  -0.335  0.00  0.00    +0.000 C 
ENDBRANCH  35  37
ENDBRANCH  18  35
TORSDOF 4
