REMARK  Name = 9818306
REMARK  5 active torsions:
REMARK  status: ('A' for Active; 'I' for Inactive)
REMARK    1  A    between atoms: O_1  and  C_8
REMARK    2  A    between atoms: O_2  and  C_21
REMARK    3  A    between atoms: O_2  and  C_22
REMARK    4  A    between atoms: C_4  and  C_14
REMARK    5  A    between atoms: C_22  and  C_23
REMARK                            x       y       z     vdW  Elec       q    Type
REMARK                         _______ _______ _______ _____ _____    ______ ____
ROOT
ATOM      1  C   UNL     1       3.483   0.636   0.236  0.00  0.00    +0.000 C 
ATOM      2  C   UNL     1       2.900  -0.705  -0.254  0.00  0.00    +0.000 C 
ATOM      3  C   UNL     1       1.395  -0.803  -0.010  0.00  0.00    +0.000 C 
ATOM      4  C   UNL     1       0.685   0.333  -0.808  0.00  0.00    +0.000 C 
ATOM      5  C   UNL     1       4.971   0.392  -0.084  0.00  0.00    +0.000 C 
ATOM      6  C   UNL     1       2.828   1.764  -0.569  0.00  0.00    +0.000 C 
ATOM      7  C   UNL     1       3.828  -1.744   0.368  0.00  0.00    +0.000 C 
ATOM      8  C   UNL     1       1.291   1.721  -0.469  0.00  0.00    +0.000 C 
ATOM      9  C   UNL     1       5.211  -1.067   0.351  0.00  0.00    +0.000 C 
ATOM     10  C   UNL     1       0.815  -2.151  -0.441  0.00  0.00    +0.000 C 
ATOM     11  C   UNL     1       3.296   0.912   1.750  0.00  0.00    +0.000 C 
ATOM     12  C   UNL     1      -0.833   0.238  -0.674  0.00  0.00    +0.000 A 
ATOM     13  C   UNL     1      -0.654  -2.236  -0.040  0.00  0.00    +0.000 C 
ATOM     14  C   UNL     1      -1.449  -0.991  -0.352  0.00  0.00    +0.000 A 
ATOM     15  C   UNL     1      -1.658   1.342  -0.952  0.00  0.00    +0.000 A 
ATOM     16  C   UNL     1      -2.850  -1.071  -0.265  0.00  0.00    +0.000 A 
ATOM     17  C   UNL     1      -3.049   1.247  -0.871  0.00  0.00    +0.000 A 
ATOM     18  C   UNL     1      -3.645   0.042  -0.523  0.00  0.00    +0.000 A 
ENDROOT
BRANCH   5  19
ATOM     19  O   UNL     1       5.836   1.288   0.586  0.00  0.00    +0.000 OA
ATOM     20  H   UNL     1       6.748   1.009   0.398  0.00  0.00    +0.000 HD
ENDBRANCH   5  19
BRANCH  18  21
ATOM     21  O   UNL     1      -5.000  -0.052  -0.441  0.00  0.00    +0.000 OA
BRANCH  21  23
ATOM     22  O   UNL     1      -4.865   0.555   1.816  0.00  0.00    +0.000 OA
ATOM     23  C   UNL     1      -5.520   0.240   0.831  0.00  0.00    +0.000 C 
ATOM     24  C   UNL     1      -7.014   0.109   0.818  0.00  0.00    +0.000 C 
ENDBRANCH  21  23
ENDBRANCH  18  21
TORSDOF 3
