REMARK  Name = 222757
REMARK  5 active torsions:
REMARK  status: ('A' for Active; 'I' for Inactive)
REMARK    1  A    between atoms: O_1  and  C_8
REMARK    2  A    between atoms: O_2  and  C_21
REMARK    3  A    between atoms: O_2  and  C_22
REMARK    4  A    between atoms: C_4  and  C_14
REMARK    5  A    between atoms: C_22  and  C_23
REMARK                            x       y       z     vdW  Elec       q    Type
REMARK                         _______ _______ _______ _____ _____    ______ ____
ROOT
ATOM      1  C   UNL     1       5.016   0.682   0.224  0.00  0.00    +0.000 C 
ATOM      2  C   UNL     1       4.457  -0.727  -0.059  0.00  0.00    +0.000 C 
ATOM      3  C   UNL     1       2.941  -0.793   0.124  0.00  0.00    +0.000 C 
ATOM      4  C   UNL     1       2.273   0.185  -0.891  0.00  0.00    +0.000 C 
ATOM      5  C   UNL     1       6.517   0.398   0.025  0.00  0.00    +0.000 C 
ATOM      6  C   UNL     1       4.403   1.652  -0.793  0.00  0.00    +0.000 C 
ATOM      7  C   UNL     1       5.351  -1.639   0.777  0.00  0.00    +0.000 C 
ATOM      8  C   UNL     1       2.863   1.615  -0.764  0.00  0.00    +0.000 C 
ATOM      9  C   UNL     1       6.734  -0.964   0.713  0.00  0.00    +0.000 C 
ATOM     10  C   UNL     1       2.382  -2.199  -0.100  0.00  0.00    +0.000 C 
ATOM     11  C   UNL     1       4.753   1.210   1.658  0.00  0.00    +0.000 C 
ATOM     12  C   UNL     1       0.751   0.103  -0.818  0.00  0.00    +0.000 A 
ATOM     13  C   UNL     1       0.894  -2.225   0.236  0.00  0.00    +0.000 C 
ATOM     14  C   UNL     1       0.118  -1.058  -0.323  0.00  0.00    +0.000 A 
ATOM     15  C   UNL     1      -0.058   1.138  -1.321  0.00  0.00    +0.000 A 
ATOM     16  C   UNL     1      -1.286  -1.132  -0.293  0.00  0.00    +0.000 A 
ATOM     17  C   UNL     1      -1.452   1.047  -1.294  0.00  0.00    +0.000 A 
ATOM     18  C   UNL     1      -2.066  -0.085  -0.775  0.00  0.00    +0.000 A 
ENDROOT
BRANCH   5  19
ATOM     19  O   UNL     1       7.348   1.402   0.575  0.00  0.00    +0.000 OA
ATOM     20  H   UNL     1       8.269   1.101   0.483  0.00  0.00    +0.000 HD
ENDBRANCH   5  19
BRANCH  18  21
ATOM     21  O   UNL     1      -3.423  -0.174  -0.746  0.00  0.00    +0.000 OA
BRANCH  21  23
ATOM     22  O   UNL     1      -3.406   0.813   1.365  0.00  0.00    +0.000 OA
ATOM     23  C   UNL     1      -4.008   0.322   0.422  0.00  0.00    +0.000 C 
BRANCH  23  24
ATOM     24  C   UNL     1      -5.487   0.192   0.381  0.00  0.00    +0.000 A 
ATOM     25  C   UNL     1      -6.257   1.120   1.051  0.00  0.00    +0.000 A 
ATOM     26  C   UNL     1      -6.044  -0.853  -0.327  0.00  0.00    +0.000 A 
ATOM     27  C   UNL     1      -7.646   0.997   1.012  0.00  0.00    +0.000 A 
ATOM     28  C   UNL     1      -7.433  -0.976  -0.366  0.00  0.00    +0.000 A 
ATOM     29  C   UNL     1      -8.234  -0.050   0.304  0.00  0.00    +0.000 A 
ENDBRANCH  23  24
ENDBRANCH  21  23
ENDBRANCH  18  21
TORSDOF 4
