REMARK  Name = 441336
REMARK  9 active torsions:
REMARK  status: ('A' for Active; 'I' for Inactive)
REMARK    1  A    between atoms: O_3  and  C_13
REMARK    2  A    between atoms: O_3  and  C_30
REMARK    3  A    between atoms: O_4  and  C_17
REMARK    4  A    between atoms: C_9  and  C_20
REMARK    5  A    between atoms: C_13  and  C_23
REMARK    6  A    between atoms: C_16  and  C_24
REMARK    7  A    between atoms: C_18  and  C_25
REMARK    8  A    between atoms: C_23  and  C_28
REMARK    9  A    between atoms: C_30  and  C_32
REMARK                            x       y       z     vdW  Elec       q    Type
REMARK                         _______ _______ _______ _____ _____    ______ ____
ROOT
ATOM      1 CL   UNL     1       1.887   1.419  -0.793  0.00  0.00    +0.000 Cl
ATOM      2  O   UNL     1       6.723   2.449  -0.795  0.00  0.00    +0.000 OA
ATOM      3  C   UNL     1      -0.620  -1.414   0.112  0.00  0.00    +0.000 C 
ATOM      4  C   UNL     1       0.046  -0.417   1.087  0.00  0.00    +0.000 C 
ATOM      5  C   UNL     1       1.577  -0.560   1.151  0.00  0.00    +0.000 C 
ATOM      6  C   UNL     1       2.223  -0.336  -0.275  0.00  0.00    +0.000 C 
ATOM      7  C   UNL     1      -2.110  -1.020   0.336  0.00  0.00    +0.000 C 
ATOM      8  C   UNL     1      -0.766  -0.574   2.372  0.00  0.00    +0.000 C 
ATOM      9  C   UNL     1      -0.049  -1.150  -1.300  0.00  0.00    +0.000 C 
ATOM     10  C   UNL     1      -2.215  -0.845   1.883  0.00  0.00    +0.000 C 
ATOM     11  C   UNL     1       1.499  -1.212  -1.358  0.00  0.00    +0.000 C 
ATOM     12  C   UNL     1       3.810  -0.501  -0.197  0.00  0.00    +0.000 C 
ATOM     13  C   UNL     1       2.191   0.359   2.224  0.00  0.00    +0.000 C 
ATOM     14  C   UNL     1      -0.405  -2.903   0.510  0.00  0.00    +0.000 C 
ATOM     15  C   UNL     1       3.713   0.246   2.277  0.00  0.00    +0.000 C 
ATOM     16  C   UNL     1       4.333   0.425   0.913  0.00  0.00    +0.000 C 
ATOM     17  C   UNL     1      -3.186   0.239   2.341  0.00  0.00    +0.000 C 
ATOM     18  C   UNL     1       4.287  -1.934   0.154  0.00  0.00    +0.000 C 
ATOM     19  C   UNL     1       4.463  -0.188  -1.538  0.00  0.00    +0.000 C 
ATOM     20  C   UNL     1       5.266   1.369   0.711  0.00  0.00    +0.000 C 
ATOM     21  C   UNL     1       5.392   0.751  -1.739  0.00  0.00    +0.000 C 
ATOM     22  C   UNL     1       5.864   1.591  -0.622  0.00  0.00    +0.000 C 
ENDROOT
BRANCH  11  23
ATOM     23  O   UNL     1       1.904  -2.574  -1.277  0.00  0.00    +0.000 OA
ATOM     24  H   UNL     1       1.484  -3.054  -2.010  0.00  0.00    +0.000 HD
ENDBRANCH  11  23
BRANCH   7  26
ATOM     25  O   UNL     1      -3.865  -2.600   0.584  0.00  0.00    +0.000 OA
ATOM     26  C   UNL     1      -3.096  -2.022  -0.183  0.00  0.00    +0.000 C 
BRANCH  26  28
ATOM     27 CL   UNL     1      -4.670  -2.726  -2.265  0.00  0.00    +0.000 Cl
ATOM     28  C   UNL     1      -3.068  -2.259  -1.676  0.00  0.00    +0.000 C 
ENDBRANCH  26  28
ENDBRANCH   7  26
BRANCH   7  29
ATOM     29  O   UNL     1      -2.480   0.152  -0.380  0.00  0.00    +0.000 OA
BRANCH  29  31
ATOM     30  O   UNL     1      -4.710  -0.131   0.072  0.00  0.00    +0.000 OA
ATOM     31  C   UNL     1      -3.762   0.602  -0.189  0.00  0.00    +0.000 C 
BRANCH  31  33
ATOM     32  O   UNL     1      -5.052   2.606  -0.175  0.00  0.00    +0.000 OA
ATOM     33  C   UNL     1      -3.841   2.056  -0.340  0.00  0.00    +0.000 A 
ATOM     34  C   UNL     1      -2.878   2.956  -0.624  0.00  0.00    +0.000 A 
ATOM     35  C   UNL     1      -3.543   4.205  -0.641  0.00  0.00    +0.000 A 
ATOM     36  C   UNL     1      -4.863   3.939  -0.362  0.00  0.00    +0.000 A 
ENDBRANCH  31  33
ENDBRANCH  29  31
ENDBRANCH   7  29
TORSDOF 6
