REMARK  Name = 11954353
REMARK  9 active torsions:
REMARK  status: ('A' for Active; 'I' for Inactive)
REMARK    1  A    between atoms: O_3  and  C_16
REMARK    2  A    between atoms: O_5  and  C_27
REMARK    3  A    between atoms: O_5  and  C_30
REMARK    4  A    between atoms: C_8  and  C_19
REMARK    5  A    between atoms: C_12  and  C_22
REMARK    6  A    between atoms: C_15  and  C_23
REMARK    7  A    between atoms: C_17  and  C_24
REMARK    8  A    between atoms: C_22  and  C_27
REMARK    9  A    between atoms: C_30  and  C_31
REMARK                            x       y       z     vdW  Elec       q    Type
REMARK                         _______ _______ _______ _____ _____    ______ ____
ROOT
ATOM      1 CL   UNL     1      -1.720  -0.571   1.801  0.00  0.00    +0.000 Cl
ATOM      2  F   UNL     1      -4.528   2.590   0.059  0.00  0.00    +0.000 F 
ATOM      3  O   UNL     1      -6.521  -1.668   1.464  0.00  0.00    +0.000 OA
ATOM      4  C   UNL     1       1.328   0.498  -0.355  0.00  0.00    +0.000 C 
ATOM      5  C   UNL     1       0.197   1.404   0.175  0.00  0.00    +0.000 C 
ATOM      6  C   UNL     1      -1.183   1.054  -0.407  0.00  0.00    +0.000 C 
ATOM      7  C   UNL     1      -1.575  -0.438  -0.053  0.00  0.00    +0.000 C 
ATOM      8  C   UNL     1       2.510   1.116   0.433  0.00  0.00    +0.000 C 
ATOM      9  C   UNL     1       0.760   2.812  -0.004  0.00  0.00    +0.000 C 
ATOM     10  C   UNL     1       1.003  -0.959   0.027  0.00  0.00    +0.000 C 
ATOM     11  C   UNL     1       2.264   2.648   0.340  0.00  0.00    +0.000 C 
ATOM     12  C   UNL     1      -0.408  -1.426  -0.418  0.00  0.00    +0.000 C 
ATOM     13  C   UNL     1      -3.013  -0.796  -0.650  0.00  0.00    +0.000 C 
ATOM     14  C   UNL     1      -2.258   2.060   0.040  0.00  0.00    +0.000 C 
ATOM     15  C   UNL     1       1.563   0.613  -1.884  0.00  0.00    +0.000 C 
ATOM     16  C   UNL     1      -3.644   1.703  -0.487  0.00  0.00    +0.000 C 
ATOM     17  C   UNL     1      -4.012   0.273  -0.172  0.00  0.00    +0.000 C 
ATOM     18  C   UNL     1       2.635   3.356   1.639  0.00  0.00    +0.000 C 
ATOM     19  C   UNL     1      -3.072  -0.805  -2.200  0.00  0.00    +0.000 C 
ATOM     20  C   UNL     1      -3.446  -2.196  -0.232  0.00  0.00    +0.000 C 
ATOM     21  C   UNL     1      -5.132  -0.020   0.508  0.00  0.00    +0.000 C 
ATOM     22  C   UNL     1      -4.563  -2.485   0.444  0.00  0.00    +0.000 C 
ATOM     23  C   UNL     1      -5.489  -1.413   0.853  0.00  0.00    +0.000 C 
ENDROOT
BRANCH  12  24
ATOM     24  O   UNL     1      -0.371  -1.665  -1.822  0.00  0.00    +0.000 OA
ATOM     25  H   UNL     1       0.309  -2.339  -1.992  0.00  0.00    +0.000 HD
ENDBRANCH  12  24
BRANCH   8  27
ATOM     26  O   UNL     1       4.416   1.372  -0.974  0.00  0.00    +0.000 OA
ATOM     27  C   UNL     1       3.858   0.722  -0.091  0.00  0.00    +0.000 C 
BRANCH  27  28
ATOM     28  C   UNL     1       4.482  -0.512   0.526  0.00  0.00    +0.000 C 
BRANCH  28  29
ATOM     29  O   UNL     1       5.749  -0.767  -0.043  0.00  0.00    +0.000 OA
BRANCH  29  31
ATOM     30  O   UNL     1       6.010  -2.626   1.302  0.00  0.00    +0.000 OA
ATOM     31  C   UNL     1       6.418  -1.864   0.436  0.00  0.00    +0.000 C 
ATOM     32  C   UNL     1       7.739  -2.010  -0.256  0.00  0.00    +0.000 C 
ENDBRANCH  29  31
ENDBRANCH  28  29
ENDBRANCH  27  28
ENDBRANCH   8  27
TORSDOF 5
