REMARK  Name = 164090
REMARK  6 active torsions:
REMARK  status: ('A' for Active; 'I' for Inactive)
REMARK    1  A    between atoms: N_3  and  C_31
REMARK    2  A    between atoms: N_3  and  C_32
REMARK    3  A    between atoms: N_3  and  C_33
REMARK    4  A    between atoms: C_4  and  C_14
REMARK    5  A    between atoms: C_11  and  C_21
REMARK    6  A    between atoms: C_18  and  C_23
REMARK                            x       y       z     vdW  Elec       q    Type
REMARK                         _______ _______ _______ _____ _____    ______ ____
ROOT
ATOM      1  O   UNL     1       4.680  -0.834   0.015  0.00  0.00    +0.000 OA
ATOM      2  O   UNL     1      -5.621  -2.709  -1.725  0.00  0.00    +0.000 OA
ATOM      3  C   UNL     1       2.212  -0.894   0.213  0.00  0.00    +0.000 C 
ATOM      4  C   UNL     1       1.283  -1.992   0.762  0.00  0.00    +0.000 C 
ATOM      5  C   UNL     1       3.539  -1.712   0.042  0.00  0.00    +0.000 C 
ATOM      6  C   UNL     1      -0.108  -1.479   1.157  0.00  0.00    +0.000 C 
ATOM      7  C   UNL     1       2.125  -2.664   1.845  0.00  0.00    +0.000 C 
ATOM      8  C   UNL     1       3.572  -2.574   1.332  0.00  0.00    +0.000 C 
ATOM      9  C   UNL     1       1.560  -0.336  -1.062  0.00  0.00    +0.000 C 
ATOM     10  C   UNL     1       0.084   0.141  -0.892  0.00  0.00    +0.000 C 
ATOM     11  C   UNL     1      -0.794  -0.807  -0.049  0.00  0.00    +0.000 C 
ATOM     12  C   UNL     1       3.665  -2.588  -1.214  0.00  0.00    +0.000 C 
ATOM     13  C   UNL     1       2.464   0.273   1.209  0.00  0.00    +0.000 C 
ATOM     14  C   UNL     1      -0.935  -2.625   1.769  0.00  0.00    +0.000 C 
ATOM     15  C   UNL     1       4.458  -1.720  -2.160  0.00  0.00    +0.000 C 
ATOM     16  C   UNL     1      -2.104  -1.038  -0.331  0.00  0.00    +0.000 C 
ATOM     17  C   UNL     1      -2.423  -2.293   1.866  0.00  0.00    +0.000 C 
ATOM     18  C   UNL     1       5.394  -1.011  -1.212  0.00  0.00    +0.000 C 
ATOM     19  C   UNL     1      -2.933  -1.936   0.488  0.00  0.00    +0.000 C 
ATOM     20  C   UNL     1      -2.892  -0.366  -1.439  0.00  0.00    +0.000 C 
ATOM     21  C   UNL     1      -2.722  -1.191   2.887  0.00  0.00    +0.000 C 
ATOM     22  C   UNL     1      -4.089  -2.461   0.044  0.00  0.00    +0.000 C 
ATOM     23  C   UNL     1      -3.696  -1.377  -2.245  0.00  0.00    +0.000 C 
ATOM     24  C   UNL     1      -4.570  -2.204  -1.336  0.00  0.00    +0.000 C 
ENDROOT
BRANCH  10  25
ATOM     25  C   UNL     1      -0.038   1.627  -0.550  0.00  0.00    +0.000 A 
ATOM     26  C   UNL     1       0.656   2.569  -1.303  0.00  0.00    +0.000 A 
ATOM     27  C   UNL     1      -0.844   2.028   0.512  0.00  0.00    +0.000 A 
ATOM     28  C   UNL     1       0.544   3.925  -0.992  0.00  0.00    +0.000 A 
ATOM     29  C   UNL     1      -0.956   3.384   0.823  0.00  0.00    +0.000 A 
ATOM     30  C   UNL     1      -0.262   4.332   0.071  0.00  0.00    +0.000 A 
BRANCH  30  31
ATOM     31  N   UNL     1      -0.375   5.702   0.386  0.00  0.00    +0.000 N 
ATOM     32  C   UNL     1      -1.599   6.224   0.962  0.00  0.00    +0.000 C 
ATOM     33  C   UNL     1       0.725   6.608   0.125  0.00  0.00    +0.000 C 
ENDBRANCH  30  31
ENDBRANCH  10  25
TORSDOF 2
