REMARK  Name = 441893
REMARK  6 active torsions:
REMARK  status: ('A' for Active; 'I' for Inactive)
REMARK    1  A    between atoms: O_3  and  C_20
REMARK    2  A    between atoms: O_4  and  C_27
REMARK    3  A    between atoms: C_5  and  C_17
REMARK    4  A    between atoms: C_13  and  C_21
REMARK    5  A    between atoms: C_15  and  C_24
REMARK    6  A    between atoms: C_29  and  C_31
REMARK                            x       y       z     vdW  Elec       q    Type
REMARK                         _______ _______ _______ _____ _____    ______ ____
ROOT
ATOM      1  O   UNL     1       3.511   0.910  -0.338  0.00  0.00    +0.000 OA
ATOM      2  O   UNL     1       4.983  -0.306   1.101  0.00  0.00    +0.000 OA
ATOM      3  C   UNL     1       0.606  -0.862  -0.090  0.00  0.00    +0.000 C 
ATOM      4  C   UNL     1       0.014   0.504   0.325  0.00  0.00    +0.000 C 
ATOM      5  C   UNL     1       2.030  -0.750   0.533  0.00  0.00    +0.000 C 
ATOM      6  C   UNL     1      -1.403   0.741  -0.204  0.00  0.00    +0.000 C 
ATOM      7  C   UNL     1       2.357   0.758   0.482  0.00  0.00    +0.000 C 
ATOM      8  C   UNL     1      -2.354  -0.389   0.302  0.00  0.00    +0.000 C 
ATOM      9  C   UNL     1       1.121   1.483  -0.051  0.00  0.00    +0.000 C 
ATOM     10  C   UNL     1      -0.275  -1.940   0.554  0.00  0.00    +0.000 C 
ATOM     11  C   UNL     1       3.223  -1.406  -0.172  0.00  0.00    +0.000 C 
ATOM     12  C   UNL     1      -1.746  -1.810   0.118  0.00  0.00    +0.000 C 
ATOM     13  C   UNL     1      -3.826  -0.204  -0.276  0.00  0.00    +0.000 C 
ATOM     14  C   UNL     1       4.291  -0.293  -0.156  0.00  0.00    +0.000 C 
ATOM     15  C   UNL     1       0.640  -1.071  -1.624  0.00  0.00    +0.000 C 
ATOM     16  C   UNL     1      -1.922   2.111   0.253  0.00  0.00    +0.000 C 
ATOM     17  C   UNL     1      -4.254   1.273  -0.181  0.00  0.00    +0.000 C 
ATOM     18  C   UNL     1      -4.828  -1.073   0.563  0.00  0.00    +0.000 C 
ATOM     19  C   UNL     1       3.633  -2.720   0.481  0.00  0.00    +0.000 C 
ATOM     20  C   UNL     1       5.288  -0.440  -1.310  0.00  0.00    +0.000 C 
ATOM     21  C   UNL     1      -3.395   2.276   0.071  0.00  0.00    +0.000 C 
ATOM     22  C   UNL     1      -3.886  -0.608  -1.771  0.00  0.00    +0.000 C 
ATOM     23  C   UNL     1      -5.718   1.587  -0.381  0.00  0.00    +0.000 C 
ATOM     24  C   UNL     1      -6.305  -0.744   0.321  0.00  0.00    +0.000 C 
ATOM     25  C   UNL     1      -6.598   0.736   0.524  0.00  0.00    +0.000 C 
ATOM     26  C   UNL     1       6.385   0.620  -1.233  0.00  0.00    +0.000 C 
ATOM     27  C   UNL     1       7.032   0.616   0.154  0.00  0.00    +0.000 C 
ATOM     28  C   UNL     1       5.954   0.732   1.231  0.00  0.00    +0.000 C 
ATOM     29  C   UNL     1       8.063   1.732   0.284  0.00  0.00    +0.000 C 
ENDROOT
BRANCH  18  30
ATOM     30  O   UNL     1      -4.660  -2.462   0.282  0.00  0.00    +0.000 OA
ATOM     31  H   UNL     1      -5.249  -2.957   0.877  0.00  0.00    +0.000 HD
ENDBRANCH  18  30
BRANCH  25  32
ATOM     32  O   UNL     1      -7.962   0.999   0.208  0.00  0.00    +0.000 OA
ATOM     33  H   UNL     1      -8.122   1.945   0.363  0.00  0.00    +0.000 HD
ENDBRANCH  25  32
TORSDOF 2
