REMARK  Name = 
REMARK  23 active torsions:
REMARK  status: ('A' for Active; 'I' for Inactive)
REMARK    1  A    between atoms: C_3  and  O_19
REMARK    2  A    between atoms: C_10  and  C_43
REMARK    3  A    between atoms: C_10  and  O_44
REMARK    4  A    between atoms: C_11  and  O_20
REMARK    5  A    between atoms: C_12  and  O_40
REMARK    6  A    between atoms: C_16  and  C_23
REMARK    7  A    between atoms: C_17  and  O_25
REMARK    8  A    between atoms: C_18  and  N_37
REMARK    9  A    between atoms: N_24  and  C_27
REMARK   10  A    between atoms: C_27  and  N_28
REMARK   11  A    between atoms: N_31  and  C_34
REMARK   12  A    between atoms: C_34  and  C_35
REMARK   13  A    between atoms: C_35  and  O_36
REMARK   14  A    between atoms: N_37  and  C_38
REMARK   15  A    between atoms: N_37  and  C_39
REMARK   16  A    between atoms: CA_45  and  N_58
REMARK   17  A    between atoms: CA_49  and  C_54
REMARK   18  A    between atoms: C_50  and  C_52
REMARK   19  A    between atoms: C_50  and  C_53
REMARK   20  A    between atoms: C_54  and  O_55
REMARK   21  A    between atoms: C_59  and  C_62
REMARK   22  A    between atoms: C_62  and  O_63
REMARK   23  A    between atoms: O_63  and  C_64
REMARK                            x       y       z     vdW  Elec       q    Type
REMARK                         _______ _______ _______ _____ _____    ______ ____
ROOT
ATOM      1  C   UNL     1      -6.106   2.762   0.000  0.00  0.00    +0.000 A 
ATOM      2  C   UNL     1      -6.106   1.931   0.000  0.00  0.00    +0.000 A 
ATOM      3  C   UNL     1      -5.358   1.516   0.000  0.00  0.00    +0.000 A 
ATOM      4  C   UNL     1      -4.652   1.931   0.000  0.00  0.00    +0.000 A 
ATOM      5  C   UNL     1      -4.652   2.762   0.000  0.00  0.00    +0.000 A 
ATOM      6  C   UNL     1      -5.358   3.178   0.000  0.00  0.00    +0.000 A 
ATOM      7  C   UNL     1      -3.946   1.516   0.000  0.00  0.00    +0.000 C 
ATOM      8  C   UNL     1      -3.198   1.931   0.000  0.00  0.00    +0.000 C 
ATOM      9  C   UNL     1      -3.198   2.762   0.000  0.00  0.00    +0.000 C 
ATOM     10  C   UNL     1      -3.946   3.178   0.000  0.00  0.00    +0.000 C 
ATOM     11  C   UNL     1      -2.492   1.516   0.000  0.00  0.00    +0.000 C 
ATOM     12  C   UNL     1      -1.786   1.931   0.000  0.00  0.00    +0.000 C 
ATOM     13  C   UNL     1      -1.786   2.762   0.000  0.00  0.00    +0.000 C 
ATOM     14  C   UNL     1      -2.492   3.178   0.000  0.00  0.00    +0.000 C 
ATOM     15  C   UNL     1      -1.038   1.516   0.000  0.00  0.00    +0.000 C 
ATOM     16  C   UNL     1      -0.332   1.931   0.000  0.00  0.00    +0.000 C 
ATOM     17  C   UNL     1      -0.332   2.762   0.000  0.00  0.00    +0.000 C 
ATOM     18  C   UNL     1      -1.038   3.178   0.000  0.00  0.00    +0.000 C 
ATOM     19  O   UNL     1      -3.946   0.685   0.000  0.00  0.00    +0.000 OA
ATOM     20  O   UNL     1      -1.038   0.685   0.000  0.00  0.00    +0.000 OA
ATOM     21  C   UNL     1      -3.946   4.008   0.000  0.00  0.00    +0.000 C 
ENDROOT
BRANCH  16  22
ATOM     22  C   UNL     1       0.374   1.516   0.000  0.00  0.00    +0.000 C 
ATOM     23  N   UNL     1       1.121   1.931   0.000  0.00  0.00    +0.000 N 
ATOM     24  O   UNL     1       0.374   0.685   0.000  0.00  0.00    +0.000 OA
ATOM     25  H   UNL     1       1.134   2.916   0.000  0.00  0.00    +0.000 HD
BRANCH  23  26
ATOM     26  C   UNL     1       1.828   1.516   0.000  0.00  0.00    +0.000 C 
BRANCH  26  27
ATOM     27  N   UNL     1       2.534   1.890   0.000  0.00  0.00    +0.000 NA
ATOM     28  C   UNL     1       3.240   1.516   0.000  0.00  0.00    +0.000 C 
ATOM     29  C   UNL     1       3.946   1.931   0.000  0.00  0.00    +0.000 C 
ATOM     30  N   UNL     1       3.946   2.762   0.000  0.00  0.00    +0.000 NA
ATOM     31  C   UNL     1       3.240   3.178   0.000  0.00  0.00    +0.000 C 
ATOM     32  C   UNL     1       2.534   2.762   0.000  0.00  0.00    +0.000 C 
BRANCH  30  33
ATOM     33  C   UNL     1       4.694   3.178   0.000  0.00  0.00    +0.000 C 
BRANCH  33  34
ATOM     34  C   UNL     1       5.400   2.762   0.000  0.00  0.00    +0.000 C 
BRANCH  34  35
ATOM     35  O   UNL     1       6.106   3.178   0.000  0.00  0.00    +0.000 OA
ATOM     36  H   UNL     1       6.950   2.699   0.000  0.00  0.00    +0.000 HD
ENDBRANCH  34  35
ENDBRANCH  33  34
ENDBRANCH  30  33
ENDBRANCH  26  27
ENDBRANCH  23  26
ENDBRANCH  16  22
BRANCH  18  37
ATOM     37  N   UNL     1      -1.038   4.008   0.000  0.00  0.00    +0.000 NA
ATOM     38  C   UNL     1      -1.786   4.423   0.000  0.00  0.00    +0.000 C 
ATOM     39  C   UNL     1      -0.332   4.423   0.000  0.00  0.00    +0.000 C 
ENDBRANCH  18  37
BRANCH   3  40
ATOM     40  O   UNL     1      -5.358   0.685   0.000  0.00  0.00    +0.000 OA
ATOM     41  H   UNL     1      -6.170   0.217   0.000  0.00  0.00    +0.000 HD
ENDBRANCH   3  40
BRANCH  11  42
ATOM     42  O   UNL     1      -2.492   0.685   0.000  0.00  0.00    +0.000 OA
ATOM     43  H   UNL     1      -3.304   0.217   0.000  0.00  0.00    +0.000 HD
ENDBRANCH  11  42
BRANCH  17  44
ATOM     44  O   UNL     1       0.374   3.178   0.000  0.00  0.00    +0.000 OA
ATOM     45  H   UNL     1       1.189   2.716   0.000  0.00  0.00    +0.000 HD
ENDBRANCH  17  44
BRANCH  12  46
ATOM     46  O   UNL     1      -1.786   1.101   0.000  0.00  0.00    +0.000 OA
ATOM     47  H   UNL     1      -2.626   0.615   0.000  0.00  0.00    +0.000 HD
ENDBRANCH  12  46
BRANCH  10  48
ATOM     48  O   UNL     1      -4.652   3.593   0.000  0.00  0.00    +0.000 OA
ATOM     49  H   UNL     1      -4.644   4.563   0.000  0.00  0.00    +0.000 HD
ENDBRANCH  10  48
TORSDOF 12
REMARK  Name = 
REMARK  23 active torsions:
REMARK  status: ('A' for Active; 'I' for Inactive)
REMARK    1  A    between atoms: C_3  and  O_19
REMARK    2  A    between atoms: C_10  and  C_43
REMARK    3  A    between atoms: C_10  and  O_44
REMARK    4  A    between atoms: C_11  and  O_20
REMARK    5  A    between atoms: C_12  and  O_40
REMARK    6  A    between atoms: C_16  and  C_23
REMARK    7  A    between atoms: C_17  and  O_25
REMARK    8  A    between atoms: C_18  and  N_37
REMARK    9  A    between atoms: N_24  and  C_27
REMARK   10  A    between atoms: C_27  and  N_28
REMARK   11  A    between atoms: N_31  and  C_34
REMARK   12  A    between atoms: C_34  and  C_35
REMARK   13  A    between atoms: C_35  and  O_36
REMARK   14  A    between atoms: N_37  and  C_38
REMARK   15  A    between atoms: N_37  and  C_39
REMARK   16  A    between atoms: CA_45  and  N_58
REMARK   17  A    between atoms: CA_49  and  C_54
REMARK   18  A    between atoms: C_50  and  C_52
REMARK   19  A    between atoms: C_50  and  C_53
REMARK   20  A    between atoms: C_54  and  O_55
REMARK   21  A    between atoms: C_59  and  C_62
REMARK   22  A    between atoms: C_62  and  O_63
REMARK   23  A    between atoms: O_63  and  C_64
REMARK                            x       y       z     vdW  Elec       q    Type
REMARK                         _______ _______ _______ _____ _____    ______ ____
ROOT
ATOM      1  CA  UNL     1       1.214  -1.890   0.000  0.00  0.00    +0.000 C 
ATOM      2  C   UNL     1       1.214  -2.720   0.000  0.00  0.00    +0.000 C 
ATOM      3  N   UNL     1       2.045  -2.720   0.000  0.00  0.00    +0.000 N 
ATOM      4  C   UNL     1       2.045  -1.890   0.000  0.00  0.00    +0.000 C 
ATOM      5  CA  UNL     1       2.834  -2.970   0.000  0.00  0.00    +0.000 C 
ATOM      6  C   UNL     1       3.333  -2.305   0.000  0.00  0.00    +0.000 C 
ATOM      7  S   UNL     1       2.834  -1.641   0.000  0.00  0.00    +0.000 S 
ATOM      8  C   UNL     1       3.914  -2.887   0.000  0.00  0.00    +0.000 C 
ATOM      9  C   UNL     1       3.914  -1.724   0.000  0.00  0.00    +0.000 C 
ATOM     10  O   UNL     1       0.508  -3.136   0.000  0.00  0.00    +0.000 OA
ENDROOT
BRANCH   1  11
ATOM     11  N   UNL     1       0.508  -1.474   0.000  0.00  0.00    +0.000 N 
ATOM     12  C   UNL     1      -0.198  -1.890   0.000  0.00  0.00    +0.000 C 
ATOM     13  O   UNL     1      -0.198  -2.720   0.000  0.00  0.00    +0.000 OA
ATOM     14  H   UNL     1       0.508  -0.490   0.000  0.00  0.00    +0.000 HD
BRANCH  12  15
ATOM     15  C   UNL     1      -0.904  -1.474   0.000  0.00  0.00    +0.000 C 
BRANCH  15  16
ATOM     16  O   UNL     1      -1.610  -1.890   0.000  0.00  0.00    +0.000 OA
BRANCH  16  17
ATOM     17  C   UNL     1      -2.358  -1.474   0.000  0.00  0.00    +0.000 A 
ATOM     18  C   UNL     1      -2.358  -0.644   0.000  0.00  0.00    +0.000 A 
ATOM     19  C   UNL     1      -3.064  -0.228   0.000  0.00  0.00    +0.000 A 
ATOM     20  C   UNL     1      -3.770  -0.644   0.000  0.00  0.00    +0.000 A 
ATOM     21  C   UNL     1      -3.770  -1.474   0.000  0.00  0.00    +0.000 A 
ATOM     22  C   UNL     1      -3.064  -1.890   0.000  0.00  0.00    +0.000 A 
ENDBRANCH  16  17
ENDBRANCH  15  16
ENDBRANCH  12  15
ENDBRANCH   1  11
BRANCH   5  23
ATOM     23  C   UNL     1       3.125  -3.759   0.000  0.00  0.00    +0.000 C 
ATOM     24  OXT UNL     1       2.627  -4.423   0.000  0.00  0.00    +0.000 OA
BRANCH  23  25
ATOM     25  O   UNL     1       3.956  -3.759   0.000  0.00  0.00    +0.000 OA
ATOM     26  H   UNL     1       4.424  -4.570   0.000  0.00  0.00    +0.000 HD
ENDBRANCH  23  25
ENDBRANCH   5  23
TORSDOF 6
