REMARK  Name = 59534386
REMARK  9 active torsions:
REMARK  status: ('A' for Active; 'I' for Inactive)
REMARK    1  A    between atoms: N_5  and  C_10
REMARK    2  A    between atoms: N_6  and  C_19
REMARK    3  A    between atoms: N_9  and  C_35
REMARK    4  A    between atoms: N_9  and  C_36
REMARK    5  A    between atoms: C_13  and  C_20
REMARK    6  A    between atoms: C_19  and  C_21
REMARK    7  A    between atoms: C_25  and  C_29
REMARK    8  A    between atoms: C_30  and  C_33
REMARK    9  A    between atoms: C_31  and  C_34
REMARK                            x       y       z     vdW  Elec       q    Type
REMARK                         _______ _______ _______ _____ _____    ______ ____
ROOT
ATOM      1  O   UNL     1       1.451  -2.578  -2.210  0.00  0.00    +0.000 OA
ATOM      2  N   UNL     1       0.162  -2.127  -0.292  0.00  0.00    +0.000 N 
ATOM      3  C   UNL     1      -1.079  -2.597   0.282  0.00  0.00    +0.000 C 
ATOM      4  C   UNL     1      -1.294  -3.938  -0.398  0.00  0.00    +0.000 C 
ATOM      5  C   UNL     1      -0.595  -3.792  -1.748  0.00  0.00    +0.000 C 
ATOM      6  C   UNL     1       0.493  -2.779  -1.478  0.00  0.00    +0.000 C 
ENDROOT
BRANCH   3  10
ATOM      7  O   UNL     1      -2.090  -0.949  -1.093  0.00  0.00    +0.000 OA
ATOM      8  N   UNL     1      -3.148  -1.597   0.906  0.00  0.00    +0.000 N 
ATOM      9  N   UNL     1      -5.167  -0.931   1.971  0.00  0.00    +0.000 NA
ATOM     10  C   UNL     1      -2.155  -1.615  -0.065  0.00  0.00    +0.000 C 
ATOM     11  C   UNL     1      -4.317  -0.800   0.928  0.00  0.00    +0.000 A 
ATOM     12  C   UNL     1      -4.517   0.072  -0.130  0.00  0.00    +0.000 A 
ATOM     13  C   UNL     1      -5.663   0.860  -0.117  0.00  0.00    +0.000 A 
ATOM     14  C   UNL     1      -6.270  -0.149   1.949  0.00  0.00    +0.000 A 
ATOM     15  C   UNL     1      -6.561   0.753   0.939  0.00  0.00    +0.000 A 
ATOM     16  C   UNL     1      -7.211  -0.290   3.099  0.00  0.00    +0.000 C 
ATOM     17  H   UNL     1      -3.058  -2.221   1.704  0.00  0.00    +0.000 HD
BRANCH  13  20
ATOM     18  O   UNL     1      -6.579   1.367  -2.163  0.00  0.00    +0.000 OA
ATOM     19  N   UNL     1      -5.431   3.107  -1.104  0.00  0.00    +0.000 N 
ATOM     20  C   UNL     1      -5.921   1.791  -1.203  0.00  0.00    +0.000 C 
ATOM     21  C   UNL     1      -4.658   3.564   0.049  0.00  0.00    +0.000 C 
ATOM     22  C   UNL     1      -5.662   4.100  -2.143  0.00  0.00    +0.000 C 
ENDBRANCH  13  20
ENDBRANCH   3  10
BRANCH   2  24
ATOM     23  N   UNL     1       3.250   0.714   0.274  0.00  0.00    +0.000 NA
ATOM     24  C   UNL     1       0.927  -1.065   0.311  0.00  0.00    +0.000 C 
ATOM     25  C   UNL     1       1.013   0.147  -0.617  0.00  0.00    +0.000 C 
ATOM     26  C   UNL     1       2.330  -1.546   0.681  0.00  0.00    +0.000 C 
ATOM     27  C   UNL     1       1.910   1.237  -0.026  0.00  0.00    +0.000 C 
ATOM     28  C   UNL     1       3.184  -0.401   1.228  0.00  0.00    +0.000 C 
BRANCH  23  29
ATOM     29  C   UNL     1       4.111   1.779   0.789  0.00  0.00    +0.000 C 
BRANCH  29  31
ATOM     30 CL   UNL     1       9.952   0.408   0.290  0.00  0.00    +0.000 Cl
ATOM     31  C   UNL     1       5.570   1.434   0.655  0.00  0.00    +0.000 A 
ATOM     32  C   UNL     1       6.110   1.163  -0.602  0.00  0.00    +0.000 A 
ATOM     33  C   UNL     1       6.383   1.387   1.788  0.00  0.00    +0.000 A 
ATOM     34  C   UNL     1       7.462   0.844  -0.727  0.00  0.00    +0.000 A 
ATOM     35  C   UNL     1       7.735   1.068   1.663  0.00  0.00    +0.000 A 
ATOM     36  C   UNL     1       8.274   0.797   0.406  0.00  0.00    +0.000 A 
ATOM     37  C   UNL     1       8.002   0.561  -2.091  0.00  0.00    +0.000 C 
ENDBRANCH  29  31
ENDBRANCH  23  29
ENDBRANCH   2  24
TORSDOF 5
