REMARK  Name = 86269224
REMARK  4 active torsions:
REMARK  status: ('A' for Active; 'I' for Inactive)
REMARK    1  A    between atoms: N_5  and  C_28
REMARK    2  A    between atoms: N_6  and  C_29
REMARK    3  A    between atoms: C_28  and  C_30
REMARK    4  A    between atoms: C_28  and  C_31
REMARK                            x       y       z     vdW  Elec       q    Type
REMARK                         _______ _______ _______ _____ _____    ______ ____
ROOT
ATOM      1  O   UNL     1      -7.311  -1.467   0.207  0.00  0.00    +0.000 OA
ATOM      2  N   UNL     1      -3.884  -0.357  -0.166  0.00  0.00    +0.000 N 
ATOM      3  N   UNL     1      -5.426  -2.690  -0.231  0.00  0.00    +0.000 N 
ATOM      4  N   UNL     1      -2.107   1.306  -0.067  0.00  0.00    +0.000 NA
ATOM      5  N   UNL     1      -2.933   3.590  -0.051  0.00  0.00    +0.000 NA
ATOM      6  N   UNL     1      -0.641   3.124   0.002  0.00  0.00    +0.000 N 
ATOM      7  N   UNL     1       0.631   1.121   0.002  0.00  0.00    +0.000 NA
ATOM      8  C   UNL     1      -3.139  -1.641  -0.135  0.00  0.00    +0.000 C 
ATOM      9  C   UNL     1      -1.838  -1.607  -0.985  0.00  0.00    +0.000 C 
ATOM     10  C   UNL     1      -2.780  -1.966   1.339  0.00  0.00    +0.000 C 
ATOM     11  C   UNL     1      -4.069  -2.731  -0.745  0.00  0.00    +0.000 C 
ATOM     12  C   UNL     1      -0.994  -2.875  -0.841  0.00  0.00    +0.000 C 
ATOM     13  C   UNL     1      -1.902  -3.209   1.498  0.00  0.00    +0.000 C 
ATOM     14  C   UNL     1      -0.656  -3.150   0.621  0.00  0.00    +0.000 C 
ATOM     15  C   UNL     1      -5.270  -0.324  -0.111  0.00  0.00    +0.000 A 
ATOM     16  C   UNL     1      -3.399   0.930  -0.115  0.00  0.00    +0.000 A 
ATOM     17  C   UNL     1      -6.106  -1.502  -0.032  0.00  0.00    +0.000 C 
ATOM     18  C   UNL     1      -4.488   1.797  -0.111  0.00  0.00    +0.000 A 
ATOM     19  C   UNL     1      -5.657   1.002  -0.112  0.00  0.00    +0.000 A 
ATOM     20  C   UNL     1      -4.214   3.164  -0.083  0.00  0.00    +0.000 A 
ATOM     21  C   UNL     1      -1.970   2.645  -0.041  0.00  0.00    +0.000 A 
ATOM     22  C   UNL     1       3.044   1.250   0.067  0.00  0.00    +0.000 A 
ATOM     23  C   UNL     1       0.605   2.472   0.024  0.00  0.00    +0.000 A 
ATOM     24  C   UNL     1       2.976   2.639   0.088  0.00  0.00    +0.000 A 
ATOM     25  C   UNL     1       1.853   0.543   0.024  0.00  0.00    +0.000 A 
ATOM     26  C   UNL     1       1.737   3.269   0.066  0.00  0.00    +0.000 A 
ATOM     27  H   UNL     1      -5.950  -3.558  -0.181  0.00  0.00    +0.000 HD
ATOM     28  H   UNL     1      -0.597   4.139   0.020  0.00  0.00    +0.000 HD
ENDROOT
BRANCH  22  30
ATOM     29  N   UNL     1       6.706  -0.894   0.339  0.00  0.00    +0.000 NA
ATOM     30  N   UNL     1       4.277   0.588   0.088  0.00  0.00    +0.000 N 
ATOM     31  C   UNL     1       5.885  -1.011  -0.873  0.00  0.00    +0.000 C 
ATOM     32  C   UNL     1       6.608   0.468   0.878  0.00  0.00    +0.000 C 
ATOM     33  C   UNL     1       4.414  -0.714  -0.572  0.00  0.00    +0.000 C 
ATOM     34  C   UNL     1       5.162   0.814   1.238  0.00  0.00    +0.000 C 
BRANCH  29  35
ATOM     35  C   UNL     1       8.099  -1.232   0.049  0.00  0.00    +0.000 C 
ATOM     36  C   UNL     1       8.256  -2.749   0.014  0.00  0.00    +0.000 C 
ATOM     37  C   UNL     1       8.532  -0.605  -1.273  0.00  0.00    +0.000 C 
ENDBRANCH  29  35
ENDBRANCH  22  30
TORSDOF 2
