REMARK  Name = 159772
REMARK  3 active torsions:
REMARK  status: ('A' for Active; 'I' for Inactive)
REMARK    1  A    between atoms: O_1  and  C_12
REMARK    2  A    between atoms: N_3  and  C_6
REMARK    3  A    between atoms: C_7  and  C_12
REMARK                            x       y       z     vdW  Elec       q    Type
REMARK                         _______ _______ _______ _____ _____    ______ ____
ROOT
ATOM      1  C   UNL     1       0.997   0.015   0.551  0.00  0.00    +0.000 A 
ATOM      2  C   UNL     1      -1.749   0.036   0.056  0.00  0.00    +0.000 A 
ATOM      3  C   UNL     1       0.321   1.228   0.416  0.00  0.00    +0.000 A 
ATOM      4  C   UNL     1       0.299  -1.188   0.438  0.00  0.00    +0.000 A 
ATOM      5  C   UNL     1      -1.051   1.238   0.169  0.00  0.00    +0.000 A 
ATOM      6  C   UNL     1      -1.073  -1.177   0.190  0.00  0.00    +0.000 A 
ENDROOT
BRANCH   1   7
ATOM      7  N   UNL     1       2.373   0.005   0.800  0.00  0.00    +0.000 NA
ATOM      8  N   UNL     1       4.561  -0.022  -0.016  0.00  0.00    +0.000 N 
ATOM      9  N   UNL     1       2.878  -0.019  -1.557  0.00  0.00    +0.000 N 
ATOM     10  C   UNL     1       3.201  -0.011  -0.217  0.00  0.00    +0.000 C 
ATOM     11  H   UNL     1       4.952  -0.017   0.920  0.00  0.00    +0.000 HD
ATOM     12  H   UNL     1       5.212  -0.033  -0.794  0.00  0.00    +0.000 HD
ATOM     13  H   UNL     1       3.600  -0.031  -2.269  0.00  0.00    +0.000 HD
ATOM     14  H   UNL     1       1.917  -0.013  -1.881  0.00  0.00    +0.000 HD
ENDBRANCH   1   7
BRANCH   2  16
ATOM     15  O   UNL     1      -3.875   1.058  -0.340  0.00  0.00    +0.000 OA
ATOM     16  C   UNL     1      -3.180   0.046  -0.203  0.00  0.00    +0.000 C 
BRANCH  16  17
ATOM     17  O   UNL     1      -3.703  -1.208  -0.286  0.00  0.00    +0.000 OA
ATOM     18  H   UNL     1      -4.668  -1.190  -0.461  0.00  0.00    +0.000 HD
ENDBRANCH  16  17
ENDBRANCH   2  16
TORSDOF 3
