REMARK  Name = 23342
REMARK  7 active torsions:
REMARK  status: ('A' for Active; 'I' for Inactive)
REMARK    1  A    between atoms: P_1  and  O_2
REMARK    2  A    between atoms: P_1  and  O_3
REMARK    3  A    between atoms: P_1  and  O_4
REMARK    4  A    between atoms: O_2  and  C_10
REMARK    5  A    between atoms: N_6  and  C_9
REMARK    6  A    between atoms: N_6  and  C_11
REMARK    7  A    between atoms: C_9  and  C_10
REMARK                            x       y       z     vdW  Elec       q    Type
REMARK                         _______ _______ _______ _____ _____    ______ ____
ROOT
ATOM      1  C   UNL     1      -0.981   1.278   0.991  0.00  0.00    +0.000 C 
ENDROOT
BRANCH   1   2
ATOM      2  N   UNL     1      -1.883   0.615   0.051  0.00  0.00    +0.000 N 
ATOM      3  N   UNL     1      -3.078  -1.227  -0.817  0.00  0.00    +0.000 N 
ATOM      4  N   UNL     1      -1.716  -1.578   1.017  0.00  0.00    +0.000 NA
ATOM      5  C   UNL     1      -2.467   1.470  -0.981  0.00  0.00    +0.000 C 
ATOM      6  C   UNL     1      -2.196  -0.749   0.126  0.00  0.00    +0.000 C 
ATOM      7  H   UNL     1      -3.501  -0.644  -1.529  0.00  0.00    +0.000 HD
ATOM      8  H   UNL     1      -3.350  -2.205  -0.823  0.00  0.00    +0.000 HD
ATOM      9  H   UNL     1      -2.108  -2.510   0.845  0.00  0.00    +0.000 HD
ENDBRANCH   1   2
BRANCH   1  10
ATOM     10  C   UNL     1       0.451   1.274   0.487  0.00  0.00    +0.000 C 
BRANCH  10  11
ATOM     11  O   UNL     1       0.899  -0.068   0.348  0.00  0.00    +0.000 OA
BRANCH  11  12
ATOM     12  P   UNL     1       2.406  -0.324  -0.179  0.00  0.00    +0.000 P 
ATOM     13  O   UNL     1       2.801  -1.766  -0.299  0.00  0.00    +0.000 OA
BRANCH  12  14
ATOM     14  O   UNL     1       3.318   0.563   0.819  0.00  0.00    +0.000 OA
ATOM     15  H   UNL     1       4.294   0.519   0.735  0.00  0.00    +0.000 HD
ENDBRANCH  12  14
BRANCH  12  16
ATOM     16  O   UNL     1       2.447   0.513  -1.563  0.00  0.00    +0.000 OA
ATOM     17  H   UNL     1       3.241   0.446  -2.135  0.00  0.00    +0.000 HD
ENDBRANCH  12  16
ENDBRANCH  11  12
ENDBRANCH  10  11
ENDBRANCH   1  10
TORSDOF 6
