REMARK  Name = 446475
REMARK  11 active torsions:
REMARK  status: ('A' for Active; 'I' for Inactive)
REMARK    1  A    between atoms: O_1  and  C_14
REMARK    2  A    between atoms: O_3  and  C_16
REMARK    3  A    between atoms: N_5  and  CA_9
REMARK    4  A    between atoms: N_5  and  C_12
REMARK    5  A    between atoms: NE_6  and  CD_13
REMARK    6  A    between atoms: CA_9  and  CB_10
REMARK    7  A    between atoms: CA_9  and  C_14
REMARK    8  A    between atoms: CB_10  and  CG_11
REMARK    9  A    between atoms: CG_11  and  CD_13
REMARK   10  A    between atoms: C_12  and  C_15
REMARK   11  A    between atoms: C_15  and  C_16
REMARK                            x       y       z     vdW  Elec       q    Type
REMARK                         _______ _______ _______ _____ _____    ______ ____
ROOT
ATOM      1  CA  ARG A   1      -0.366  -0.410  -0.321  0.00  0.00    +0.000 C 
ENDROOT
BRANCH   1   3
ATOM      2  OXT ARG A   1      -0.893  -2.150   1.302  0.00  0.00    +0.000 OA
ATOM      3  C   ARG A   1      -0.816  -1.786   0.136  0.00  0.00    +0.000 C 
BRANCH   3   4
ATOM      4  O   ARG A   1      -1.159  -2.585  -0.909  0.00  0.00    +0.000 OA
ATOM      5  H   ARG A   1      -1.461  -3.469  -0.608  0.00  0.00    +0.000 HD
ENDBRANCH   3   4
ENDBRANCH   1   3
BRANCH   1   6
ATOM      6  N   ARG A   1      -1.322   0.536   0.250  0.00  0.00    +0.000 NA
ATOM      7  H   ARG A   1      -1.062   1.487  -0.010  0.00  0.00    +0.000 HD
BRANCH   6   8
ATOM      8  C   UNK A   0      -2.671   0.250  -0.213  0.00  0.00    +0.000 C 
BRANCH   8   9
ATOM      9  C   UNK A   0      -3.661   1.241   0.392  0.00  0.00    +0.000 C 
BRANCH   9  11
ATOM     10  O   UNK A   0      -5.429   0.080  -0.823  0.00  0.00    +0.000 OA
ATOM     11  C   UNK A   0      -5.075   0.963  -0.056  0.00  0.00    +0.000 C 
BRANCH  11  12
ATOM     12  O   UNK A   0      -5.928   1.847   0.521  0.00  0.00    +0.000 OA
ATOM     13  H   UNK A   0      -6.857   1.691   0.248  0.00  0.00    +0.000 HD
ENDBRANCH  11  12
ENDBRANCH   9  11
ENDBRANCH   8   9
ENDBRANCH   6   8
ENDBRANCH   1   6
BRANCH   1  14
ATOM     14  CB  ARG A   1       1.053  -0.072   0.158  0.00  0.00    +0.000 C 
BRANCH  14  15
ATOM     15  CG  ARG A   1       2.094  -1.079  -0.354  0.00  0.00    +0.000 C 
BRANCH  15  16
ATOM     16  CD  ARG A   1       3.502  -0.759   0.135  0.00  0.00    +0.000 C 
BRANCH  16  17
ATOM     17  NE  ARG A   1       3.915   0.555  -0.358  0.00  0.00    +0.000 NA
ATOM     18  NH1 ARG A   1       6.062   0.263   0.679  0.00  0.00    +0.000 N 
ATOM     19  NH2 ARG A   1       5.580   2.164  -0.482  0.00  0.00    +0.000 N 
ATOM     20  CZ  ARG A   1       5.116   0.942  -0.056  0.00  0.00    +0.000 C 
ATOM     21 HH11 ARG A   1       5.886  -0.654   1.073  0.00  0.00    +0.000 HD
ATOM     22 HH12 ARG A   1       6.976   0.666   0.854  0.00  0.00    +0.000 HD
ATOM     23 HH21 ARG A   1       6.514   2.485  -0.256  0.00  0.00    +0.000 HD
ATOM     24 HH22 ARG A   1       4.996   2.782  -1.036  0.00  0.00    +0.000 HD
ENDBRANCH  16  17
ENDBRANCH  15  16
ENDBRANCH  14  15
ENDBRANCH   1  14
TORSDOF 11
