REMARK  Name = 5289072
REMARK  7 active torsions:
REMARK  status: ('A' for Active; 'I' for Inactive)
REMARK    1  A    between atoms: O_1  and  C_9
REMARK    2  A    between atoms: N_4  and  CA_6
REMARK    3  A    between atoms: C_5  and  CA_6
REMARK    4  A    between atoms: C_5  and  C_7
REMARK    5  A    between atoms: CA_6  and  C_9
REMARK    6  A    between atoms: C_7  and  C_8
REMARK    7  A    between atoms: C_8  and  C_10
REMARK                            x       y       z     vdW  Elec       q    Type
REMARK                         _______ _______ _______ _____ _____    ______ ____
ROOT
ATOM      1  CA  UNL     1      -1.361  -0.577   0.601  0.00  0.00    +0.000 C 
ENDROOT
BRANCH   1   2
ATOM      2  N   UNL     1      -2.196  -1.750   0.329  0.00  0.00    +0.000 NA
ATOM      3  H1  UNL     1      -2.210  -1.948  -0.671  0.00  0.00    +0.000 HD
ATOM      4  H2  UNL     1      -3.160  -1.561   0.602  0.00  0.00    +0.000 HD
ENDBRANCH   1   2
BRANCH   1   6
ATOM      5  OXT UNL     1      -2.539   0.511  -1.234  0.00  0.00    +0.000 OA
ATOM      6  C   UNL     1      -1.972   0.592  -0.152  0.00  0.00    +0.000 C 
BRANCH   6   7
ATOM      7  O   UNL     1      -1.801   1.772   0.501  0.00  0.00    +0.000 OA
ATOM      8  H   UNL     1      -2.187   2.524   0.003  0.00  0.00    +0.000 HD
ENDBRANCH   6   7
ENDBRANCH   1   6
BRANCH   1   9
ATOM      9  C   UNL     1       0.073  -0.860   0.134  0.00  0.00    +0.000 C 
BRANCH   9  10
ATOM     10  C   UNL     1       1.046   0.302   0.350  0.00  0.00    +0.000 C 
BRANCH  10  12
ATOM     11  O   UNL     1       2.800  -1.078  -0.582  0.00  0.00    +0.000 OA
ATOM     12  C   UNL     1       2.473  -0.008  -0.071  0.00  0.00    +0.000 C 
ATOM     13  C   UNL     1       3.478   1.097   0.126  0.00  0.00    +0.000 C 
ENDBRANCH  10  12
ENDBRANCH   9  10
ENDBRANCH   1   9
TORSDOF 6
