REMARK  Name = 68841
REMARK  8 active torsions:
REMARK  status: ('A' for Active; 'I' for Inactive)
REMARK    1  A    between atoms: P_1  and  O_2
REMARK    2  A    between atoms: P_1  and  O_3
REMARK    3  A    between atoms: P_1  and  O_4
REMARK    4  A    between atoms: O_2  and  C_10
REMARK    5  A    between atoms: O_5  and  C_11
REMARK    6  A    between atoms: N_8  and  C_9
REMARK    7  A    between atoms: C_9  and  C_10
REMARK    8  A    between atoms: C_9  and  C_11
REMARK                            x       y       z     vdW  Elec       q    Type
REMARK                         _______ _______ _______ _____ _____    ______ ____
ROOT
ATOM      1  C   UNK     1      -1.565  -0.684   0.514  0.00  0.00    +0.000 C 
ENDROOT
BRANCH   1   2
ATOM      2  N   UNK     1      -2.456  -1.743   0.108  0.00  0.00    +0.000 NA
ATOM      3  H   UNK     1      -2.493  -1.812  -0.909  0.00  0.00    +0.000 HD
ATOM      4  H   UNK     1      -3.406  -1.552   0.423  0.00  0.00    +0.000 HD
ENDBRANCH   1   2
BRANCH   1   6
ATOM      5  O   UNK     1      -2.687   0.732  -1.118  0.00  0.00    +0.000 OA
ATOM      6  C   UNK     1      -2.123   0.612  -0.038  0.00  0.00    +0.000 C 
BRANCH   6   7
ATOM      7  O   UNK     1      -1.883   1.662   0.790  0.00  0.00    +0.000 OA
ATOM      8  H   UNK     1      -2.224   2.504   0.421  0.00  0.00    +0.000 HD
ENDBRANCH   6   7
ENDBRANCH   1   6
BRANCH   1   9
ATOM      9  C   UNK     1      -0.149  -0.915   0.009  0.00  0.00    +0.000 C 
BRANCH   9  10
ATOM     10  O   UNK     1       0.672   0.178   0.402  0.00  0.00    +0.000 OA
BRANCH  10  11
ATOM     11  P   UNK     1       2.231   0.158  -0.023  0.00  0.00    +0.000 P 
ATOM     12  O   UNK     1       3.029   1.345   0.430  0.00  0.00    +0.000 OA
BRANCH  11  13
ATOM     13  O   UNK     1       2.191  -0.079  -1.623  0.00  0.00    +0.000 OA
ATOM     14  H   UNK     1       3.033  -0.065  -2.126  0.00  0.00    +0.000 HD
ENDBRANCH  11  13
BRANCH  11  15
ATOM     15  O   UNK     1       2.739  -1.266   0.550  0.00  0.00    +0.000 OA
ATOM     16  H   UNK     1       3.694  -1.485   0.500  0.00  0.00    +0.000 HD
ENDBRANCH  11  15
ENDBRANCH  10  11
ENDBRANCH   9  10
ENDBRANCH   1   9
TORSDOF 8
