REMARK  Name = 170018
REMARK  9 active torsions:
REMARK  status: ('A' for Active; 'I' for Inactive)
REMARK    1  A    between atoms: S_1  and  S_2
REMARK    2  A    between atoms: S_1  and  C_8
REMARK    3  A    between atoms: S_2  and  C_10
REMARK    4  A    between atoms: O_3  and  C_9
REMARK    5  A    between atoms: O_5  and  C_11
REMARK    6  A    between atoms: N_6  and  C_7
REMARK    7  A    between atoms: C_7  and  C_8
REMARK    8  A    between atoms: C_7  and  C_9
REMARK    9  A    between atoms: C_10  and  C_11
REMARK                            x       y       z     vdW  Elec       q    Type
REMARK                         _______ _______ _______ _____ _____    ______ ____
ROOT
ATOM      1  C   UNK     1       1.673  -0.662  -0.332  0.00  0.00    +0.000 C 
ENDROOT
BRANCH   1   2
ATOM      2  N   UNK     1       2.652  -1.742  -0.479  0.00  0.00    +0.000 NA
ATOM      3  H   UNK     1       3.262  -1.545  -1.272  0.00  0.00    +0.000 HD
ATOM      4  H   UNK     1       2.170  -2.612  -0.700  0.00  0.00    +0.000 HD
ENDBRANCH   1   2
BRANCH   1   6
ATOM      5  O   UNK     1       3.100   0.761   1.004  0.00  0.00    +0.000 OA
ATOM      6  C   UNK     1       2.439   0.609  -0.016  0.00  0.00    +0.000 C 
BRANCH   6   7
ATOM      7  O   UNK     1       2.297   1.581  -0.952  0.00  0.00    +0.000 OA
ATOM      8  H   UNK     1       2.790   2.394  -0.713  0.00  0.00    +0.000 HD
ENDBRANCH   6   7
ENDBRANCH   1   6
BRANCH   1   9
ATOM      9  C   UNK     1       0.663  -1.017   0.760  0.00  0.00    +0.000 C 
BRANCH   9  10
ATOM     10  S   UNK     1      -0.564   0.306   1.009  0.00  0.00    +0.000 S 
BRANCH  10  11
ATOM     11  S   UNK     1      -1.429   0.412  -0.852  0.00  0.00    +0.000 S 
BRANCH  11  12
ATOM     12  C   UNK     1      -2.785  -0.775  -0.697  0.00  0.00    +0.000 C 
BRANCH  12  13
ATOM     13  C   UNK     1      -3.746  -0.377   0.412  0.00  0.00    +0.000 C 
BRANCH  13  14
ATOM     14  O   UNK     1      -4.301   0.903   0.142  0.00  0.00    +0.000 OA
ATOM     15  H   UNK     1      -4.741   0.857  -0.724  0.00  0.00    +0.000 HD
ENDBRANCH  13  14
ENDBRANCH  12  13
ENDBRANCH  11  12
ENDBRANCH  10  11
ENDBRANCH   9  10
ENDBRANCH   1   9
TORSDOF 9
