REMARK  Name = 5287779
REMARK  10 active torsions:
REMARK  status: ('A' for Active; 'I' for Inactive)
REMARK    1  A    between atoms: O_1  and  C_6
REMARK    2  A    between atoms: O_1  and  C_9
REMARK    3  A    between atoms: N_4  and  C_7
REMARK    4  A    between atoms: C_6  and  C_10
REMARK    5  A    between atoms: C_6  and  C_11
REMARK    6  A    between atoms: C_6  and  C_12
REMARK    7  A    between atoms: C_7  and  C_8
REMARK    8  A    between atoms: C_7  and  C_9
REMARK    9  A    between atoms: C_8  and  C_13
REMARK   10  A    between atoms: C_13  and  C_14
REMARK                            x       y       z     vdW  Elec       q    Type
REMARK                         _______ _______ _______ _____ _____    ______ ____
ROOT
ATOM      1  C   UNL     1       0.779   1.515  -0.432  0.00  0.00    +0.000 C 
ENDROOT
BRANCH   1   2
ATOM      2  N   UNL     1       0.679   2.954  -0.683  0.00  0.00    +0.000 NA
ATOM      3  H   UNL     1       0.030   3.124  -1.451  0.00  0.00    +0.000 HD
ATOM      4  H   UNL     1       1.583   3.311  -0.992  0.00  0.00    +0.000 HD
ENDBRANCH   1   2
BRANCH   1   6
ATOM      5  O   UNL     1      -1.370   1.735   0.688  0.00  0.00    +0.000 OA
ATOM      6  C   UNL     1      -0.593   1.059   0.026  0.00  0.00    +0.000 C 
BRANCH   6   7
ATOM      7  O   UNL     1      -0.830  -0.205  -0.436  0.00  0.00    +0.000 OA
BRANCH   7   8
ATOM      8  C   UNL     1      -2.107  -0.755  -0.101  0.00  0.00    +0.000 C 
ATOM      9  C   UNL     1      -3.193   0.144  -0.689  0.00  0.00    +0.000 C 
ATOM     10  C   UNL     1      -2.180  -2.154  -0.710  0.00  0.00    +0.000 C 
ATOM     11  C   UNL     1      -2.223  -0.825   1.421  0.00  0.00    +0.000 C 
ENDBRANCH   7   8
ENDBRANCH   6   7
ENDBRANCH   1   6
BRANCH   1  12
ATOM     12  C   UNL     1       1.857   1.250   0.628  0.00  0.00    +0.000 C 
BRANCH  12  13
ATOM     13  C   UNL     1       1.925  -0.213   1.077  0.00  0.00    +0.000 C 
BRANCH  13  16
ATOM     14  O   UNL     1       3.114  -0.891  -0.927  0.00  0.00    +0.000 OA
ATOM     15  N   UNL     1       1.798  -2.434   0.152  0.00  0.00    +0.000 N 
ATOM     16  C   UNL     1       2.345  -1.180  -0.015  0.00  0.00    +0.000 C 
ATOM     17  H   UNL     1       2.003  -3.182  -0.501  0.00  0.00    +0.000 HD
ATOM     18  H   UNL     1       1.174  -2.661   0.920  0.00  0.00    +0.000 HD
ENDBRANCH  13  16
ENDBRANCH  12  13
ENDBRANCH   1  12
TORSDOF 7
