REMARK  Name = 14221359
REMARK  6 active torsions:
REMARK  status: ('A' for Active; 'I' for Inactive)
REMARK    1  A    between atoms: O_1  and  C_8
REMARK    2  A    between atoms: N_3  and  C_5
REMARK    3  A    between atoms: N_4  and  CA_6
REMARK    4  A    between atoms: C_5  and  CA_6
REMARK    5  A    between atoms: C_5  and  C_7
REMARK    6  A    between atoms: CA_6  and  C_8
REMARK                            x       y       z     vdW  Elec       q    Type
REMARK                         _______ _______ _______ _____ _____    ______ ____
ROOT
ATOM      1  CA  UNL     1      -0.043   0.443  -0.426  0.00  0.00    +0.000 C 
ENDROOT
BRANCH   1   2
ATOM      2  N   UNL     1      -0.009   1.903  -0.280  0.00  0.00    +0.000 NA
ATOM      3  H1  UNL     1      -0.017   2.149   0.709  0.00  0.00    +0.000 HD
ATOM      4  H2  UNL     1      -0.853   2.310  -0.679  0.00  0.00    +0.000 HD
ENDBRANCH   1   2
BRANCH   1   6
ATOM      5  OXT UNL     1       2.004   0.387   0.907  0.00  0.00    +0.000 OA
ATOM      6  C   UNL     1       1.323  -0.076   0.000  0.00  0.00    +0.000 C 
BRANCH   6   7
ATOM      7  O   UNL     1       1.719  -1.145  -0.740  0.00  0.00    +0.000 OA
ATOM      8  H   UNL     1       2.596  -1.480  -0.457  0.00  0.00    +0.000 HD
ENDBRANCH   6   7
ENDBRANCH   1   6
BRANCH   1   9
ATOM      9  C   UNL     1      -1.216  -0.185   0.357  0.00  0.00    +0.000 C 
ATOM     10  C   UNL     1      -2.602   0.320  -0.057  0.00  0.00    +0.000 C 
BRANCH   9  11
ATOM     11  N   UNL     1      -1.176  -1.647   0.238  0.00  0.00    +0.000 NA
ATOM     12  H   UNL     1      -1.316  -1.914  -0.736  0.00  0.00    +0.000 HD
ATOM     13  H   UNL     1      -1.952  -2.056   0.757  0.00  0.00    +0.000 HD
ENDBRANCH   9  11
ENDBRANCH   1   9
TORSDOF 5
