REMARK  Name = 89034
REMARK  7 active torsions:
REMARK  status: ('A' for Active; 'I' for Inactive)
REMARK    1  A    between atoms: S_1  and  C_7
REMARK    2  A    between atoms: S_1  and  C_10
REMARK    3  A    between atoms: O_3  and  C_11
REMARK    4  A    between atoms: N_5  and  CA_9
REMARK    5  A    between atoms: C_7  and  C_8
REMARK    6  A    between atoms: C_8  and  CA_9
REMARK    7  A    between atoms: CA_9  and  C_11
REMARK                            x       y       z     vdW  Elec       q    Type
REMARK                         _______ _______ _______ _____ _____    ______ ____
ROOT
ATOM      1  CA  UNL     1       1.506   0.369   0.548  0.00  0.00    +0.000 C 
ENDROOT
BRANCH   1   2
ATOM      2  N   UNL     1       1.625   1.792   0.243  0.00  0.00    +0.000 NA
ATOM      3  H1  UNL     1       1.647   1.937  -0.766  0.00  0.00    +0.000 HD
ATOM      4  H2  UNL     1       2.502   2.158   0.612  0.00  0.00    +0.000 HD
ENDBRANCH   1   2
BRANCH   1   6
ATOM      5  OXT UNL     1       3.623   0.291  -0.654  0.00  0.00    +0.000 OA
ATOM      6  C   UNL     1       2.741  -0.291  -0.036  0.00  0.00    +0.000 C 
BRANCH   6   7
ATOM      7  O   UNL     1       2.782  -1.624   0.225  0.00  0.00    +0.000 OA
ATOM      8  H   UNL     1       3.587  -2.044  -0.144  0.00  0.00    +0.000 HD
ENDBRANCH   6   7
ENDBRANCH   1   6
BRANCH   1   9
ATOM      9  C   UNL     1       0.209  -0.188  -0.054  0.00  0.00    +0.000 C 
BRANCH   9  10
ATOM     10  C   UNL     1      -1.031   0.466   0.545  0.00  0.00    +0.000 C 
BRANCH  10  11
ATOM     11  S   UNL     1      -2.507  -0.170  -0.186  0.00  0.00    +0.000 S 
ATOM     12  O   UNL     1      -2.546   0.315  -1.558  0.00  0.00    +0.000 OA
ATOM     13  N   UNL     1      -2.612  -1.657   0.230  0.00  0.00    +0.000 NA
ATOM     14  C   UNL     1      -3.788   0.696   0.696  0.00  0.00    +0.000 C 
ATOM     15  H   UNL     1      -1.831  -2.239  -0.085  0.00  0.00    +0.000 HD
ENDBRANCH  10  11
ENDBRANCH   9  10
ENDBRANCH   1   9
TORSDOF 6
