REMARK  Name = 127766
REMARK  10 active torsions:
REMARK  status: ('A' for Active; 'I' for Inactive)
REMARK    1  A    between atoms: P_1  and  O_2
REMARK    2  A    between atoms: P_1  and  O_6
REMARK    3  A    between atoms: P_1  and  O_7
REMARK    4  A    between atoms: O_2  and  C_16
REMARK    5  A    between atoms: O_3  and  C_15
REMARK    6  A    between atoms: O_4  and  C_18
REMARK    7  A    between atoms: N_9  and  CA_12
REMARK    8  A    between atoms: C_10  and  C_11
REMARK    9  A    between atoms: C_10  and  CA_12
REMARK   10  A    between atoms: CA_12  and  C_18
REMARK                            x       y       z     vdW  Elec       q    Type
REMARK                         _______ _______ _______ _____ _____    ______ ____
ROOT
ATOM      1  C   UNL     1      -1.084   0.463   0.707  0.00  0.00    +0.000 A 
ATOM      2  C   UNL     1      -0.750  -0.878   0.796  0.00  0.00    +0.000 A 
ATOM      3  C   UNL     1      -0.141   1.422   0.376  0.00  0.00    +0.000 A 
ATOM      4  C   UNL     1       0.566  -1.272   0.548  0.00  0.00    +0.000 A 
ATOM      5  C   UNL     1       1.527  -0.318   0.213  0.00  0.00    +0.000 A 
ATOM      6  C   UNL     1       1.174   1.029   0.128  0.00  0.00    +0.000 A 
ENDROOT
BRANCH   4   7
ATOM      7  O   UNL     1       0.899  -2.590   0.633  0.00  0.00    +0.000 OA
ATOM      8  H   UNL     1       1.846  -2.679   0.430  0.00  0.00    +0.000 HD
ENDBRANCH   4   7
BRANCH   5   9
ATOM      9  O   UNL     1       2.814  -0.690  -0.033  0.00  0.00    +0.000 OA
BRANCH   9  10
ATOM     10  P   UNL     1       4.016   0.319  -0.430  0.00  0.00    +0.000 P 
ATOM     11  O   UNL     1       3.805   1.103  -1.692  0.00  0.00    +0.000 OA
BRANCH  10  12
ATOM     12  O   UNL     1       4.255   1.195   0.908  0.00  0.00    +0.000 OA
ATOM     13  H   UNL     1       4.907   1.927   0.886  0.00  0.00    +0.000 HD
ENDBRANCH  10  12
BRANCH  10  14
ATOM     14  O   UNL     1       5.306  -0.658  -0.457  0.00  0.00    +0.000 OA
ATOM     15  H   UNL     1       6.164  -0.302  -0.774  0.00  0.00    +0.000 HD
ENDBRANCH  10  14
ENDBRANCH   9  10
ENDBRANCH   5   9
BRANCH   1  16
ATOM     16  C   UNL     1      -2.509   0.888   0.977  0.00  0.00    +0.000 C 
BRANCH  16  17
ATOM     17  CA  UNL     1      -3.382   0.888  -0.287  0.00  0.00    +0.000 C 
BRANCH  17  18
ATOM     18  N   UNL     1      -4.554   1.735  -0.079  0.00  0.00    +0.000 NA
ATOM     19  H1  UNL     1      -4.255   2.692   0.104  0.00  0.00    +0.000 HD
ATOM     20  H2  UNL     1      -5.053   1.435   0.759  0.00  0.00    +0.000 HD
ENDBRANCH  17  18
BRANCH  17  22
ATOM     21  OXT UNL     1      -4.943  -0.979  -0.190  0.00  0.00    +0.000 OA
ATOM     22  C   UNL     1      -3.902  -0.499  -0.622  0.00  0.00    +0.000 C 
BRANCH  22  23
ATOM     23  O   UNL     1      -3.096  -1.157  -1.496  0.00  0.00    +0.000 OA
ATOM     24  H   UNL     1      -3.446  -2.047  -1.717  0.00  0.00    +0.000 HD
ENDBRANCH  22  23
ENDBRANCH  17  22
ENDBRANCH  16  17
ENDBRANCH   1  16
TORSDOF 10
