REMARK  Name = 6140
REMARK  5 active torsions:
REMARK  status: ('A' for Active; 'I' for Inactive)
REMARK    1  A    between atoms: O_1  and  C_9
REMARK    2  A    between atoms: N_3  and  CA_5
REMARK    3  A    between atoms: CB_4  and  CA_5
REMARK    4  A    between atoms: CB_4  and  CG_6
REMARK    5  A    between atoms: CA_5  and  C_9
REMARK                            x       y       z     vdW  Elec       q    Type
REMARK                         _______ _______ _______ _____ _____    ______ ____
ROOT
ATOM      1  CA  PHE A   1      -1.665   0.724  -0.296  0.00  0.00    +0.000 C 
ENDROOT
BRANCH   1   2
ATOM      2  N   PHE A   1      -2.795   1.633  -0.112  0.00  0.00    +0.000 NA
ATOM      3  H1  PHE A   1      -2.474   2.597  -0.198  0.00  0.00    +0.000 HD
ATOM      4  H2  PHE A   1      -3.159   1.545   0.837  0.00  0.00    +0.000 HD
ENDBRANCH   1   2
BRANCH   1   6
ATOM      5  OXT PHE A   1      -3.186  -1.024   0.455  0.00  0.00    +0.000 OA
ATOM      6  C   PHE A   1      -2.226  -0.686  -0.225  0.00  0.00    +0.000 C 
BRANCH   6   7
ATOM      7  O   PHE A   1      -1.561  -1.548  -1.037  0.00  0.00    +0.000 OA
ATOM      8  H   PHE A   1      -1.936  -2.453  -0.996  0.00  0.00    +0.000 HD
ENDBRANCH   6   7
ENDBRANCH   1   6
BRANCH   1   9
ATOM      9  CB  PHE A   1      -0.609   0.981   0.790  0.00  0.00    +0.000 C 
BRANCH   9  10
ATOM     10  CG  PHE A   1       0.759   0.461   0.414  0.00  0.00    +0.000 A 
ATOM     11  CD1 PHE A   1       1.108  -0.836   0.754  0.00  0.00    +0.000 A 
ATOM     12  CD2 PHE A   1       1.637   1.291  -0.263  0.00  0.00    +0.000 A 
ATOM     13  CE1 PHE A   1       2.371  -1.316   0.406  0.00  0.00    +0.000 A 
ATOM     14  CE2 PHE A   1       2.900   0.811  -0.611  0.00  0.00    +0.000 A 
ATOM     15  CZ  PHE A   1       3.267  -0.492  -0.276  0.00  0.00    +0.000 A 
ENDBRANCH   9  10
ENDBRANCH   1   9
TORSDOF 5
