REMARK  Name = 123831
REMARK  9 active torsions:
REMARK  status: ('A' for Active; 'I' for Inactive)
REMARK    1  A    between atoms: O_1  and  C_11
REMARK    2  A    between atoms: N_3  and  C_9
REMARK    3  A    between atoms: N_4  and  C_10
REMARK    4  A    between atoms: N_5  and  C_13
REMARK    5  A    between atoms: N_5  and  C_14
REMARK    6  A    between atoms: C_7  and  C_8
REMARK    7  A    between atoms: C_7  and  C_9
REMARK    8  A    between atoms: C_8  and  C_10
REMARK    9  A    between atoms: C_9  and  C_11
REMARK                            x       y       z     vdW  Elec       q    Type
REMARK                         _______ _______ _______ _____ _____    ______ ____
ROOT
ATOM      1  C   UNK     1      -0.839  -0.792  -0.530  0.00  0.00    +0.000 C 
ENDROOT
BRANCH   1   2
ATOM      2  C   UNK     1      -1.341   0.400   0.298  0.00  0.00    +0.000 C 
BRANCH   2   3
ATOM      3  C   UNK     1      -2.734   0.870  -0.146  0.00  0.00    +0.000 C 
BRANCH   3   4
ATOM      4  N   UNK     1      -3.191   1.956   0.717  0.00  0.00    +0.000 NA
ATOM      5  H   UNK     1      -4.067   2.334   0.359  0.00  0.00    +0.000 HD
ATOM      6  H   UNK     1      -2.520   2.723   0.686  0.00  0.00    +0.000 HD
ENDBRANCH   3   4
BRANCH   3   8
ATOM      7  O   UNK     1      -4.069  -0.809   1.011  0.00  0.00    +0.000 OA
ATOM      8  C   UNK     1      -3.777  -0.226  -0.025  0.00  0.00    +0.000 C 
BRANCH   8   9
ATOM      9  O   UNK     1      -4.389  -0.484  -1.212  0.00  0.00    +0.000 OA
ATOM     10  H   UNK     1      -5.070  -1.185  -1.127  0.00  0.00    +0.000 HD
ENDBRANCH   8   9
ENDBRANCH   3   8
ENDBRANCH   2   3
ENDBRANCH   1   2
BRANCH   1  11
ATOM     11  C   UNK     1       0.536  -1.275  -0.081  0.00  0.00    +0.000 C 
BRANCH  11  12
ATOM     12  N   UNK     1       1.520  -0.206  -0.250  0.00  0.00    +0.000 NA
ATOM     13  N   UNK     1       3.751   0.522  -0.097  0.00  0.00    +0.000 N 
ATOM     14  N   UNK     1       3.223  -1.687   0.512  0.00  0.00    +0.000 N 
ATOM     15  C   UNK     1       2.761  -0.468   0.048  0.00  0.00    +0.000 C 
ATOM     16  C   UNK     1       5.162   0.307   0.215  0.00  0.00    +0.000 C 
ATOM     17  C   UNK     1       3.387   1.891  -0.461  0.00  0.00    +0.000 C 
ATOM     18  H   UNK     1       2.600  -2.474   0.657  0.00  0.00    +0.000 HD
ATOM     19  H   UNK     1       4.195  -1.850   0.742  0.00  0.00    +0.000 HD
ENDBRANCH  11  12
ENDBRANCH   1  11
TORSDOF 7
