REMARK  Name = 67427
REMARK  8 active torsions:
REMARK  status: ('A' for Active; 'I' for Inactive)
REMARK    1  A    between atoms: O_1  and  C_12
REMARK    2  A    between atoms: N_4  and  CA_9
REMARK    3  A    between atoms: NE_5  and  CD_11
REMARK    4  A    between atoms: CB_8  and  CA_9
REMARK    5  A    between atoms: CB_8  and  CG_10
REMARK    6  A    between atoms: CA_9  and  C_12
REMARK    7  A    between atoms: CG_10  and  CD_11
REMARK    8  A    between atoms: C_13  and  C_14
REMARK                            x       y       z     vdW  Elec       q    Type
REMARK                         _______ _______ _______ _____ _____    ______ ____
ROOT
ATOM      1  CB  ARG A   1       0.410   0.271  -1.081  0.00  0.00    +0.000 C 
ENDROOT
BRANCH   1   2
ATOM      2  CA  ARG A   1       1.826   0.546  -0.568  0.00  0.00    +0.000 C 
BRANCH   2   4
ATOM      3  O   UNK A   0       3.231  -1.927  -1.148  0.00  0.00    +0.000 OA
ATOM      4  N   ARG A   1       2.274  -0.448   0.374  0.00  0.00    +0.000 N 
ATOM      5  C   UNK A   0       2.942  -1.604   0.001  0.00  0.00    +0.000 C 
ATOM      6  C   UNK A   0       3.318  -2.456   1.184  0.00  0.00    +0.000 C 
ATOM      7  H   ARG A   1       2.073  -0.299   1.359  0.00  0.00    +0.000 HD
ENDBRANCH   2   4
BRANCH   2   9
ATOM      8  OXT ARG A   1       1.759   2.981  -0.475  0.00  0.00    +0.000 OA
ATOM      9  C   ARG A   1       1.949   1.910   0.086  0.00  0.00    +0.000 C 
BRANCH   9  10
ATOM     10  O   ARG A   1       2.263   1.814   1.405  0.00  0.00    +0.000 OA
ATOM     11  H   ARG A   1       2.325   2.695   1.831  0.00  0.00    +0.000 HD
ENDBRANCH   9  10
ENDBRANCH   2   9
ENDBRANCH   1   2
BRANCH   1  12
ATOM     12  CG  ARG A   1      -0.664   0.258   0.014  0.00  0.00    +0.000 C 
BRANCH  12  13
ATOM     13  CD  ARG A   1      -2.038  -0.064  -0.566  0.00  0.00    +0.000 C 
BRANCH  13  14
ATOM     14  NE  ARG A   1      -3.023  -0.069   0.517  0.00  0.00    +0.000 NA
ATOM     15  NH1 ARG A   1      -5.239  -0.334   1.144  0.00  0.00    +0.000 N 
ATOM     16  NH2 ARG A   1      -4.755  -0.567  -1.071  0.00  0.00    +0.000 N 
ATOM     17  CZ  ARG A   1      -4.253  -0.311   0.185  0.00  0.00    +0.000 C 
ATOM     18 HH11 ARG A   1      -5.024  -0.163   2.120  0.00  0.00    +0.000 HD
ATOM     19 HH12 ARG A   1      -6.206  -0.520   0.905  0.00  0.00    +0.000 HD
ATOM     20 HH21 ARG A   1      -5.744  -0.743  -1.213  0.00  0.00    +0.000 HD
ATOM     21 HH22 ARG A   1      -4.165  -0.590  -1.895  0.00  0.00    +0.000 HD
ENDBRANCH  13  14
ENDBRANCH  12  13
ENDBRANCH   1  12
TORSDOF 7
