REMARK  Name = 10130120
REMARK  7 active torsions:
REMARK  status: ('A' for Active; 'I' for Inactive)
REMARK    1  A    between atoms: S_1  and  C_7
REMARK    2  A    between atoms: S_1  and  C_9
REMARK    3  A    between atoms: O_2  and  C_8
REMARK    4  A    between atoms: N_5  and  C_6
REMARK    5  A    between atoms: C_6  and  C_7
REMARK    6  A    between atoms: C_6  and  C_8
REMARK    7  A    between atoms: C_9  and  C_10
REMARK                            x       y       z     vdW  Elec       q    Type
REMARK                         _______ _______ _______ _____ _____    ______ ____
ROOT
ATOM      1  C   UNK     1      -1.436  -0.612   0.552  0.00  0.00    +0.000 C 
ENDROOT
BRANCH   1   2
ATOM      2  N   UNK     1      -2.235  -1.796   0.229  0.00  0.00    +0.000 NA
ATOM      3  H   UNK     1      -3.189  -1.667   0.564  0.00  0.00    +0.000 HD
ATOM      4  H   UNK     1      -1.866  -2.604   0.729  0.00  0.00    +0.000 HD
ENDBRANCH   1   2
BRANCH   1   6
ATOM      5  O   UNK     1      -2.045   0.625  -1.435  0.00  0.00    +0.000 OA
ATOM      6  C   UNK     1      -2.026   0.559  -0.211  0.00  0.00    +0.000 C 
BRANCH   6   7
ATOM      7  O   UNK     1      -2.501   1.548   0.586  0.00  0.00    +0.000 OA
ATOM      8  H   UNK     1      -2.861   2.298   0.065  0.00  0.00    +0.000 HD
ENDBRANCH   6   7
ENDBRANCH   1   6
BRANCH   1   9
ATOM      9  C   UNK     1       0.031  -0.857   0.195  0.00  0.00    +0.000 C 
BRANCH   9  10
ATOM     10  S   UNK     1       1.070   0.597   0.549  0.00  0.00    +0.000 S 
BRANCH  10  12
ATOM     11  O   UNK     1       2.790  -1.096  -0.532  0.00  0.00    +0.000 OA
ATOM     12  C   UNK     1       2.622   0.015  -0.044  0.00  0.00    +0.000 C 
ATOM     13  C   UNK     1       3.729   1.018   0.111  0.00  0.00    +0.000 C 
ENDBRANCH  10  12
ENDBRANCH   9  10
ENDBRANCH   1   9
TORSDOF 6
