REMARK  Name = 
REMARK  19 active torsions:
REMARK  status: ('A' for Active; 'I' for Inactive)
REMARK    1  A    between atoms: C_1  and  C_2
REMARK    2  A    between atoms: C_2  and  N_3
REMARK    3  A    between atoms: N_7  and  C_8
REMARK    4  A    between atoms: C_8  and  C_9
REMARK    5  A    between atoms: C_8  and  C_10
REMARK    6  A    between atoms: C_12  and  S_13
REMARK    7  A    between atoms: S_13  and  C_14
REMARK    8  A    between atoms: C_14  and  C_15
REMARK    9  A    between atoms: C_15  and  N_16
REMARK   10  A    between atoms: C_15  and  C_26
REMARK   11  A    between atoms: C_17  and  C_19
REMARK   12  A    between atoms: C_19  and  C_20
REMARK   13  A    between atoms: C_20  and  C_21
REMARK   14  A    between atoms: C_21  and  N_22
REMARK   15  A    between atoms: C_21  and  C_23
REMARK   16  A    between atoms: C_23  and  O_25
REMARK   17  A    between atoms: N_28  and  CA_29
REMARK   18  A    between atoms: CA_29  and  C_30
REMARK   19  A    between atoms: C_30  and  OXT_32
REMARK                            x       y       z     vdW  Elec       q    Type
REMARK                         _______ _______ _______ _____ _____    ______ ____
ROOT
ATOM      1  C   UNK A   1       1.907   0.757  -0.752  0.00  0.00    +0.000 C 
ENDROOT
BRANCH   1   2
ATOM      2  N   UNK A   1       2.214   0.262   0.743  0.00  0.00    +0.000 N 
ATOM      3  C   UNK A   1       3.555   0.417   1.140  0.00  0.00    +0.000 C 
ATOM      4  O   UNK A   1       4.146   1.466   0.805  0.00  0.00    +0.000 OA
ATOM      5  H   UNK A   1       1.523  -0.119   1.332  0.00  0.00    +0.000 HD
BRANCH   3   6
ATOM      6  C   UNK A   1       4.205  -0.651   1.967  0.00  0.00    +0.000 C 
BRANCH   6   7
ATOM      7  C   UNK A   1       4.242  -1.965   1.229  0.00  0.00    +0.000 C 
BRANCH   7   8
ATOM      8  C   UNK A   1       5.484  -1.659   0.146  0.00  0.00    +0.000 C 
BRANCH   8   9
ATOM      9  N   UNK A   1       4.539  -1.997  -1.108  0.00  0.00    +0.000 NA
ATOM     10  H   UNK A   1       4.029  -2.861  -0.926  0.00  0.00    +0.000 HD
ATOM     11  H   UNK A   1       5.112  -2.109  -1.945  0.00  0.00    +0.000 HD
ENDBRANCH   8   9
BRANCH   8  12
ATOM     12  C   UNK A   1       6.051  -3.198   0.243  0.00  0.00    +0.000 C 
ATOM     13  O   UNK A   1       6.794  -3.228   1.274  0.00  0.00    +0.000 OA
BRANCH  12  14
ATOM     14  O   UNK A   1       5.107  -4.184   0.143  0.00  0.00    +0.000 OA
ATOM     15  H   UNK A   1       4.532  -4.209  -0.596  0.00  0.00    +0.000 HD
ENDBRANCH  12  14
ENDBRANCH   8  12
ENDBRANCH   7   8
ENDBRANCH   6   7
ENDBRANCH   3   6
ENDBRANCH   1   2
BRANCH   1  16
ATOM     16  C   UNK A   1       0.781   1.832  -0.216  0.00  0.00    +0.000 C 
ATOM     17  O   UNK A   1      -0.367   1.664  -0.645  0.00  0.00    +0.000 OA
ATOM     18  N   GLY A   2       1.276   3.155  -0.501  0.00  0.00    +0.000 N 
ATOM     19  H   GLY A   2       2.164   3.413  -0.164  0.00  0.00    +0.000 HD
BRANCH  18  20
ATOM     20  CA  GLY A   2       0.505   4.127  -1.271  0.00  0.00    +0.000 C 
BRANCH  20  21
ATOM     21  C   GLY A   2       0.525   5.474  -0.701  0.00  0.00    +0.000 C 
ATOM     22  O   GLY A   2       0.634   6.468  -1.479  0.00  0.00    +0.000 OA
BRANCH  21  23
ATOM     23  OXT GLY A   2      -0.120   5.698   0.507  0.00  0.00    +0.000 OA
ATOM     24  HXT GLY A   2      -0.227   4.996   1.118  0.00  0.00    +0.000 HD
ENDBRANCH  21  23
ENDBRANCH  20  21
ENDBRANCH  18  20
ENDBRANCH   1  16
BRANCH   1  25
ATOM     25  C   UNK A   1       0.816  -0.493  -1.005  0.00  0.00    +0.000 C 
BRANCH  25  26
ATOM     26  S   UNK A   1      -0.117  -0.711   0.460  0.00  0.00    +0.000 S 
BRANCH  26  33
ATOM     27  N   UNK A   1      -4.589  -0.567   2.598  0.00  0.00    +0.000 N 
ATOM     28  C   UNK A   1      -3.901  -0.344   1.367  0.00  0.00    +0.000 A 
ATOM     29  N   UNK A   1      -4.503  -0.346   0.170  0.00  0.00    +0.000 NA
ATOM     30  C   UNK A   1      -3.804  -0.617  -0.962  0.00  0.00    +0.000 A 
ATOM     31  N   UNK A   1      -4.552  -1.124  -2.074  0.00  0.00    +0.000 N 
ATOM     32  N   UNK A   1      -2.543  -1.096  -0.815  0.00  0.00    +0.000 NA
ATOM     33  C   UNK A   1      -1.858  -0.873   0.320  0.00  0.00    +0.000 A 
ATOM     34  N   UNK A   1      -2.568  -0.377   1.365  0.00  0.00    +0.000 NA
ATOM     35  H   UNK A   1      -4.080  -0.789   3.411  0.00  0.00    +0.000 HD
ATOM     36  H   UNK A   1      -5.231  -0.556  -2.503  0.00  0.00    +0.000 HD
BRANCH  31  37
ATOM     37  C   UNK A   1      -4.319  -2.471  -2.575  0.00  0.00    +0.000 C 
ATOM     38  C   UNK A   1      -3.247  -2.462  -3.657  0.00  0.00    +0.000 C 
ATOM     39  C   UNK A   1      -3.810  -3.354  -1.463  0.00  0.00    +0.000 C 
ENDBRANCH  31  37
BRANCH  27  41
ATOM     40  C   UNK A   1      -6.454   0.864   2.094  0.00  0.00    +0.000 C 
ATOM     41  C   UNK A   1      -6.031  -0.468   2.654  0.00  0.00    +0.000 C 
ENDBRANCH  27  41
ENDBRANCH  26  33
ENDBRANCH  25  26
ENDBRANCH   1  25
TORSDOF 16
