REMARK  Name = 7058174
REMARK  5 active torsions:
REMARK  status: ('A' for Active; 'I' for Inactive)
REMARK    1  A    between atoms: S_1  and  C_6
REMARK    2  A    between atoms: S_1  and  C_8
REMARK    3  A    between atoms: N_4  and  C_5
REMARK    4  A    between atoms: C_5  and  C_6
REMARK    5  A    between atoms: C_5  and  C_7
REMARK                            x       y       z     vdW  Elec       q    Type
REMARK                         _______ _______ _______ _____ _____    ______ ____
ROOT
ATOM      1  C   UNK     1       0.559  -0.621  -0.598  0.00  0.00    +0.000 C 
ENDROOT
BRANCH   1   2
ATOM      2  N   UNK     1       0.632  -1.911   0.161  0.00  0.00    +0.000 N 
ATOM      3  H   UNK     1       1.606  -2.229   0.257  0.00  0.00    +0.000 HD
ATOM      4  H   UNK     1       0.111  -2.662  -0.311  0.00  0.00    +0.000 HD
ATOM      5  H   UNK     1       0.246  -1.811   1.109  0.00  0.00    +0.000 HD
ENDBRANCH   1   2
BRANCH   1   8
ATOM      6  O   UNK     1       2.424   0.119   0.666  0.00  0.00    +0.000 OA
ATOM      7  O   UNK     1       1.073   1.682  -0.302  0.00  0.00    +0.000 OA
ATOM      8  C   UNK     1       1.442   0.505  -0.030  0.00  0.00    +0.000 C 
ENDBRANCH   1   8
BRANCH   1   9
ATOM      9  C   UNK     1      -0.925  -0.291  -0.780  0.00  0.00    +0.000 C 
BRANCH   9  10
ATOM     10  S   UNK     1      -1.771   0.146   0.775  0.00  0.00    +0.000 S 
ATOM     11  C   UNK     1      -3.433   0.372   0.107  0.00  0.00    +0.000 C 
ENDBRANCH   9  10
ENDBRANCH   1   9
TORSDOF 4
