REMARK  Name = 448718
REMARK  13 active torsions:
REMARK  status: ('A' for Active; 'I' for Inactive)
REMARK    1  A    between atoms: O_1  and  C_18
REMARK    2  A    between atoms: O_3  and  C_19
REMARK    3  A    between atoms: OD1_5  and  CG_20
REMARK    4  A    between atoms: N_7  and  CA_15
REMARK    5  A    between atoms: NE_8  and  CD_14
REMARK    6  A    between atoms: N_9  and  CA_13
REMARK    7  A    between atoms: CB_11  and  CG_12
REMARK    8  A    between atoms: CB_11  and  CA_13
REMARK    9  A    between atoms: CG_12  and  CD_14
REMARK   10  A    between atoms: CA_13  and  C_18
REMARK   11  A    between atoms: CA_15  and  CB_16
REMARK   12  A    between atoms: CA_15  and  C_19
REMARK   13  A    between atoms: CB_16  and  CG_20
REMARK                            x       y       z     vdW  Elec       q    Type
REMARK                         _______ _______ _______ _____ _____    ______ ____
ROOT
ATOM      1  N   ASP A   1       2.184   1.204   0.022  0.00  0.00    +0.000 N 
ATOM      2  NE  ASP A   1      -0.128   1.208   0.419  0.00  0.00    +0.000 NA
ATOM      3  NH2 ASP A   1       1.267   3.098   0.896  0.00  0.00    +0.000 N 
ATOM      4  CZ  ASP A   1       1.018   1.816   0.453  0.00  0.00    +0.000 C 
ATOM      5  H   ASP A   1       3.035   1.760  -0.001  0.00  0.00    +0.000 HD
ATOM      6 HH21 ASP A   1       0.532   3.702   1.248  0.00  0.00    +0.000 HD
ATOM      7 HH22 ASP A   1       2.205   3.483   0.886  0.00  0.00    +0.000 HD
ENDROOT
BRANCH   2   8
ATOM      8  CD  ASP A   1      -1.292   1.955   0.900  0.00  0.00    +0.000 C 
BRANCH   8   9
ATOM      9  CG  ASP A   1      -2.535   1.074   0.840  0.00  0.00    +0.000 C 
BRANCH   9  10
ATOM     10  CB  ASP A   1      -2.865   0.624  -0.590  0.00  0.00    +0.000 C 
BRANCH  10  11
ATOM     11  CA  ASP A   1      -4.130  -0.246  -0.647  0.00  0.00    +0.000 C 
BRANCH  11  12
ATOM     12  N   ASP A   1      -5.260   0.483  -0.076  0.00  0.00    +0.000 NA
ATOM     13  H1  ASP A   1      -6.116  -0.056  -0.201  0.00  0.00    +0.000 HD
ATOM     14  H2  ASP A   1      -5.398   1.355  -0.586  0.00  0.00    +0.000 HD
ENDBRANCH  11  12
BRANCH  11  16
ATOM     15  OXT ASP A   1      -4.699  -1.815   1.128  0.00  0.00    +0.000 OA
ATOM     16  C   ASP A   1      -3.995  -1.516   0.172  0.00  0.00    +0.000 C 
BRANCH  16  17
ATOM     17  O   ASP A   1      -3.002  -2.321  -0.291  0.00  0.00    +0.000 OA
ATOM     18  H   ASP A   1      -2.925  -3.145   0.234  0.00  0.00    +0.000 HD
ENDBRANCH  16  17
ENDBRANCH  11  16
ENDBRANCH  10  11
ENDBRANCH   9  10
ENDBRANCH   8   9
ENDBRANCH   2   8
BRANCH   1  19
ATOM     19  CA  ASP A   1       2.263  -0.139  -0.500  0.00  0.00    +0.000 C 
BRANCH  19  21
ATOM     20  OXT ASP A   1       1.779   0.909  -2.651  0.00  0.00    +0.000 OA
ATOM     21  C   ASP A   1       1.980  -0.097  -1.986  0.00  0.00    +0.000 C 
BRANCH  21  22
ATOM     22  O   ASP A   1       1.971  -1.352  -2.506  0.00  0.00    +0.000 OA
ATOM     23  H   ASP A   1       1.787  -1.347  -3.469  0.00  0.00    +0.000 HD
ENDBRANCH  21  22
ENDBRANCH  19  21
BRANCH  19  24
ATOM     24  CB  ASP A   1       3.652  -0.719  -0.229  0.00  0.00    +0.000 C 
BRANCH  24  26
ATOM     25  OD2 ASP A   1       2.956  -1.158   2.067  0.00  0.00    +0.000 OA
ATOM     26  CG  ASP A   1       3.806  -1.226   1.190  0.00  0.00    +0.000 C 
BRANCH  26  27
ATOM     27  OD1 ASP A   1       5.030  -1.784   1.386  0.00  0.00    +0.000 OA
ATOM     28  HD1 ASP A   1       5.137  -2.116   2.303  0.00  0.00    +0.000 HD
ENDBRANCH  26  27
ENDBRANCH  24  26
ENDBRANCH  19  24
ENDBRANCH   1  19
TORSDOF 13
