REMARK  Name = 169148
REMARK  9 active torsions:
REMARK  status: ('A' for Active; 'I' for Inactive)
REMARK    1  A    between atoms: O_1  and  C_11
REMARK    2  A    between atoms: N_3  and  C_10
REMARK    3  A    between atoms: N_4  and  CA_9
REMARK    4  A    between atoms: N_5  and  C_13
REMARK    5  A    between atoms: N_6  and  C_14
REMARK    6  A    between atoms: C_7  and  C_8
REMARK    7  A    between atoms: C_7  and  CA_9
REMARK    8  A    between atoms: C_8  and  C_10
REMARK    9  A    between atoms: CA_9  and  C_11
REMARK                            x       y       z     vdW  Elec       q    Type
REMARK                         _______ _______ _______ _____ _____    ______ ____
ROOT
ATOM      1  C   UNL     1      -0.765   1.180   0.749  0.00  0.00    +0.000 C 
ENDROOT
BRANCH   1   2
ATOM      2  C   UNL     1      -1.450   1.065  -0.622  0.00  0.00    +0.000 C 
BRANCH   2   3
ATOM      3  CA  UNL     1      -2.782   0.300  -0.607  0.00  0.00    +0.000 C 
BRANCH   3   4
ATOM      4  N   UNL     1      -3.788   0.990   0.199  0.00  0.00    +0.000 NA
ATOM      5  H1  UNL     1      -3.886   1.951  -0.126  0.00  0.00    +0.000 HD
ATOM      6  H2  UNL     1      -3.484   1.050   1.170  0.00  0.00    +0.000 HD
ENDBRANCH   3   4
BRANCH   3   8
ATOM      7  OXT UNL     1      -3.185  -1.554   0.929  0.00  0.00    +0.000 OA
ATOM      8  C   UNL     1      -2.623  -1.108  -0.062  0.00  0.00    +0.000 C 
BRANCH   8   9
ATOM      9  O   UNL     1      -1.766  -1.850  -0.814  0.00  0.00    +0.000 OA
ATOM     10  H   UNL     1      -1.663  -2.759  -0.460  0.00  0.00    +0.000 HD
ENDBRANCH   8   9
ENDBRANCH   3   8
ENDBRANCH   2   3
ENDBRANCH   1   2
BRANCH   1  11
ATOM     11  C   UNL     1       0.582   1.897   0.669  0.00  0.00    +0.000 C 
BRANCH  11  12
ATOM     12  N   UNL     1       1.490   1.197  -0.207  0.00  0.00    +0.000 N 
ATOM     13  N   UNL     1       3.136  -0.301  -0.926  0.00  0.00    +0.000 N 
ATOM     14  N   UNL     1       2.549  -0.302   1.335  0.00  0.00    +0.000 NA
ATOM     15  C   UNL     1       2.386   0.186   0.136  0.00  0.00    +0.000 C 
ATOM     16  C   UNL     1       2.686  -0.338  -2.298  0.00  0.00    +0.000 C 
ATOM     17  C   UNL     1       3.532  -1.361   1.518  0.00  0.00    +0.000 C 
ATOM     18  H   UNL     1       1.477   1.515  -1.172  0.00  0.00    +0.000 HD
ATOM     19  H   UNL     1       3.930  -0.905  -0.740  0.00  0.00    +0.000 HD
ENDBRANCH  11  12
ENDBRANCH   1  11
TORSDOF 7
