REMARK  Name = 17754161
REMARK  12 active torsions:
REMARK  status: ('A' for Active; 'I' for Inactive)
REMARK    1  A    between atoms: P_1  and  O_2
REMARK    2  A    between atoms: P_1  and  O_3
REMARK    3  A    between atoms: P_1  and  O_4
REMARK    4  A    between atoms: O_2  and  C_10
REMARK    5  A    between atoms: O_3  and  C_11
REMARK    6  A    between atoms: O_4  and  C_12
REMARK    7  A    between atoms: O_6  and  C_13
REMARK    8  A    between atoms: N_8  and  C_9
REMARK    9  A    between atoms: C_9  and  C_10
REMARK   10  A    between atoms: C_9  and  C_13
REMARK   11  A    between atoms: C_11  and  C_14
REMARK   12  A    between atoms: C_12  and  C_15
REMARK                            x       y       z     vdW  Elec       q    Type
REMARK                         _______ _______ _______ _____ _____    ______ ____
ROOT
ATOM      1  O   UNK     1      -0.115  -0.238  -0.708  0.00  0.00    +0.000 OA
ENDROOT
BRANCH   1   2
ATOM      2  P   UNK     1      -1.546   0.491  -0.492  0.00  0.00    +0.000 P 
ATOM      3  O   UNK     1      -2.203   0.958  -1.761  0.00  0.00    +0.000 OA
BRANCH   2   4
ATOM      4  O   UNK     1      -2.417  -0.572   0.366  0.00  0.00    +0.000 OA
BRANCH   4   5
ATOM      5  C   UNK     1      -2.770  -1.803  -0.242  0.00  0.00    +0.000 C 
ATOM      6  C   UNK     1      -3.575  -2.626   0.742  0.00  0.00    +0.000 C 
ENDBRANCH   4   5
ENDBRANCH   2   4
BRANCH   2   7
ATOM      7  O   UNK     1      -1.244   1.665   0.583  0.00  0.00    +0.000 OA
BRANCH   7   8
ATOM      8  C   UNK     1      -0.393   2.731   0.197  0.00  0.00    +0.000 C 
ATOM      9  C   UNK     1      -0.258   3.698   1.353  0.00  0.00    +0.000 C 
ENDBRANCH   7   8
ENDBRANCH   2   7
ENDBRANCH   1   2
BRANCH   1  10
ATOM     10  C   UNK     1       0.610  -0.727   0.407  0.00  0.00    +0.000 C 
BRANCH  10  11
ATOM     11  C   UNK     1       1.911  -1.363  -0.073  0.00  0.00    +0.000 C 
BRANCH  11  12
ATOM     12  N   UNK     1       2.427  -2.270   0.951  0.00  0.00    +0.000 NA
ATOM     13  H   UNK     1       3.262  -2.740   0.602  0.00  0.00    +0.000 HD
ATOM     14  H   UNK     1       1.745  -3.007   1.131  0.00  0.00    +0.000 HD
ENDBRANCH  11  12
BRANCH  11  16
ATOM     15  O   UNK     1       4.035  -0.197   0.277  0.00  0.00    +0.000 OA
ATOM     16  C   UNK     1       2.968  -0.302  -0.312  0.00  0.00    +0.000 C 
BRANCH  16  17
ATOM     17  O   UNK     1       2.570   0.555  -1.289  0.00  0.00    +0.000 OA
ATOM     18  H   UNK     1       3.237   1.254  -1.456  0.00  0.00    +0.000 HD
ENDBRANCH  16  17
ENDBRANCH  11  16
ENDBRANCH  10  11
ENDBRANCH   1  10
TORSDOF 10
