REMARK  Name = 160603
REMARK  7 active torsions:
REMARK  status: ('A' for Active; 'I' for Inactive)
REMARK    1  A    between atoms: O_1  and  C_9
REMARK    2  A    between atoms: N_4  and  CA_7
REMARK    3  A    between atoms: C_5  and  C_6
REMARK    4  A    between atoms: C_5  and  CA_7
REMARK    5  A    between atoms: C_6  and  C_8
REMARK    6  A    between atoms: CA_7  and  C_9
REMARK    7  A    between atoms: C_8  and  C_10
REMARK                            x       y       z     vdW  Elec       q    Type
REMARK                         _______ _______ _______ _____ _____    ______ ____
ROOT
ATOM      1  CA  UNL     1       1.246  -0.383  -0.379  0.00  0.00    +0.000 C 
ENDROOT
BRANCH   1   2
ATOM      2  N   UNL     1       1.216  -1.778   0.060  0.00  0.00    +0.000 NA
ATOM      3  H1  UNL     1       0.358  -2.226  -0.259  0.00  0.00    +0.000 HD
ATOM      4  H2  UNL     1       1.195  -1.819   1.078  0.00  0.00    +0.000 HD
ENDBRANCH   1   2
BRANCH   1   6
ATOM      5  OXT UNL     1       3.512  -0.388   0.529  0.00  0.00    +0.000 OA
ATOM      6  C   UNL     1       2.616   0.194  -0.068  0.00  0.00    +0.000 C 
BRANCH   6   7
ATOM      7  O   UNL     1       2.751   1.464  -0.535  0.00  0.00    +0.000 OA
ATOM      8  H   UNL     1       3.636   1.836  -0.332  0.00  0.00    +0.000 HD
ENDBRANCH   6   7
ENDBRANCH   1   6
BRANCH   1   9
ATOM      9  C   UNL     1       0.111   0.440   0.252  0.00  0.00    +0.000 C 
BRANCH   9  10
ATOM     10  C   UNL     1      -1.306  -0.062  -0.066  0.00  0.00    +0.000 C 
BRANCH  10  11
ATOM     11  C   UNL     1      -2.393   0.825   0.538  0.00  0.00    +0.000 C 
BRANCH  11  13
ATOM     12  O   UNL     1      -3.980  -0.638  -0.531  0.00  0.00    +0.000 OA
ATOM     13  C   UNL     1      -3.773   0.326   0.199  0.00  0.00    +0.000 C 
ENDBRANCH  11  13
ENDBRANCH  10  11
ENDBRANCH   9  10
ENDBRANCH   1   9
TORSDOF 7
