REMARK  Name = 
REMARK  7 active torsions:
REMARK  status: ('A' for Active; 'I' for Inactive)
REMARK    1  A    between atoms: C_1  and  HG_2
REMARK    2  A    between atoms: HG_2  and  S_3
REMARK    3  A    between atoms: S_3  and  C_4
REMARK    4  A    between atoms: C_4  and  C_5
REMARK    5  A    between atoms: C_5  and  N_6
REMARK    6  A    between atoms: C_5  and  C_7
REMARK    7  A    between atoms: C_7  and  O_8
REMARK                            x       y       z     vdW  Elec       q    Type
REMARK                         _______ _______ _______ _____ _____    ______ ____
ROOT
ATOM      1  C   UNK     1       4.618   1.841   0.000  0.00  0.00    +0.000 C 
ENDROOT
BRANCH   1   2
ATOM      2  N   UNK     1       4.618   2.666   0.000  0.00  0.00    +0.000 NA
ATOM      3  H   UNK     1       5.502   3.176   0.000  0.00  0.00    +0.000 HD
ATOM      4  H   UNK     1       3.735   3.176   0.000  0.00  0.00    +0.000 HD
ENDBRANCH   1   2
BRANCH   1   5
ATOM      5  C   UNK     1       5.333   1.429   0.000  0.00  0.00    +0.000 C 
ATOM      6  O   UNK     1       5.333   0.604   0.000  0.00  0.00    +0.000 OA
BRANCH   5   7
ATOM      7  O   UNK     1       6.047   1.841   0.000  0.00  0.00    +0.000 OA
ATOM      8  H   UNK     1       6.859   1.373   0.000  0.00  0.00    +0.000 HD
ENDBRANCH   5   7
ENDBRANCH   1   5
BRANCH   1   9
ATOM      9  C   UNK     1       3.904   1.429   0.000  0.00  0.00    +0.000 C 
BRANCH   9  10
ATOM     10  S   UNK     1       3.189   1.841   0.000  0.00  0.00    +0.000 S 
BRANCH  10  12
ATOM     11  C   UNK     1       1.760   1.841   0.000  0.00  0.00    +0.000 C 
ATOM     12 HG   UNK     1       2.475   1.429   0.000  0.00  0.00    +0.000 Hg
ENDBRANCH  10  12
ENDBRANCH   9  10
ENDBRANCH   1   9
TORSDOF 6
