REMARK  Name = 
REMARK  7 active torsions:
REMARK  status: ('A' for Active; 'I' for Inactive)
REMARK    1  A    between atoms: C_1  and  SE_10
REMARK    2  A    between atoms: C_2  and  C_3
REMARK    3  A    between atoms: C_2  and  CA_4
REMARK    4  A    between atoms: C_3  and  SE_10
REMARK    5  A    between atoms: CA_4  and  C_5
REMARK    6  A    between atoms: CA_4  and  N_6
REMARK    7  A    between atoms: C_5  and  OXT_8
REMARK                            x       y       z     vdW  Elec       q    Type
REMARK                         _______ _______ _______ _____ _____    ______ ____
ROOT
ATOM      1  CA  UNL     1       2.143   0.412   0.000  0.00  0.00    +0.000 C 
ENDROOT
BRANCH   1   2
ATOM      2  N   UNL     1       2.143   1.238   0.000  0.00  0.00    +0.000 NA
ATOM      3  H1  UNL     1       3.027   1.748   0.000  0.00  0.00    +0.000 HD
ATOM      4  H2  UNL     1       1.260   1.748   0.000  0.00  0.00    +0.000 HD
ENDBRANCH   1   2
BRANCH   1   5
ATOM      5  C   UNL     1       2.858   0.000   0.000  0.00  0.00    +0.000 C 
ATOM      6  O   UNL     1       3.572   0.412   0.000  0.00  0.00    +0.000 OA
BRANCH   5   7
ATOM      7  OXT UNL     1       2.858  -0.825   0.000  0.00  0.00    +0.000 OA
ATOM      8  HXT UNL     1       2.046  -1.294   0.000  0.00  0.00    +0.000 HD
ENDBRANCH   5   7
ENDBRANCH   1   5
BRANCH   1   9
ATOM      9  C   UNL     1       1.429   0.000   0.000  0.00  0.00    +0.000 C 
BRANCH   9  10
ATOM     10  C   UNL     1       0.715   0.412   0.000  0.00  0.00    +0.000 C 
BRANCH  10  13
ATOM     11  C   UNL     1      -0.715   0.412   0.000  0.00  0.00    +0.000 C 
ATOM     12  O   UNL     1       0.000  -0.825   0.000  0.00  0.00    +0.000 OA
ATOM     13 SE   UNL     1       0.000   0.000   0.000  0.00  0.00    +0.000 Se
ENDBRANCH  10  13
ENDBRANCH   9  10
ENDBRANCH   1   9
TORSDOF 6
