REMARK  Name = 
REMARK  21 active torsions:
REMARK  status: ('A' for Active; 'I' for Inactive)
REMARK    1  A    between atoms: N_1  and  C_2
REMARK    2  A    between atoms: C_2  and  C_3
REMARK    3  A    between atoms: C_3  and  C_4
REMARK    4  A    between atoms: C_4  and  C_5
REMARK    5  A    between atoms: C_5  and  N_6
REMARK    6  A    between atoms: N_6  and  C_7
REMARK    7  A    between atoms: C_7  and  C_8
REMARK    8  A    between atoms: C_8  and  C_9
REMARK    9  A    between atoms: C_9  and  N_10
REMARK   10  A    between atoms: C_11  and  C_13
REMARK   11  A    between atoms: C_13  and  N_14
REMARK   12  A    between atoms: C_15  and  C_17
REMARK   13  A    between atoms: C_17  and  C_18
REMARK   14  A    between atoms: C_17  and  N_20
REMARK   15  A    between atoms: C_18  and  S_19
REMARK   16  A    between atoms: C_21  and  C_23
REMARK   17  A    between atoms: C_23  and  C_24
REMARK   18  A    between atoms: C_24  and  C_25
REMARK   19  A    between atoms: C_25  and  N_26
REMARK   20  A    between atoms: C_25  and  C_27
REMARK   21  A    between atoms: C_27  and  O_29
REMARK                            x       y       z     vdW  Elec       q    Type
REMARK                         _______ _______ _______ _____ _____    ______ ____
ROOT
ATOM      1  N   UNK     1       0.868  -0.560  -0.382  0.00  0.00    +0.000 N 
ATOM      2  C   UNK     1       1.179  -1.916  -0.247  0.00  0.00    +0.000 C 
ATOM      3  O   UNK     1       0.687  -2.807  -0.978  0.00  0.00    +0.000 OA
ATOM      4  H   UNK     1       1.489   0.135  -0.065  0.00  0.00    +0.000 HD
ENDROOT
BRANCH   1   5
ATOM      5  C   UNK     1      -0.401  -0.203  -1.005  0.00  0.00    +0.000 C 
BRANCH   5   7
ATOM      6  N   UNK     1      -2.623  -1.291  -0.428  0.00  0.00    +0.000 N 
ATOM      7  C   UNK     1      -1.550  -0.395  -0.116  0.00  0.00    +0.000 C 
ATOM      8  O   UNK     1      -1.540   0.043   1.071  0.00  0.00    +0.000 OA
ATOM      9  H   UNK     1      -2.457  -2.155  -0.869  0.00  0.00    +0.000 HD
BRANCH   6  10
ATOM     10  C   UNK     1      -3.973  -0.868  -0.064  0.00  0.00    +0.000 C 
BRANCH  10  11
ATOM     11  C   UNK     1      -4.792  -0.925  -1.348  0.00  0.00    +0.000 C 
BRANCH  11  12
ATOM     12  C   UNK     1      -5.805  -2.049  -1.200  0.00  0.00    +0.000 C 
BRANCH  12  13
ATOM     13  N   UNK     1      -6.322  -2.053   0.149  0.00  0.00    +0.000 NA
ATOM     14  H   UNK     1      -6.570  -3.002   0.427  0.00  0.00    +0.000 HD
BRANCH  13  15
ATOM     15  C   UNK     1      -7.504  -1.207   0.144  0.00  0.00    +0.000 C 
BRANCH  15  16
ATOM     16  C   UNK     1      -7.104   0.247   0.013  0.00  0.00    +0.000 C 
BRANCH  16  17
ATOM     17  C   UNK     1      -8.248   1.072   0.549  0.00  0.00    +0.000 C 
BRANCH  17  18
ATOM     18  C   UNK     1      -8.305   2.400  -0.189  0.00  0.00    +0.000 C 
BRANCH  18  19
ATOM     19  N   UNK     1      -8.637   2.610  -0.409  0.00  0.00    +0.000 NA
ATOM     20  H   UNK     1      -8.293   3.496  -0.779  0.00  0.00    +0.000 HD
ATOM     21  H   UNK     1      -9.410   2.787   0.233  0.00  0.00    +0.000 HD
ENDBRANCH  18  19
ENDBRANCH  17  18
ENDBRANCH  16  17
ENDBRANCH  15  16
ENDBRANCH  13  15
ENDBRANCH  12  13
ENDBRANCH  11  12
ENDBRANCH  10  11
ENDBRANCH   6  10
ENDBRANCH   5   7
ENDBRANCH   1   5
BRANCH   2  22
ATOM     22  C   UNK     1       2.731  -2.260   0.167  0.00  0.00    +0.000 C 
BRANCH  22  23
ATOM     23  N   UNK     1       3.327  -1.282  -0.960  0.00  0.00    +0.000 N 
ATOM     24  C   UNK     1       4.247  -0.333  -0.521  0.00  0.00    +0.000 C 
ATOM     25  O   UNK     1       3.693   0.432   0.331  0.00  0.00    +0.000 OA
ATOM     26  H   UNK     1       3.058  -1.350  -1.905  0.00  0.00    +0.000 HD
BRANCH  24  27
ATOM     27  C   UNK     1       5.473   0.147  -1.208  0.00  0.00    +0.000 C 
BRANCH  27  28
ATOM     28  C   UNK     1       6.355   0.730  -0.102  0.00  0.00    +0.000 C 
BRANCH  28  29
ATOM     29  C   UNK     1       7.181   1.970  -0.868  0.00  0.00    +0.000 C 
BRANCH  29  30
ATOM     30  N   UNK     1       8.469   1.750   0.067  0.00  0.00    +0.000 NA
ATOM     31  H   UNK     1       8.173   1.663   1.039  0.00  0.00    +0.000 HD
ATOM     32  H   UNK     1       9.098   2.547  -0.027  0.00  0.00    +0.000 HD
ENDBRANCH  29  30
BRANCH  29  33
ATOM     33  C   UNK     1       6.551   3.107   0.135  0.00  0.00    +0.000 C 
ATOM     34  O   UNK     1       5.478   3.490  -0.405  0.00  0.00    +0.000 OA
BRANCH  33  35
ATOM     35  O   UNK     1       6.557   2.832   1.459  0.00  0.00    +0.000 OA
ATOM     36  H   UNK     1       7.346   2.546   1.875  0.00  0.00    +0.000 HD
ENDBRANCH  33  35
ENDBRANCH  29  33
ENDBRANCH  28  29
ENDBRANCH  27  28
ENDBRANCH  24  27
ENDBRANCH  22  23
BRANCH  22  37
ATOM     37  C   UNK     1       2.722  -1.113   1.394  0.00  0.00    +0.000 C 
BRANCH  37  38
ATOM     38  S   UNK     1       1.287  -1.567   2.399  0.00  0.00    +0.000 S 
ATOM     39  H   UNK     1       0.170  -1.562   1.623  0.00  0.00    +0.000 HD
ENDBRANCH  37  38
ENDBRANCH  22  37
ENDBRANCH   2  22
TORSDOF 21
