REMARK  Name = 448878
REMARK  7 active torsions:
REMARK  status: ('A' for Active; 'I' for Inactive)
REMARK    1  A    between atoms: SD_1  and  CG_9
REMARK    2  A    between atoms: SD_1  and  CE_12
REMARK    3  A    between atoms: O_2  and  C_10
REMARK    4  A    between atoms: N_5  and  CA_7
REMARK    5  A    between atoms: CA_7  and  CB_8
REMARK    6  A    between atoms: CA_7  and  C_10
REMARK    7  A    between atoms: CB_8  and  CG_9
REMARK                            x       y       z     vdW  Elec       q    Type
REMARK                         _______ _______ _______ _____ _____    ______ ____
ROOT
ATOM      1  CA  UNL     1       0.537   0.605   0.519  0.00  0.00    +0.000 C 
ENDROOT
BRANCH   1   3
ATOM      2  O   UNL     1       2.571  -1.363   1.154  0.00  0.00    +0.000 OA
ATOM      3  N   UNL     1       1.266  -0.228  -0.403  0.00  0.00    +0.000 N 
ATOM      4  N   UNL     1       2.781  -1.821  -1.086  0.00  0.00    +0.000 N 
ATOM      5  C   ACE A   0       2.230  -1.150  -0.009  0.00  0.00    +0.000 C 
ATOM      6  H   UNL     1       1.056  -0.151  -1.394  0.00  0.00    +0.000 HD
ATOM      7  H   UNL     1       2.487  -1.632  -2.038  0.00  0.00    +0.000 HD
ATOM      8  H   UNL     1       3.499  -2.525  -0.955  0.00  0.00    +0.000 HD
ENDBRANCH   1   3
BRANCH   1  10
ATOM      9  OXT UNL     1      -0.295   2.877   0.599  0.00  0.00    +0.000 OA
ATOM     10  C   UNL     1       0.237   1.983  -0.051  0.00  0.00    +0.000 C 
BRANCH  10  11
ATOM     11  O   UNL     1       0.554   2.131  -1.360  0.00  0.00    +0.000 OA
ATOM     12  H   UNL     1       0.321   3.023  -1.695  0.00  0.00    +0.000 HD
ENDBRANCH  10  11
ENDBRANCH   1  10
BRANCH   1  13
ATOM     13  CB  UNL     1      -0.729  -0.103   1.020  0.00  0.00    +0.000 C 
BRANCH  13  14
ATOM     14  CG  UNL     1      -1.763  -0.362  -0.078  0.00  0.00    +0.000 C 
BRANCH  14  15
ATOM     15  SD  UNL     1      -3.224  -1.193   0.612  0.00  0.00    +0.000 S 
ATOM     16  CE  UNL     1      -4.167  -1.375  -0.918  0.00  0.00    +0.000 C 
ENDBRANCH  14  15
ENDBRANCH  13  14
ENDBRANCH   1  13
TORSDOF 6
