REMARK  Name = 36691220
REMARK  7 active torsions:
REMARK  status: ('A' for Active; 'I' for Inactive)
REMARK    1  A    between atoms: O_1  and  C_9
REMARK    2  A    between atoms: N_4  and  CA_7
REMARK    3  A    between atoms: C_5  and  C_6
REMARK    4  A    between atoms: C_5  and  CA_7
REMARK    5  A    between atoms: C_6  and  C_8
REMARK    6  A    between atoms: CA_7  and  C_10
REMARK    7  A    between atoms: C_8  and  C_9
REMARK                            x       y       z     vdW  Elec       q    Type
REMARK                         _______ _______ _______ _____ _____    ______ ____
ROOT
ATOM      1  CA  UNL     1      -1.586   0.629  -0.425  0.00  0.00    +0.000 C 
ENDROOT
BRANCH   1   2
ATOM      2  N   UNL     1      -2.514   1.748  -0.064  0.00  0.00    +0.000 N 
ATOM      3  H1  UNL     1      -3.459   1.580  -0.435  0.00  0.00    +0.000 HD
ATOM      4  H2  UNL     1      -2.192   2.647  -0.448  0.00  0.00    +0.000 HD
ATOM      5  H3  UNL     1      -2.598   1.857   0.955  0.00  0.00    +0.000 HD
ENDBRANCH   1   2
BRANCH   1   8
ATOM      6  O   UNL     1      -2.216  -0.844   1.334  0.00  0.00    +0.000 OA
ATOM      7  OXT UNL     1      -2.424  -1.540  -0.832  0.00  0.00    +0.000 OA
ATOM      8  C   UNL     1      -2.123  -0.719   0.081  0.00  0.00    +0.000 C 
ENDBRANCH   1   8
BRANCH   1   9
ATOM      9  C   UNL     1      -0.198   1.000   0.106  0.00  0.00    +0.000 C 
BRANCH   9  10
ATOM     10  C   UNL     1       0.877  -0.000  -0.333  0.00  0.00    +0.000 C 
BRANCH  10  11
ATOM     11  C   UNL     1       2.263   0.431   0.145  0.00  0.00    +0.000 C 
BRANCH  11  12
ATOM     12  C   UNL     1       3.332  -0.578  -0.248  0.00  0.00    +0.000 C 
BRANCH  12  13
ATOM     13  O   UNL     1       4.589  -0.127   0.237  0.00  0.00    +0.000 OA
ATOM     14  H   UNL     1       5.251  -0.789  -0.028  0.00  0.00    +0.000 HD
ENDBRANCH  12  13
ENDBRANCH  11  12
ENDBRANCH  10  11
ENDBRANCH   9  10
ENDBRANCH   1   9
TORSDOF 7
