REMARK  Name = 25203300
REMARK  6 active torsions:
REMARK  status: ('A' for Active; 'I' for Inactive)
REMARK    1  A    between atoms: N_4  and  CA_7
REMARK    2  A    between atoms: N_5  and  C_11
REMARK    3  A    between atoms: C_6  and  CA_7
REMARK    4  A    between atoms: C_6  and  C_8
REMARK    5  A    between atoms: CA_7  and  C_10
REMARK    6  A    between atoms: C_8  and  C_9
REMARK                            x       y       z     vdW  Elec       q    Type
REMARK                         _______ _______ _______ _____ _____    ______ ____
ROOT
ATOM      1  CA  UNL     1      -1.844  -0.742   0.313  0.00  0.00    +0.000 C 
ENDROOT
BRANCH   1   2
ATOM      2  N   UNL     1      -1.948  -1.678  -0.851  0.00  0.00    +0.000 N 
ATOM      3  H1  UNL     1      -2.933  -1.866  -1.080  0.00  0.00    +0.000 HD
ATOM      4  H2  UNL     1      -1.504  -2.585  -0.655  0.00  0.00    +0.000 HD
ATOM      5  H3  UNL     1      -1.512  -1.290  -1.697  0.00  0.00    +0.000 HD
ENDBRANCH   1   2
BRANCH   1   8
ATOM      6  O   UNL     1      -3.414   0.644  -0.795  0.00  0.00    +0.000 OA
ATOM      7  OXT UNL     1      -2.053   1.582   0.776  0.00  0.00    +0.000 OA
ATOM      8  C   UNL     1      -2.506   0.628   0.084  0.00  0.00    +0.000 C 
ENDBRANCH   1   8
BRANCH   1   9
ATOM      9  C   UNL     1      -0.371  -0.703   0.743  0.00  0.00    +0.000 C 
BRANCH   9  10
ATOM     10  C   UNL     1       0.572  -0.069  -0.284  0.00  0.00    +0.000 C 
BRANCH  10  13
ATOM     11  O   UNL     1       2.384  -0.593   1.234  0.00  0.00    +0.000 OA
ATOM     12  N   UNL     1       2.863   0.469  -0.777  0.00  0.00    +0.000 N 
ATOM     13  C   UNL     1       2.024  -0.109   0.164  0.00  0.00    +0.000 C 
ATOM     14  C   UNL     1       4.294   0.572  -0.607  0.00  0.00    +0.000 C 
ATOM     15  H   UNL     1       2.462   0.857  -1.626  0.00  0.00    +0.000 HD
ENDBRANCH  10  13
ENDBRANCH   9  10
ENDBRANCH   1   9
TORSDOF 5
