REMARK  Name = 1549100
REMARK  8 active torsions:
REMARK  status: ('A' for Active; 'I' for Inactive)
REMARK    1  A    between atoms: N_5  and  CA_10
REMARK    2  A    between atoms: N_6  and  CA_11
REMARK    3  A    between atoms: C_7  and  C_8
REMARK    4  A    between atoms: C_7  and  C_9
REMARK    5  A    between atoms: C_8  and  CA_10
REMARK    6  A    between atoms: C_9  and  CA_11
REMARK    7  A    between atoms: CA_10  and  C_12
REMARK    8  A    between atoms: CA_11  and  C_13
REMARK                            x       y       z     vdW  Elec       q    Type
REMARK                         _______ _______ _______ _____ _____    ______ ____
ROOT
ATOM      1  C   UNL     1       0.025  -0.668   0.110  0.00  0.00    +0.000 C 
ENDROOT
BRANCH   1   2
ATOM      2  C   UNL     1      -1.303  -1.212  -0.431  0.00  0.00    +0.000 C 
BRANCH   2   3
ATOM      3  CA  UNL     1      -2.513  -0.621   0.302  0.00  0.00    +0.000 C 
BRANCH   3   4
ATOM      4  N   UNL     1      -3.732  -1.252  -0.298  0.00  0.00    +0.000 N 
ATOM      5  H1  UNL     1      -3.703  -2.277  -0.228  0.00  0.00    +0.000 HD
ATOM      6  H2  UNL     1      -3.833  -1.010  -1.294  0.00  0.00    +0.000 HD
ATOM      7  H3  UNL     1      -4.586  -0.938   0.182  0.00  0.00    +0.000 HD
ENDBRANCH   3   4
BRANCH   3  10
ATOM      8  O   UNL     1      -2.602   1.435  -0.893  0.00  0.00    +0.000 OA
ATOM      9  OXT UNL     1      -2.641   1.468   1.392  0.00  0.00    +0.000 OA
ATOM     10  C   UNL     1      -2.599   0.912   0.257  0.00  0.00    +0.000 C 
ENDBRANCH   3  10
ENDBRANCH   2   3
ENDBRANCH   1   2
BRANCH   1  11
ATOM     11  C   UNL     1       1.213  -1.218  -0.692  0.00  0.00    +0.000 C 
BRANCH  11  12
ATOM     12  CA  UNL     1       2.587  -0.770  -0.176  0.00  0.00    +0.000 C 
BRANCH  12  13
ATOM     13  N   UNL     1       2.817  -1.377   1.173  0.00  0.00    +0.000 N 
ATOM     14  H1  UNL     1       2.655  -2.393   1.167  0.00  0.00    +0.000 HD
ATOM     15  H2  UNL     1       2.202  -0.965   1.887  0.00  0.00    +0.000 HD
ATOM     16  H3  UNL     1       3.785  -1.225   1.484  0.00  0.00    +0.000 HD
ENDBRANCH  12  13
BRANCH  12  19
ATOM     17  O   UNL     1       3.658   1.184   0.634  0.00  0.00    +0.000 OA
ATOM     18  OXT UNL     1       2.243   1.374  -1.145  0.00  0.00    +0.000 OA
ATOM     19  C   UNL     1       2.847   0.745  -0.231  0.00  0.00    +0.000 C 
ENDBRANCH  12  19
ENDBRANCH  11  12
ENDBRANCH   1  11
TORSDOF 8
