REMARK  Name = 9834298
REMARK  10 active torsions:
REMARK  status: ('A' for Active; 'I' for Inactive)
REMARK    1  A    between atoms: S_1  and  C_6
REMARK    2  A    between atoms: S_2  and  C_11
REMARK    3  A    between atoms: O_3  and  C_12
REMARK    4  A    between atoms: C_5  and  C_6
REMARK    5  A    between atoms: C_5  and  C_7
REMARK    6  A    between atoms: C_6  and  C_9
REMARK    7  A    between atoms: C_7  and  C_8
REMARK    8  A    between atoms: C_8  and  C_10
REMARK    9  A    between atoms: C_9  and  C_11
REMARK   10  A    between atoms: C_10  and  C_12
REMARK                            x       y       z     vdW  Elec       q    Type
REMARK                         _______ _______ _______ _____ _____    ______ ____
ROOT
ATOM      1  C   UNL     1      -1.032   0.872   0.854  0.00  0.00    +0.000 C 
ENDROOT
BRANCH   1   2
ATOM      2  C   UNL     1      -2.459   1.138   0.337  0.00  0.00    +0.000 C 
BRANCH   2   3
ATOM      3  S   UNL     1      -2.471   2.579  -0.796  0.00  0.00    +0.000 S 
ATOM      4  H   UNL     1      -1.871   1.978  -1.835  0.00  0.00    +0.000 HD
ENDBRANCH   2   3
BRANCH   2   5
ATOM      5  C   UNL     1      -3.140  -0.054  -0.360  0.00  0.00    +0.000 C 
BRANCH   5   6
ATOM      6  C   UNL     1      -3.273  -1.273   0.554  0.00  0.00    +0.000 C 
BRANCH   6   7
ATOM      7  S   UNL     1      -4.069  -2.650  -0.325  0.00  0.00    +0.000 S 
ATOM      8  H   UNL     1      -4.039  -3.519   0.696  0.00  0.00    +0.000 HD
ENDBRANCH   6   7
ENDBRANCH   5   6
ENDBRANCH   2   5
ENDBRANCH   1   2
BRANCH   1   9
ATOM      9  C   UNL     1      -0.009   0.445  -0.207  0.00  0.00    +0.000 C 
BRANCH   9  10
ATOM     10  C   UNL     1       1.381   0.262   0.414  0.00  0.00    +0.000 C 
BRANCH  10  11
ATOM     11  C   UNL     1       2.421  -0.204  -0.606  0.00  0.00    +0.000 C 
BRANCH  11  13
ATOM     12  O   UNL     1       4.126  -0.080   1.131  0.00  0.00    +0.000 OA
ATOM     13  C   UNL     1       3.814  -0.321  -0.027  0.00  0.00    +0.000 C 
BRANCH  13  14
ATOM     14  O   UNL     1       4.711  -0.714  -0.969  0.00  0.00    +0.000 OA
ATOM     15  H   UNL     1       5.618  -0.783  -0.604  0.00  0.00    +0.000 HD
ENDBRANCH  13  14
ENDBRANCH  11  13
ENDBRANCH  10  11
ENDBRANCH   9  10
ENDBRANCH   1   9
TORSDOF 10
