MODEL 1
REMARK VINA RESULT:    -2.241      0.000      0.000
REMARK INTER + INTRA:         -13.351
REMARK INTER:                  -7.014
REMARK INTRA:                  -6.337
REMARK CONF_INDEPENDENT:        4.773
REMARK UNBOUND:                 6.337
REMARK  Name = 
REMARK  17 active torsions:
REMARK  status: ('A' for Active; 'I' for Inactive)
REMARK    1  A    between atoms: CB_1  and  CA_2
REMARK    2  A    between atoms: CA_2  and  N_3
REMARK    3  A    between atoms: CA_2  and  C_25
REMARK    4  A    between atoms: C_4  and  CA_6
REMARK    5  A    between atoms: CA_6  and  CB_7
REMARK    6  A    between atoms: CA_6  and  N_12
REMARK    7  A    between atoms: CB_7  and  CG_8
REMARK    8  A    between atoms: CG_8  and  CD_9
REMARK    9  A    between atoms: CD_9  and  OE2_11
REMARK   10  A    between atoms: C_13  and  CA_15
REMARK   11  A    between atoms: CA_15  and  N_16
REMARK   12  A    between atoms: C_17  and  CA_19
REMARK   13  A    between atoms: CA_19  and  N_20
REMARK   14  A    between atoms: CA_19  and  CB_21
REMARK   15  A    between atoms: CB_21  and  CG_22
REMARK   16  A    between atoms: CG_22  and  OD2_24
REMARK   17  A    between atoms: C_25  and  OXT_27
REMARK                            x       y       z     vdW  Elec       q    Type
REMARK                         _______ _______ _______ _____ _____    ______ ____
ROOT
ATOM      1  N   GLU A   3       6.100   5.802   2.491  0.00  0.00    +0.000 N 
ATOM      2  C   GLY A   2       5.864   6.674   1.410  0.00  0.00    +0.000 C 
ATOM      3  O   GLY A   2       6.734   6.992   0.571  0.00  0.00    +0.000 OA
ATOM      4  H   GLU A   3       5.381   5.453   3.065  0.00  0.00    +0.000 HD
ENDROOT
BRANCH   1   5
ATOM      5  CA  GLU A   3       7.649   5.430   2.701  0.00  0.00    +0.000 C 
BRANCH   5   7
ATOM      6  N   ALA A   4       6.516   3.118   2.488  0.00  0.00    +0.000 N 
ATOM      7  C   GLU A   3       7.321   3.947   3.314  0.00  0.00    +0.000 C 
ATOM      8  O   GLU A   3       7.217   3.846   4.524  0.00  0.00    +0.000 OA
ATOM      9  H   ALA A   4       5.821   3.411   1.855  0.00  0.00    +0.000 HD
BRANCH   6  11
ATOM     10  CB  ALA A   4       5.399   1.036   2.614  0.00  0.00    +0.000 C 
ATOM     11  CA  ALA A   4       6.965   1.606   2.795  0.00  0.00    +0.000 C 
BRANCH  11  12
ATOM     12  C   ALA A   4       7.329   1.316   1.221  0.00  0.00    +0.000 C 
ATOM     13  O   ALA A   4       7.104   0.111   0.930  0.00  0.00    +0.000 OA
BRANCH  12  14
ATOM     14  OXT ALA A   4       6.953   2.271   0.325  0.00  0.00    +0.000 OA
ATOM     15  HXT ALA A   4       7.454   3.059   0.240  0.00  0.00    +0.000 HD
ENDBRANCH  12  14
ENDBRANCH  11  12
ENDBRANCH   6  11
ENDBRANCH   5   7
BRANCH   5  16
ATOM     16  CB  GLU A   3       7.650   6.118   4.231  0.00  0.00    +0.000 C 
BRANCH  16  17
ATOM     17  CG  GLU A   3       6.277   6.725   4.361  0.00  0.00    +0.000 C 
BRANCH  17  18
ATOM     18  CD  GLU A   3       5.385   5.888   5.208  0.00  0.00    +0.000 C 
ATOM     19  OE1 GLU A   3       5.373   6.098   6.448  0.00  0.00    +0.000 OA
BRANCH  18  20
ATOM     20  OE2 GLU A   3       4.889   4.662   4.799  0.00  0.00    +0.000 OA
ATOM     21  HE2 GLU A   3       5.072   3.892   5.301  0.00  0.00    +0.000 HD
ENDBRANCH  18  20
ENDBRANCH  17  18
ENDBRANCH  16  17
ENDBRANCH   5  16
ENDBRANCH   1   5
BRANCH   2  22
ATOM     22  CA  GLY A   2       4.567   7.420   1.400  0.00  0.00    +0.000 C 
BRANCH  22  23
ATOM     23  N   GLY A   2       3.647   6.694   0.548  0.00  0.00    +0.000 N 
ATOM     24  C   ASP A   1       3.473   5.299   0.637  0.00  0.00    +0.000 C 
ATOM     25  O   ASP A   1       4.093   4.610   1.477  0.00  0.00    +0.000 OA
ATOM     26  H   GLY A   2       3.123   7.195  -0.119  0.00  0.00    +0.000 HD
BRANCH  24  27
ATOM     27  CA  ASP A   1       1.912   4.818   0.466  0.00  0.00    +0.000 C 
BRANCH  27  28
ATOM     28  N   ASP A   1       1.757   5.676  -0.881  0.00  0.00    +0.000 NA
ATOM     29  H1  ASP A   1       2.654   6.099  -1.120  0.00  0.00    +0.000 HD
ATOM     30  H2  ASP A   1       1.062   6.409  -0.739  0.00  0.00    +0.000 HD
ENDBRANCH  27  28
BRANCH  27  31
ATOM     31  CB  ASP A   1       2.389   3.463  -0.396  0.00  0.00    +0.000 C 
BRANCH  31  32
ATOM     32  CG  ASP A   1       1.349   2.461  -0.095  0.00  0.00    +0.000 C 
ATOM     33  OD1 ASP A   1       1.659   1.506   0.668  0.00  0.00    +0.000 OA
BRANCH  32  34
ATOM     34  OD2 ASP A   1       0.079   2.525  -0.624  0.00  0.00    +0.000 OA
ATOM     35  HD2 ASP A   1      -0.042   2.516  -1.554  0.00  0.00    +0.000 HD
ENDBRANCH  32  34
ENDBRANCH  31  32
ENDBRANCH  27  31
ENDBRANCH  24  27
ENDBRANCH  22  23
ENDBRANCH   2  22
TORSDOF 16
ENDMDL
