MODEL 1
REMARK VINA RESULT:    -8.361      0.000      0.000
REMARK INTER + INTRA:         -12.730
REMARK INTER:                 -10.747
REMARK INTRA:                  -1.983
REMARK CONF_INDEPENDENT:        2.386
REMARK UNBOUND:                 1.983
REMARK  Name = 
REMARK  8 active torsions:
REMARK  status: ('A' for Active; 'I' for Inactive)
REMARK    1  A    between atoms: C_2  and  C_3
REMARK    2  A    between atoms: C_2  and  O_13
REMARK    3  A    between atoms: C_4  and  C_5
REMARK    4  A    between atoms: C_8  and  O_9
REMARK    5  A    between atoms: C_10  and  O_11
REMARK    6  A    between atoms: O_13  and  C_14
REMARK    7  A    between atoms: C_14  and  C_15
REMARK    8  A    between atoms: C_15  and  C_16
REMARK                            x       y       z     vdW  Elec       q    Type
REMARK                         _______ _______ _______ _____ _____    ______ ____
ROOT
ATOM      1  C   UNL     1      -1.640   1.914  -0.227  0.00  0.00    +0.000 C 
ATOM      2  C   UNL     1      -0.332   1.874  -0.207  0.00  0.00    +0.000 C 
ENDROOT
BRANCH   2   3
ATOM      3  C   UNL     1       0.523   2.387  -1.280  0.00  0.00    +0.000 A 
ATOM      4  C   UNL     1       1.868   2.669  -1.072  0.00  0.00    +0.000 A 
ATOM      5  C   UNL     1       2.809   2.339  -2.041  0.00  0.00    +0.000 A 
ATOM      6  C   UNL     1       2.412   1.846  -3.278  0.00  0.00    +0.000 A 
ATOM      7  C   UNL     1       1.084   2.067  -3.616  0.00  0.00    +0.000 A 
ATOM      8  C   UNL     1       0.144   2.275  -2.613  0.00  0.00    +0.000 A 
BRANCH   6   9
ATOM      9  O   UNL     1       3.188   0.903  -3.958  0.00  0.00    +0.000 OA
ATOM     10  H   UNL     1       2.980   0.672  -4.841  0.00  0.00    +0.000 HD
ENDBRANCH   6   9
BRANCH   7  11
ATOM     11  O   UNL     1       0.733   1.855  -4.936  0.00  0.00    +0.000 OA
ATOM     12  H   UNL     1       1.399   1.719  -5.582  0.00  0.00    +0.000 HD
ENDBRANCH   7  11
ENDBRANCH   2   3
BRANCH   1  14
ATOM     13  O   UNL     1      -2.097   0.765   1.771  0.00  0.00    +0.000 OA
ATOM     14  C   UNL     1      -2.465   1.671   0.964  0.00  0.00    +0.000 C 
BRANCH  14  15
ATOM     15  O   UNL     1      -3.366   2.649   1.362  0.00  0.00    +0.000 OA
BRANCH  15  16
ATOM     16  C   UNL     1      -3.438   3.866   0.629  0.00  0.00    +0.000 C 
BRANCH  16  17
ATOM     17  C   UNL     1      -3.231   5.003   1.610  0.00  0.00    +0.000 C 
BRANCH  17  18
ATOM     18  C   UNL     1      -2.373   4.487   2.699  0.00  0.00    +0.000 A 
ATOM     19  C   UNL     1      -2.989   3.913   3.795  0.00  0.00    +0.000 A 
ATOM     20  C   UNL     1      -2.283   2.982   4.533  0.00  0.00    +0.000 A 
ATOM     21  C   UNL     1      -1.009   2.604   4.169  0.00  0.00    +0.000 A 
ATOM     22  C   UNL     1      -0.294   3.415   3.299  0.00  0.00    +0.000 A 
ATOM     23  C   UNL     1      -1.012   4.350   2.568  0.00  0.00    +0.000 A 
ENDBRANCH  17  18
ENDBRANCH  16  17
ENDBRANCH  15  16
ENDBRANCH  14  15
ENDBRANCH   1  14
TORSDOF 8
ENDMDL
MODEL 2
REMARK VINA RESULT:    -7.661      1.110      2.550
REMARK INTER + INTRA:         -12.203
REMARK INTER:                 -10.047
REMARK INTRA:                  -2.156
REMARK CONF_INDEPENDENT:        2.386
REMARK UNBOUND:                 2.156
REMARK  Name = 
REMARK  8 active torsions:
REMARK  status: ('A' for Active; 'I' for Inactive)
REMARK    1  A    between atoms: C_2  and  C_3
REMARK    2  A    between atoms: C_2  and  O_13
REMARK    3  A    between atoms: C_4  and  C_5
REMARK    4  A    between atoms: C_8  and  O_9
REMARK    5  A    between atoms: C_10  and  O_11
REMARK    6  A    between atoms: O_13  and  C_14
REMARK    7  A    between atoms: C_14  and  C_15
REMARK    8  A    between atoms: C_15  and  C_16
REMARK                            x       y       z     vdW  Elec       q    Type
REMARK                         _______ _______ _______ _____ _____    ______ ____
ROOT
ATOM      1  C   UNL     1      -1.708   2.039  -0.037  0.00  0.00    +0.000 C 
ATOM      2  C   UNL     1      -0.416   1.867  -0.151  0.00  0.00    +0.000 C 
ENDROOT
BRANCH   2   3
ATOM      3  C   UNL     1       0.396   2.425  -1.235  0.00  0.00    +0.000 A 
ATOM      4  C   UNL     1       1.717   2.809  -1.037  0.00  0.00    +0.000 A 
ATOM      5  C   UNL     1       2.676   2.534  -2.004  0.00  0.00    +0.000 A 
ATOM      6  C   UNL     1       2.313   1.994  -3.232  0.00  0.00    +0.000 A 
ATOM      7  C   UNL     1       0.972   2.112  -3.568  0.00  0.00    +0.000 A 
ATOM      8  C   UNL     1       0.022   2.266  -2.564  0.00  0.00    +0.000 A 
BRANCH   6   9
ATOM      9  O   UNL     1       3.155   1.101  -3.901  0.00  0.00    +0.000 OA
ATOM     10  H   UNL     1       2.890   0.728  -4.719  0.00  0.00    +0.000 HD
ENDBRANCH   6   9
BRANCH   7  11
ATOM     11  O   UNL     1       0.634   1.855  -4.884  0.00  0.00    +0.000 OA
ATOM     12  H   UNL     1       1.222   1.376  -5.434  0.00  0.00    +0.000 HD
ENDBRANCH   7  11
ENDBRANCH   2   3
BRANCH   1  14
ATOM     13  O   UNL     1      -2.098   0.712   1.862  0.00  0.00    +0.000 OA
ATOM     14  C   UNL     1      -2.451   1.729   1.191  0.00  0.00    +0.000 C 
BRANCH  14  15
ATOM     15  O   UNL     1      -3.227   2.724   1.770  0.00  0.00    +0.000 OA
BRANCH  15  16
ATOM     16  C   UNL     1      -2.825   3.281   3.016  0.00  0.00    +0.000 C 
BRANCH  16  17
ATOM     17  C   UNL     1      -1.626   4.170   2.754  0.00  0.00    +0.000 C 
BRANCH  17  18
ATOM     18  C   UNL     1      -1.955   5.006   1.578  0.00  0.00    +0.000 A 
ATOM     19  C   UNL     1      -1.000   5.134   0.586  0.00  0.00    +0.000 A 
ATOM     20  C   UNL     1      -1.423   5.424  -0.698  0.00  0.00    +0.000 A 
ATOM     21  C   UNL     1      -2.763   5.548  -0.995  0.00  0.00    +0.000 A 
ATOM     22  C   UNL     1      -3.661   5.754   0.042  0.00  0.00    +0.000 A 
ATOM     23  C   UNL     1      -3.224   5.465   1.327  0.00  0.00    +0.000 A 
ENDBRANCH  17  18
ENDBRANCH  16  17
ENDBRANCH  15  16
ENDBRANCH  14  15
ENDBRANCH   1  14
TORSDOF 8
ENDMDL
MODEL 3
REMARK VINA RESULT:    -7.125      4.477      6.855
REMARK INTER + INTRA:         -10.744
REMARK INTER:                  -9.512
REMARK INTRA:                  -1.232
REMARK CONF_INDEPENDENT:        2.386
REMARK UNBOUND:                 1.232
REMARK  Name = 
REMARK  8 active torsions:
REMARK  status: ('A' for Active; 'I' for Inactive)
REMARK    1  A    between atoms: C_2  and  C_3
REMARK    2  A    between atoms: C_2  and  O_13
REMARK    3  A    between atoms: C_4  and  C_5
REMARK    4  A    between atoms: C_8  and  O_9
REMARK    5  A    between atoms: C_10  and  O_11
REMARK    6  A    between atoms: O_13  and  C_14
REMARK    7  A    between atoms: C_14  and  C_15
REMARK    8  A    between atoms: C_15  and  C_16
REMARK                            x       y       z     vdW  Elec       q    Type
REMARK                         _______ _______ _______ _____ _____    ______ ____
ROOT
ATOM      1  C   UNL     1       3.549  -1.540  -3.378  0.00  0.00    +0.000 C 
ATOM      2  C   UNL     1       2.848  -2.210  -4.256  0.00  0.00    +0.000 C 
ENDROOT
BRANCH   2   3
ATOM      3  C   UNL     1       2.382  -3.585  -4.060  0.00  0.00    +0.000 A 
ATOM      4  C   UNL     1       2.738  -4.326  -2.939  0.00  0.00    +0.000 A 
ATOM      5  C   UNL     1       1.800  -5.136  -2.310  0.00  0.00    +0.000 A 
ATOM      6  C   UNL     1       0.538  -5.321  -2.861  0.00  0.00    +0.000 A 
ATOM      7  C   UNL     1       0.413  -4.990  -4.204  0.00  0.00    +0.000 A 
ATOM      8  C   UNL     1       1.298  -4.083  -4.774  0.00  0.00    +0.000 A 
BRANCH   6   9
ATOM      9  O   UNL     1      -0.585  -5.486  -2.045  0.00  0.00    +0.000 OA
ATOM     10  H   UNL     1      -0.736  -4.899  -1.331  0.00  0.00    +0.000 HD
ENDBRANCH   6   9
BRANCH   7  11
ATOM     11  O   UNL     1      -0.728  -5.430  -4.850  0.00  0.00    +0.000 OA
ATOM     12  H   UNL     1      -1.573  -5.190  -4.524  0.00  0.00    +0.000 HD
ENDBRANCH   7  11
ENDBRANCH   2   3
BRANCH   1  14
ATOM     13  O   UNL     1       4.417   0.367  -4.439  0.00  0.00    +0.000 OA
ATOM     14  C   UNL     1       3.754  -0.088  -3.459  0.00  0.00    +0.000 C 
BRANCH  14  15
ATOM     15  O   UNL     1       2.930   0.745  -2.714  0.00  0.00    +0.000 OA
BRANCH  15  16
ATOM     16  C   UNL     1       2.832   2.120  -3.067  0.00  0.00    +0.000 C 
BRANCH  16  17
ATOM     17  C   UNL     1       1.362   2.443  -3.243  0.00  0.00    +0.000 C 
BRANCH  17  18
ATOM     18  C   UNL     1       0.721   2.289  -1.918  0.00  0.00    +0.000 A 
ATOM     19  C   UNL     1      -0.552   1.753  -1.872  0.00  0.00    +0.000 A 
ATOM     20  C   UNL     1      -0.954   1.116  -0.712  0.00  0.00    +0.000 A 
ATOM     21  C   UNL     1      -0.098   0.983   0.359  0.00  0.00    +0.000 A 
ATOM     22  C   UNL     1       1.020   1.801   0.427  0.00  0.00    +0.000 A 
ATOM     23  C   UNL     1       1.411   2.440  -0.740  0.00  0.00    +0.000 A 
ENDBRANCH  17  18
ENDBRANCH  16  17
ENDBRANCH  15  16
ENDBRANCH  14  15
ENDBRANCH   1  14
TORSDOF 8
ENDMDL
MODEL 4
REMARK VINA RESULT:    -7.063      1.258      2.018
REMARK INTER + INTRA:         -10.992
REMARK INTER:                  -9.450
REMARK INTRA:                  -1.542
REMARK CONF_INDEPENDENT:        2.386
REMARK UNBOUND:                 1.542
REMARK  Name = 
REMARK  8 active torsions:
REMARK  status: ('A' for Active; 'I' for Inactive)
REMARK    1  A    between atoms: C_2  and  C_3
REMARK    2  A    between atoms: C_2  and  O_13
REMARK    3  A    between atoms: C_4  and  C_5
REMARK    4  A    between atoms: C_8  and  O_9
REMARK    5  A    between atoms: C_10  and  O_11
REMARK    6  A    between atoms: O_13  and  C_14
REMARK    7  A    between atoms: C_14  and  C_15
REMARK    8  A    between atoms: C_15  and  C_16
REMARK                            x       y       z     vdW  Elec       q    Type
REMARK                         _______ _______ _______ _____ _____    ______ ____
ROOT
ATOM      1  C   UNL     1      -1.628   2.479   0.265  0.00  0.00    +0.000 C 
ATOM      2  C   UNL     1      -0.711   1.794  -0.369  0.00  0.00    +0.000 C 
ENDROOT
BRANCH   2   3
ATOM      3  C   UNL     1       0.224   2.372  -1.337  0.00  0.00    +0.000 A 
ATOM      4  C   UNL     1       1.507   2.762  -0.971  0.00  0.00    +0.000 A 
ATOM      5  C   UNL     1       2.581   2.507  -1.816  0.00  0.00    +0.000 A 
ATOM      6  C   UNL     1       2.378   1.981  -3.086  0.00  0.00    +0.000 A 
ATOM      7  C   UNL     1       1.088   2.094  -3.584  0.00  0.00    +0.000 A 
ATOM      8  C   UNL     1       0.020   2.228  -2.704  0.00  0.00    +0.000 A 
BRANCH   6   9
ATOM      9  O   UNL     1       3.304   1.103  -3.656  0.00  0.00    +0.000 OA
ATOM     10  H   UNL     1       3.236   0.872  -4.561  0.00  0.00    +0.000 HD
ENDBRANCH   6   9
BRANCH   7  11
ATOM     11  O   UNL     1       0.917   1.852  -4.935  0.00  0.00    +0.000 OA
ATOM     12  H   UNL     1       0.683   0.994  -5.231  0.00  0.00    +0.000 HD
ENDBRANCH   7  11
ENDBRANCH   2   3
BRANCH   1  14
ATOM     13  O   UNL     1      -2.136   0.757   1.781  0.00  0.00    +0.000 OA
ATOM     14  C   UNL     1      -2.352   1.957   1.432  0.00  0.00    +0.000 C 
BRANCH  14  15
ATOM     15  O   UNL     1      -2.929   2.857   2.317  0.00  0.00    +0.000 OA
BRANCH  15  16
ATOM     16  C   UNL     1      -2.519   2.851   3.679  0.00  0.00    +0.000 C 
BRANCH  16  17
ATOM     17  C   UNL     1      -1.028   2.584   3.707  0.00  0.00    +0.000 C 
BRANCH  17  18
ATOM     18  C   UNL     1      -0.350   3.886   3.525  0.00  0.00    +0.000 A 
ATOM     19  C   UNL     1      -0.240   4.719   4.623  0.00  0.00    +0.000 A 
ATOM     20  C   UNL     1       0.794   5.637   4.650  0.00  0.00    +0.000 A 
ATOM     21  C   UNL     1       1.716   5.699   3.628  0.00  0.00    +0.000 A 
ATOM     22  C   UNL     1       1.404   5.115   2.409  0.00  0.00    +0.000 A 
ATOM     23  C   UNL     1       0.361   4.200   2.393  0.00  0.00    +0.000 A 
ENDBRANCH  17  18
ENDBRANCH  16  17
ENDBRANCH  15  16
ENDBRANCH  14  15
ENDBRANCH   1  14
TORSDOF 8
ENDMDL
MODEL 5
REMARK VINA RESULT:    -7.033      2.091      3.004
REMARK INTER + INTRA:         -11.106
REMARK INTER:                  -9.419
REMARK INTRA:                  -1.687
REMARK CONF_INDEPENDENT:        2.386
REMARK UNBOUND:                 1.687
REMARK  Name = 
REMARK  8 active torsions:
REMARK  status: ('A' for Active; 'I' for Inactive)
REMARK    1  A    between atoms: C_2  and  C_3
REMARK    2  A    between atoms: C_2  and  O_13
REMARK    3  A    between atoms: C_4  and  C_5
REMARK    4  A    between atoms: C_8  and  O_9
REMARK    5  A    between atoms: C_10  and  O_11
REMARK    6  A    between atoms: O_13  and  C_14
REMARK    7  A    between atoms: C_14  and  C_15
REMARK    8  A    between atoms: C_15  and  C_16
REMARK                            x       y       z     vdW  Elec       q    Type
REMARK                         _______ _______ _______ _____ _____    ______ ____
ROOT
ATOM      1  C   UNL     1      -1.238   2.388   0.471  0.00  0.00    +0.000 C 
ATOM      2  C   UNL     1      -0.124   1.896  -0.006  0.00  0.00    +0.000 C 
ENDROOT
BRANCH   2   3
ATOM      3  C   UNL     1       0.581   2.434  -1.172  0.00  0.00    +0.000 A 
ATOM      4  C   UNL     1       1.896   2.877  -1.093  0.00  0.00    +0.000 A 
ATOM      5  C   UNL     1       2.791   2.596  -2.118  0.00  0.00    +0.000 A 
ATOM      6  C   UNL     1       2.359   1.985  -3.290  0.00  0.00    +0.000 A 
ATOM      7  C   UNL     1       0.993   2.035  -3.527  0.00  0.00    +0.000 A 
ATOM      8  C   UNL     1       0.115   2.199  -2.461  0.00  0.00    +0.000 A 
BRANCH   6   9
ATOM      9  O   UNL     1       3.185   1.095  -3.983  0.00  0.00    +0.000 OA
ATOM     10  H   UNL     1       2.951   0.810  -4.844  0.00  0.00    +0.000 HD
ENDBRANCH   6   9
BRANCH   7  11
ATOM     11  O   UNL     1       0.568   1.705  -4.800  0.00  0.00    +0.000 OA
ATOM     12  H   UNL     1       1.195   1.488  -5.462  0.00  0.00    +0.000 HD
ENDBRANCH   7  11
ENDBRANCH   2   3
BRANCH   1  14
ATOM     13  O   UNL     1      -2.786   1.277   1.845  0.00  0.00    +0.000 OA
ATOM     14  C   UNL     1      -1.768   2.032   1.793  0.00  0.00    +0.000 C 
BRANCH  14  15
ATOM     15  O   UNL     1      -0.954   2.198   2.906  0.00  0.00    +0.000 OA
BRANCH  15  16
ATOM     16  C   UNL     1      -0.258   3.426   3.078  0.00  0.00    +0.000 C 
BRANCH  16  17
ATOM     17  C   UNL     1       0.283   3.450   4.494  0.00  0.00    +0.000 C 
BRANCH  17  18
ATOM     18  C   UNL     1       1.575   2.730   4.478  0.00  0.00    +0.000 A 
ATOM     19  C   UNL     1       2.049   2.220   5.673  0.00  0.00    +0.000 A 
ATOM     20  C   UNL     1       2.909   1.139   5.630  0.00  0.00    +0.000 A 
ATOM     21  C   UNL     1       3.259   0.556   4.432  0.00  0.00    +0.000 A 
ATOM     22  C   UNL     1       3.060   1.268   3.258  0.00  0.00    +0.000 A 
ATOM     23  C   UNL     1       2.200   2.355   3.314  0.00  0.00    +0.000 A 
ENDBRANCH  17  18
ENDBRANCH  16  17
ENDBRANCH  15  16
ENDBRANCH  14  15
ENDBRANCH   1  14
TORSDOF 8
ENDMDL
MODEL 6
REMARK VINA RESULT:    -7.019      2.315      7.064
REMARK INTER + INTRA:         -10.673
REMARK INTER:                  -9.405
REMARK INTRA:                  -1.268
REMARK CONF_INDEPENDENT:        2.386
REMARK UNBOUND:                 1.268
REMARK  Name = 
REMARK  8 active torsions:
REMARK  status: ('A' for Active; 'I' for Inactive)
REMARK    1  A    between atoms: C_2  and  C_3
REMARK    2  A    between atoms: C_2  and  O_13
REMARK    3  A    between atoms: C_4  and  C_5
REMARK    4  A    between atoms: C_8  and  O_9
REMARK    5  A    between atoms: C_10  and  O_11
REMARK    6  A    between atoms: O_13  and  C_14
REMARK    7  A    between atoms: C_14  and  C_15
REMARK    8  A    between atoms: C_15  and  C_16
REMARK                            x       y       z     vdW  Elec       q    Type
REMARK                         _______ _______ _______ _____ _____    ______ ____
ROOT
ATOM      1  C   UNL     1      -0.481   2.447  -0.789  0.00  0.00    +0.000 C 
ATOM      2  C   UNL     1      -1.475   2.377   0.058  0.00  0.00    +0.000 C 
ENDROOT
BRANCH   2   3
ATOM      3  C   UNL     1      -1.568   3.172   1.286  0.00  0.00    +0.000 A 
ATOM      4  C   UNL     1      -2.422   4.264   1.387  0.00  0.00    +0.000 A 
ATOM      5  C   UNL     1      -3.140   4.483   2.557  0.00  0.00    +0.000 A 
ATOM      6  C   UNL     1      -2.922   3.696   3.682  0.00  0.00    +0.000 A 
ATOM      7  C   UNL     1      -1.731   2.983   3.696  0.00  0.00    +0.000 A 
ATOM      8  C   UNL     1      -1.098   2.678   2.497  0.00  0.00    +0.000 A 
BRANCH   6   9
ATOM      9  O   UNL     1      -3.970   3.379   4.551  0.00  0.00    +0.000 OA
ATOM     10  H   UNL     1      -3.928   2.603   5.074  0.00  0.00    +0.000 HD
ENDBRANCH   6   9
BRANCH   7  11
ATOM     11  O   UNL     1      -1.349   2.431   4.905  0.00  0.00    +0.000 OA
ATOM     12  H   UNL     1      -1.353   2.955   5.681  0.00  0.00    +0.000 HD
ENDBRANCH   7  11
ENDBRANCH   2   3
BRANCH   1  14
ATOM     13  O   UNL     1      -1.508   1.104  -2.420  0.00  0.00    +0.000 OA
ATOM     14  C   UNL     1      -0.540   1.874  -2.140  0.00  0.00    +0.000 C 
BRANCH  14  15
ATOM     15  O   UNL     1       0.208   2.465  -3.149  0.00  0.00    +0.000 OA
BRANCH  15  16
ATOM     16  C   UNL     1       1.560   2.064  -3.335  0.00  0.00    +0.000 C 
BRANCH  16  17
ATOM     17  C   UNL     1       2.345   2.525  -2.124  0.00  0.00    +0.000 C 
BRANCH  17  18
ATOM     18  C   UNL     1       2.386   4.003  -2.170  0.00  0.00    +0.000 A 
ATOM     19  C   UNL     1       3.556   4.607  -2.592  0.00  0.00    +0.000 A 
ATOM     20  C   UNL     1       3.479   5.871  -3.146  0.00  0.00    +0.000 A 
ATOM     21  C   UNL     1       2.266   6.503  -3.310  0.00  0.00    +0.000 A 
ATOM     22  C   UNL     1       1.171   6.048  -2.589  0.00  0.00    +0.000 A 
ATOM     23  C   UNL     1       1.262   4.780  -2.032  0.00  0.00    +0.000 A 
ENDBRANCH  17  18
ENDBRANCH  16  17
ENDBRANCH  15  16
ENDBRANCH  14  15
ENDBRANCH   1  14
TORSDOF 8
ENDMDL
MODEL 7
REMARK VINA RESULT:    -6.200      1.594      2.900
REMARK INTER + INTRA:         -10.682
REMARK INTER:                  -8.587
REMARK INTRA:                  -2.095
REMARK CONF_INDEPENDENT:        2.386
REMARK UNBOUND:                 2.095
REMARK  Name = 
REMARK  8 active torsions:
REMARK  status: ('A' for Active; 'I' for Inactive)
REMARK    1  A    between atoms: C_2  and  C_3
REMARK    2  A    between atoms: C_2  and  O_13
REMARK    3  A    between atoms: C_4  and  C_5
REMARK    4  A    between atoms: C_8  and  O_9
REMARK    5  A    between atoms: C_10  and  O_11
REMARK    6  A    between atoms: O_13  and  C_14
REMARK    7  A    between atoms: C_14  and  C_15
REMARK    8  A    between atoms: C_15  and  C_16
REMARK                            x       y       z     vdW  Elec       q    Type
REMARK                         _______ _______ _______ _____ _____    ______ ____
ROOT
ATOM      1  C   UNL     1       1.373   3.123   1.071  0.00  0.00    +0.000 C 
ATOM      2  C   UNL     1       0.624   3.477   0.059  0.00  0.00    +0.000 C 
ENDROOT
BRANCH   2   3
ATOM      3  C   UNL     1       1.083   3.510  -1.332  0.00  0.00    +0.000 A 
ATOM      4  C   UNL     1       2.377   3.892  -1.666  0.00  0.00    +0.000 A 
ATOM      5  C   UNL     1       3.072   3.209  -2.657  0.00  0.00    +0.000 A 
ATOM      6  C   UNL     1       2.447   2.226  -3.416  0.00  0.00    +0.000 A 
ATOM      7  C   UNL     1       1.059   2.246  -3.399  0.00  0.00    +0.000 A 
ATOM      8  C   UNL     1       0.392   2.834  -2.331  0.00  0.00    +0.000 A 
BRANCH   6   9
ATOM      9  O   UNL     1       3.153   1.106  -3.864  0.00  0.00    +0.000 OA
ATOM     10  H   UNL     1       2.752   0.504  -4.459  0.00  0.00    +0.000 HD
ENDBRANCH   6   9
BRANCH   7  11
ATOM     11  O   UNL     1       0.414   1.484  -4.356  0.00  0.00    +0.000 OA
ATOM     12  H   UNL     1       0.901   0.882  -4.883  0.00  0.00    +0.000 HD
ENDBRANCH   7  11
ENDBRANCH   2   3
BRANCH   1  14
ATOM     13  O   UNL     1       1.376   3.350   3.410  0.00  0.00    +0.000 OA
ATOM     14  C   UNL     1       0.827   2.814   2.400  0.00  0.00    +0.000 C 
BRANCH  14  15
ATOM     15  O   UNL     1      -0.453   2.283   2.488  0.00  0.00    +0.000 OA
BRANCH  15  16
ATOM     16  C   UNL     1      -1.183   2.431   3.700  0.00  0.00    +0.000 C 
BRANCH  16  17
ATOM     17  C   UNL     1      -2.439   3.217   3.383  0.00  0.00    +0.000 C 
BRANCH  17  18
ATOM     18  C   UNL     1      -2.381   3.568   1.947  0.00  0.00    +0.000 A 
ATOM     19  C   UNL     1      -2.759   2.608   1.028  0.00  0.00    +0.000 A 
ATOM     20  C   UNL     1      -3.223   3.026  -0.206  0.00  0.00    +0.000 A 
ATOM     21  C   UNL     1      -3.343   4.366  -0.503  0.00  0.00    +0.000 A 
ATOM     22  C   UNL     1      -2.657   5.288   0.274  0.00  0.00    +0.000 A 
ATOM     23  C   UNL     1      -2.191   4.855   1.507  0.00  0.00    +0.000 A 
ENDBRANCH  17  18
ENDBRANCH  16  17
ENDBRANCH  15  16
ENDBRANCH  14  15
ENDBRANCH   1  14
TORSDOF 8
ENDMDL
MODEL 8
REMARK VINA RESULT:    -5.784      2.175      3.943
REMARK INTER + INTRA:         -10.367
REMARK INTER:                  -8.171
REMARK INTRA:                  -2.196
REMARK CONF_INDEPENDENT:        2.386
REMARK UNBOUND:                 2.196
REMARK  Name = 
REMARK  8 active torsions:
REMARK  status: ('A' for Active; 'I' for Inactive)
REMARK    1  A    between atoms: C_2  and  C_3
REMARK    2  A    between atoms: C_2  and  O_13
REMARK    3  A    between atoms: C_4  and  C_5
REMARK    4  A    between atoms: C_8  and  O_9
REMARK    5  A    between atoms: C_10  and  O_11
REMARK    6  A    between atoms: O_13  and  C_14
REMARK    7  A    between atoms: C_14  and  C_15
REMARK    8  A    between atoms: C_15  and  C_16
REMARK                            x       y       z     vdW  Elec       q    Type
REMARK                         _______ _______ _______ _____ _____    ______ ____
ROOT
ATOM      1  C   UNL     1      -2.519   3.150   2.251  0.00  0.00    +0.000 C 
ATOM      2  C   UNL     1      -1.706   2.131   2.363  0.00  0.00    +0.000 C 
ENDROOT
BRANCH   2   3
ATOM      3  C   UNL     1      -0.846   1.643   1.282  0.00  0.00    +0.000 A 
ATOM      4  C   UNL     1      -1.350   0.882   0.233  0.00  0.00    +0.000 A 
ATOM      5  C   UNL     1      -0.908   1.105  -1.065  0.00  0.00    +0.000 A 
ATOM      6  C   UNL     1       0.131   1.993  -1.320  0.00  0.00    +0.000 A 
ATOM      7  C   UNL     1       0.922   2.322  -0.229  0.00  0.00    +0.000 A 
ATOM      8  C   UNL     1       0.407   2.200   1.057  0.00  0.00    +0.000 A 
BRANCH   6   9
ATOM      9  O   UNL     1       0.152   2.757  -2.491  0.00  0.00    +0.000 OA
ATOM     10  H   UNL     1      -0.504   2.628  -3.147  0.00  0.00    +0.000 HD
ENDBRANCH   6   9
BRANCH   7  11
ATOM     11  O   UNL     1       2.120   2.958  -0.497  0.00  0.00    +0.000 OA
ATOM     12  H   UNL     1       2.585   2.768  -1.288  0.00  0.00    +0.000 HD
ENDBRANCH   7  11
ENDBRANCH   2   3
BRANCH   1  14
ATOM     13  O   UNL     1      -3.223   3.151   4.493  0.00  0.00    +0.000 OA
ATOM     14  C   UNL     1      -3.146   3.803   3.408  0.00  0.00    +0.000 C 
BRANCH  14  15
ATOM     15  O   UNL     1      -3.279   5.185   3.403  0.00  0.00    +0.000 OA
BRANCH  15  16
ATOM     16  C   UNL     1      -2.230   5.981   2.865  0.00  0.00    +0.000 C 
BRANCH  16  17
ATOM     17  C   UNL     1      -2.850   6.943   1.871  0.00  0.00    +0.000 C 
BRANCH  17  18
ATOM     18  C   UNL     1      -3.038   6.200   0.605  0.00  0.00    +0.000 A 
ATOM     19  C   UNL     1      -1.964   5.488   0.106  0.00  0.00    +0.000 A 
ATOM     20  C   UNL     1      -2.219   4.405  -0.715  0.00  0.00    +0.000 A 
ATOM     21  C   UNL     1      -3.510   4.018  -1.001  0.00  0.00    +0.000 A 
ATOM     22  C   UNL     1      -4.542   4.920  -0.784  0.00  0.00    +0.000 A 
ATOM     23  C   UNL     1      -4.273   6.006   0.037  0.00  0.00    +0.000 A 
ENDBRANCH  17  18
ENDBRANCH  16  17
ENDBRANCH  15  16
ENDBRANCH  14  15
ENDBRANCH   1  14
TORSDOF 8
ENDMDL
