REMARK  Name = 11495704
REMARK  8 active torsions:
REMARK  status: ('A' for Active; 'I' for Inactive)
REMARK    1  A    between atoms: N_5  and  C_17
REMARK    2  A    between atoms: N_7  and  C_28
REMARK    3  A    between atoms: N_7  and  C_29
REMARK    4  A    between atoms: C_10  and  C_13
REMARK    5  A    between atoms: C_13  and  C_17
REMARK    6  A    between atoms: C_13  and  C_19
REMARK    7  A    between atoms: C_14  and  C_18
REMARK    8  A    between atoms: C_17  and  C_20
REMARK                            x       y       z     vdW  Elec       q    Type
REMARK                         _______ _______ _______ _____ _____    ______ ____
ROOT
ATOM      1  C   UNL     1       1.619   0.767   0.950  0.00  0.00    +0.000 C 
ENDROOT
BRANCH   1   2
ATOM      2  C   UNL     1       0.196   0.244   1.136  0.00  0.00    +0.000 C 
ATOM      3  C   UNL     1      -0.799   1.407   1.238  0.00  0.00    +0.000 C 
ATOM      4  C   UNL     1      -0.187  -0.703  -0.009  0.00  0.00    +0.000 C 
ATOM      5  C   UNL     1      -2.618  -0.038   0.230  0.00  0.00    +0.000 C 
ATOM      6  C   UNL     1      -2.237   0.908   1.376  0.00  0.00    +0.000 C 
ATOM      7  C   UNL     1      -1.625  -1.201   0.127  0.00  0.00    +0.000 C 
BRANCH   5  11
ATOM      8  N   UNL     1      -4.973  -0.253  -0.586  0.00  0.00    +0.000 N 
ATOM      9  N   UNL     1      -4.826   0.468  -1.730  0.00  0.00    +0.000 NA
ATOM     10  N   UNL     1      -6.978  -0.275  -1.554  0.00  0.00    +0.000 NA
ATOM     11  C   UNL     1      -4.014  -0.553   0.401  0.00  0.00    +0.000 A 
ATOM     12  C   UNL     1      -4.394  -1.293   1.461  0.00  0.00    +0.000 A 
ATOM     13  C   UNL     1      -6.301  -0.694  -0.508  0.00  0.00    +0.000 A 
ATOM     14  C   UNL     1      -5.765  -1.761   1.563  0.00  0.00    +0.000 A 
ATOM     15  C   UNL     1      -6.678  -1.473   0.619  0.00  0.00    +0.000 A 
ATOM     16  C   UNL     1      -6.046   0.418  -2.259  0.00  0.00    +0.000 A 
ENDBRANCH   5  11
ENDBRANCH   1   2
BRANCH   1  19
ATOM     17  O   UNL     1       1.952   0.980  -1.421  0.00  0.00    +0.000 OA
ATOM     18  N   UNL     1       1.326   2.917  -0.320  0.00  0.00    +0.000 N 
ATOM     19  C   UNL     1       1.658   1.558  -0.370  0.00  0.00    +0.000 C 
ATOM     20  C   UNL     1       0.782   3.562  -1.510  0.00  0.00    +0.000 C 
ATOM     21  C   UNL     1       1.561   3.811   0.812  0.00  0.00    +0.000 C 
ENDBRANCH   1  19
BRANCH   1  22
ATOM     22  C   UNL     1       2.658  -0.379   0.931  0.00  0.00    +0.000 C 
BRANCH  22  26
ATOM     23  F   UNL     1       5.736  -1.923  -2.460  0.00  0.00    +0.000 F 
ATOM     24  O   UNL     1       4.317   1.320   1.111  0.00  0.00    +0.000 OA
ATOM     25  N   UNL     1       4.942  -0.663   0.104  0.00  0.00    +0.000 N 
ATOM     26  C   UNL     1       4.043   0.181   0.731  0.00  0.00    +0.000 C 
ATOM     27  C   UNL     1       4.679  -2.019  -0.373  0.00  0.00    +0.000 C 
ATOM     28  C   UNL     1       6.317  -0.269  -0.168  0.00  0.00    +0.000 C 
ATOM     29  C   UNL     1       5.912  -2.375  -1.188  0.00  0.00    +0.000 C 
ATOM     30  C   UNL     1       7.021  -1.568  -0.532  0.00  0.00    +0.000 C 
ENDBRANCH  22  26
BRANCH  22  31
ATOM     31  N   UNL     1       2.720  -1.102   2.199  0.00  0.00    +0.000 NA
ATOM     32  H   UNL     1       3.418  -1.842   2.150  0.00  0.00    +0.000 HD
ATOM     33  H   UNL     1       1.834  -1.572   2.375  0.00  0.00    +0.000 HD
ENDBRANCH  22  31
ENDBRANCH   1  22
TORSDOF 6
