REMARK  Name = 24788740
REMARK  9 active torsions:
REMARK  status: ('A' for Active; 'I' for Inactive)
REMARK    1  A    between atoms: O_2  and  C_12
REMARK    2  A    between atoms: N_8  and  C_22
REMARK    3  A    between atoms: N_8  and  C_25
REMARK    4  A    between atoms: C_9  and  C_19
REMARK    5  A    between atoms: C_20  and  C_21
REMARK    6  A    between atoms: C_21  and  C_22
REMARK    7  A    between atoms: C_21  and  C_24
REMARK    8  A    between atoms: C_25  and  C_28
REMARK    9  A    between atoms: C_25  and  C_29
REMARK                            x       y       z     vdW  Elec       q    Type
REMARK                         _______ _______ _______ _____ _____    ______ ____
ROOT
ATOM      1  O   UNL     1      -2.095  -0.605   2.110  0.00  0.00    +0.000 OA
ATOM      2  N   UNL     1       2.278  -0.351  -0.028  0.00  0.00    +0.000 N 
ATOM      3  N   UNL     1      -0.349   0.225   0.824  0.00  0.00    +0.000 N 
ATOM      4  N   UNL     1       6.106  -1.416  -1.282  0.00  0.00    +0.000 NA
ATOM      5  N   UNL     1       3.707  -1.780  -1.266  0.00  0.00    +0.000 NA
ATOM      6  C   UNL     1       4.705   1.232   0.854  0.00  0.00    +0.000 C 
ATOM      7  C   UNL     1       4.635   0.022  -0.018  0.00  0.00    +0.000 A 
ATOM      8  C   UNL     1       6.207   1.228   1.217  0.00  0.00    +0.000 C 
ATOM      9  C   UNL     1       6.948   0.554   0.048  0.00  0.00    +0.000 C 
ATOM     10  C   UNL     1       5.885  -0.379  -0.462  0.00  0.00    +0.000 A 
ATOM     11  C   UNL     1       3.562  -0.713  -0.450  0.00  0.00    +0.000 A 
ATOM     12  C   UNL     1       1.771  -0.957   1.214  0.00  0.00    +0.000 C 
ATOM     13  C   UNL     1       1.264   0.020  -1.024  0.00  0.00    +0.000 C 
ATOM     14  C   UNL     1       0.673  -0.085   1.820  0.00  0.00    +0.000 C 
ATOM     15  C   UNL     1       0.172   0.873  -0.380  0.00  0.00    +0.000 C 
ATOM     16  C   UNL     1       4.285   2.497   0.117  0.00  0.00    +0.000 C 
ATOM     17  C   UNL     1      -1.686  -0.076   1.073  0.00  0.00    +0.000 C 
ATOM     18  C   UNL     1       4.979  -2.069  -1.635  0.00  0.00    +0.000 A 
ENDROOT
BRANCH   9  19
ATOM     19  O   UNL     1       8.087  -0.149   0.499  0.00  0.00    +0.000 OA
ATOM     20  H   UNL     1       8.678   0.496   0.924  0.00  0.00    +0.000 HD
ENDBRANCH   9  19
BRANCH  17  21
ATOM     21  C   UNL     1      -2.670   0.278  -0.013  0.00  0.00    +0.000 C 
BRANCH  21  23
ATOM     22 CL   UNL     1      -7.208  -3.683  -0.060  0.00  0.00    +0.000 Cl
ATOM     23  C   UNL     1      -3.811  -0.717  -0.026  0.00  0.00    +0.000 A 
ATOM     24  C   UNL     1      -3.724  -1.867  -0.809  0.00  0.00    +0.000 A 
ATOM     25  C   UNL     1      -4.948  -0.483   0.748  0.00  0.00    +0.000 A 
ATOM     26  C   UNL     1      -4.774  -2.785  -0.819  0.00  0.00    +0.000 A 
ATOM     27  C   UNL     1      -5.998  -1.401   0.738  0.00  0.00    +0.000 A 
ATOM     28  C   UNL     1      -5.912  -2.552  -0.046  0.00  0.00    +0.000 A 
ENDBRANCH  21  23
BRANCH  21  29
ATOM     29  C   UNL     1      -3.108   1.736   0.180  0.00  0.00    +0.000 C 
BRANCH  29  30
ATOM     30  N   UNL     1      -4.038   2.152  -0.866  0.00  0.00    +0.000 NA
ATOM     31  H   UNL     1      -3.578   2.051  -1.770  0.00  0.00    +0.000 HD
BRANCH  30  32
ATOM     32  C   UNL     1      -4.455   3.532  -0.668  0.00  0.00    +0.000 C 
ATOM     33  C   UNL     1      -5.543   3.609   0.400  0.00  0.00    +0.000 C 
ATOM     34  C   UNL     1      -4.946   4.110  -1.992  0.00  0.00    +0.000 C 
ENDBRANCH  30  32
ENDBRANCH  29  30
ENDBRANCH  21  29
ENDBRANCH  17  21
TORSDOF 6
