REMARK  Name = 25118925
REMARK  4 active torsions:
REMARK  status: ('A' for Active; 'I' for Inactive)
REMARK    1  A    between atoms: N_6  and  C_22
REMARK    2  A    between atoms: C_12  and  C_17
REMARK    3  A    between atoms: C_20  and  C_23
REMARK    4  A    between atoms: C_29  and  C_32
REMARK                            x       y       z     vdW  Elec       q    Type
REMARK                         _______ _______ _______ _____ _____    ______ ____
ROOT
ATOM      1  N   UNL     1      -1.145   3.180   0.452  0.00  0.00    +0.000 N 
ATOM      2  N   UNL     1      -1.341   0.993   0.116  0.00  0.00    +0.000 NA
ATOM      3  C   UNL     1      -0.503   1.976   0.363  0.00  0.00    +0.000 A 
ATOM      4  C   UNL     1      -2.477   2.950   0.249  0.00  0.00    +0.000 A 
ATOM      5  C   UNL     1      -2.573   1.594   0.044  0.00  0.00    +0.000 A 
ATOM      6  C   UNL     1      -0.543   4.466   0.711  0.00  0.00    +0.000 C 
ENDROOT
BRANCH   3  12
ATOM      7  N   UNL     1       3.604   0.668   0.086  0.00  0.00    +0.000 N 
ATOM      8  N   UNL     1       5.927   1.007  -0.341  0.00  0.00    +0.000 NA
ATOM      9  N   UNL     1       6.418  -2.984  -0.213  0.00  0.00    +0.000 N 
ATOM     10  N   UNL     1       7.507  -0.843  -0.520  0.00  0.00    +0.000 NA
ATOM     11  N   UNL     1       5.195  -3.491   0.029  0.00  0.00    +0.000 NA
ATOM     12  C   UNL     1       0.998   1.845   0.536  0.00  0.00    +0.000 C 
ATOM     13  C   UNL     1       1.752   2.039  -0.788  0.00  0.00    +0.000 C 
ATOM     14  C   UNL     1       1.393   0.498   1.159  0.00  0.00    +0.000 C 
ATOM     15  C   UNL     1       3.263   1.930  -0.586  0.00  0.00    +0.000 C 
ATOM     16  C   UNL     1       2.907   0.392   1.347  0.00  0.00    +0.000 C 
ATOM     17  C   UNL     1       4.893   0.161  -0.114  0.00  0.00    +0.000 A 
ATOM     18  C   UNL     1       5.135  -1.209  -0.082  0.00  0.00    +0.000 A 
ATOM     19  C   UNL     1       6.439  -1.623  -0.290  0.00  0.00    +0.000 A 
ATOM     20  C   UNL     1       4.418  -2.405   0.108  0.00  0.00    +0.000 A 
ATOM     21  C   UNL     1       7.152   0.460  -0.527  0.00  0.00    +0.000 A 
ATOM     22  H   UNL     1       7.194  -3.626  -0.315  0.00  0.00    +0.000 HD
ENDBRANCH   3  12
BRANCH   5  24
ATOM     23  F   UNL     1      -7.314  -1.132  -0.958  0.00  0.00    +0.000 F 
ATOM     24  C   UNL     1      -3.791   0.890  -0.213  0.00  0.00    +0.000 A 
ATOM     25  C   UNL     1      -3.931  -0.436   0.196  0.00  0.00    +0.000 A 
ATOM     26  C   UNL     1      -4.841   1.531  -0.871  0.00  0.00    +0.000 A 
ATOM     27  C   UNL     1      -5.119  -1.122  -0.054  0.00  0.00    +0.000 A 
ATOM     28  C   UNL     1      -6.029   0.846  -1.122  0.00  0.00    +0.000 A 
ATOM     29  C   UNL     1      -6.168  -0.481  -0.713  0.00  0.00    +0.000 A 
BRANCH  27  33
ATOM     30  F   UNL     1      -4.160  -3.035   1.014  0.00  0.00    +0.000 F 
ATOM     31  F   UNL     1      -6.294  -2.738   1.260  0.00  0.00    +0.000 F 
ATOM     32  F   UNL     1      -5.503  -3.389  -0.659  0.00  0.00    +0.000 F 
ATOM     33  C   UNL     1      -5.266  -2.540   0.383  0.00  0.00    +0.000 C 
ENDBRANCH  27  33
ENDBRANCH   5  24
TORSDOF 3
