REMARK  Name = 56962369
REMARK  9 active torsions:
REMARK  status: ('A' for Active; 'I' for Inactive)
REMARK    1  A    between atoms: O_2  and  C_28
REMARK    2  A    between atoms: O_2  and  C_31
REMARK    3  A    between atoms: N_5  and  C_16
REMARK    4  A    between atoms: N_6  and  C_22
REMARK    5  A    between atoms: N_10  and  C_32
REMARK    6  A    between atoms: N_10  and  C_33
REMARK    7  A    between atoms: C_11  and  C_16
REMARK    8  A    between atoms: C_11  and  C_17
REMARK    9  A    between atoms: C_21  and  C_25
REMARK                            x       y       z     vdW  Elec       q    Type
REMARK                         _______ _______ _______ _____ _____    ______ ____
ROOT
ATOM      1  N   UNL     1       2.990   0.255   0.160  0.00  0.00    +0.000 N 
ATOM      2  N   UNL     1       4.043  -0.870   1.971  0.00  0.00    +0.000 NA
ATOM      3  N   UNL     1       6.999  -2.027  -0.528  0.00  0.00    +0.000 N 
ATOM      4  N   UNL     1       6.135  -2.091   1.722  0.00  0.00    +0.000 NA
ATOM      5  C   UNL     1       0.770   1.900  -0.784  0.00  0.00    +0.000 C 
ATOM      6  C   UNL     1       1.075   0.512  -1.368  0.00  0.00    +0.000 C 
ATOM      7  C   UNL     1       2.065   2.508  -0.223  0.00  0.00    +0.000 C 
ATOM      8  C   UNL     1       1.802  -0.407  -0.386  0.00  0.00    +0.000 C 
ATOM      9  C   UNL     1       2.786   1.582   0.756  0.00  0.00    +0.000 C 
ATOM     10  C   UNL     1       4.040  -0.523   0.663  0.00  0.00    +0.000 A 
ATOM     11  C   UNL     1       5.082  -0.945  -0.162  0.00  0.00    +0.000 A 
ATOM     12  C   UNL     1       6.075  -1.713   0.433  0.00  0.00    +0.000 A 
ATOM     13  C   UNL     1       5.434  -0.799  -1.528  0.00  0.00    +0.000 A 
ATOM     14  C   UNL     1       6.619  -1.476  -1.725  0.00  0.00    +0.000 A 
ATOM     15  C   UNL     1       5.076  -1.623   2.413  0.00  0.00    +0.000 A 
ATOM     16  C   UNL     1       4.685  -0.062  -2.566  0.00  0.00    +0.000 C 
ATOM     17  H   UNL     1       7.832  -2.579  -0.378  0.00  0.00    +0.000 HD
ENDROOT
BRANCH   5  20
ATOM     18  O   UNL     1      -0.140   2.249   1.415  0.00  0.00    +0.000 OA
ATOM     19  N   UNL     1      -1.499   1.286  -0.246  0.00  0.00    +0.000 N 
ATOM     20  C   UNL     1      -0.338   1.841   0.275  0.00  0.00    +0.000 C 
ATOM     21  H   UNL     1      -1.509   0.989  -1.218  0.00  0.00    +0.000 HD
BRANCH  19  22
ATOM     22  C   UNL     1      -2.726   1.068   0.424  0.00  0.00    +0.000 A 
ATOM     23  C   UNL     1      -3.801   0.494  -0.255  0.00  0.00    +0.000 A 
ATOM     24  C   UNL     1      -2.861   1.428   1.765  0.00  0.00    +0.000 A 
ATOM     25  C   UNL     1      -5.010   0.281   0.406  0.00  0.00    +0.000 A 
ATOM     26  C   UNL     1      -4.071   1.215   2.426  0.00  0.00    +0.000 A 
ATOM     27  C   UNL     1      -5.145   0.640   1.747  0.00  0.00    +0.000 A 
BRANCH  25  28
ATOM     28  O   UNL     1      -6.059  -0.278  -0.259  0.00  0.00    +0.000 OA
BRANCH  28  31
ATOM     29  O   UNL     1      -5.301  -2.362   0.404  0.00  0.00    +0.000 OA
ATOM     30  N   UNL     1      -7.223  -2.225  -0.899  0.00  0.00    +0.000 N 
ATOM     31  C   UNL     1      -6.133  -1.689  -0.205  0.00  0.00    +0.000 C 
ATOM     32  C   UNL     1      -7.432  -3.665  -0.934  0.00  0.00    +0.000 C 
ATOM     33  C   UNL     1      -8.204  -1.418  -1.617  0.00  0.00    +0.000 C 
ENDBRANCH  28  31
ENDBRANCH  25  28
ENDBRANCH  19  22
ENDBRANCH   5  20
BRANCH   5  34
ATOM     34  C   UNL     1       0.267   2.787  -1.895  0.00  0.00    +0.000 C 
BRANCH  34  35
ATOM     35  N   UNL     1       0.001   4.126  -1.401  0.00  0.00    +0.000 NA
ATOM     36  H   UNL     1      -0.790   4.116  -0.758  0.00  0.00    +0.000 HD
ATOM     37  H   UNL     1      -0.280   4.724  -2.177  0.00  0.00    +0.000 HD
ENDBRANCH  34  35
ENDBRANCH   5  34
TORSDOF 6
