REMARK  Name = 
REMARK  6 active torsions:
REMARK  status: ('A' for Active; 'I' for Inactive)
REMARK    1  A    between atoms: C_1  and  C_2
REMARK    2  A    between atoms: C_2  and  C_3
REMARK    3  A    between atoms: C_3  and  N_4
REMARK    4  A    between atoms: C_7  and  N_12
REMARK    5  A    between atoms: N_12  and  C_13
REMARK    6  A    between atoms: C_27  and  C_29
REMARK                            x       y       z     vdW  Elec       q    Type
REMARK                         _______ _______ _______ _____ _____    ______ ____
ROOT
ATOM      1  C   UNL     1       0.802   0.547   0.000  0.00  0.00    +0.000 A 
ATOM      2  C   UNL     1       0.390  -0.168   0.000  0.00  0.00    +0.000 A 
ATOM      3  C   UNL     1      -0.435  -0.168   0.000  0.00  0.00    +0.000 A 
ATOM      4  C   UNL     1      -0.852  -0.882   0.000  0.00  0.00    +0.000 A 
ATOM      5  C   UNL     1      -0.435  -1.596   0.000  0.00  0.00    +0.000 A 
ATOM      6  N   UNL     1       0.390  -1.596   0.000  0.00  0.00    +0.000 NA
ATOM      7  C   UNL     1       0.802  -0.882   0.000  0.00  0.00    +0.000 A 
ATOM      8  C   UNL     1       1.627  -0.882   0.000  0.00  0.00    +0.000 A 
ATOM      9  C   UNL     1       2.039  -0.168   0.000  0.00  0.00    +0.000 A 
ATOM     10  N   UNL     1       1.627   0.547   0.000  0.00  0.00    +0.000 NA
ATOM     11  N   UNL     1       2.864  -0.168   0.000  0.00  0.00    +0.000 N 
ATOM     12  C   UNL     1       3.281  -0.882   0.000  0.00  0.00    +0.000 A 
ATOM     13  N   UNL     1       2.941  -1.636   0.000  0.00  0.00    +0.000 NA
ATOM     14  N   UNL     1       3.555  -2.191   0.000  0.00  0.00    +0.000 N 
ATOM     15  C   UNL     1       4.270  -1.779   0.000  0.00  0.00    +0.000 A 
ATOM     16  C   UNL     1       4.100  -0.970   0.000  0.00  0.00    +0.000 A 
ATOM     17  C   UNL     1       5.024  -2.114   0.000  0.00  0.00    +0.000 C 
ATOM     18  H   UNL     1       3.354   0.686   0.000  0.00  0.00    +0.000 HD
ATOM     19  H   UNL     1       3.451  -3.170   0.000  0.00  0.00    +0.000 HD
ENDROOT
BRANCH   1  20
ATOM     20  N   UNL     1       0.390   1.261   0.000  0.00  0.00    +0.000 N 
ATOM     21  H   UNL     1       0.882   2.114   0.000  0.00  0.00    +0.000 HD
BRANCH  20  25
ATOM     22  N   UNL     1      -1.856   1.227   0.000  0.00  0.00    +0.000 NA
ATOM     23  C   UNL     1      -1.601   2.191   0.000  0.00  0.00    +0.000 C 
ATOM     24  C   UNL     1      -0.795   2.008   0.000  0.00  0.00    +0.000 C 
ATOM     25  C   UNL     1      -0.435   1.261   0.000  0.00  0.00    +0.000 C 
ATOM     26  C   UNL     1      -0.795   0.519   0.000  0.00  0.00    +0.000 C 
ATOM     27  C   UNL     1      -1.601   0.336   0.000  0.00  0.00    +0.000 C 
ATOM     28  C   UNL     1      -2.247   0.849   0.000  0.00  0.00    +0.000 C 
ATOM     29  C   UNL     1      -2.247   1.674   0.000  0.00  0.00    +0.000 C 
BRANCH  22  30
ATOM     30  C   UNL     1      -2.962   1.262   0.000  0.00  0.00    +0.000 C 
BRANCH  30  31
ATOM     31  C   UNL     1      -3.374   0.548   0.000  0.00  0.00    +0.000 C 
BRANCH  31  32
ATOM     32  C   UNL     1      -4.199   0.548   0.000  0.00  0.00    +0.000 C 
ATOM     33  N   UNL     1      -5.024   0.548   0.000  0.00  0.00    +0.000 NA
ENDBRANCH  31  32
ENDBRANCH  30  31
ENDBRANCH  22  30
ENDBRANCH  20  25
ENDBRANCH   1  20
TORSDOF 5
