REMARK  Name = 449095
REMARK  4 active torsions:
REMARK  status: ('A' for Active; 'I' for Inactive)
REMARK    1  A    between atoms: NE_5  and  CD_17
REMARK    2  A    between atoms: CA_12  and  CB_15
REMARK    3  A    between atoms: CB_15  and  CG_16
REMARK    4  A    between atoms: CG_16  and  CD_17
REMARK                            x       y       z     vdW  Elec       q    Type
REMARK                         _______ _______ _______ _____ _____    ______ ____
ROOT
ATOM      1  O   ARG A   2      -0.986  -2.387  -0.108  0.00  0.00    +0.000 OA
ATOM      2  O   PRO A   1      -2.330   2.700   0.532  0.00  0.00    +0.000 OA
ATOM      3  N   PRO A   1      -2.623  -0.756   0.053  0.00  0.00    +0.000 N 
ATOM      4  N   ARG A   2      -0.748   1.102   0.005  0.00  0.00    +0.000 N 
ATOM      5  CA  PRO A   1      -3.079   0.571  -0.335  0.00  0.00    +0.000 C 
ATOM      6  CB  PRO A   1      -4.449   0.693   0.320  0.00  0.00    +0.000 C 
ATOM      7  CD  PRO A   1      -3.698  -1.561   0.604  0.00  0.00    +0.000 C 
ATOM      8  CG  PRO A   1      -4.954  -0.749   0.321  0.00  0.00    +0.000 C 
ATOM      9  CA  ARG A   2      -0.440  -0.110  -0.749  0.00  0.00    +0.000 C 
ATOM     10  C   ARG A   2      -1.341  -1.215  -0.205  0.00  0.00    +0.000 C 
ATOM     11  C   PRO A   1      -2.048   1.565   0.157  0.00  0.00    +0.000 C 
ATOM     12  H   ARG A   2      -0.001   1.732   0.278  0.00  0.00    +0.000 HD
ENDROOT
BRANCH   9  13
ATOM     13  CB  ARG A   2       1.033  -0.469  -0.634  0.00  0.00    +0.000 C 
BRANCH  13  14
ATOM     14  CG  ARG A   2       1.924   0.627  -1.224  0.00  0.00    +0.000 C 
BRANCH  14  15
ATOM     15  CD  ARG A   2       3.408   0.298  -1.108  0.00  0.00    +0.000 C 
BRANCH  15  16
ATOM     16  NE  ARG A   2       3.780   0.170   0.302  0.00  0.00    +0.000 NA
ATOM     17  NH1 ARG A   2       5.460  -0.200   1.856  0.00  0.00    +0.000 N 
ATOM     18  NH2 ARG A   2       6.062  -0.214  -0.343  0.00  0.00    +0.000 N 
ATOM     19  CZ  ARG A   2       5.029  -0.066   0.556  0.00  0.00    +0.000 C 
ATOM     20 HH11 ARG A   2       4.813  -0.116   2.633  0.00  0.00    +0.000 HD
ATOM     21 HH12 ARG A   2       6.432  -0.384   2.076  0.00  0.00    +0.000 HD
ATOM     22 HH21 ARG A   2       7.008  -0.398  -0.026  0.00  0.00    +0.000 HD
ATOM     23 HH22 ARG A   2       5.921  -0.148  -1.344  0.00  0.00    +0.000 HD
ENDBRANCH  15  16
ENDBRANCH  14  15
ENDBRANCH  13  14
ENDBRANCH   9  13
TORSDOF 4
