REMARK  Name = 11073394
REMARK  6 active torsions:
REMARK  status: ('A' for Active; 'I' for Inactive)
REMARK    1  A    between atoms: O_1  and  C_8
REMARK    2  A    between atoms: N_3  and  C_5
REMARK    3  A    between atoms: N_4  and  CA_6
REMARK    4  A    between atoms: C_5  and  CA_6
REMARK    5  A    between atoms: C_5  and  C_7
REMARK    6  A    between atoms: CA_6  and  C_8
REMARK                            x       y       z     vdW  Elec       q    Type
REMARK                         _______ _______ _______ _____ _____    ______ ____
ROOT
ATOM      1  CA  UNL     1       0.034   0.344   0.751  0.00  0.00    +0.000 C 
ENDROOT
BRANCH   1   2
ATOM      2  N   UNL     1       0.229   1.794   0.858  0.00  0.00    +0.000 NA
ATOM      3  H1  UNL     1       1.116   1.987   1.322  0.00  0.00    +0.000 HD
ATOM      4  H2  UNL     1      -0.496   2.192   1.455  0.00  0.00    +0.000 HD
ENDBRANCH   1   2
BRANCH   1   6
ATOM      5  OXT UNL     1       1.634   0.390  -1.095  0.00  0.00    +0.000 OA
ATOM      6  C   UNL     1       1.157  -0.190  -0.128  0.00  0.00    +0.000 C 
BRANCH   6   7
ATOM      7  O   UNL     1       1.600  -1.405   0.289  0.00  0.00    +0.000 OA
ATOM      8  H   UNL     1       2.327  -1.742  -0.277  0.00  0.00    +0.000 HD
ENDBRANCH   6   7
ENDBRANCH   1   6
BRANCH   1   9
ATOM      9  C   UNL     1      -1.379  -0.006   0.235  0.00  0.00    +0.000 C 
ATOM     10  C   UNL     1      -1.698   0.531  -1.164  0.00  0.00    +0.000 C 
BRANCH   9  11
ATOM     11  N   UNL     1      -1.576  -1.460   0.253  0.00  0.00    +0.000 NA
ATOM     12  H   UNL     1      -0.945  -1.903  -0.414  0.00  0.00    +0.000 HD
ATOM     13  H   UNL     1      -2.519  -1.681  -0.064  0.00  0.00    +0.000 HD
ENDBRANCH   9  11
ENDBRANCH   1   9
TORSDOF 5
