REMARK  Name = 22128
REMARK  7 active torsions:
REMARK  status: ('A' for Active; 'I' for Inactive)
REMARK    1  A    between atoms: O_1  and  N_5
REMARK    2  A    between atoms: O_2  and  C_10
REMARK    3  A    between atoms: N_5  and  N_7
REMARK    4  A    between atoms: N_5  and  C_9
REMARK    5  A    between atoms: N_6  and  CA_8
REMARK    6  A    between atoms: CA_8  and  C_9
REMARK    7  A    between atoms: CA_8  and  C_10
REMARK                            x       y       z     vdW  Elec       q    Type
REMARK                         _______ _______ _______ _____ _____    ______ ____
ROOT
ATOM      1  CA  UNL     1       1.089   0.661   0.404  0.00  0.00    +0.000 C 
ENDROOT
BRANCH   1   2
ATOM      2  N   UNL     1       2.115   1.672   0.148  0.00  0.00    +0.000 NA
ATOM      3  H1  UNL     1       2.949   1.461   0.695  0.00  0.00    +0.000 HD
ATOM      4  H2  UNL     1       1.787   2.581   0.471  0.00  0.00    +0.000 HD
ENDBRANCH   1   2
BRANCH   1   6
ATOM      5  OXT UNL     1       2.424  -0.787  -1.037  0.00  0.00    +0.000 OA
ATOM      6  C   UNL     1       1.658  -0.659  -0.091  0.00  0.00    +0.000 C 
BRANCH   6   7
ATOM      7  O   UNL     1       1.212  -1.713   0.643  0.00  0.00    +0.000 OA
ATOM      8  H   UNL     1       1.579  -2.564   0.320  0.00  0.00    +0.000 HD
ENDBRANCH   6   7
ENDBRANCH   1   6
BRANCH   1   9
ATOM      9  C   UNL     1      -0.218   1.049  -0.299  0.00  0.00    +0.000 C 
BRANCH   9  10
ATOM     10  N   UNL     1      -1.252   0.039  -0.083  0.00  0.00    +0.000 N 
BRANCH  10  11
ATOM     11  O   UNL     1      -1.394  -0.005   1.365  0.00  0.00    +0.000 OA
ATOM     12  H   UNL     1      -1.187  -0.942   1.521  0.00  0.00    +0.000 HD
ENDBRANCH  10  11
BRANCH  10  14
ATOM     13  O   UNL     1      -3.229  -0.576  -0.413  0.00  0.00    +0.000 OA
ATOM     14  N   UNL     1      -2.406   0.319  -0.637  0.00  0.00    +0.000 NA
ENDBRANCH  10  14
ENDBRANCH   9  10
ENDBRANCH   1   9
TORSDOF 7
