REMARK  Name = 6323244
REMARK  13 active torsions:
REMARK  status: ('A' for Active; 'I' for Inactive)
REMARK    1  A    between atoms: O_1  and  C_13
REMARK    2  A    between atoms: O_2  and  C_18
REMARK    3  A    between atoms: N_4  and  C_9
REMARK    4  A    between atoms: C_5  and  C_6
REMARK    5  A    between atoms: C_6  and  C_9
REMARK    6  A    between atoms: C_9  and  C_13
REMARK    7  A    between atoms: C_13  and  C_14
REMARK    8  A    between atoms: C_14  and  C_15
REMARK    9  A    between atoms: C_15  and  C_16
REMARK   10  A    between atoms: C_15  and  C_18
REMARK   11  A    between atoms: C_16  and  C_17
REMARK   12  A    between atoms: C_17  and  C_19
REMARK   13  A    between atoms: C_17  and  C_20
REMARK                            x       y       z     vdW  Elec       q    Type
REMARK                         _______ _______ _______ _____ _____    ______ ____
ROOT
ATOM      1  C   UNL     1       0.299   0.870   0.363  0.00  0.00    +0.000 C 
ENDROOT
BRANCH   1   2
ATOM      2  O   UNL     1       0.354   0.593   1.764  0.00  0.00    +0.000 OA
ATOM      3  H   UNL     1      -0.124   1.303   2.224  0.00  0.00    +0.000 HD
ENDBRANCH   1   2
BRANCH   1   4
ATOM      4  C   UNL     1      -1.184   0.955  -0.073  0.00  0.00    +0.000 C 
BRANCH   4   5
ATOM      5  N   UNL     1      -1.262   1.441  -1.453  0.00  0.00    +0.000 NA
ATOM      6  H   UNL     1      -2.223   1.686  -1.685  0.00  0.00    +0.000 HD
ATOM      7  H   UNL     1      -0.726   2.303  -1.544  0.00  0.00    +0.000 HD
ENDBRANCH   4   5
BRANCH   4   8
ATOM      8  C   UNL     1      -1.942  -0.378   0.085  0.00  0.00    +0.000 C 
BRANCH   8   9
ATOM      9  C   UNL     1      -3.415  -0.290  -0.311  0.00  0.00    +0.000 C 
ATOM     10  C   UNL     1      -4.115  -1.638  -0.095  0.00  0.00    +0.000 C 
ATOM     11  C   UNL     1      -4.121   0.825   0.472  0.00  0.00    +0.000 C 
ATOM     12  C   UNL     1      -5.602  -1.562  -0.434  0.00  0.00    +0.000 C 
ATOM     13  C   UNL     1      -5.608   0.897   0.132  0.00  0.00    +0.000 C 
ATOM     14  C   UNL     1      -6.299  -0.447   0.340  0.00  0.00    +0.000 C 
ENDBRANCH   8   9
ENDBRANCH   4   8
ENDBRANCH   1   4
BRANCH   1  15
ATOM     15  C   UNL     1       1.127  -0.198  -0.378  0.00  0.00    +0.000 C 
BRANCH  15  16
ATOM     16  C   UNL     1       2.591  -0.302   0.110  0.00  0.00    +0.000 C 
BRANCH  16  18
ATOM     17  O   UNL     1       3.386   1.682  -1.069  0.00  0.00    +0.000 OA
ATOM     18  C   UNL     1       3.245   1.062  -0.025  0.00  0.00    +0.000 C 
BRANCH  18  19
ATOM     19  O   UNL     1       3.685   1.507   1.179  0.00  0.00    +0.000 OA
ATOM     20  H   UNL     1       4.116   2.385   1.109  0.00  0.00    +0.000 HD
ENDBRANCH  18  19
ENDBRANCH  16  18
BRANCH  16  21
ATOM     21  C   UNL     1       3.355  -1.355  -0.722  0.00  0.00    +0.000 C 
BRANCH  21  22
ATOM     22  C   UNL     1       4.861  -1.473  -0.396  0.00  0.00    +0.000 C 
ATOM     23  C   UNL     1       5.614  -0.148  -0.505  0.00  0.00    +0.000 C 
ATOM     24  C   UNL     1       5.034  -2.040   1.018  0.00  0.00    +0.000 C 
ENDBRANCH  21  22
ENDBRANCH  16  21
ENDBRANCH  15  16
ENDBRANCH   1  15
TORSDOF 11
