REMARK  Name = 3314
REMARK  5 active torsions:
REMARK  status: ('A' for Active; 'I' for Inactive)
REMARK    1  A    between atoms: O_1  and  C_6
REMARK    2  A    between atoms: O_1  and  C_11
REMARK    3  A    between atoms: O_2  and  C_8
REMARK    4  A    between atoms: C_3  and  C_4
REMARK    5  A    between atoms: C_4  and  C_10
REMARK                            x       y       z     vdW  Elec       q    Type
REMARK                         _______ _______ _______ _____ _____    ______ ____
ROOT
ATOM      1  C   UNL     1      -0.992  -0.516   0.402  0.00  0.00    +0.000 A 
ATOM      2  C   UNL     1      -0.128   0.561   0.604  0.00  0.00    +0.000 A 
ATOM      3  C   UNL     1       1.233   0.424   0.332  0.00  0.00    +0.000 A 
ATOM      4  C   UNL     1      -0.494  -1.730  -0.071  0.00  0.00    +0.000 A 
ATOM      5  C   UNL     1       1.730  -0.790  -0.142  0.00  0.00    +0.000 A 
ATOM      6  C   UNL     1       0.867  -1.867  -0.344  0.00  0.00    +0.000 A 
ENDROOT
BRANCH   3   7
ATOM      7  O   UNL     1       2.067   1.482   0.533  0.00  0.00    +0.000 OA
ATOM      8  C   UNL     1       2.264   2.370  -0.565  0.00  0.00    +0.000 C 
ENDBRANCH   3   7
BRANCH   5   9
ATOM      9  O   UNL     1       3.058  -0.937  -0.410  0.00  0.00    +0.000 OA
ATOM     10  H   UNL     1       3.219  -1.842  -0.729  0.00  0.00    +0.000 HD
ENDBRANCH   5   9
BRANCH   1  11
ATOM     11  C   UNL     1      -2.447  -0.368   0.693  0.00  0.00    +0.000 C 
BRANCH  11  12
ATOM     12  C   UNL     1      -3.241   0.109  -0.496  0.00  0.00    +0.000 C 
ATOM     13  C   UNL     1      -3.916   1.263  -0.535  0.00  0.00    +0.000 C 
ENDBRANCH  11  12
ENDBRANCH   1  11
TORSDOF 4
