REMARK  Name = 
REMARK  6 active torsions:
REMARK  status: ('A' for Active; 'I' for Inactive)
REMARK    1  A    between atoms: SE_1  and  C_6
REMARK    2  A    between atoms: SE_1  and  C_7
REMARK    3  A    between atoms: O_2  and  C_8
REMARK    4  A    between atoms: N_4  and  CA_5
REMARK    5  A    between atoms: CA_5  and  C_6
REMARK    6  A    between atoms: CA_5  and  C_8
REMARK                            x       y       z     vdW  Elec       q    Type
REMARK                         _______ _______ _______ _____ _____    ______ ____
ROOT
ATOM      1  CA  UNL     1      28.123 -12.482   0.000  0.00  0.00    +0.000 C 
ENDROOT
BRANCH   1   2
ATOM      2  N   UNL     1      27.408 -12.069   0.000  0.00  0.00    +0.000 NA
ATOM      3  H1  UNL     1      27.408 -11.049   0.000  0.00  0.00    +0.000 HD
ATOM      4  H2  UNL     1      26.525 -12.579   0.000  0.00  0.00    +0.000 HD
ENDBRANCH   1   2
BRANCH   1   6
ATOM      5  OXT UNL     1      28.837 -11.244   0.000  0.00  0.00    +0.000 OA
ATOM      6  C   UNL     1      28.837 -12.069   0.000  0.00  0.00    +0.000 C 
BRANCH   6   7
ATOM      7  O   UNL     1      29.552 -12.482   0.000  0.00  0.00    +0.000 OA
ATOM      8  H   UNL     1      29.552 -13.419   0.000  0.00  0.00    +0.000 HD
ENDBRANCH   6   7
ENDBRANCH   1   6
BRANCH   1   9
ATOM      9  C   UNL     1      28.123 -13.307   0.000  0.00  0.00    +0.000 C 
BRANCH   9  10
ATOM     10 SE   UNL     1      27.408 -13.719   0.000  0.00  0.00    +0.000 Se
ATOM     11  C   UNL     1      27.408 -14.544   0.000  0.00  0.00    +0.000 C 
ENDBRANCH   9  10
ENDBRANCH   1   9
TORSDOF 5
