REMARK  Name = 51040
REMARK  10 active torsions:
REMARK  status: ('A' for Active; 'I' for Inactive)
REMARK    1  A    between atoms: O_3  and  C_22
REMARK    2  A    between atoms: O_3  and  C_23
REMARK    3  A    between atoms: C_4  and  C_5
REMARK    4  A    between atoms: C_4  and  C_6
REMARK    5  A    between atoms: C_4  and  C_7
REMARK    6  A    between atoms: C_4  and  C_8
REMARK    7  A    between atoms: C_11  and  C_14
REMARK    8  A    between atoms: C_14  and  C_15
REMARK    9  A    between atoms: C_15  and  C_16
REMARK   10  A    between atoms: C_16  and  C_17
REMARK                            x       y       z     vdW  Elec       q    Type
REMARK                         _______ _______ _______ _____ _____    ______ ____
ROOT
ATOM      1  O   UNL     1      -0.415   2.549   0.423  0.00  0.00    +0.000 OA
ATOM      2  C   UNL     1      -0.588   1.382   0.019  0.00  0.00    +0.000 C 
ENDROOT
BRANCH   2   6
ATOM      3  C   UNL     1      -4.415  -0.343   0.078  0.00  0.00    +0.000 A 
ATOM      4  C   UNL     1      -3.364  -1.105  -0.368  0.00  0.00    +0.000 A 
ATOM      5  C   UNL     1      -4.278   0.954   0.505  0.00  0.00    +0.000 A 
ATOM      6  C   UNL     1      -1.914   0.784   0.039  0.00  0.00    +0.000 A 
ATOM      7  C   UNL     1      -2.092  -0.532  -0.387  0.00  0.00    +0.000 A 
ATOM      8  C   UNL     1      -3.007   1.527   0.485  0.00  0.00    +0.000 A 
BRANCH   3   9
ATOM      9  C   UNL     1      -5.817  -0.975   0.098  0.00  0.00    +0.000 C 
ATOM     10  C   UNL     1      -6.922  -0.027   0.616  0.00  0.00    +0.000 C 
ATOM     11  C   UNL     1      -5.814  -2.216   1.016  0.00  0.00    +0.000 C 
ATOM     12  C   UNL     1      -6.215  -1.401  -1.331  0.00  0.00    +0.000 C 
ENDBRANCH   3   9
ENDBRANCH   2   6
BRANCH   2  13
ATOM     13  C   UNL     1       0.613   0.558  -0.472  0.00  0.00    +0.000 C 
BRANCH  13  15
ATOM     14  O   UNL     1       2.077   2.461  -0.702  0.00  0.00    +0.000 OA
ATOM     15  C   UNL     1       1.962   1.256  -0.497  0.00  0.00    +0.000 C 
BRANCH  15  16
ATOM     16  C   UNL     1       3.192   0.437  -0.295  0.00  0.00    +0.000 A 
ATOM     17  C   UNL     1       3.186  -0.877  -0.706  0.00  0.00    +0.000 A 
ATOM     18  C   UNL     1       4.288   1.026   0.294  0.00  0.00    +0.000 A 
ATOM     19  C   UNL     1       4.336  -1.643  -0.516  0.00  0.00    +0.000 A 
ATOM     20  C   UNL     1       5.439   0.260   0.483  0.00  0.00    +0.000 A 
ATOM     21  C   UNL     1       5.463  -1.075   0.078  0.00  0.00    +0.000 A 
BRANCH  21  22
ATOM     22  O   UNL     1       6.584  -1.823   0.263  0.00  0.00    +0.000 OA
ATOM     23  C   UNL     1       7.700  -1.179   0.877  0.00  0.00    +0.000 C 
ENDBRANCH  21  22
ENDBRANCH  15  16
ENDBRANCH  13  15
ENDBRANCH   2  13
TORSDOF 6
