REMARK  Name = 
REMARK  10 active torsions:
REMARK  status: ('A' for Active; 'I' for Inactive)
REMARK    1  A    between atoms: CG_2  and  CB_3
REMARK    2  A    between atoms: CG_2  and  OD2_8
REMARK    3  A    between atoms: CB_3  and  CA_4
REMARK    4  A    between atoms: CA_4  and  C_5
REMARK    5  A    between atoms: CA_4  and  N_9
REMARK    6  A    between atoms: CG_11  and  CB_12
REMARK    7  A    between atoms: CG_11  and  OD2_17
REMARK    8  A    between atoms: CB_12  and  CA_13
REMARK    9  A    between atoms: CA_13  and  C_14
REMARK   10  A    between atoms: CA_13  and  N_18
REMARK                            x       y       z     vdW  Elec       q    Type
REMARK                         _______ _______ _______ _____ _____    ______ ____
ROOT
ATOM      1  CA  ASP A   1      -1.643   1.427   0.000  0.00  0.00    +0.000 C 
ENDROOT
BRANCH   1   2
ATOM      2  C   ASP A   1      -0.928   1.840   0.000  0.00  0.00    +0.000 C 
ATOM      3  O   ASP A   1      -0.214   1.427   0.000  0.00  0.00    +0.000 OA
ATOM      4  OXT ASP A   1      -0.928   2.665   0.000  0.00  0.00    +0.000 OA
ENDBRANCH   1   2
BRANCH   1   5
ATOM      5  N   ASP A   1      -1.643   0.602   0.000  0.00  0.00    +0.000 NA
ATOM      6  H1  ASP A   1      -2.526   0.092   0.000  0.00  0.00    +0.000 HD
ATOM      7  H2  ASP A   1      -0.759   0.092   0.000  0.00  0.00    +0.000 HD
ENDBRANCH   1   5
BRANCH   1   8
ATOM      8  CB  ASP A   1      -2.357   1.840   0.000  0.00  0.00    +0.000 C 
BRANCH   8  10
ATOM      9  OD1 ASP A   1      -3.786   1.840   0.000  0.00  0.00    +0.000 OA
ATOM     10  CG  ASP A   1      -3.072   1.427   0.000  0.00  0.00    +0.000 C 
BRANCH  10  11
ATOM     11  OD2 ASP A   1      -3.072   0.602   0.000  0.00  0.00    +0.000 OA
ATOM     12  HD2 ASP A   1      -3.883   0.134   0.000  0.00  0.00    +0.000 HD
ENDBRANCH  10  11
ENDBRANCH   8  10
ENDBRANCH   1   8
TORSDOF 5
REMARK  Name = 
REMARK  10 active torsions:
REMARK  status: ('A' for Active; 'I' for Inactive)
REMARK    1  A    between atoms: CG_2  and  CB_3
REMARK    2  A    between atoms: CG_2  and  OD2_8
REMARK    3  A    between atoms: CB_3  and  CA_4
REMARK    4  A    between atoms: CA_4  and  C_5
REMARK    5  A    between atoms: CA_4  and  N_9
REMARK    6  A    between atoms: CG_11  and  CB_12
REMARK    7  A    between atoms: CG_11  and  OD2_17
REMARK    8  A    between atoms: CB_12  and  CA_13
REMARK    9  A    between atoms: CA_13  and  C_14
REMARK   10  A    between atoms: CA_13  and  N_18
REMARK                            x       y       z     vdW  Elec       q    Type
REMARK                         _______ _______ _______ _____ _____    ______ ____
ROOT
ATOM      1  CA  ASP A   1      -1.082  -1.840   0.000  0.00  0.00    +0.000 C 
ENDROOT
BRANCH   1   2
ATOM      2  C   ASP A   1      -0.367  -1.427   0.000  0.00  0.00    +0.000 C 
ATOM      3  O   ASP A   1       0.347  -1.840   0.000  0.00  0.00    +0.000 OA
ATOM      4  OXT ASP A   1      -0.367  -0.602   0.000  0.00  0.00    +0.000 OA
ENDBRANCH   1   2
BRANCH   1   5
ATOM      5  N   ASP A   1      -1.082  -2.665   0.000  0.00  0.00    +0.000 NA
ATOM      6  H1  ASP A   1      -1.965  -3.175   0.000  0.00  0.00    +0.000 HD
ATOM      7  H2  ASP A   1      -0.199  -3.175   0.000  0.00  0.00    +0.000 HD
ENDBRANCH   1   5
BRANCH   1   8
ATOM      8  CB  ASP A   1      -1.796  -1.427   0.000  0.00  0.00    +0.000 C 
BRANCH   8  10
ATOM      9  OD1 ASP A   1      -3.225  -1.427   0.000  0.00  0.00    +0.000 OA
ATOM     10  CG  ASP A   1      -2.511  -1.840   0.000  0.00  0.00    +0.000 C 
BRANCH  10  11
ATOM     11  OD2 ASP A   1      -2.511  -2.665   0.000  0.00  0.00    +0.000 OA
ATOM     12  HD2 ASP A   1      -3.322  -3.133   0.000  0.00  0.00    +0.000 HD
ENDBRANCH  10  11
ENDBRANCH   8  10
ENDBRANCH   1   8
TORSDOF 5
REMARK  Name = 
REMARK  10 active torsions:
REMARK  status: ('A' for Active; 'I' for Inactive)
REMARK    1  A    between atoms: CG_2  and  CB_3
REMARK    2  A    between atoms: CG_2  and  OD2_8
REMARK    3  A    between atoms: CB_3  and  CA_4
REMARK    4  A    between atoms: CA_4  and  C_5
REMARK    5  A    between atoms: CA_4  and  N_9
REMARK    6  A    between atoms: CG_11  and  CB_12
REMARK    7  A    between atoms: CG_11  and  OD2_17
REMARK    8  A    between atoms: CB_12  and  CA_13
REMARK    9  A    between atoms: CA_13  and  C_14
REMARK   10  A    between atoms: CA_13  and  N_18
REMARK                            x       y       z     vdW  Elec       q    Type
REMARK                         _______ _______ _______ _____ _____    ______ ____
ROOT
ATOM      1  O   HOH     1       3.727   0.432   0.000  0.00  0.00    +0.000 OA
ATOM      2  H   HOH     0       4.697   0.432   0.000  0.00  0.00    +0.000 HD
ATOM      3  H   HOH     0       3.242   1.272   0.000  0.00  0.00    +0.000 HD
ENDROOT
TORSDOF 0
REMARK  Name = 
REMARK  10 active torsions:
REMARK  status: ('A' for Active; 'I' for Inactive)
REMARK    1  A    between atoms: CG_2  and  CB_3
REMARK    2  A    between atoms: CG_2  and  OD2_8
REMARK    3  A    between atoms: CB_3  and  CA_4
REMARK    4  A    between atoms: CA_4  and  C_5
REMARK    5  A    between atoms: CA_4  and  N_9
REMARK    6  A    between atoms: CG_11  and  CB_12
REMARK    7  A    between atoms: CG_11  and  OD2_17
REMARK    8  A    between atoms: CB_12  and  CA_13
REMARK    9  A    between atoms: CA_13  and  C_14
REMARK   10  A    between atoms: CA_13  and  N_18
REMARK                            x       y       z     vdW  Elec       q    Type
REMARK                         _______ _______ _______ _____ _____    ______ ____
ROOT
ATOM      1  O   HOH     1       3.786  -0.363   0.000  0.00  0.00    +0.000 OA
ATOM      2  H   HOH     0       4.756  -0.363   0.000  0.00  0.00    +0.000 HD
ATOM      3  H   HOH     0       3.301   0.477   0.000  0.00  0.00    +0.000 HD
ENDROOT
TORSDOF 0
REMARK  Name = 
REMARK  10 active torsions:
REMARK  status: ('A' for Active; 'I' for Inactive)
REMARK    1  A    between atoms: CG_2  and  CB_3
REMARK    2  A    between atoms: CG_2  and  OD2_8
REMARK    3  A    between atoms: CB_3  and  CA_4
REMARK    4  A    between atoms: CA_4  and  C_5
REMARK    5  A    between atoms: CA_4  and  N_9
REMARK    6  A    between atoms: CG_11  and  CB_12
REMARK    7  A    between atoms: CG_11  and  OD2_17
REMARK    8  A    between atoms: CB_12  and  CA_13
REMARK    9  A    between atoms: CA_13  and  C_14
REMARK   10  A    between atoms: CA_13  and  N_18
REMARK                            x       y       z     vdW  Elec       q    Type
REMARK                         _______ _______ _______ _____ _____    ______ ____
ROOT
ATOM      1 MG   UNL     1       1.665   0.167   0.000  0.00  0.00    +0.000 Mg
ENDROOT
TORSDOF 0
REMARK  Name = 
REMARK  10 active torsions:
REMARK  status: ('A' for Active; 'I' for Inactive)
REMARK    1  A    between atoms: CG_2  and  CB_3
REMARK    2  A    between atoms: CG_2  and  OD2_8
REMARK    3  A    between atoms: CB_3  and  CA_4
REMARK    4  A    between atoms: CA_4  and  C_5
REMARK    5  A    between atoms: CA_4  and  N_9
REMARK    6  A    between atoms: CG_11  and  CB_12
REMARK    7  A    between atoms: CG_11  and  OD2_17
REMARK    8  A    between atoms: CB_12  and  CA_13
REMARK    9  A    between atoms: CA_13  and  C_14
REMARK   10  A    between atoms: CA_13  and  N_18
REMARK                            x       y       z     vdW  Elec       q    Type
REMARK                         _______ _______ _______ _____ _____    ______ ____
ROOT
ATOM      1  O   HOH     1       3.698   1.110   0.000  0.00  0.00    +0.000 OA
ATOM      2  H   HOH     0       4.668   1.110   0.000  0.00  0.00    +0.000 HD
ATOM      3  H   HOH     0       3.213   1.950   0.000  0.00  0.00    +0.000 HD
ENDROOT
TORSDOF 0
REMARK  Name = 
REMARK  10 active torsions:
REMARK  status: ('A' for Active; 'I' for Inactive)
REMARK    1  A    between atoms: CG_2  and  CB_3
REMARK    2  A    between atoms: CG_2  and  OD2_8
REMARK    3  A    between atoms: CB_3  and  CA_4
REMARK    4  A    between atoms: CA_4  and  C_5
REMARK    5  A    between atoms: CA_4  and  N_9
REMARK    6  A    between atoms: CG_11  and  CB_12
REMARK    7  A    between atoms: CG_11  and  OD2_17
REMARK    8  A    between atoms: CB_12  and  CA_13
REMARK    9  A    between atoms: CA_13  and  C_14
REMARK   10  A    between atoms: CA_13  and  N_18
REMARK                            x       y       z     vdW  Elec       q    Type
REMARK                         _______ _______ _______ _____ _____    ______ ____
ROOT
ATOM      1  O   HOH     1       3.609   1.728   0.000  0.00  0.00    +0.000 OA
ATOM      2  H   HOH     0       4.579   1.728   0.000  0.00  0.00    +0.000 HD
ATOM      3  H   HOH     0       3.124   2.569   0.000  0.00  0.00    +0.000 HD
ENDROOT
TORSDOF 0
