REMARK  Name = 36054
REMARK  2 active torsions:
REMARK  status: ('A' for Active; 'I' for Inactive)
REMARK    1  A    between atoms: N_2  and  C_12
REMARK    2  A    between atoms: C_5  and  C_12
REMARK                            x       y       z     vdW  Elec       q    Type
REMARK                         _______ _______ _______ _____ _____    ______ ____
ROOT
ATOM      1  N   UNL     1       1.206   1.418  -0.265  0.00  0.00    +0.000 NA
ATOM      2  C   UNL     1       0.186   0.721   0.514  0.00  0.00    +0.000 C 
ATOM      3  C   UNL     1       0.581  -0.653   1.085  0.00  0.00    +0.000 C 
ATOM      4  C   UNL     1       0.980  -1.746   0.093  0.00  0.00    +0.000 C 
ATOM      5  C   UNL     1       2.192  -1.481  -0.803  0.00  0.00    +0.000 C 
ATOM      6  C   UNL     1       3.406  -0.882  -0.092  0.00  0.00    +0.000 C 
ATOM      7  C   UNL     1       3.578   0.629  -0.276  0.00  0.00    +0.000 C 
ATOM      8  C   UNL     1       2.514   1.523   0.366  0.00  0.00    +0.000 C 
ATOM      9  H   UNL     1       0.865   2.351  -0.499  0.00  0.00    +0.000 HD
ENDROOT
BRANCH   2  10
ATOM     10  C   UNL     1      -1.082   0.622  -0.341  0.00  0.00    +0.000 C 
BRANCH  10  11
ATOM     11  N   UNL     1      -2.166   0.129   0.499  0.00  0.00    +0.000 NA
ATOM     12  N   UNL     1      -4.402  -0.484   0.660  0.00  0.00    +0.000 N 
ATOM     13  N   UNL     1      -3.664   0.227  -1.376  0.00  0.00    +0.000 N 
ATOM     14  C   UNL     1      -3.327  -0.023  -0.065  0.00  0.00    +0.000 C 
ATOM     15  H   UNL     1      -4.310  -0.713   1.643  0.00  0.00    +0.000 HD
ATOM     16  H   UNL     1      -5.314  -0.609   0.234  0.00  0.00    +0.000 HD
ATOM     17  H   UNL     1      -4.608   0.072  -1.712  0.00  0.00    +0.000 HD
ATOM     18  H   UNL     1      -2.991   0.574  -2.051  0.00  0.00    +0.000 HD
ENDBRANCH  10  11
ENDBRANCH   2  10
TORSDOF 2
