REMARK  Name = 44473425
REMARK  10 active torsions:
REMARK  status: ('A' for Active; 'I' for Inactive)
REMARK    1  A    between atoms: O_2  and  C_12
REMARK    2  A    between atoms: O_4  and  C_14
REMARK    3  A    between atoms: N_6  and  CA_10
REMARK    4  A    between atoms: C_7  and  C_8
REMARK    5  A    between atoms: C_7  and  C_9
REMARK    6  A    between atoms: C_7  and  C_12
REMARK    7  A    between atoms: C_8  and  CA_10
REMARK    8  A    between atoms: C_9  and  C_11
REMARK    9  A    between atoms: CA_10  and  C_14
REMARK   10  A    between atoms: C_11  and  C_13
REMARK                            x       y       z     vdW  Elec       q    Type
REMARK                         _______ _______ _______ _____ _____    ______ ____
ROOT
ATOM      1  C   UNL     1      -0.297  -0.140   0.069  0.00  0.00    +0.000 C 
ENDROOT
BRANCH   1   3
ATOM      2  O   UNL     1      -0.767   1.777  -1.361  0.00  0.00    +0.000 OA
ATOM      3  C   UNL     1      -0.421   1.338  -0.272  0.00  0.00    +0.000 C 
BRANCH   3   4
ATOM      4  O   UNL     1      -0.132   2.139   0.786  0.00  0.00    +0.000 OA
ATOM      5  H   UNL     1      -0.229   3.089   0.563  0.00  0.00    +0.000 HD
ENDBRANCH   3   4
ENDBRANCH   1   3
BRANCH   1   6
ATOM      6  C   UNL     1       0.754  -0.822  -0.834  0.00  0.00    +0.000 C 
BRANCH   6   7
ATOM      7  CA  UNL     1       2.159  -0.194  -0.753  0.00  0.00    +0.000 C 
BRANCH   7   8
ATOM      8  N   UNL     1       3.085  -0.856  -1.667  0.00  0.00    +0.000 NA
ATOM      9  H1  UNL     1       3.978  -0.364  -1.667  0.00  0.00    +0.000 HD
ATOM     10  H2  UNL     1       2.728  -0.796  -2.619  0.00  0.00    +0.000 HD
ENDBRANCH   7   8
BRANCH   7  12
ATOM     11  OXT UNL     1       2.943  -1.381   1.228  0.00  0.00    +0.000 OA
ATOM     12  C   UNL     1       2.734  -0.324   0.647  0.00  0.00    +0.000 C 
BRANCH  12  13
ATOM     13  O   UNL     1       2.996   0.887   1.207  0.00  0.00    +0.000 OA
ATOM     14  H   UNL     1       3.364   0.799   2.112  0.00  0.00    +0.000 HD
ENDBRANCH  12  13
ENDBRANCH   7  12
ENDBRANCH   6   7
ENDBRANCH   1   6
BRANCH   1  15
ATOM     15  C   UNL     1      -1.695  -0.770  -0.077  0.00  0.00    +0.000 C 
BRANCH  15  16
ATOM     16  C   UNL     1      -2.735  -0.161   0.868  0.00  0.00    +0.000 C 
BRANCH  16  18
ATOM     17  F   UNL     1      -4.537  -0.657  -0.556  0.00  0.00    +0.000 F 
ATOM     18  C   UNL     1      -4.088  -0.836   0.714  0.00  0.00    +0.000 C 
ENDBRANCH  16  18
ENDBRANCH  15  16
ENDBRANCH   1  15
TORSDOF 10
