REMARK  Name = 19988
REMARK  7 active torsions:
REMARK  status: ('A' for Active; 'I' for Inactive)
REMARK    1  A    between atoms: S_1  and  O_4
REMARK    2  A    between atoms: S_1  and  C_8
REMARK    3  A    between atoms: O_2  and  C_11
REMARK    4  A    between atoms: O_2  and  C_21
REMARK    5  A    between atoms: O_3  and  C_12
REMARK    6  A    between atoms: C_9  and  C_14
REMARK    7  A    between atoms: C_14  and  C_15
REMARK                            x       y       z     vdW  Elec       q    Type
REMARK                         _______ _______ _______ _____ _____    ______ ____
ROOT
ATOM      1  C   UNL     1      -1.935  -0.245   0.302  0.00  0.00    +0.000 A 
ATOM      2  C   UNL     1       0.262   0.611   0.653  0.00  0.00    +0.000 A 
ATOM      3  C   UNL     1      -0.627  -0.437   0.746  0.00  0.00    +0.000 A 
ATOM      4  C   UNL     1      -2.320   0.990  -0.223  0.00  0.00    +0.000 A 
ATOM      5  C   UNL     1      -0.087   1.839   0.141  0.00  0.00    +0.000 A 
ATOM      6  C   UNL     1      -1.396   2.031  -0.303  0.00  0.00    +0.000 A 
ENDROOT
BRANCH   1   7
ATOM      7  S   UNL     1      -3.075  -1.567   0.413  0.00  0.00    +0.000 S 
ATOM      8  O   UNL     1      -2.410  -2.675   1.081  0.00  0.00    +0.000 OA
ATOM      9  O   UNL     1      -4.311  -1.013   0.941  0.00  0.00    +0.000 OA
BRANCH   7  10
ATOM     10  O   UNL     1      -3.343  -2.030  -1.131  0.00  0.00    +0.000 OA
ATOM     11  H   UNL     1      -2.549  -2.351  -1.620  0.00  0.00    +0.000 HD
ENDBRANCH   7  10
ENDBRANCH   1   7
BRANCH   4  12
ATOM     12  O   UNL     1      -3.592   1.200  -0.662  0.00  0.00    +0.000 OA
ATOM     13  C   UNL     1      -3.860   0.911  -2.033  0.00  0.00    +0.000 C 
ENDBRANCH   4  12
BRANCH   5  14
ATOM     14  O   UNL     1       0.800   2.870   0.055  0.00  0.00    +0.000 OA
ATOM     15  H   UNL     1       1.660   2.609   0.422  0.00  0.00    +0.000 HD
ENDBRANCH   5  14
BRANCH   2  17
ATOM     16  O   UNL     1       1.897   0.634   2.325  0.00  0.00    +0.000 OA
ATOM     17  C   UNL     1       1.658   0.384   1.134  0.00  0.00    +0.000 C 
BRANCH  17  18
ATOM     18  C   UNL     1       2.712  -0.110   0.263  0.00  0.00    +0.000 A 
ATOM     19  C   UNL     1       2.437  -0.390  -1.076  0.00  0.00    +0.000 A 
ATOM     20  C   UNL     1       3.999  -0.304   0.766  0.00  0.00    +0.000 A 
ATOM     21  C   UNL     1       3.448  -0.863  -1.911  0.00  0.00    +0.000 A 
ATOM     22  C   UNL     1       5.010  -0.778  -0.070  0.00  0.00    +0.000 A 
ATOM     23  C   UNL     1       4.735  -1.057  -1.409  0.00  0.00    +0.000 A 
ENDBRANCH  17  18
ENDBRANCH   2  17
TORSDOF 6
