REMARK  Name = 9834479
REMARK  8 active torsions:
REMARK  status: ('A' for Active; 'I' for Inactive)
REMARK    1  A    between atoms: O_2  and  C_11
REMARK    2  A    between atoms: O_2  and  C_15
REMARK    3  A    between atoms: O_3  and  C_14
REMARK    4  A    between atoms: N_5  and  CA_7
REMARK    5  A    between atoms: C_6  and  CA_7
REMARK    6  A    between atoms: C_6  and  C_8
REMARK    7  A    between atoms: CA_7  and  C_14
REMARK    8  A    between atoms: C_15  and  C_16
REMARK                            x       y       z     vdW  Elec       q    Type
REMARK                         _______ _______ _______ _____ _____    ______ ____
ROOT
ATOM      1  C   UNL     1      -0.852   0.633   0.475  0.00  0.00    +0.000 A 
ATOM      2  C   UNL     1      -0.400  -0.582   0.960  0.00  0.00    +0.000 A 
ATOM      3  C   UNL     1      -0.013   1.494  -0.213  0.00  0.00    +0.000 A 
ATOM      4  C   UNL     1       1.788  -0.093   0.060  0.00  0.00    +0.000 A 
ATOM      5  C   UNL     1       0.930  -0.948   0.752  0.00  0.00    +0.000 A 
ATOM      6  C   UNL     1       1.317   1.128  -0.422  0.00  0.00    +0.000 A 
ENDROOT
BRANCH   4   7
ATOM      7  O   UNL     1       3.086  -0.450  -0.142  0.00  0.00    +0.000 OA
BRANCH   7   8
ATOM      8  C   UNL     1       4.044   0.603  -0.227  0.00  0.00    +0.000 C 
BRANCH   8  10
ATOM      9  F   UNL     1       5.773  -0.937  -0.534  0.00  0.00    +0.000 F 
ATOM     10  C   UNL     1       5.377   0.090   0.268  0.00  0.00    +0.000 C 
ENDBRANCH   8  10
ENDBRANCH   7   8
ENDBRANCH   4   7
BRANCH   1  11
ATOM     11  C   UNL     1      -2.293   1.030   0.701  0.00  0.00    +0.000 C 
BRANCH  11  12
ATOM     12  CA  UNL     1      -3.224   0.565  -0.429  0.00  0.00    +0.000 C 
BRANCH  12  13
ATOM     13  N   UNL     1      -4.453   1.356  -0.413  0.00  0.00    +0.000 NA
ATOM     14  H1  UNL     1      -4.228   2.339  -0.567  0.00  0.00    +0.000 HD
ATOM     15  H2  UNL     1      -4.882   1.311   0.511  0.00  0.00    +0.000 HD
ENDBRANCH  12  13
BRANCH  12  17
ATOM     16  OXT UNL     1      -4.613  -1.268   0.373  0.00  0.00    +0.000 OA
ATOM     17  C   UNL     1      -3.641  -0.886  -0.266  0.00  0.00    +0.000 C 
BRANCH  17  18
ATOM     18  O   UNL     1      -2.826  -1.737  -0.943  0.00  0.00    +0.000 OA
ATOM     19  H   UNL     1      -3.108  -2.671  -0.843  0.00  0.00    +0.000 HD
ENDBRANCH  17  18
ENDBRANCH  12  17
ENDBRANCH  11  12
ENDBRANCH   1  11
TORSDOF 8
