REMARK  Name = 21236
REMARK  7 active torsions:
REMARK  status: ('A' for Active; 'I' for Inactive)
REMARK    1  A    between atoms: O_1  and  C_9
REMARK    2  A    between atoms: N_3  and  CA_6
REMARK    3  A    between atoms: C_4  and  C_5
REMARK    4  A    between atoms: C_4  and  CA_6
REMARK    5  A    between atoms: C_5  and  C_7
REMARK    6  A    between atoms: CA_6  and  C_9
REMARK    7  A    between atoms: C_7  and  C_8
REMARK                            x       y       z     vdW  Elec       q    Type
REMARK                         _______ _______ _______ _____ _____    ______ ____
ROOT
ATOM      1  CA  UNL     1      -1.095  -0.655   0.510  0.00  0.00    +0.000 C 
ENDROOT
BRANCH   1   2
ATOM      2  N   UNL     1      -2.093  -1.652   0.116  0.00  0.00    +0.000 NA
ATOM      3  H1  UNL     1      -1.824  -2.564   0.484  0.00  0.00    +0.000 HD
ATOM      4  H2  UNL     1      -2.100  -1.755  -0.899  0.00  0.00    +0.000 HD
ENDBRANCH   1   2
BRANCH   1   6
ATOM      5  OXT UNL     1      -2.178   0.818  -1.102  0.00  0.00    +0.000 OA
ATOM      6  C   UNL     1      -1.565   0.675  -0.051  0.00  0.00    +0.000 C 
BRANCH   6   7
ATOM      7  O   UNL     1      -1.206   1.722   0.736  0.00  0.00    +0.000 OA
ATOM      8  H   UNL     1      -1.500   2.580   0.361  0.00  0.00    +0.000 HD
ENDBRANCH   6   7
ENDBRANCH   1   6
BRANCH   1   9
ATOM      9  C   UNL     1       0.273  -1.048  -0.058  0.00  0.00    +0.000 C 
BRANCH   9  10
ATOM     10  C   UNL     1       1.363  -0.013   0.245  0.00  0.00    +0.000 C 
BRANCH  10  11
ATOM     11  C   UNL     1       2.704  -0.426  -0.363  0.00  0.00    +0.000 C 
ATOM     12  C   UNL     1       3.797   0.578  -0.034  0.00  0.00    +0.000 C 
ENDBRANCH  10  11
ENDBRANCH   9  10
ENDBRANCH   1   9
TORSDOF 6
