REMARK  Name = 6215
REMARK  8 active torsions:
REMARK  status: ('A' for Active; 'I' for Inactive)
REMARK    1  A    between atoms: O_5  and  C_17
REMARK    2  A    between atoms: O_7  and  C_27
REMARK    3  A    between atoms: C_9  and  C_20
REMARK    4  A    between atoms: C_12  and  C_22
REMARK    5  A    between atoms: C_18  and  C_25
REMARK    6  A    between atoms: C_22  and  C_27
REMARK    7  A    between atoms: C_23  and  C_28
REMARK    8  A    between atoms: C_23  and  C_29
REMARK                            x       y       z     vdW  Elec       q    Type
REMARK                         _______ _______ _______ _____ _____    ______ ____
ROOT
ATOM      1  F   UNL     1       1.459   0.117  -1.207  0.00  0.00    +0.000 F 
ATOM      2  F   UNL     1       3.655   2.667   1.529  0.00  0.00    +0.000 F 
ATOM      3  O   UNL     1      -2.921   0.461  -1.202  0.00  0.00    +0.000 OA
ATOM      4  O   UNL     1      -3.486   2.280   0.175  0.00  0.00    +0.000 OA
ATOM      5  O   UNL     1       6.261   0.446  -1.980  0.00  0.00    +0.000 OA
ATOM      6  C   UNL     1      -1.513  -0.645   0.508  0.00  0.00    +0.000 C 
ATOM      7  C   UNL     1      -0.649   0.633   0.609  0.00  0.00    +0.000 C 
ATOM      8  C   UNL     1       0.797   0.356   1.043  0.00  0.00    +0.000 C 
ATOM      9  C   UNL     1      -2.878  -0.008   0.143  0.00  0.00    +0.000 C 
ATOM     10  C   UNL     1       1.472  -0.588  -0.013  0.00  0.00    +0.000 C 
ATOM     11  C   UNL     1      -2.957   1.253   1.008  0.00  0.00    +0.000 C 
ATOM     12  C   UNL     1      -1.512   1.585   1.440  0.00  0.00    +0.000 C 
ATOM     13  C   UNL     1      -0.880  -1.542  -0.572  0.00  0.00    +0.000 C 
ATOM     14  C   UNL     1       0.611  -1.855  -0.302  0.00  0.00    +0.000 C 
ATOM     15  C   UNL     1       2.997  -0.842   0.311  0.00  0.00    +0.000 C 
ATOM     16  C   UNL     1       1.576   1.673   1.185  0.00  0.00    +0.000 C 
ATOM     17  C   UNL     1      -1.641  -1.408   1.855  0.00  0.00    +0.000 C 
ATOM     18  C   UNL     1       3.048   1.444   1.497  0.00  0.00    +0.000 C 
ATOM     19  C   UNL     1      -3.481   1.777  -1.163  0.00  0.00    +0.000 C 
ATOM     20  C   UNL     1       3.669   0.529   0.471  0.00  0.00    +0.000 C 
ATOM     21  C   UNL     1       3.240  -1.645   1.610  0.00  0.00    +0.000 C 
ATOM     22  C   UNL     1       3.643  -1.646  -0.808  0.00  0.00    +0.000 C 
ATOM     23  C   UNL     1      -4.915   1.717  -1.675  0.00  0.00    +0.000 C 
ATOM     24  C   UNL     1      -2.645   2.711  -2.033  0.00  0.00    +0.000 C 
ATOM     25  C   UNL     1       4.713   0.934  -0.270  0.00  0.00    +0.000 C 
ATOM     26  C   UNL     1       4.681  -1.246  -1.548  0.00  0.00    +0.000 C 
ATOM     27  C   UNL     1       5.298   0.073  -1.319  0.00  0.00    +0.000 C 
ENDROOT
BRANCH  14  28
ATOM     28  O   UNL     1       0.718  -2.809   0.744  0.00  0.00    +0.000 OA
ATOM     29  H   UNL     1       1.306  -3.520   0.436  0.00  0.00    +0.000 HD
ENDBRANCH  14  28
BRANCH   9  31
ATOM     30  O   UNL     1      -4.972  -0.676   1.066  0.00  0.00    +0.000 OA
ATOM     31  C   UNL     1      -4.046  -0.936   0.299  0.00  0.00    +0.000 C 
BRANCH  31  32
ATOM     32  C   UNL     1      -4.016  -2.199  -0.537  0.00  0.00    +0.000 C 
BRANCH  32  33
ATOM     33  O   UNL     1      -5.325  -2.611  -0.866  0.00  0.00    +0.000 OA
ATOM     34  H   UNL     1      -5.713  -1.925  -1.436  0.00  0.00    +0.000 HD
ENDBRANCH  32  33
ENDBRANCH  31  32
ENDBRANCH   9  31
TORSDOF 4
