REMARK  Name = 9820882
REMARK  15 active torsions:
REMARK  status: ('A' for Active; 'I' for Inactive)
REMARK    1  A    between atoms: O_1  and  C_8
REMARK    2  A    between atoms: O_2  and  C_18
REMARK    3  A    between atoms: O_2  and  C_26
REMARK    4  A    between atoms: O_3  and  C_25
REMARK    5  A    between atoms: O_4  and  C_27
REMARK    6  A    between atoms: N_6  and  C_7
REMARK    7  A    between atoms: N_6  and  C_9
REMARK    8  A    between atoms: C_7  and  C_8
REMARK    9  A    between atoms: C_7  and  C_12
REMARK   10  A    between atoms: C_8  and  C_13
REMARK   11  A    between atoms: C_9  and  C_10
REMARK   12  A    between atoms: C_10  and  C_11
REMARK   13  A    between atoms: C_14  and  C_21
REMARK   14  A    between atoms: C_16  and  C_22
REMARK   15  A    between atoms: C_26  and  C_27
REMARK                            x       y       z     vdW  Elec       q    Type
REMARK                         _______ _______ _______ _____ _____    ______ ____
ROOT
ATOM      1  C   UNL     1       0.738  -1.528   0.025  0.00  0.00    +0.000 C 
ENDROOT
BRANCH   1   2
ATOM      2  N   UNL     1       1.886  -2.388  -0.203  0.00  0.00    +0.000 NA
ATOM      3  H   UNL     1       1.779  -3.255   0.324  0.00  0.00    +0.000 HD
BRANCH   2   4
ATOM      4  C   UNL     1       3.125  -1.712   0.203  0.00  0.00    +0.000 C 
ATOM      5  C   UNL     1       4.293  -2.662  -0.071  0.00  0.00    +0.000 C 
BRANCH   4   6
ATOM      6  C   UNL     1       3.257  -0.374  -0.558  0.00  0.00    +0.000 C 
BRANCH   6   7
ATOM      7  C   UNL     1       4.481   0.428  -0.170  0.00  0.00    +0.000 A 
ATOM      8  C   UNL     1       4.374   1.387   0.821  0.00  0.00    +0.000 A 
ATOM      9  C   UNL     1       5.680   0.183  -0.816  0.00  0.00    +0.000 A 
ATOM     10  C   UNL     1       5.502   2.127   1.177  0.00  0.00    +0.000 A 
ATOM     11  C   UNL     1       6.808   0.922  -0.460  0.00  0.00    +0.000 A 
ATOM     12  C   UNL     1       6.719   1.894   0.537  0.00  0.00    +0.000 A 
BRANCH  12  13
ATOM     13  O   UNL     1       7.819   2.615   0.886  0.00  0.00    +0.000 OA
ATOM     14  H   UNL     1       7.576   3.240   1.591  0.00  0.00    +0.000 HD
ENDBRANCH  12  13
ENDBRANCH   6   7
BRANCH   6  15
ATOM     15  O   UNL     1       3.352  -0.617  -1.964  0.00  0.00    +0.000 OA
ATOM     16  H   UNL     1       2.563  -1.122  -2.225  0.00  0.00    +0.000 HD
ENDBRANCH   6  15
ENDBRANCH   4   6
ENDBRANCH   2   4
ENDBRANCH   1   2
BRANCH   1  17
ATOM     17  C   UNL     1      -0.559  -2.224  -0.387  0.00  0.00    +0.000 C 
BRANCH  17  18
ATOM     18  C   UNL     1      -1.757  -1.333  -0.176  0.00  0.00    +0.000 A 
ATOM     19  C   UNL     1      -2.439  -1.346   1.032  0.00  0.00    +0.000 A 
ATOM     20  C   UNL     1      -2.158  -0.504  -1.215  0.00  0.00    +0.000 A 
ATOM     21  C   UNL     1      -3.264   0.328  -1.041  0.00  0.00    +0.000 A 
ATOM     22  C   UNL     1      -3.545  -0.514   1.206  0.00  0.00    +0.000 A 
ATOM     23  C   UNL     1      -3.957   0.323   0.169  0.00  0.00    +0.000 A 
ATOM     24  C   UNL     1      -2.015  -2.233   2.156  0.00  0.00    +0.000 C 
ATOM     25  C   UNL     1      -3.692   1.216  -2.163  0.00  0.00    +0.000 C 
BRANCH  23  26
ATOM     26  O   UNL     1      -5.039   1.130   0.355  0.00  0.00    +0.000 OA
BRANCH  26  27
ATOM     27  C   UNL     1      -6.279   0.492   0.653  0.00  0.00    +0.000 C 
BRANCH  27  29
ATOM     28  O   UNL     1      -7.313   2.380  -0.474  0.00  0.00    +0.000 OA
ATOM     29  C   UNL     1      -7.417   1.313   0.112  0.00  0.00    +0.000 C 
BRANCH  29  30
ATOM     30  O   UNL     1      -8.600   0.698   0.364  0.00  0.00    +0.000 OA
ATOM     31  H   UNL     1      -9.361   1.212   0.020  0.00  0.00    +0.000 HD
ENDBRANCH  29  30
ENDBRANCH  27  29
ENDBRANCH  26  27
ENDBRANCH  23  26
ENDBRANCH  17  18
ENDBRANCH   1  17
TORSDOF 12
