REMARK  Name = 11196935
REMARK  2 active torsions:
REMARK  status: ('A' for Active; 'I' for Inactive)
REMARK    1  A    between atoms: C_6  and  C_16
REMARK    2  A    between atoms: C_7  and  C_17
REMARK                            x       y       z     vdW  Elec       q    Type
REMARK                         _______ _______ _______ _____ _____    ______ ____
ROOT
ATOM      1  O   UNL     1       4.987   1.128  -0.722  0.00  0.00    +0.000 OA
ATOM      2  O   UNL     1      -5.727   0.052  -0.647  0.00  0.00    +0.000 OA
ATOM      3  C   UNL     1       0.646  -0.789   0.276  0.00  0.00    +0.000 C 
ATOM      4  C   UNL     1      -0.175   0.459  -0.203  0.00  0.00    +0.000 C 
ATOM      5  C   UNL     1       2.055  -0.691  -0.315  0.00  0.00    +0.000 C 
ATOM      6  C   UNL     1       2.793   0.572   0.172  0.00  0.00    +0.000 C 
ATOM      7  C   UNL     1      -1.659   0.410   0.324  0.00  0.00    +0.000 C 
ATOM      8  C   UNL     1       0.581   1.788   0.090  0.00  0.00    +0.000 C 
ATOM      9  C   UNL     1      -2.273  -0.944  -0.159  0.00  0.00    +0.000 C 
ATOM     10  C   UNL     1      -0.041  -2.103  -0.121  0.00  0.00    +0.000 C 
ATOM     11  C   UNL     1       2.049   1.785  -0.375  0.00  0.00    +0.000 C 
ATOM     12  C   UNL     1       3.057  -1.818  -0.089  0.00  0.00    +0.000 C 
ATOM     13  C   UNL     1      -1.493  -2.161   0.343  0.00  0.00    +0.000 C 
ATOM     14  C   UNL     1       4.154   0.279  -0.434  0.00  0.00    +0.000 C 
ATOM     15  C   UNL     1       4.370  -1.215  -0.611  0.00  0.00    +0.000 C 
ATOM     16  C   UNL     1       3.006   0.684   1.693  0.00  0.00    +0.000 C 
ATOM     17  C   UNL     1      -1.716   0.570   1.862  0.00  0.00    +0.000 C 
ATOM     18  C   UNL     1      -3.764  -1.060   0.164  0.00  0.00    +0.000 C 
ATOM     19  C   UNL     1      -2.518   1.528  -0.254  0.00  0.00    +0.000 C 
ATOM     20  C   UNL     1      -4.525   0.121  -0.398  0.00  0.00    +0.000 C 
ATOM     21  C   UNL     1      -3.807   1.404  -0.597  0.00  0.00    +0.000 C 
ENDROOT
TORSDOF 0
