REMARK  Name = 6918736
REMARK  16 active torsions:
REMARK  status: ('A' for Active; 'I' for Inactive)
REMARK    1  A    between atoms: S_1  and  C_11
REMARK    2  A    between atoms: S_1  and  C_16
REMARK    3  A    between atoms: O_4  and  C_17
REMARK    4  A    between atoms: O_4  and  C_27
REMARK    5  A    between atoms: O_5  and  C_21
REMARK    6  A    between atoms: O_5  and  C_29
REMARK    7  A    between atoms: O_6  and  C_22
REMARK    8  A    between atoms: O_6  and  C_30
REMARK    9  A    between atoms: O_7  and  C_26
REMARK   10  A    between atoms: O_7  and  C_31
REMARK   11  A    between atoms: O_8  and  C_28
REMARK   12  A    between atoms: N_10  and  C_14
REMARK   13  A    between atoms: N_10  and  C_23
REMARK   14  A    between atoms: C_11  and  C_12
REMARK   15  A    between atoms: C_19  and  C_20
REMARK   16  A    between atoms: C_23  and  C_28
REMARK                            x       y       z     vdW  Elec       q    Type
REMARK                         _______ _______ _______ _____ _____    ______ ____
ROOT
ATOM      1  S   UNL     1       0.123  -0.734   0.336  0.00  0.00    +0.000 S 
ATOM      2  O   UNL     1       0.584   0.461   1.022  0.00  0.00    +0.000 OA
ATOM      3  O   UNL     1       0.181  -2.027   0.996  0.00  0.00    +0.000 OA
ENDROOT
BRANCH   1   4
ATOM      4  C   UNL     1      -1.474  -0.469  -0.250  0.00  0.00    +0.000 C 
ATOM      5  C   UNL     1      -2.456  -0.320   0.660  0.00  0.00    +0.000 C 
BRANCH   5   6
ATOM      6  C   UNL     1      -3.862  -0.080   0.351  0.00  0.00    +0.000 A 
ATOM      7  C   UNL     1      -4.330   1.226   0.201  0.00  0.00    +0.000 A 
ATOM      8  C   UNL     1      -4.738  -1.155   0.206  0.00  0.00    +0.000 A 
ATOM      9  C   UNL     1      -5.673   1.455  -0.095  0.00  0.00    +0.000 A 
ATOM     10  C   UNL     1      -6.081  -0.926  -0.090  0.00  0.00    +0.000 A 
ATOM     11  C   UNL     1      -6.549   0.379  -0.240  0.00  0.00    +0.000 A 
BRANCH   7  12
ATOM     12  O   UNL     1      -3.497   2.297   0.337  0.00  0.00    +0.000 OA
ATOM     13  C   UNL     1      -4.072   3.590   0.164  0.00  0.00    +0.000 C 
ENDBRANCH   7  12
BRANCH   8  14
ATOM     14  O   UNL     1      -4.309  -2.442   0.347  0.00  0.00    +0.000 OA
ATOM     15  C   UNL     1      -5.282  -3.470   0.180  0.00  0.00    +0.000 C 
ENDBRANCH   8  14
BRANCH  11  16
ATOM     16  O   UNL     1      -7.861   0.603  -0.528  0.00  0.00    +0.000 OA
ATOM     17  C   UNL     1      -8.272   1.962  -0.669  0.00  0.00    +0.000 C 
ENDBRANCH  11  16
ENDBRANCH   5   6
ENDBRANCH   1   4
BRANCH   1  18
ATOM     18  C   UNL     1       1.065  -0.870  -1.163  0.00  0.00    +0.000 C 
BRANCH  18  19
ATOM     19  C   UNL     1       2.494  -1.106  -0.783  0.00  0.00    +0.000 A 
ATOM     20  C   UNL     1       3.353  -0.024  -0.593  0.00  0.00    +0.000 A 
ATOM     21  C   UNL     1       4.685  -0.243  -0.239  0.00  0.00    +0.000 A 
ATOM     22  C   UNL     1       2.966  -2.408  -0.619  0.00  0.00    +0.000 A 
ATOM     23  C   UNL     1       5.157  -1.546  -0.075  0.00  0.00    +0.000 A 
ATOM     24  C   UNL     1       4.298  -2.628  -0.265  0.00  0.00    +0.000 A 
BRANCH  23  25
ATOM     25  O   UNL     1       6.454  -1.782   0.271  0.00  0.00    +0.000 OA
ATOM     26  C   UNL     1       6.847  -3.145   0.416  0.00  0.00    +0.000 C 
ENDBRANCH  23  25
BRANCH  21  27
ATOM     27  N   UNL     1       5.543   0.861  -0.050  0.00  0.00    +0.000 N 
ATOM     28  H   UNL     1       6.503   0.660   0.211  0.00  0.00    +0.000 HD
BRANCH  27  29
ATOM     29  C   UNL     1       5.111   2.215  -0.204  0.00  0.00    +0.000 C 
BRANCH  29  31
ATOM     30  O   UNL     1       7.440   2.832  -0.155  0.00  0.00    +0.000 OA
ATOM     31  C   UNL     1       6.271   3.136   0.041  0.00  0.00    +0.000 C 
BRANCH  31  32
ATOM     32  O   UNL     1       5.884   4.357   0.490  0.00  0.00    +0.000 OA
ATOM     33  H   UNL     1       6.650   4.951   0.639  0.00  0.00    +0.000 HD
ENDBRANCH  31  32
ENDBRANCH  29  31
ENDBRANCH  27  29
ENDBRANCH  21  27
ENDBRANCH  18  19
ENDBRANCH   1  18
TORSDOF 12
