REMARK  Name = 26721
REMARK  10 active torsions:
REMARK  status: ('A' for Active; 'I' for Inactive)
REMARK    1  A    between atoms: O_2  and  C_9
REMARK    2  A    between atoms: O_2  and  C_28
REMARK    3  A    between atoms: O_3  and  C_19
REMARK    4  A    between atoms: O_4  and  C_26
REMARK    5  A    between atoms: N_5  and  C_23
REMARK    6  A    between atoms: C_12  and  C_19
REMARK    7  A    between atoms: C_19  and  C_22
REMARK    8  A    between atoms: C_19  and  C_25
REMARK    9  A    between atoms: C_22  and  C_29
REMARK   10  A    between atoms: C_29  and  C_30
REMARK                            x       y       z     vdW  Elec       q    Type
REMARK                         _______ _______ _______ _____ _____    ______ ____
ROOT
ATOM      1  O   UNL     1      -1.358  -1.894   1.104  0.00  0.00    +0.000 OA
ATOM      2  N   UNL     1      -0.461   3.272   0.236  0.00  0.00    +0.000 NA
ATOM      3  C   UNL     1      -0.697   0.429   0.686  0.00  0.00    +0.000 C 
ATOM      4  C   UNL     1       0.014   0.996  -0.577  0.00  0.00    +0.000 C 
ATOM      5  C   UNL     1      -0.211  -0.987   1.058  0.00  0.00    +0.000 C 
ATOM      6  C   UNL     1       0.881  -1.404   0.025  0.00  0.00    +0.000 C 
ATOM      7  C   UNL     1      -0.716   2.342  -0.889  0.00  0.00    +0.000 C 
ATOM      8  C   UNL     1       1.540   1.067  -0.277  0.00  0.00    +0.000 C 
ATOM      9  C   UNL     1       2.048  -0.356   0.157  0.00  0.00    +0.000 C 
ATOM     10  C   UNL     1      -0.650   1.406   1.876  0.00  0.00    +0.000 C 
ATOM     11  C   UNL     1      -2.093   0.121   0.292  0.00  0.00    +0.000 A 
ATOM     12  C   UNL     1      -0.068  -0.039  -1.714  0.00  0.00    +0.000 C 
ATOM     13  C   UNL     1      -2.258   2.125  -1.185  0.00  0.00    +0.000 C 
ATOM     14  C   UNL     1       0.341  -1.277  -1.387  0.00  0.00    +0.000 C 
ATOM     15  C   UNL     1      -1.067   2.835   1.498  0.00  0.00    +0.000 C 
ATOM     16  C   UNL     1      -2.883   0.915  -0.523  0.00  0.00    +0.000 A 
ATOM     17  C   UNL     1      -2.422  -1.175   0.619  0.00  0.00    +0.000 A 
ATOM     18  C   UNL     1      -0.806   4.657  -0.070  0.00  0.00    +0.000 C 
ATOM     19  C   UNL     1      -4.158   0.437  -0.825  0.00  0.00    +0.000 A 
ATOM     20  C   UNL     1      -3.672  -1.673   0.323  0.00  0.00    +0.000 A 
ATOM     21  C   UNL     1      -4.557  -0.840  -0.378  0.00  0.00    +0.000 A 
ENDROOT
BRANCH   6  22
ATOM     22  O   UNL     1       1.341  -2.716   0.293  0.00  0.00    +0.000 OA
ATOM     23  C   UNL     1       0.301  -3.678   0.153  0.00  0.00    +0.000 C 
ENDBRANCH   6  22
BRANCH  20  24
ATOM     24  O   UNL     1      -4.026  -2.940   0.649  0.00  0.00    +0.000 OA
ATOM     25  H   UNL     1      -3.278  -3.358   1.109  0.00  0.00    +0.000 HD
ENDBRANCH  20  24
BRANCH   9  26
ATOM     26  C   UNL     1       3.312  -0.744  -0.619  0.00  0.00    +0.000 C 
ATOM     27  C   UNL     1       3.787  -2.132  -0.179  0.00  0.00    +0.000 C 
BRANCH  26  28
ATOM     28  O   UNL     1       2.986  -0.809  -2.008  0.00  0.00    +0.000 OA
ATOM     29  H   UNL     1       3.007   0.086  -2.384  0.00  0.00    +0.000 HD
ENDBRANCH  26  28
BRANCH  26  30
ATOM     30  C   UNL     1       4.451   0.278  -0.434  0.00  0.00    +0.000 C 
BRANCH  30  31
ATOM     31  C   UNL     1       4.962   0.410   1.006  0.00  0.00    +0.000 C 
ATOM     32  C   UNL     1       6.137   1.373   1.090  0.00  0.00    +0.000 C 
ENDBRANCH  30  31
ENDBRANCH  26  30
ENDBRANCH   9  26
TORSDOF 6
