REMARK  Name = 10634
REMARK  4 active torsions:
REMARK  status: ('A' for Active; 'I' for Inactive)
REMARK    1  A    between atoms: O_1  and  C_10
REMARK    2  A    between atoms: O_2  and  C_21
REMARK    3  A    between atoms: C_4  and  C_16
REMARK    4  A    between atoms: C_7  and  C_18
REMARK                            x       y       z     vdW  Elec       q    Type
REMARK                         _______ _______ _______ _____ _____    ______ ____
ROOT
ATOM      1  C   UNL     1      -1.976  -0.723   0.355  0.00  0.00    +0.000 C 
ATOM      2  C   UNL     1      -2.763   0.548  -0.014  0.00  0.00    +0.000 C 
ATOM      3  C   UNL     1      -0.590  -0.779  -0.295  0.00  0.00    +0.000 C 
ATOM      4  C   UNL     1       0.243   0.467   0.147  0.00  0.00    +0.000 C 
ATOM      5  C   UNL     1       1.672   0.459  -0.525  0.00  0.00    +0.000 C 
ATOM      6  C   UNL     1      -1.981   1.752   0.522  0.00  0.00    +0.000 C 
ATOM      7  C   UNL     1      -0.550   1.792  -0.044  0.00  0.00    +0.000 C 
ATOM      8  C   UNL     1      -4.079   0.249   0.734  0.00  0.00    +0.000 C 
ATOM      9  C   UNL     1      -2.969  -1.851   0.083  0.00  0.00    +0.000 C 
ATOM     10  C   UNL     1       0.129  -2.087   0.067  0.00  0.00    +0.000 C 
ATOM     11  C   UNL     1      -4.333  -1.248   0.466  0.00  0.00    +0.000 C 
ATOM     12  C   UNL     1       2.315  -0.925  -0.363  0.00  0.00    +0.000 C 
ATOM     13  C   UNL     1       2.611   1.528   0.127  0.00  0.00    +0.000 C 
ATOM     14  C   UNL     1      -3.022   0.727  -1.530  0.00  0.00    +0.000 C 
ATOM     15  C   UNL     1       1.612  -2.041  -0.109  0.00  0.00    +0.000 C 
ATOM     16  C   UNL     1       1.585   0.773  -2.038  0.00  0.00    +0.000 C 
ATOM     17  C   UNL     1       3.821  -0.952  -0.377  0.00  0.00    +0.000 C 
ATOM     18  C   UNL     1       3.440   0.964   1.286  0.00  0.00    +0.000 C 
ATOM     19  C   UNL     1       4.385  -0.146   0.801  0.00  0.00    +0.000 C 
ENDROOT
BRANCH   8  20
ATOM     20  O   UNL     1      -5.167   1.060   0.334  0.00  0.00    +0.000 OA
ATOM     21  H   UNL     1      -5.432   0.801  -0.565  0.00  0.00    +0.000 HD
ENDBRANCH   8  20
BRANCH  19  22
ATOM     22  O   UNL     1       5.619   0.433   0.376  0.00  0.00    +0.000 OA
ATOM     23  H   UNL     1       6.207  -0.295   0.111  0.00  0.00    +0.000 HD
ENDBRANCH  19  22
TORSDOF 2
