REMARK  Name = 65373
REMARK  15 active torsions:
REMARK  status: ('A' for Active; 'I' for Inactive)
REMARK    1  A    between atoms: O_1  and  C_11
REMARK    2  A    between atoms: O_2  and  C_12
REMARK    3  A    between atoms: O_3  and  C_19
REMARK    4  A    between atoms: O_3  and  C_25
REMARK    5  A    between atoms: O_4  and  C_20
REMARK    6  A    between atoms: O_4  and  C_26
REMARK    7  A    between atoms: O_5  and  C_23
REMARK    8  A    between atoms: O_6  and  C_24
REMARK    9  A    between atoms: C_7  and  C_8
REMARK   10  A    between atoms: C_7  and  C_9
REMARK   11  A    between atoms: C_7  and  C_11
REMARK   12  A    between atoms: C_8  and  C_10
REMARK   13  A    between atoms: C_8  and  C_12
REMARK   14  A    between atoms: C_9  and  C_13
REMARK   15  A    between atoms: C_10  and  C_14
REMARK                            x       y       z     vdW  Elec       q    Type
REMARK                         _______ _______ _______ _____ _____    ______ ____
ROOT
ATOM      1  C   UNL     1       0.763   0.172   0.570  0.00  0.00    +0.000 C 
ENDROOT
BRANCH   1   2
ATOM      2  C   UNL     1      -0.763  -0.172   0.571  0.00  0.00    +0.000 C 
BRANCH   2   3
ATOM      3  C   UNL     1      -1.514   0.426  -0.651  0.00  0.00    +0.000 C 
BRANCH   3   4
ATOM      4  C   UNL     1      -3.003   0.570  -0.448  0.00  0.00    +0.000 A 
ATOM      5  C   UNL     1      -3.840  -0.477  -0.798  0.00  0.00    +0.000 A 
ATOM      6  C   UNL     1      -3.504   1.747   0.085  0.00  0.00    +0.000 A 
ATOM      7  C   UNL     1      -5.216  -0.343  -0.609  0.00  0.00    +0.000 A 
ATOM      8  C   UNL     1      -4.880   1.881   0.273  0.00  0.00    +0.000 A 
ATOM      9  C   UNL     1      -5.736   0.835  -0.074  0.00  0.00    +0.000 A 
BRANCH   7  10
ATOM     10  O   UNL     1      -6.042  -1.371  -0.952  0.00  0.00    +0.000 OA
ATOM     11  C   UNL     1      -6.321  -2.342   0.055  0.00  0.00    +0.000 C 
ENDBRANCH   7  10
BRANCH   9  12
ATOM     12  O   UNL     1      -7.077   0.978   0.115  0.00  0.00    +0.000 OA
ATOM     13  H   UNL     1      -7.252   1.856   0.494  0.00  0.00    +0.000 HD
ENDBRANCH   9  12
ENDBRANCH   3   4
ENDBRANCH   2   3
BRANCH   2  14
ATOM     14  C   UNL     1      -1.031  -1.686   0.655  0.00  0.00    +0.000 C 
BRANCH  14  15
ATOM     15  O   UNL     1      -0.351  -2.233   1.780  0.00  0.00    +0.000 OA
ATOM     16  H   UNL     1      -0.675  -1.772   2.572  0.00  0.00    +0.000 HD
ENDBRANCH  14  15
ENDBRANCH   2  14
ENDBRANCH   1   2
BRANCH   1  17
ATOM     17  C   UNL     1       1.513  -0.426  -0.651  0.00  0.00    +0.000 C 
BRANCH  17  18
ATOM     18  C   UNL     1       3.003  -0.570  -0.448  0.00  0.00    +0.000 A 
ATOM     19  C   UNL     1       3.840   0.477  -0.798  0.00  0.00    +0.000 A 
ATOM     20  C   UNL     1       3.504  -1.747   0.085  0.00  0.00    +0.000 A 
ATOM     21  C   UNL     1       5.216   0.344  -0.610  0.00  0.00    +0.000 A 
ATOM     22  C   UNL     1       4.880  -1.880   0.273  0.00  0.00    +0.000 A 
ATOM     23  C   UNL     1       5.736  -0.835  -0.074  0.00  0.00    +0.000 A 
BRANCH  21  24
ATOM     24  O   UNL     1       6.042   1.371  -0.952  0.00  0.00    +0.000 OA
ATOM     25  C   UNL     1       6.321   2.342   0.055  0.00  0.00    +0.000 C 
ENDBRANCH  21  24
BRANCH  23  26
ATOM     26  O   UNL     1       7.077  -0.978   0.115  0.00  0.00    +0.000 OA
ATOM     27  H   UNL     1       7.522  -0.178  -0.215  0.00  0.00    +0.000 HD
ENDBRANCH  23  26
ENDBRANCH  17  18
ENDBRANCH   1  17
BRANCH   1  28
ATOM     28  C   UNL     1       1.032   1.686   0.655  0.00  0.00    +0.000 C 
BRANCH  28  29
ATOM     29  O   UNL     1       0.352   2.233   1.780  0.00  0.00    +0.000 OA
ATOM     30  H   UNL     1      -0.577   2.366   1.526  0.00  0.00    +0.000 HD
ENDBRANCH  28  29
ENDBRANCH   1  28
TORSDOF 13
