REMARK  Name = 70882
REMARK  8 active torsions:
REMARK  status: ('A' for Active; 'I' for Inactive)
REMARK    1  A    between atoms: O_1  and  C_14
REMARK    2  A    between atoms: O_1  and  C_22
REMARK    3  A    between atoms: O_2  and  C_15
REMARK    4  A    between atoms: O_2  and  C_23
REMARK    5  A    between atoms: C_5  and  C_7
REMARK    6  A    between atoms: C_7  and  C_13
REMARK    7  A    between atoms: C_8  and  C_12
REMARK    8  A    between atoms: C_12  and  C_16
REMARK                            x       y       z     vdW  Elec       q    Type
REMARK                         _______ _______ _______ _____ _____    ______ ____
ROOT
ATOM      1  N   UNL     1       1.370  -0.937   0.222  0.00  0.00    +0.000 NA
ATOM      2  C   UNL     1      -0.836   0.073   0.047  0.00  0.00    +0.000 A 
ATOM      3  C   UNL     1       0.559   0.131   0.043  0.00  0.00    +0.000 A 
ATOM      4  C   UNL     1      -1.435  -1.187   0.252  0.00  0.00    +0.000 A 
ATOM      5  C   UNL     1       0.762  -2.126   0.416  0.00  0.00    +0.000 A 
ATOM      6  C   UNL     1      -0.613  -2.305   0.440  0.00  0.00    +0.000 A 
ATOM      7  C   UNL     1      -1.643   1.207  -0.144  0.00  0.00    +0.000 A 
ATOM      8  C   UNL     1      -2.836  -1.284   0.262  0.00  0.00    +0.000 A 
ATOM      9  C   UNL     1      -3.032   1.092  -0.130  0.00  0.00    +0.000 A 
ATOM     10  C   UNL     1      -3.628  -0.151   0.072  0.00  0.00    +0.000 A 
ENDROOT
BRANCH   9  11
ATOM     11  O   UNL     1      -3.798   2.204  -0.317  0.00  0.00    +0.000 OA
ATOM     12  C   UNL     1      -4.168   2.939   0.848  0.00  0.00    +0.000 C 
ENDBRANCH   9  11
BRANCH  10  13
ATOM     13  O   UNL     1      -4.984  -0.274   0.086  0.00  0.00    +0.000 OA
ATOM     14  C   UNL     1      -5.625  -0.539  -1.160  0.00  0.00    +0.000 C 
ENDBRANCH  10  13
BRANCH   5  15
ATOM     15  C   UNL     1       1.654  -3.306   0.614  0.00  0.00    +0.000 C 
ATOM     16  C   UNL     1       2.006  -3.994  -0.702  0.00  0.00    +0.000 C 
ENDBRANCH   5  15
BRANCH   3  17
ATOM     17  C   UNL     1       1.282   1.424  -0.167  0.00  0.00    +0.000 C 
BRANCH  17  18
ATOM     18  C   UNL     1       2.790   1.292  -0.139  0.00  0.00    +0.000 A 
ATOM     19  C   UNL     1       3.467   1.036  -1.319  0.00  0.00    +0.000 A 
ATOM     20  C   UNL     1       3.457   1.430   1.065  0.00  0.00    +0.000 A 
ATOM     21  C   UNL     1       4.856   0.915  -1.293  0.00  0.00    +0.000 A 
ATOM     22  C   UNL     1       4.847   1.309   1.091  0.00  0.00    +0.000 A 
ATOM     23  C   UNL     1       5.546   1.051  -0.088  0.00  0.00    +0.000 A 
ENDBRANCH  17  18
ENDBRANCH   3  17
TORSDOF 5
