REMARK  Name = 448013
REMARK  11 active torsions:
REMARK  status: ('A' for Active; 'I' for Inactive)
REMARK    1  A    between atoms: O_4  and  C_18
REMARK    2  A    between atoms: O_5  and  C_24
REMARK    3  A    between atoms: C_9  and  C_13
REMARK    4  A    between atoms: C_16  and  C_21
REMARK    5  A    between atoms: C_17  and  C_22
REMARK    6  A    between atoms: C_19  and  C_26
REMARK    7  A    between atoms: C_20  and  C_28
REMARK    8  A    between atoms: C_20  and  C_29
REMARK    9  A    between atoms: C_21  and  C_30
REMARK   10  A    between atoms: C_31  and  C_32
REMARK   11  A    between atoms: C_34  and  C_35
REMARK                            x       y       z     vdW  Elec       q    Type
REMARK                         _______ _______ _______ _____ _____    ______ ____
ROOT
ATOM      1  O   UNL     1       0.012  -4.872  -0.721  0.00  0.00    +0.000 OA
ATOM      2  O   UNL     1       0.612  -0.916   0.340  0.00  0.00    +0.000 OA
ATOM      3  O   UNL     1      -3.638   2.588   1.242  0.00  0.00    +0.000 OA
ATOM      4  O   UNL     1       1.237   0.319   2.192  0.00  0.00    +0.000 OA
ATOM      5  C   UNL     1      -0.875  -4.053   0.054  0.00  0.00    +0.000 C 
ATOM      6  C   UNL     1       0.635  -3.959   0.193  0.00  0.00    +0.000 C 
ATOM      7  C   UNL     1      -1.722  -3.128  -0.766  0.00  0.00    +0.000 C 
ATOM      8  C   UNL     1       1.530  -2.969  -0.492  0.00  0.00    +0.000 C 
ATOM      9  C   UNL     1      -1.593  -4.883   1.071  0.00  0.00    +0.000 C 
ATOM     10  C   UNL     1      -2.721  -2.376   0.119  0.00  0.00    +0.000 C 
ATOM     11  C   UNL     1      -3.521  -1.331  -0.670  0.00  0.00    +0.000 C 
ATOM     12  C   UNL     1       1.797  -1.736   0.379  0.00  0.00    +0.000 C 
ATOM     13  C   UNL     1      -4.386  -0.426   0.240  0.00  0.00    +0.000 C 
ATOM     14  C   UNL     1      -4.994   0.794  -0.508  0.00  0.00    +0.000 C 
ATOM     15  C   UNL     1      -3.962   1.837  -1.018  0.00  0.00    +0.000 C 
ATOM     16  C   UNL     1      -1.668   2.905  -0.126  0.00  0.00    +0.000 C 
ATOM     17  C   UNL     1      -5.518  -1.244   0.886  0.00  0.00    +0.000 C 
ATOM     18  C   UNL     1      -3.128   2.431   0.126  0.00  0.00    +0.000 C 
ATOM     19  C   UNL     1      -0.709   2.264   0.934  0.00  0.00    +0.000 C 
ATOM     20  C   UNL     1      -0.867   0.746   1.069  0.00  0.00    +0.000 C 
ATOM     21  C   UNL     1      -4.660   2.995  -1.741  0.00  0.00    +0.000 C 
ATOM     22  C   UNL     1       0.455   0.050   1.291  0.00  0.00    +0.000 C 
ATOM     23  C   UNL     1      -1.664   4.441   0.015  0.00  0.00    +0.000 C 
ATOM     24  C   UNL     1      -1.130   2.567  -1.530  0.00  0.00    +0.000 C 
ENDROOT
BRANCH  12  25
ATOM     25  C   UNL     1       2.953  -0.961  -0.171  0.00  0.00    +0.000 C 
ATOM     26  C   UNL     1       2.755  -0.476  -1.583  0.00  0.00    +0.000 C 
ATOM     27  C   UNL     1       4.087  -0.668   0.497  0.00  0.00    +0.000 C 
BRANCH  27  30
ATOM     28  S   UNL     1       7.416   0.730  -1.013  0.00  0.00    +0.000 S 
ATOM     29  N   UNL     1       5.256   1.423   0.225  0.00  0.00    +0.000 NA
ATOM     30  C   UNL     1       5.225   0.069   0.023  0.00  0.00    +0.000 A 
ATOM     31  C   UNL     1       6.286  -0.499  -0.622  0.00  0.00    +0.000 A 
ATOM     32  C   UNL     1       6.376   1.884  -0.285  0.00  0.00    +0.000 A 
ATOM     33  C   UNL     1       6.783   3.306  -0.266  0.00  0.00    +0.000 C 
ENDBRANCH  27  30
ENDBRANCH  12  25
BRANCH  14  34
ATOM     34  O   UNL     1      -5.761   0.300  -1.609  0.00  0.00    +0.000 OA
ATOM     35  H   UNL     1      -5.144   0.014  -2.304  0.00  0.00    +0.000 HD
ENDBRANCH  14  34
BRANCH  19  36
ATOM     36  O   UNL     1      -0.897   2.848   2.226  0.00  0.00    +0.000 OA
ATOM     37  H   UNL     1      -1.815   2.679   2.500  0.00  0.00    +0.000 HD
ENDBRANCH  19  36
TORSDOF 4
