REMARK  Name = 5289086
REMARK  11 active torsions:
REMARK  status: ('A' for Active; 'I' for Inactive)
REMARK    1  A    between atoms: O_2  and  C_7
REMARK    2  A    between atoms: O_3  and  C_9
REMARK    3  A    between atoms: O_4  and  C_10
REMARK    4  A    between atoms: O_4  and  C_18
REMARK    5  A    between atoms: C_6  and  C_7
REMARK    6  A    between atoms: C_6  and  C_11
REMARK    7  A    between atoms: C_8  and  C_13
REMARK    8  A    between atoms: C_9  and  C_16
REMARK    9  A    between atoms: C_13  and  C_17
REMARK   10  A    between atoms: C_19  and  C_20
REMARK   11  A    between atoms: C_19  and  C_21
REMARK                            x       y       z     vdW  Elec       q    Type
REMARK                         _______ _______ _______ _____ _____    ______ ____
ROOT
ATOM      1  O   UNL     1       1.982  -3.071   0.313  0.00  0.00    +0.000 OA
ATOM      2  C   UNL     1       1.149   0.384   0.419  0.00  0.00    +0.000 C 
ATOM      3  C   UNL     1       2.492   1.000  -0.104  0.00  0.00    +0.000 C 
ATOM      4  C   UNL     1       0.877  -0.993  -0.234  0.00  0.00    +0.000 C 
ATOM      5  C   UNL     1       3.660   0.003   0.080  0.00  0.00    +0.000 C 
ATOM      6  C   UNL     1       3.401  -1.357  -0.557  0.00  0.00    +0.000 C 
ATOM      7  C   UNL     1       2.079  -1.912  -0.089  0.00  0.00    +0.000 C 
ATOM      8  C   UNL     1       2.878   2.314   0.595  0.00  0.00    +0.000 C 
ENDROOT
BRANCH   2  10
ATOM      9  O   UNL     1      -0.152   1.703  -1.186  0.00  0.00    +0.000 OA
ATOM     10  C   UNL     1      -0.035   1.303   0.170  0.00  0.00    +0.000 C 
ATOM     11  C   UNL     1      -1.179   0.853  -0.658  0.00  0.00    +0.000 C 
ATOM     12  C   UNL     1      -0.154   2.372   1.166  0.00  0.00    +0.000 C 
BRANCH  11  13
ATOM     13  C   UNL     1      -2.512   1.496  -0.596  0.00  0.00    +0.000 C 
BRANCH  13  14
ATOM     14  C   UNL     1      -3.496   0.832   0.338  0.00  0.00    +0.000 C 
ATOM     15  C   UNL     1      -4.303  -0.213   0.075  0.00  0.00    +0.000 C 
ATOM     16  C   UNL     1      -5.263  -0.828   1.054  0.00  0.00    +0.000 C 
ATOM     17  C   UNL     1      -4.284  -0.873  -1.278  0.00  0.00    +0.000 C 
ENDBRANCH  13  14
ENDBRANCH  11  13
ENDBRANCH   2  10
BRANCH   2  18
ATOM     18  O   UNL     1       1.252   0.161   1.834  0.00  0.00    +0.000 OA
ATOM     19  H   UNL     1       0.439  -0.288   2.124  0.00  0.00    +0.000 HD
ENDBRANCH   2  18
BRANCH   3  20
ATOM     20  O   UNL     1       2.384   1.316  -1.498  0.00  0.00    +0.000 OA
ATOM     21  H   UNL     1       1.750   2.045  -1.601  0.00  0.00    +0.000 HD
ENDBRANCH   3  20
BRANCH   4  22
ATOM     22  O   UNL     1      -0.240  -1.619   0.382  0.00  0.00    +0.000 OA
ATOM     23  C   UNL     1      -0.537  -2.871  -0.224  0.00  0.00    +0.000 C 
ENDBRANCH   4  22
TORSDOF 6
