REMARK  Name = 11998575
REMARK  10 active torsions:
REMARK  status: ('A' for Active; 'I' for Inactive)
REMARK    1  A    between atoms: O_2  and  C_19
REMARK    2  A    between atoms: O_2  and  C_22
REMARK    3  A    between atoms: O_3  and  C_20
REMARK    4  A    between atoms: O_3  and  C_26
REMARK    5  A    between atoms: O_4  and  C_14
REMARK    6  A    between atoms: O_6  and  C_29
REMARK    7  A    between atoms: O_6  and  C_30
REMARK    8  A    between atoms: C_10  and  C_14
REMARK    9  A    between atoms: C_14  and  C_21
REMARK   10  A    between atoms: C_22  and  C_23
REMARK                            x       y       z     vdW  Elec       q    Type
REMARK                         _______ _______ _______ _____ _____    ______ ____
ROOT
ATOM      1  O   UNL     1       1.810   2.015   0.183  0.00  0.00    +0.000 OA
ATOM      2  O   UNL     1       3.790   3.070  -0.224  0.00  0.00    +0.000 OA
ATOM      3  C   UNL     1       3.129  -0.486   0.129  0.00  0.00    +0.000 A 
ATOM      4  C   UNL     1       1.682  -0.417   0.369  0.00  0.00    +0.000 A 
ATOM      5  C   UNL     1       3.852   0.702  -0.074  0.00  0.00    +0.000 A 
ATOM      6  C   UNL     1       5.921  -0.531  -0.340  0.00  0.00    +0.000 A 
ATOM      7  C   UNL     1       1.064   0.835   0.389  0.00  0.00    +0.000 A 
ATOM      8  C   UNL     1       5.237   0.679  -0.306  0.00  0.00    +0.000 A 
ATOM      9  C   UNL     1       3.849  -1.696   0.089  0.00  0.00    +0.000 A 
ATOM     10  C   UNL     1       0.853  -1.530   0.584  0.00  0.00    +0.000 A 
ATOM     11  C   UNL     1       5.228  -1.718  -0.143  0.00  0.00    +0.000 A 
ATOM     12  C   UNL     1       3.179   2.023  -0.050  0.00  0.00    +0.000 A 
ATOM     13  C   UNL     1      -0.306   1.004   0.608  0.00  0.00    +0.000 A 
ATOM     14  C   UNL     1      -1.101  -0.116   0.817  0.00  0.00    +0.000 A 
ATOM     15  C   UNL     1      -0.523  -1.382   0.805  0.00  0.00    +0.000 A 
ENDROOT
BRANCH  15  16
ATOM     16  O   UNL     1      -1.289  -2.491   1.008  0.00  0.00    +0.000 OA
ATOM     17  C   UNL     1      -1.861  -3.102  -0.146  0.00  0.00    +0.000 C 
ENDBRANCH  15  16
BRANCH   6  18
ATOM     18  C   UNL     1       7.391  -0.555  -0.588  0.00  0.00    +0.000 C 
ATOM     19  C   UNL     1       7.778   0.098  -1.919  0.00  0.00    +0.000 C 
BRANCH  18  20
ATOM     20  O   UNL     1       8.078   0.126   0.469  0.00  0.00    +0.000 OA
ATOM     21  H   UNL     1       9.031   0.069   0.282  0.00  0.00    +0.000 HD
ENDBRANCH  18  20
ENDBRANCH   6  18
BRANCH  14  22
ATOM     22  O   UNL     1      -2.437   0.037   1.030  0.00  0.00    +0.000 OA
BRANCH  22  23
ATOM     23  C   UNL     1      -3.068   1.159   0.414  0.00  0.00    +0.000 C 
BRANCH  23  24
ATOM     24  C   UNL     1      -4.506   0.824   0.144  0.00  0.00    +0.000 A 
ATOM     25  C   UNL     1      -5.469   1.096   1.108  0.00  0.00    +0.000 A 
ATOM     26  C   UNL     1      -4.861   0.242  -1.069  0.00  0.00    +0.000 A 
ATOM     27  C   UNL     1      -6.806   0.784   0.857  0.00  0.00    +0.000 A 
ATOM     28  C   UNL     1      -6.197  -0.070  -1.320  0.00  0.00    +0.000 A 
ATOM     29  C   UNL     1      -7.169   0.201  -0.357  0.00  0.00    +0.000 A 
BRANCH  29  30
ATOM     30  O   UNL     1      -8.473  -0.103  -0.602  0.00  0.00    +0.000 OA
ATOM     31  C   UNL     1      -8.776  -0.697  -1.863  0.00  0.00    +0.000 C 
ENDBRANCH  29  30
ENDBRANCH  23  24
ENDBRANCH  22  23
ENDBRANCH  14  22
TORSDOF 7
