REMARK  Name = 91439
REMARK  5 active torsions:
REMARK  status: ('A' for Active; 'I' for Inactive)
REMARK    1  A    between atoms: O_3  and  C_26
REMARK    2  A    between atoms: C_4  and  C_19
REMARK    3  A    between atoms: C_10  and  C_22
REMARK    4  A    between atoms: C_14  and  C_23
REMARK    5  A    between atoms: C_29  and  C_30
REMARK                            x       y       z     vdW  Elec       q    Type
REMARK                         _______ _______ _______ _____ _____    ______ ____
ROOT
ATOM      1  O   UNL     1      -3.313  -0.898  -0.371  0.00  0.00    +0.000 OA
ATOM      2  O   UNL     1      -4.834   0.220   1.096  0.00  0.00    +0.000 OA
ATOM      3  C   UNL     1      -0.468   0.950  -0.047  0.00  0.00    +0.000 C 
ATOM      4  C   UNL     1       0.164  -0.410   0.331  0.00  0.00    +0.000 C 
ATOM      5  C   UNL     1      -1.889   0.774   0.568  0.00  0.00    +0.000 C 
ATOM      6  C   UNL     1       1.593  -0.594  -0.186  0.00  0.00    +0.000 C 
ATOM      7  C   UNL     1       2.492   0.566   0.330  0.00  0.00    +0.000 C 
ATOM      8  C   UNL     1      -2.171  -0.740   0.465  0.00  0.00    +0.000 C 
ATOM      9  C   UNL     1       3.971   0.466  -0.241  0.00  0.00    +0.000 C 
ATOM     10  C   UNL     1      -0.909  -1.412  -0.079  0.00  0.00    +0.000 C 
ATOM     11  C   UNL     1       0.377   2.040   0.630  0.00  0.00    +0.000 C 
ATOM     12  C   UNL     1       1.846   1.971   0.179  0.00  0.00    +0.000 C 
ATOM     13  C   UNL     1      -3.098   1.419  -0.119  0.00  0.00    +0.000 C 
ATOM     14  C   UNL     1       4.327  -1.018  -0.608  0.00  0.00    +0.000 C 
ATOM     15  C   UNL     1       2.155  -1.958   0.269  0.00  0.00    +0.000 C 
ATOM     16  C   UNL     1      -4.130   0.274  -0.154  0.00  0.00    +0.000 C 
ATOM     17  C   UNL     1       3.680  -1.997   0.376  0.00  0.00    +0.000 C 
ATOM     18  C   UNL     1      -0.506   1.194  -1.576  0.00  0.00    +0.000 C 
ATOM     19  C   UNL     1       4.929   1.021   0.855  0.00  0.00    +0.000 C 
ATOM     20  C   UNL     1       5.836  -1.280  -0.751  0.00  0.00    +0.000 C 
ATOM     21  C   UNL     1       4.147   1.311  -1.527  0.00  0.00    +0.000 C 
ATOM     22  C   UNL     1      -3.555   2.693   0.583  0.00  0.00    +0.000 C 
ATOM     23  C   UNL     1       6.406   0.754   0.595  0.00  0.00    +0.000 C 
ATOM     24  C   UNL     1      -5.122   0.430  -1.312  0.00  0.00    +0.000 C 
ATOM     25  C   UNL     1       6.666  -0.733   0.403  0.00  0.00    +0.000 C 
ATOM     26  C   UNL     1      -6.186  -0.664  -1.284  0.00  0.00    +0.000 C 
ATOM     27  C   UNL     1      -5.774  -0.851   1.179  0.00  0.00    +0.000 C 
ATOM     28  C   UNL     1      -6.845  -0.730   0.096  0.00  0.00    +0.000 C 
ATOM     29  C   UNL     1      -7.842  -1.881   0.176  0.00  0.00    +0.000 C 
ENDROOT
BRANCH  25  30
ATOM     30  O   UNL     1       8.050  -0.916   0.122  0.00  0.00    +0.000 OA
ATOM     31  H   UNL     1       8.201  -1.870   0.004  0.00  0.00    +0.000 HD
ENDBRANCH  25  30
TORSDOF 1
