REMARK  Name = 5281107
REMARK  12 active torsions:
REMARK  status: ('A' for Active; 'I' for Inactive)
REMARK    1  A    between atoms: O_1  and  C_25
REMARK    2  A    between atoms: O_2  and  C_26
REMARK    3  A    between atoms: C_3  and  C_11
REMARK    4  A    between atoms: C_4  and  C_9
REMARK    5  A    between atoms: C_9  and  C_14
REMARK    6  A    between atoms: C_9  and  C_15
REMARK    7  A    between atoms: C_16  and  C_18
REMARK    8  A    between atoms: C_17  and  C_19
REMARK    9  A    between atoms: C_19  and  C_21
REMARK   10  A    between atoms: C_19  and  C_23
REMARK   11  A    between atoms: C_21  and  C_28
REMARK   12  A    between atoms: C_21  and  C_29
REMARK                            x       y       z     vdW  Elec       q    Type
REMARK                         _______ _______ _______ _____ _____    ______ ____
ROOT
ATOM      1  C   UNL     1       0.917   1.411   0.039  0.00  0.00    +0.000 C 
ATOM      2  C   UNL     1       2.280   0.890  -0.477  0.00  0.00    +0.000 C 
ATOM      3  C   UNL     1      -0.003   0.882  -1.090  0.00  0.00    +0.000 C 
ATOM      4  C   UNL     1       1.964  -0.530  -1.000  0.00  0.00    +0.000 C 
ATOM      5  C   UNL     1       0.446  -0.571  -1.257  0.00  0.00    +0.000 C 
ATOM      6  C   UNL     1       0.799   2.948   0.085  0.00  0.00    +0.000 C 
ATOM      7  C   UNL     1      -1.439   1.261  -0.849  0.00  0.00    +0.000 C 
ATOM      8  C   UNL     1       0.576   0.821   1.432  0.00  0.00    +0.000 C 
ATOM      9  C   UNL     1      -0.659   3.401   0.278  0.00  0.00    +0.000 C 
ATOM     10  C   UNL     1      -1.634   2.758  -0.721  0.00  0.00    +0.000 C 
ATOM     11  C   UNL     1      -2.459   0.397  -0.758  0.00  0.00    +0.000 C 
ENDROOT
BRANCH  11  12
ATOM     12  C   UNL     1      -3.824   0.806  -0.534  0.00  0.00    +0.000 C 
ATOM     13  C   UNL     1      -4.846  -0.059  -0.444  0.00  0.00    +0.000 C 
ATOM     14  C   UNL     1      -6.255   0.401  -0.166  0.00  0.00    +0.000 C 
ATOM     15  C   UNL     1      -4.677  -1.506  -0.564  0.00  0.00    +0.000 C 
ATOM     16  C   UNL     1      -6.904  -0.382   0.978  0.00  0.00    +0.000 C 
ATOM     17  C   UNL     1      -5.359  -2.334   0.500  0.00  0.00    +0.000 C 
ATOM     18  C   UNL     1      -6.807  -1.891   0.731  0.00  0.00    +0.000 C 
ATOM     19  C   UNL     1      -4.010  -2.075  -1.581  0.00  0.00    +0.000 C 
BRANCH  16  20
ATOM     20  O   UNL     1      -8.274  -0.002   1.069  0.00  0.00    +0.000 OA
ATOM     21  H   UNL     1      -8.670  -0.509   1.798  0.00  0.00    +0.000 HD
ENDBRANCH  16  20
BRANCH  17  22
ATOM     22  O   UNL     1      -4.618  -2.199   1.714  0.00  0.00    +0.000 OA
ATOM     23  H   UNL     1      -3.715  -2.519   1.547  0.00  0.00    +0.000 HD
ENDBRANCH  17  22
ENDBRANCH  11  12
BRANCH   2  24
ATOM     24  C   UNL     1       3.434   0.914   0.514  0.00  0.00    +0.000 C 
ATOM     25  C   UNL     1       3.707   2.340   1.000  0.00  0.00    +0.000 C 
BRANCH  24  26
ATOM     26  C   UNL     1       4.680   0.337  -0.115  0.00  0.00    +0.000 C 
ATOM     27  C   UNL     1       5.317  -0.748   0.349  0.00  0.00    +0.000 C 
BRANCH  27  28
ATOM     28  C   UNL     1       6.557  -1.334  -0.290  0.00  0.00    +0.000 C 
ATOM     29  C   UNL     1       6.215  -2.743  -0.789  0.00  0.00    +0.000 C 
BRANCH  28  30
ATOM     30  C   UNL     1       7.759  -1.328   0.697  0.00  0.00    +0.000 C 
ATOM     31  C   UNL     1       8.103   0.086   1.182  0.00  0.00    +0.000 C 
ATOM     32  C   UNL     1       9.014  -1.950   0.066  0.00  0.00    +0.000 C 
ENDBRANCH  28  30
ENDBRANCH  27  28
ENDBRANCH  24  26
ENDBRANCH   2  24
TORSDOF 7
