REMARK  Name = 9836181
REMARK  4 active torsions:
REMARK  status: ('A' for Active; 'I' for Inactive)
REMARK    1  A    between atoms: O_1  and  C_10
REMARK    2  A    between atoms: O_2  and  C_21
REMARK    3  A    between atoms: C_6  and  C_17
REMARK    4  A    between atoms: C_9  and  C_22
REMARK                            x       y       z     vdW  Elec       q    Type
REMARK                         _______ _______ _______ _____ _____    ______ ____
ROOT
ATOM      1  O   UNL     1       4.963  -1.392   0.635  0.00  0.00    +0.000 OA
ATOM      2  C   UNL     1      -0.178  -0.583   0.245  0.00  0.00    +0.000 C 
ATOM      3  C   UNL     1       0.644   0.670  -0.220  0.00  0.00    +0.000 C 
ATOM      4  C   UNL     1      -1.679  -0.519  -0.224  0.00  0.00    +0.000 C 
ATOM      5  C   UNL     1       2.069   0.525   0.344  0.00  0.00    +0.000 C 
ATOM      6  C   UNL     1      -2.279   0.813   0.328  0.00  0.00    +0.000 C 
ATOM      7  C   UNL     1       2.768  -0.743  -0.192  0.00  0.00    +0.000 C 
ATOM      8  C   UNL     1      -0.036   1.982   0.218  0.00  0.00    +0.000 C 
ATOM      9  C   UNL     1       0.537  -1.918  -0.099  0.00  0.00    +0.000 C 
ATOM     10  C   UNL     1      -1.515   2.040  -0.170  0.00  0.00    +0.000 C 
ATOM     11  C   UNL     1       2.012  -1.958   0.334  0.00  0.00    +0.000 C 
ATOM     12  C   UNL     1      -2.496  -1.694   0.385  0.00  0.00    +0.000 C 
ATOM     13  C   UNL     1       3.108   1.626   0.147  0.00  0.00    +0.000 C 
ATOM     14  C   UNL     1      -3.784   0.948   0.059  0.00  0.00    +0.000 C 
ATOM     15  C   UNL     1      -1.775  -0.604  -1.769  0.00  0.00    +0.000 C 
ATOM     16  C   UNL     1       4.147  -0.510   0.398  0.00  0.00    +0.000 C 
ATOM     17  C   UNL     1      -4.005  -1.572   0.162  0.00  0.00    +0.000 C 
ATOM     18  C   UNL     1       4.409   0.966   0.628  0.00  0.00    +0.000 C 
ATOM     19  C   UNL     1      -4.555  -0.234   0.643  0.00  0.00    +0.000 C 
ATOM     20  C   UNL     1       2.951  -0.815  -1.720  0.00  0.00    +0.000 C 
ENDROOT
BRANCH   8  21
ATOM     21  O   UNL     1       0.618   3.088  -0.400  0.00  0.00    +0.000 OA
ATOM     22  H   UNL     1       0.557   2.975  -1.364  0.00  0.00    +0.000 HD
ENDBRANCH   8  21
BRANCH  19  23
ATOM     23  O   UNL     1      -5.923  -0.115   0.266  0.00  0.00    +0.000 OA
ATOM     24  H   UNL     1      -6.250   0.735   0.608  0.00  0.00    +0.000 HD
ENDBRANCH  19  23
TORSDOF 2
