REMARK  Name = 11611800
REMARK  14 active torsions:
REMARK  status: ('A' for Active; 'I' for Inactive)
REMARK    1  A    between atoms: O_1  and  C_9
REMARK    2  A    between atoms: O_1  and  C_15
REMARK    3  A    between atoms: O_2  and  C_10
REMARK    4  A    between atoms: O_3  and  C_13
REMARK    5  A    between atoms: O_5  and  C_32
REMARK    6  A    between atoms: C_7  and  C_8
REMARK    7  A    between atoms: C_8  and  C_11
REMARK    8  A    between atoms: C_10  and  C_12
REMARK    9  A    between atoms: C_10  and  C_17
REMARK   10  A    between atoms: C_11  and  C_24
REMARK   11  A    between atoms: C_14  and  C_15
REMARK   12  A    between atoms: C_16  and  C_27
REMARK   13  A    between atoms: C_27  and  C_31
REMARK   14  A    between atoms: C_28  and  C_32
REMARK                            x       y       z     vdW  Elec       q    Type
REMARK                         _______ _______ _______ _____ _____    ______ ____
ROOT
ATOM      1  C   UNL     1      -2.604   2.010  -0.579  0.00  0.00    +0.000 A 
ATOM      2  C   UNL     1       0.132   2.149  -0.278  0.00  0.00    +0.000 A 
ATOM      3  C   UNL     1      -2.088   2.709   0.491  0.00  0.00    +0.000 A 
ATOM      4  C   UNL     1      -1.802   1.378  -1.504  0.00  0.00    +0.000 A 
ATOM      5  C   UNL     1      -0.703   2.779   0.643  0.00  0.00    +0.000 A 
ATOM      6  C   UNL     1      -0.417   1.448  -1.352  0.00  0.00    +0.000 A 
ENDROOT
BRANCH   1   7
ATOM      7  C   UNL     1      -4.118   1.934  -0.745  0.00  0.00    +0.000 C 
BRANCH   7   8
ATOM      8  C   UNL     1      -4.746   0.793  -0.018  0.00  0.00    +0.000 A 
ATOM      9  C   UNL     1      -4.908  -0.436  -0.658  0.00  0.00    +0.000 A 
ATOM     10  C   UNL     1      -5.171   0.955   1.300  0.00  0.00    +0.000 A 
ATOM     11  C   UNL     1      -5.496  -1.503   0.022  0.00  0.00    +0.000 A 
ATOM     12  C   UNL     1      -5.759  -0.112   1.979  0.00  0.00    +0.000 A 
ATOM     13  C   UNL     1      -5.922  -1.341   1.340  0.00  0.00    +0.000 A 
BRANCH  11  15
ATOM     14  O   UNL     1      -6.173  -3.792  -0.139  0.00  0.00    +0.000 OA
ATOM     15  C   UNL     1      -5.667  -2.785  -0.644  0.00  0.00    +0.000 C 
BRANCH  15  16
ATOM     16  O   UNL     1      -5.201  -2.773  -1.923  0.00  0.00    +0.000 OA
ATOM     17  H   UNL     1      -5.321  -3.642  -2.363  0.00  0.00    +0.000 HD
ENDBRANCH  15  16
ENDBRANCH  11  15
ENDBRANCH   7   8
BRANCH   7  18
ATOM     18  O   UNL     1      -4.694   3.204  -0.388  0.00  0.00    +0.000 OA
ATOM     19  H   UNL     1      -5.660   3.100  -0.368  0.00  0.00    +0.000 HD
ENDBRANCH   7  18
ENDBRANCH   1   7
BRANCH   2  20
ATOM     20  C   UNL     1       1.613   2.224  -0.116  0.00  0.00    +0.000 C 
BRANCH  20  21
ATOM     21  O   UNL     1       2.057   1.130   0.677  0.00  0.00    +0.000 OA
BRANCH  21  23
ATOM     22  C   UNL     1       3.569  -0.623   0.051  0.00  0.00    +0.000 A 
ATOM     23  C   UNL     1       3.335   0.687   0.457  0.00  0.00    +0.000 A 
ATOM     24  C   UNL     1       4.876  -1.057  -0.168  0.00  0.00    +0.000 A 
ATOM     25  C   UNL     1       5.943  -0.178   0.020  0.00  0.00    +0.000 A 
ATOM     26  C   UNL     1       4.394   1.568   0.646  0.00  0.00    +0.000 A 
ATOM     27  C   UNL     1       5.702   1.134   0.427  0.00  0.00    +0.000 A 
BRANCH  25  29
ATOM     28  O   UNL     1       7.663  -1.791  -0.022  0.00  0.00    +0.000 OA
ATOM     29  C   UNL     1       7.316  -0.608  -0.203  0.00  0.00    +0.000 C 
ATOM     30  C   UNL     1       8.367   0.394  -0.666  0.00  0.00    +0.000 C 
ENDBRANCH  25  29
BRANCH  24  31
ATOM     31  O   UNL     1       5.110  -2.341  -0.566  0.00  0.00    +0.000 OA
ATOM     32  H   UNL     1       6.047  -2.472  -0.780  0.00  0.00    +0.000 HD
ENDBRANCH  24  31
BRANCH  22  33
ATOM     33  C   UNL     1       2.424  -1.564  -0.149  0.00  0.00    +0.000 C 
BRANCH  33  34
ATOM     34  C   UNL     1       2.076  -2.331   1.133  0.00  0.00    +0.000 C 
ATOM     35  C   UNL     1       0.890  -3.261   0.930  0.00  0.00    +0.000 C 
ENDBRANCH  33  34
ENDBRANCH  22  33
ENDBRANCH  21  23
ENDBRANCH  20  21
ENDBRANCH   2  20
TORSDOF 12
