REMARK  Name = 6010
REMARK  4 active torsions:
REMARK  status: ('A' for Active; 'I' for Inactive)
REMARK    1  A    between atoms: O_1  and  C_7
REMARK    2  A    between atoms: C_3  and  C_14
REMARK    3  A    between atoms: C_7  and  C_18
REMARK    4  A    between atoms: C_9  and  C_19
REMARK                            x       y       z     vdW  Elec       q    Type
REMARK                         _______ _______ _______ _____ _____    ______ ____
ROOT
ATOM      1  O   UNL     1       5.750   0.055  -1.103  0.00  0.00    +0.000 OA
ATOM      2  C   UNL     1      -2.598  -0.503   0.175  0.00  0.00    +0.000 C 
ATOM      3  C   UNL     1      -1.812   0.761  -0.234  0.00  0.00    +0.000 C 
ATOM      4  C   UNL     1      -0.405   0.818   0.375  0.00  0.00    +0.000 C 
ATOM      5  C   UNL     1       0.401  -0.436  -0.087  0.00  0.00    +0.000 C 
ATOM      6  C   UNL     1      -3.982  -0.208  -0.482  0.00  0.00    +0.000 C 
ATOM      7  C   UNL     1      -1.823  -1.725  -0.348  0.00  0.00    +0.000 C 
ATOM      8  C   UNL     1       1.882  -0.447   0.458  0.00  0.00    +0.000 C 
ATOM      9  C   UNL     1      -2.783   1.897   0.070  0.00  0.00    +0.000 C 
ATOM     10  C   UNL     1      -0.376  -1.754   0.177  0.00  0.00    +0.000 C 
ATOM     11  C   UNL     1      -4.175   1.311  -0.232  0.00  0.00    +0.000 C 
ATOM     12  C   UNL     1       0.332   2.098  -0.040  0.00  0.00    +0.000 C 
ATOM     13  C   UNL     1      -2.779  -0.649   1.715  0.00  0.00    +0.000 C 
ATOM     14  C   UNL     1       2.539   0.911   0.182  0.00  0.00    +0.000 C 
ATOM     15  C   UNL     1       1.738   2.139   0.545  0.00  0.00    +0.000 C 
ATOM     16  C   UNL     1       2.664  -1.575  -0.276  0.00  0.00    +0.000 C 
ATOM     17  C   UNL     1      -4.080  -0.528  -1.980  0.00  0.00    +0.000 C 
ATOM     18  C   UNL     1       1.936  -0.709   1.980  0.00  0.00    +0.000 C 
ATOM     19  C   UNL     1       4.174  -1.463  -0.133  0.00  0.00    +0.000 C 
ATOM     20  C   UNL     1       3.772   1.059  -0.332  0.00  0.00    +0.000 C 
ATOM     21  C   UNL     1       4.645  -0.109  -0.591  0.00  0.00    +0.000 C 
ENDROOT
BRANCH   6  22
ATOM     22  O   UNL     1      -5.021  -0.942   0.161  0.00  0.00    +0.000 OA
ATOM     23  H   UNL     1      -4.836  -1.889   0.039  0.00  0.00    +0.000 HD
ENDBRANCH   6  22
TORSDOF 1
