REMARK  Name = 2898
REMARK  8 active torsions:
REMARK  status: ('A' for Active; 'I' for Inactive)
REMARK    1  A    between atoms: O_1  and  C_22
REMARK    2  A    between atoms: O_1  and  C_24
REMARK    3  A    between atoms: O_2  and  C_23
REMARK    4  A    between atoms: O_2  and  C_25
REMARK    5  A    between atoms: C_11  and  C_12
REMARK    6  A    between atoms: C_11  and  C_13
REMARK    7  A    between atoms: C_24  and  C_26
REMARK    8  A    between atoms: C_25  and  C_27
REMARK                            x       y       z     vdW  Elec       q    Type
REMARK                         _______ _______ _______ _____ _____    ______ ____
ROOT
ATOM      1  C   UNL     1      -0.014  -4.700  -0.266  0.00  0.00    +0.000 C 
ATOM      2  C   UNL     1      -1.278  -3.848  -0.396  0.00  0.00    +0.000 C 
ATOM      3  C   UNL     1       1.251  -3.855  -0.420  0.00  0.00    +0.000 C 
ATOM      4  C   UNL     1      -1.272  -2.669   0.578  0.00  0.00    +0.000 C 
ATOM      5  C   UNL     1       1.270  -2.676   0.553  0.00  0.00    +0.000 C 
ATOM      6  C   UNL     1      -0.000  -1.873   0.445  0.00  0.00    +0.000 C 
ATOM      7  C   UNL     1       0.001  -0.551   0.225  0.00  0.00    +0.000 C 
ENDROOT
BRANCH   7   8
ATOM      8  C   UNL     1       1.311   0.145   0.108  0.00  0.00    +0.000 A 
ATOM      9  C   UNL     1       1.895   0.655   1.248  0.00  0.00    +0.000 A 
ATOM     10  C   UNL     1       1.896   0.258  -1.135  0.00  0.00    +0.000 A 
ATOM     11  C   UNL     1       3.123   1.308   1.139  0.00  0.00    +0.000 A 
ATOM     12  C   UNL     1       3.123   0.911  -1.245  0.00  0.00    +0.000 A 
ATOM     13  C   UNL     1       3.737   1.436  -0.107  0.00  0.00    +0.000 A 
BRANCH  13  14
ATOM     14  O   UNL     1       4.935   2.074  -0.214  0.00  0.00    +0.000 OA
BRANCH  14  16
ATOM     15  O   UNL     1       6.011   0.024   0.130  0.00  0.00    +0.000 OA
ATOM     16  C   UNL     1       6.049   1.230  -0.073  0.00  0.00    +0.000 C 
ATOM     17  C   UNL     1       7.314   2.024  -0.205  0.00  0.00    +0.000 C 
ENDBRANCH  14  16
ENDBRANCH  13  14
ENDBRANCH   7   8
BRANCH   7  18
ATOM     18  C   UNL     1      -1.308   0.147   0.108  0.00  0.00    +0.000 A 
ATOM     19  C   UNL     1      -1.892   0.259  -1.135  0.00  0.00    +0.000 A 
ATOM     20  C   UNL     1      -1.892   0.657   1.248  0.00  0.00    +0.000 A 
ATOM     21  C   UNL     1      -3.119   0.914  -1.245  0.00  0.00    +0.000 A 
ATOM     22  C   UNL     1      -3.119   1.312   1.138  0.00  0.00    +0.000 A 
ATOM     23  C   UNL     1      -3.732   1.440  -0.108  0.00  0.00    +0.000 A 
BRANCH  23  24
ATOM     24  O   UNL     1      -4.929   2.079  -0.215  0.00  0.00    +0.000 OA
BRANCH  24  26
ATOM     25  O   UNL     1      -6.008   0.030   0.126  0.00  0.00    +0.000 OA
ATOM     26  C   UNL     1      -6.044   1.237  -0.074  0.00  0.00    +0.000 C 
ATOM     27  C   UNL     1      -7.309   2.032  -0.207  0.00  0.00    +0.000 C 
ENDBRANCH  24  26
ENDBRANCH  23  24
ENDBRANCH   7  18
TORSDOF 6
