REMARK  Name = 65772
REMARK  10 active torsions:
REMARK  status: ('A' for Active; 'I' for Inactive)
REMARK    1  A    between atoms: O_1  and  C_16
REMARK    2  A    between atoms: O_2  and  C_17
REMARK    3  A    between atoms: O_3  and  C_20
REMARK    4  A    between atoms: O_3  and  C_23
REMARK    5  A    between atoms: O_4  and  C_21
REMARK    6  A    between atoms: O_4  and  C_24
REMARK    7  A    between atoms: O_5  and  C_22
REMARK    8  A    between atoms: O_5  and  C_25
REMARK    9  A    between atoms: C_7  and  C_9
REMARK   10  A    between atoms: C_9  and  C_13
REMARK                            x       y       z     vdW  Elec       q    Type
REMARK                         _______ _______ _______ _____ _____    ______ ____
ROOT
ATOM      1  N   UNL     1      -0.647   2.913  -0.269  0.00  0.00    +0.000 NA
ATOM      2  C   UNL     1      -1.269   1.946  -1.195  0.00  0.00    +0.000 C 
ATOM      3  C   UNL     1      -2.030   0.831  -0.490  0.00  0.00    +0.000 A 
ATOM      4  C   UNL     1      -2.387   0.962   0.868  0.00  0.00    +0.000 A 
ATOM      5  C   UNL     1      -1.968   2.176   1.657  0.00  0.00    +0.000 C 
ATOM      6  C   UNL     1      -1.597   3.347   0.752  0.00  0.00    +0.000 C 
ATOM      7  C   UNL     1      -2.461  -0.309  -1.189  0.00  0.00    +0.000 A 
ATOM      8  C   UNL     1      -3.101  -0.060   1.509  0.00  0.00    +0.000 A 
ATOM      9  C   UNL     1      -3.182  -1.316  -0.545  0.00  0.00    +0.000 A 
ATOM     10  C   UNL     1      -3.496  -1.195   0.805  0.00  0.00    +0.000 A 
ATOM     11  H   UNL     1      -0.320   3.722  -0.797  0.00  0.00    +0.000 HD
ENDROOT
BRANCH   9  12
ATOM     12  O   UNL     1      -3.576  -2.412  -1.252  0.00  0.00    +0.000 OA
ATOM     13  H   UNL     1      -4.327  -2.836  -0.806  0.00  0.00    +0.000 HD
ENDBRANCH   9  12
BRANCH  10  14
ATOM     14  O   UNL     1      -4.195  -2.173   1.445  0.00  0.00    +0.000 OA
ATOM     15  H   UNL     1      -4.097  -3.012   0.966  0.00  0.00    +0.000 HD
ENDBRANCH  10  14
BRANCH   2  16
ATOM     16  C   UNL     1      -0.150   1.433  -2.111  0.00  0.00    +0.000 C 
BRANCH  16  17
ATOM     17  C   UNL     1       0.890   0.679  -1.334  0.00  0.00    +0.000 A 
ATOM     18  C   UNL     1       0.753  -0.692  -1.152  0.00  0.00    +0.000 A 
ATOM     19  C   UNL     1       1.980   1.360  -0.805  0.00  0.00    +0.000 A 
ATOM     20  C   UNL     1       2.947   0.660  -0.083  0.00  0.00    +0.000 A 
ATOM     21  C   UNL     1       1.720  -1.392  -0.430  0.00  0.00    +0.000 A 
ATOM     22  C   UNL     1       2.817  -0.716   0.105  0.00  0.00    +0.000 A 
BRANCH  20  23
ATOM     23  O   UNL     1       4.013   1.333   0.434  0.00  0.00    +0.000 OA
ATOM     24  C   UNL     1       3.869   1.860   1.752  0.00  0.00    +0.000 C 
ENDBRANCH  20  23
BRANCH  21  25
ATOM     25  O   UNL     1       1.581  -2.736  -0.255  0.00  0.00    +0.000 OA
ATOM     26  C   UNL     1       0.866  -3.168   0.901  0.00  0.00    +0.000 C 
ENDBRANCH  21  25
BRANCH  22  27
ATOM     27  O   UNL     1       3.762  -1.401   0.809  0.00  0.00    +0.000 OA
ATOM     28  C   UNL     1       4.860  -1.932   0.071  0.00  0.00    +0.000 C 
ENDBRANCH  22  27
ENDBRANCH  16  17
ENDBRANCH   2  16
TORSDOF 7
