REMARK  Name = 64971
REMARK  10 active torsions:
REMARK  status: ('A' for Active; 'I' for Inactive)
REMARK    1  A    between atoms: O_1  and  C_26
REMARK    2  A    between atoms: O_2  and  C_28
REMARK    3  A    between atoms: C_4  and  C_21
REMARK    4  A    between atoms: C_5  and  C_22
REMARK    5  A    between atoms: C_8  and  C_25
REMARK    6  A    between atoms: C_11  and  C_28
REMARK    7  A    between atoms: C_18  and  C_29
REMARK    8  A    between atoms: C_18  and  C_30
REMARK    9  A    between atoms: C_19  and  C_31
REMARK   10  A    between atoms: C_31  and  C_32
REMARK                            x       y       z     vdW  Elec       q    Type
REMARK                         _______ _______ _______ _____ _____    ______ ____
ROOT
ATOM      1  C   UNL     1      -0.639  -0.952   0.064  0.00  0.00    +0.000 C 
ATOM      2  C   UNL     1       0.815  -0.812  -0.659  0.00  0.00    +0.000 C 
ATOM      3  C   UNL     1      -1.321   0.477   0.120  0.00  0.00    +0.000 C 
ATOM      4  C   UNL     1       1.685   0.233   0.152  0.00  0.00    +0.000 C 
ATOM      5  C   UNL     1      -2.856   0.519   0.558  0.00  0.00    +0.000 C 
ATOM      6  C   UNL     1       3.125   0.311  -0.402  0.00  0.00    +0.000 C 
ATOM      7  C   UNL     1      -3.631  -0.495  -0.368  0.00  0.00    +0.000 C 
ATOM      8  C   UNL     1       3.814  -1.063  -0.335  0.00  0.00    +0.000 C 
ATOM      9  C   UNL     1      -1.567  -1.925  -0.716  0.00  0.00    +0.000 C 
ATOM     10  C   UNL     1      -0.417   1.504   0.839  0.00  0.00    +0.000 C 
ATOM     11  C   UNL     1       1.582  -2.181  -0.732  0.00  0.00    +0.000 C 
ATOM     12  C   UNL     1       0.990   1.596   0.243  0.00  0.00    +0.000 C 
ATOM     13  C   UNL     1      -3.033  -1.912  -0.270  0.00  0.00    +0.000 C 
ATOM     14  C   UNL     1       3.053  -2.078  -1.188  0.00  0.00    +0.000 C 
ATOM     15  C   UNL     1      -5.203  -0.434  -0.299  0.00  0.00    +0.000 C 
ATOM     16  C   UNL     1       4.158   1.252   0.249  0.00  0.00    +0.000 C 
ATOM     17  C   UNL     1      -3.422   1.946   0.275  0.00  0.00    +0.000 C 
ATOM     18  C   UNL     1      -0.465  -1.553   1.491  0.00  0.00    +0.000 C 
ATOM     19  C   UNL     1       0.656  -0.347  -2.147  0.00  0.00    +0.000 C 
ATOM     20  C   UNL     1       5.223  -0.718  -0.814  0.00  0.00    +0.000 C 
ATOM     21  C   UNL     1       5.521   0.643  -0.158  0.00  0.00    +0.000 C 
ATOM     22  C   UNL     1      -3.036   0.242   2.070  0.00  0.00    +0.000 C 
ATOM     23  C   UNL     1      -5.644   1.039  -0.543  0.00  0.00    +0.000 C 
ATOM     24  C   UNL     1      -4.944   2.051   0.356  0.00  0.00    +0.000 C 
ATOM     25  C   UNL     1      -5.791  -0.999   1.010  0.00  0.00    +0.000 C 
ATOM     26  C   UNL     1      -5.815  -1.288  -1.445  0.00  0.00    +0.000 C 
ENDROOT
BRANCH  16  27
ATOM     27  C   UNL     1       4.057   2.681  -0.180  0.00  0.00    +0.000 C 
ATOM     28  C   UNL     1       4.168   2.938  -1.654  0.00  0.00    +0.000 C 
ATOM     29  C   UNL     1       3.877   3.675   0.702  0.00  0.00    +0.000 C 
ENDBRANCH  16  27
BRANCH  23  30
ATOM     30  O   UNL     1      -7.056   1.197  -0.405  0.00  0.00    +0.000 OA
ATOM     31  H   UNL     1      -7.479   0.816  -1.191  0.00  0.00    +0.000 HD
ENDBRANCH  23  30
BRANCH   8  33
ATOM     32  O   UNL     1       3.438  -1.166   2.068  0.00  0.00    +0.000 OA
ATOM     33  C   UNL     1       3.952  -1.636   1.063  0.00  0.00    +0.000 C 
BRANCH  33  34
ATOM     34  O   UNL     1       4.729  -2.746   1.052  0.00  0.00    +0.000 OA
ATOM     35  H   UNL     1       4.831  -3.131   1.948  0.00  0.00    +0.000 HD
ENDBRANCH  33  34
ENDBRANCH   8  33
TORSDOF 4
