REMARK  Name = 10114
REMARK  10 active torsions:
REMARK  status: ('A' for Active; 'I' for Inactive)
REMARK    1  A    between atoms: O_1  and  C_21
REMARK    2  A    between atoms: O_3  and  C_34
REMARK    3  A    between atoms: C_5  and  C_20
REMARK    4  A    between atoms: C_6  and  C_22
REMARK    5  A    between atoms: C_8  and  C_24
REMARK    6  A    between atoms: C_13  and  C_30
REMARK    7  A    between atoms: C_13  and  C_31
REMARK    8  A    between atoms: C_15  and  C_32
REMARK    9  A    between atoms: C_28  and  C_33
REMARK   10  A    between atoms: C_28  and  C_34
REMARK                            x       y       z     vdW  Elec       q    Type
REMARK                         _______ _______ _______ _____ _____    ______ ____
ROOT
ATOM      1  O   UNL     1       1.094  -1.387   2.701  0.00  0.00    +0.000 OA
ATOM      2  C   UNL     1       0.913   1.298   0.428  0.00  0.00    +0.000 C 
ATOM      3  C   UNL     1       3.080  -0.238   0.727  0.00  0.00    +0.000 C 
ATOM      4  C   UNL     1       1.517  -0.128   0.656  0.00  0.00    +0.000 C 
ATOM      5  C   UNL     1      -0.534   1.075  -0.283  0.00  0.00    +0.000 C 
ATOM      6  C   UNL     1       3.567   0.202  -0.700  0.00  0.00    +0.000 C 
ATOM      7  C   UNL     1       1.890   2.212  -0.370  0.00  0.00    +0.000 C 
ATOM      8  C   UNL     1      -1.361   0.040   0.541  0.00  0.00    +0.000 C 
ATOM      9  C   UNL     1       3.041   1.580  -1.156  0.00  0.00    +0.000 C 
ATOM     10  C   UNL     1       5.079  -0.065  -1.046  0.00  0.00    +0.000 C 
ATOM     11  C   UNL     1      -2.883  -0.021   0.356  0.00  0.00    +0.000 C 
ATOM     12  C   UNL     1      -3.542   1.384   0.319  0.00  0.00    +0.000 C 
ATOM     13  C   UNL     1      -1.313   2.422  -0.416  0.00  0.00    +0.000 C 
ATOM     14  C   UNL     1       3.502  -1.725   0.931  0.00  0.00    +0.000 C 
ATOM     15  C   UNL     1      -2.813   2.275  -0.710  0.00  0.00    +0.000 C 
ATOM     16  C   UNL     1       0.659  -0.816   1.708  0.00  0.00    +0.000 C 
ATOM     17  C   UNL     1       0.702   2.046   1.796  0.00  0.00    +0.000 C 
ATOM     18  C   UNL     1       5.390  -1.562  -0.756  0.00  0.00    +0.000 C 
ATOM     19  C   UNL     1       3.665   0.593   1.880  0.00  0.00    +0.000 C 
ATOM     20  C   UNL     1       4.975  -2.007   0.643  0.00  0.00    +0.000 C 
ATOM     21  C   UNL     1      -0.336   0.526  -1.727  0.00  0.00    +0.000 C 
ATOM     22  C   UNL     1      -3.253  -0.920  -0.847  0.00  0.00    +0.000 C 
ATOM     23  C   UNL     1      -0.810  -0.788   1.455  0.00  0.00    +0.000 C 
ATOM     24  C   UNL     1      -5.049   1.280  -0.034  0.00  0.00    +0.000 C 
ATOM     25  C   UNL     1      -4.763  -1.004  -1.120  0.00  0.00    +0.000 C 
ATOM     26  C   UNL     1      -5.364   0.402  -1.244  0.00  0.00    +0.000 C 
ATOM     27  C   UNL     1       6.070   0.858  -0.304  0.00  0.00    +0.000 C 
ATOM     28  C   UNL     1       5.313   0.177  -2.563  0.00  0.00    +0.000 C 
ATOM     29  C   UNL     1      -3.471   2.041   1.722  0.00  0.00    +0.000 C 
ATOM     30  C   UNL     1      -5.017  -1.792  -2.413  0.00  0.00    +0.000 C 
ENDROOT
BRANCH  18  31
ATOM     31  O   UNL     1       6.780  -1.828  -0.932  0.00  0.00    +0.000 OA
ATOM     32  H   UNL     1       7.264  -1.453  -0.177  0.00  0.00    +0.000 HD
ENDBRANCH  18  31
BRANCH  25  34
ATOM     33  O   UNL     1      -6.356  -1.341   0.679  0.00  0.00    +0.000 OA
ATOM     34  C   UNL     1      -5.450  -1.773  -0.018  0.00  0.00    +0.000 C 
BRANCH  34  35
ATOM     35  O   UNL     1      -4.922  -3.016   0.098  0.00  0.00    +0.000 OA
ATOM     36  H   UNL     1      -5.354  -3.532   0.812  0.00  0.00    +0.000 HD
ENDBRANCH  34  35
ENDBRANCH  25  34
TORSDOF 3
