REMARK  Name = 5284613
REMARK  10 active torsions:
REMARK  status: ('A' for Active; 'I' for Inactive)
REMARK    1  A    between atoms: O_1  and  C_9
REMARK    2  A    between atoms: O_2  and  C_28
REMARK    3  A    between atoms: O_2  and  C_32
REMARK    4  A    between atoms: O_6  and  C_34
REMARK    5  A    between atoms: O_7  and  C_35
REMARK    6  A    between atoms: O_8  and  C_37
REMARK    7  A    between atoms: C_10  and  C_21
REMARK    8  A    between atoms: C_13  and  C_24
REMARK    9  A    between atoms: C_14  and  C_25
REMARK   10  A    between atoms: C_36  and  C_38
REMARK                            x       y       z     vdW  Elec       q    Type
REMARK                         _______ _______ _______ _____ _____    ______ ____
ROOT
ATOM      1  C   UNL     1       3.142  -0.328  -0.184  0.00  0.00    +0.000 C 
ATOM      2  C   UNL     1       3.892   1.000   0.114  0.00  0.00    +0.000 C 
ATOM      3  C   UNL     1       1.735  -0.418   0.468  0.00  0.00    +0.000 C 
ATOM      4  C   UNL     1       0.850   0.832   0.206  0.00  0.00    +0.000 C 
ATOM      5  C   UNL     1      -0.575   0.736   0.879  0.00  0.00    +0.000 C 
ATOM      6  C   UNL     1       5.033   1.006  -0.952  0.00  0.00    +0.000 C 
ATOM      7  C   UNL     1       2.956   2.213  -0.146  0.00  0.00    +0.000 C 
ATOM      8  C   UNL     1       1.616   2.115   0.580  0.00  0.00    +0.000 C 
ATOM      9  C   UNL     1       3.147  -0.404  -1.722  0.00  0.00    +0.000 C 
ATOM     10  C   UNL     1       0.994  -1.700   0.042  0.00  0.00    +0.000 C 
ATOM     11  C   UNL     1       4.403   0.345  -2.192  0.00  0.00    +0.000 C 
ATOM     12  C   UNL     1      -1.208  -0.618   0.534  0.00  0.00    +0.000 C 
ATOM     13  C   UNL     1       4.431   1.092   1.556  0.00  0.00    +0.000 C 
ATOM     14  C   UNL     1      -0.348  -1.837   0.750  0.00  0.00    +0.000 C 
ATOM     15  C   UNL     1      -1.458   1.907   0.342  0.00  0.00    +0.000 C 
ATOM     16  C   UNL     1      -0.500   0.850   2.421  0.00  0.00    +0.000 C 
ATOM     17  C   UNL     1      -2.949   1.674   0.556  0.00  0.00    +0.000 C 
ATOM     18  C   UNL     1      -2.461  -0.745   0.060  0.00  0.00    +0.000 C 
ATOM     19  C   UNL     1      -3.404   0.399  -0.149  0.00  0.00    +0.000 C 
ENDROOT
BRANCH   6  22
ATOM     20  O   UNL     1       7.681  -1.682  -0.404  0.00  0.00    +0.000 OA
ATOM     21  O   UNL     1       9.759  -1.525   0.504  0.00  0.00    +0.000 OA
ATOM     22  C   UNL     1       6.297   0.292  -0.569  0.00  0.00    +0.000 A 
ATOM     23  C   UNL     1       7.359   1.050   0.040  0.00  0.00    +0.000 A 
ATOM     24  C   UNL     1       6.500  -1.016  -0.761  0.00  0.00    +0.000 A 
ATOM     25  C   UNL     1       8.504   0.463   0.398  0.00  0.00    +0.000 A 
ATOM     26  C   UNL     1       8.708  -0.984   0.176  0.00  0.00    +0.000 A 
ENDBRANCH   6  22
BRANCH   1  27
ATOM     27  O   UNL     1       3.917  -1.447   0.270  0.00  0.00    +0.000 OA
ATOM     28  H   UNL     1       3.859  -1.486   1.240  0.00  0.00    +0.000 HD
ENDBRANCH   1  27
BRANCH  19  29
ATOM     29  O   UNL     1      -4.688   0.029   0.346  0.00  0.00    +0.000 OA
BRANCH  29  31
ATOM     30  O   UNL     1      -6.185   0.270  -1.479  0.00  0.00    +0.000 OA
ATOM     31  C   UNL     1      -5.455  -0.640  -0.649  0.00  0.00    +0.000 C 
ATOM     32  C   UNL     1      -6.401  -1.640   0.015  0.00  0.00    +0.000 C 
ATOM     33  C   UNL     1      -7.517  -0.917   0.770  0.00  0.00    +0.000 C 
ATOM     34  C   UNL     1      -7.184   1.026  -0.786  0.00  0.00    +0.000 C 
ATOM     35  C   UNL     1      -8.218   0.101  -0.130  0.00  0.00    +0.000 C 
ATOM     36  C   UNL     1      -7.821   1.964  -1.807  0.00  0.00    +0.000 C 
BRANCH  32  37
ATOM     37  O   UNL     1      -6.960  -2.458  -1.014  0.00  0.00    +0.000 OA
ATOM     38  H   UNL     1      -7.309  -1.878  -1.712  0.00  0.00    +0.000 HD
ENDBRANCH  32  37
BRANCH  33  39
ATOM     39  O   UNL     1      -8.474  -1.863   1.244  0.00  0.00    +0.000 OA
ATOM     40  H   UNL     1      -9.176  -1.365   1.697  0.00  0.00    +0.000 HD
ENDBRANCH  33  39
BRANCH  35  41
ATOM     41  O   UNL     1      -9.119   0.859   0.674  0.00  0.00    +0.000 OA
ATOM     42  H   UNL     1      -9.676   1.387   0.078  0.00  0.00    +0.000 HD
ENDBRANCH  35  41
ENDBRANCH  29  31
ENDBRANCH  19  29
TORSDOF 7
