REMARK  Name = 5805243
REMARK  11 active torsions:
REMARK  status: ('A' for Active; 'I' for Inactive)
REMARK    1  A    between atoms: O_1  and  C_19
REMARK    2  A    between atoms: O_1  and  C_23
REMARK    3  A    between atoms: O_2  and  C_20
REMARK    4  A    between atoms: O_2  and  C_24
REMARK    5  A    between atoms: C_5  and  C_6
REMARK    6  A    between atoms: C_5  and  C_7
REMARK    7  A    between atoms: C_6  and  C_8
REMARK    8  A    between atoms: C_9  and  C_21
REMARK    9  A    between atoms: C_10  and  C_22
REMARK   10  A    between atoms: C_23  and  C_25
REMARK   11  A    between atoms: C_24  and  C_26
REMARK                            x       y       z     vdW  Elec       q    Type
REMARK                         _______ _______ _______ _____ _____    ______ ____
ROOT
ATOM      1  C   UNL     1      -0.641   2.613  -0.357  0.00  0.00    +0.000 C 
ATOM      2  C   UNL     1      -1.106   3.670  -1.057  0.00  0.00    +0.000 C 
ATOM      3  C   UNL     1      -2.410   3.781  -1.785  0.00  0.00    +0.000 C 
ENDROOT
BRANCH   1   4
ATOM      4  C   UNL     1      -1.519   1.420  -0.300  0.00  0.00    +0.000 A 
ATOM      5  C   UNL     1      -1.394   0.448  -1.273  0.00  0.00    +0.000 A 
ATOM      6  C   UNL     1      -2.437   1.314   0.727  0.00  0.00    +0.000 A 
ATOM      7  C   UNL     1      -2.220  -0.674  -1.218  0.00  0.00    +0.000 A 
ATOM      8  C   UNL     1      -3.263   0.191   0.782  0.00  0.00    +0.000 A 
ATOM      9  C   UNL     1      -3.154  -0.803  -0.190  0.00  0.00    +0.000 A 
BRANCH   9  10
ATOM     10  O   UNL     1      -3.960  -1.899  -0.137  0.00  0.00    +0.000 OA
BRANCH  10  12
ATOM     11  O   UNL     1      -2.342  -2.974   1.170  0.00  0.00    +0.000 OA
ATOM     12  C   UNL     1      -3.427  -2.967   0.603  0.00  0.00    +0.000 C 
ATOM     13  C   UNL     1      -4.385  -4.121   0.602  0.00  0.00    +0.000 C 
ENDBRANCH  10  12
ENDBRANCH   9  10
ENDBRANCH   1   4
BRANCH   1  14
ATOM     14  C   UNL     1       0.641   2.613   0.357  0.00  0.00    +0.000 C 
ATOM     15  C   UNL     1       1.106   3.671   1.057  0.00  0.00    +0.000 C 
ATOM     16  C   UNL     1       2.410   3.782   1.785  0.00  0.00    +0.000 C 
BRANCH  14  17
ATOM     17  C   UNL     1       1.519   1.420   0.300  0.00  0.00    +0.000 A 
ATOM     18  C   UNL     1       1.394   0.448   1.273  0.00  0.00    +0.000 A 
ATOM     19  C   UNL     1       2.437   1.314  -0.727  0.00  0.00    +0.000 A 
ATOM     20  C   UNL     1       2.220  -0.674   1.218  0.00  0.00    +0.000 A 
ATOM     21  C   UNL     1       3.263   0.191  -0.782  0.00  0.00    +0.000 A 
ATOM     22  C   UNL     1       3.154  -0.803   0.190  0.00  0.00    +0.000 A 
BRANCH  22  23
ATOM     23  O   UNL     1       3.960  -1.899   0.137  0.00  0.00    +0.000 OA
BRANCH  23  25
ATOM     24  O   UNL     1       2.342  -2.974  -1.170  0.00  0.00    +0.000 OA
ATOM     25  C   UNL     1       3.427  -2.967  -0.603  0.00  0.00    +0.000 C 
ATOM     26  C   UNL     1       4.385  -4.121  -0.602  0.00  0.00    +0.000 C 
ENDBRANCH  23  25
ENDBRANCH  22  23
ENDBRANCH  14  17
ENDBRANCH   1  14
TORSDOF 7
