REMARK  Name = 5351344
REMARK  11 active torsions:
REMARK  status: ('A' for Active; 'I' for Inactive)
REMARK    1  A    between atoms: O_1  and  C_7
REMARK    2  A    between atoms: O_1  and  C_20
REMARK    3  A    between atoms: O_2  and  C_8
REMARK    4  A    between atoms: O_2  and  C_21
REMARK    5  A    between atoms: O_3  and  C_9
REMARK    6  A    between atoms: O_3  and  C_22
REMARK    7  A    between atoms: O_4  and  C_18
REMARK    8  A    between atoms: O_4  and  C_23
REMARK    9  A    between atoms: O_5  and  C_17
REMARK   10  A    between atoms: C_6  and  C_12
REMARK   11  A    between atoms: C_13  and  C_14
REMARK                            x       y       z     vdW  Elec       q    Type
REMARK                         _______ _______ _______ _____ _____    ______ ____
ROOT
ATOM      1  C   UNL     1       1.032  -1.613  -0.685  0.00  0.00    +0.000 A 
ATOM      2  C   UNL     1       2.678   0.533  -0.084  0.00  0.00    +0.000 A 
ATOM      3  C   UNL     1       2.818  -0.669   0.610  0.00  0.00    +0.000 A 
ATOM      4  C   UNL     1       1.709   0.655  -1.080  0.00  0.00    +0.000 A 
ATOM      5  C   UNL     1       1.989  -1.749   0.307  0.00  0.00    +0.000 A 
ATOM      6  C   UNL     1       0.880  -0.425  -1.383  0.00  0.00    +0.000 A 
ENDROOT
BRANCH   2   7
ATOM      7  O   UNL     1       3.488   1.589   0.212  0.00  0.00    +0.000 OA
ATOM      8  C   UNL     1       4.308   2.091  -0.841  0.00  0.00    +0.000 C 
ENDBRANCH   2   7
BRANCH   3   9
ATOM      9  O   UNL     1       3.760  -0.801   1.585  0.00  0.00    +0.000 OA
ATOM     10  C   UNL     1       3.369  -0.462   2.914  0.00  0.00    +0.000 C 
ENDBRANCH   3   9
BRANCH   4  11
ATOM     11  O   UNL     1       1.562   1.824  -1.765  0.00  0.00    +0.000 OA
ATOM     12  C   UNL     1       0.653   2.781  -1.225  0.00  0.00    +0.000 C 
ENDBRANCH   4  11
BRANCH   1  13
ATOM     13  C   UNL     1       0.156  -2.754  -1.005  0.00  0.00    +0.000 C 
ATOM     14  C   UNL     1      -1.194  -2.753  -0.909  0.00  0.00    +0.000 C 
BRANCH  14  15
ATOM     15  C   UNL     1      -2.003  -1.625  -0.474  0.00  0.00    +0.000 A 
ATOM     16  C   UNL     1      -1.820  -1.085   0.799  0.00  0.00    +0.000 A 
ATOM     17  C   UNL     1      -2.961  -1.082  -1.331  0.00  0.00    +0.000 A 
ATOM     18  C   UNL     1      -2.596  -0.004   1.216  0.00  0.00    +0.000 A 
ATOM     19  C   UNL     1      -3.554   0.539   0.360  0.00  0.00    +0.000 A 
ATOM     20  C   UNL     1      -3.737  -0.001  -0.914  0.00  0.00    +0.000 A 
BRANCH  19  21
ATOM     21  O   UNL     1      -4.317   1.595   0.755  0.00  0.00    +0.000 OA
ATOM     22  C   UNL     1      -3.812   2.900   0.478  0.00  0.00    +0.000 C 
ENDBRANCH  19  21
BRANCH  18  23
ATOM     23  O   UNL     1      -2.408   0.514   2.462  0.00  0.00    +0.000 OA
ATOM     24  H   UNL     1      -3.053   1.230   2.599  0.00  0.00    +0.000 HD
ENDBRANCH  18  23
ENDBRANCH  14  15
ENDBRANCH   1  13
TORSDOF 7
