REMARK  Name = 
REMARK  29 active torsions:
REMARK  status: ('A' for Active; 'I' for Inactive)
REMARK    1  A    between atoms: C_1  and  C_2
REMARK    2  A    between atoms: C_5  and  C_6
REMARK    3  A    between atoms: C_6  and  O_8
REMARK    4  A    between atoms: O_8  and  C_9
REMARK    5  A    between atoms: C_11  and  C_12
REMARK    6  A    between atoms: C_12  and  O_13
REMARK    7  A    between atoms: O_13  and  C_14
REMARK    8  A    between atoms: C_16  and  C_17
REMARK    9  A    between atoms: C_17  and  O_18
REMARK   10  A    between atoms: C_19  and  O_20
REMARK   11  A    between atoms: O_20  and  C_21
REMARK   12  A    between atoms: C_23  and  C_24
REMARK   13  A    between atoms: C_25  and  O_26
REMARK   14  A    between atoms: C_27  and  O_28
REMARK   15  A    between atoms: C_29  and  O_30
REMARK   16  A    between atoms: C_31  and  O_32
REMARK   17  A    between atoms: C_33  and  O_34
REMARK   18  A    between atoms: C_35  and  O_36
REMARK   19  A    between atoms: C_37  and  O_38
REMARK   20  A    between atoms: C_39  and  O_40
REMARK   21  A    between atoms: C_43  and  C_44
REMARK   22  A    between atoms: C_49  and  C_50
REMARK   23  A    between atoms: C_52  and  O_53
REMARK   24  A    between atoms: C_54  and  O_55
REMARK   25  A    between atoms: C_56  and  C_57
REMARK   26  A    between atoms: C_56  and  C_58
REMARK   27  A    between atoms: C_58  and  O_59
REMARK   28  A    between atoms: C_63  and  C_64
REMARK   29  A    between atoms: C_66  and  C_67
REMARK                            x       y       z     vdW  Elec       q    Type
REMARK                         _______ _______ _______ _____ _____    ______ ____
ROOT
ATOM      1  C   UNL     1       1.081  -0.949  -1.038  0.00  0.00    +0.000 C 
ATOM      2  O   UNL     1       1.549  -0.500   0.328  0.00  0.00    +0.000 OA
ATOM      3  C   UNL     1       2.936   0.008   0.071  0.00  0.00    +0.000 C 
ATOM      4  C   UNL     1       2.204   1.563  -0.016  0.00  0.00    +0.000 C 
ATOM      5  C   UNL     1       2.332   1.241  -1.685  0.00  0.00    +0.000 C 
ATOM      6  C   UNL     1       0.781   0.586  -1.752  0.00  0.00    +0.000 C 
ENDROOT
BRANCH   4   7
ATOM      7  O   UNL     1       3.488   2.336  -0.077  0.00  0.00    +0.000 OA
ATOM      8  H   UNL     1       4.117   1.873  -0.653  0.00  0.00    +0.000 HD
ENDBRANCH   4   7
BRANCH   5   9
ATOM      9  O   UNL     1       1.778   2.603  -1.989  0.00  0.00    +0.000 OA
ATOM     10  H   UNL     1       1.000   2.768  -1.434  0.00  0.00    +0.000 HD
ENDBRANCH   5   9
BRANCH   6  11
ATOM     11  O   UNL     1       1.078  -0.020  -3.092  0.00  0.00    +0.000 OA
ATOM     12  H   UNL     1       1.918  -0.504  -3.048  0.00  0.00    +0.000 HD
ENDBRANCH   6  11
BRANCH   1  13
ATOM     13  O   UNL     1      -0.381  -1.064  -0.508  0.00  0.00    +0.000 OA
BRANCH  13  14
ATOM     14  C   UNL     1      -1.198  -0.018  -0.665  0.00  0.00    +0.000 C 
ATOM     15  O   UNL     1      -1.404   0.150  -1.897  0.00  0.00    +0.000 OA
BRANCH  14  20
ATOM     16  C   UNL     1      -2.483   0.963   3.672  0.00  0.00    +0.000 C 
ATOM     17  C   UNL     1      -2.262  -0.536   3.102  0.00  0.00    +0.000 C 
ATOM     18  C   UNL     1      -1.095  -0.091   2.091  0.00  0.00    +0.000 C 
ATOM     19  C   UNL     1      -1.450   1.170   1.372  0.00  0.00    +0.000 C 
ATOM     20  C   UNL     1      -2.212   0.631   0.222  0.00  0.00    +0.000 C 
ATOM     21  C   UNL     1      -3.013   1.552  -0.543  0.00  0.00    +0.000 C 
ATOM     22  C   UNL     1      -4.263   2.053   0.172  0.00  0.00    +0.000 C 
ATOM     23  C   UNL     1      -5.059   0.786   0.220  0.00  0.00    +0.000 C 
ATOM     24  C   UNL     1      -5.841   0.731   1.497  0.00  0.00    +0.000 C 
ATOM     25  C   UNL     1      -4.319  -0.432  -0.119  0.00  0.00    +0.000 C 
ATOM     26  C   UNL     1      -4.385  -1.072  -1.305  0.00  0.00    +0.000 C 
ATOM     27  C   UNL     1      -5.677  -1.105  -2.077  0.00  0.00    +0.000 C 
ATOM     28  C   UNL     1      -6.632  -0.616  -0.844  0.00  0.00    +0.000 C 
ATOM     29  C   UNL     1      -7.974  -0.389  -1.760  0.00  0.00    +0.000 C 
ATOM     30  C   UNL     1      -7.802   0.652  -2.681  0.00  0.00    +0.000 C 
ATOM     31  C   UNL     1      -8.173  -1.718  -2.201  0.00  0.00    +0.000 C 
ATOM     32  C   UNL     1      -9.726  -2.136  -2.469  0.00  0.00    +0.000 C 
ATOM     33  C   UNL     1     -10.251  -1.764  -0.870  0.00  0.00    +0.000 C 
ATOM     34  C   UNL     1     -10.250  -0.134  -1.085  0.00  0.00    +0.000 C 
ATOM     35  C   UNL     1     -10.379   0.216  -2.421  0.00  0.00    +0.000 C 
ATOM     36  C   UNL     1      -8.783  -0.017  -0.407  0.00  0.00    +0.000 C 
ATOM     37  C   UNL     1      -8.581   1.587  -0.672  0.00  0.00    +0.000 C 
ATOM     38  C   UNL     1      -7.139   1.829  -0.335  0.00  0.00    +0.000 C 
ATOM     39  C   UNL     1      -6.130   0.932  -0.870  0.00  0.00    +0.000 C 
ATOM     40  C   UNL     1      -5.378   1.305  -2.040  0.00  0.00    +0.000 C 
ATOM     41  C   UNL     1      -2.928  -0.763   0.605  0.00  0.00    +0.000 C 
ATOM     42  C   UNL     1      -3.589  -0.342   2.093  0.00  0.00    +0.000 C 
ATOM     43  C   UNL     1      -4.000  -1.879   2.334  0.00  0.00    +0.000 C 
BRANCH  32  44
ATOM     44  O   UNL     1      -9.455  -3.566  -2.037  0.00  0.00    +0.000 OA
ATOM     45  H   UNL     1      -8.958  -3.563  -1.204  0.00  0.00    +0.000 HD
ENDBRANCH  32  44
BRANCH  33  46
ATOM     46  O   UNL     1     -11.707  -1.879  -1.263  0.00  0.00    +0.000 OA
ATOM     47  H   UNL     1     -11.862  -1.380  -2.080  0.00  0.00    +0.000 HD
ENDBRANCH  33  46
BRANCH  34  48
ATOM     48  C   UNL     1     -11.122   0.265   0.028  0.00  0.00    +0.000 C 
BRANCH  48  49
ATOM     49  O   UNL     1     -11.319   1.623   0.215  0.00  0.00    +0.000 OA
ATOM     50  H   UNL     1     -10.476   2.043   0.446  0.00  0.00    +0.000 HD
ENDBRANCH  48  49
ENDBRANCH  34  48
ENDBRANCH  14  20
ENDBRANCH  13  14
ENDBRANCH   1  13
BRANCH   3  51
ATOM     51  C   UNL     1       3.298   0.120   1.669  0.00  0.00    +0.000 C 
BRANCH  51  52
ATOM     52  O   UNL     1       4.614  -0.349   1.730  0.00  0.00    +0.000 OA
BRANCH  52  53
ATOM     53  C   UNL     1       5.306   1.013   1.699  0.00  0.00    +0.000 C 
ATOM     54  O   UNL     1       6.383   0.635   0.757  0.00  0.00    +0.000 OA
ATOM     55  C   UNL     1       7.339  -0.433   1.043  0.00  0.00    +0.000 C 
ATOM     56  C   UNL     1       8.345   0.340   2.215  0.00  0.00    +0.000 C 
ATOM     57  C   UNL     1       7.411   1.749   2.389  0.00  0.00    +0.000 C 
ATOM     58  C   UNL     1       6.194   0.850   3.169  0.00  0.00    +0.000 C 
BRANCH  57  59
ATOM     59  O   UNL     1       8.117   2.112   3.657  0.00  0.00    +0.000 OA
ATOM     60  H   UNL     1       8.194   1.326   4.220  0.00  0.00    +0.000 HD
ENDBRANCH  57  59
BRANCH  58  61
ATOM     61  O   UNL     1       5.577   2.098   3.703  0.00  0.00    +0.000 OA
ATOM     62  H   UNL     1       5.560   2.774   3.007  0.00  0.00    +0.000 HD
ENDBRANCH  58  61
BRANCH  55  63
ATOM     63  C   UNL     1       6.633  -1.268   2.266  0.00  0.00    +0.000 C 
BRANCH  63  64
ATOM     64  O   UNL     1       7.058  -2.523   2.247  0.00  0.00    +0.000 OA
ATOM     65  H   UNL     1       6.823  -2.932   1.399  0.00  0.00    +0.000 HD
ENDBRANCH  63  64
ENDBRANCH  55  63
BRANCH  56  66
ATOM     66  O   UNL     1       9.236   1.033   1.250  0.00  0.00    +0.000 OA
BRANCH  66  67
ATOM     67  C   UNL     1       9.341   0.125   0.048  0.00  0.00    +0.000 C 
ATOM     68  O   UNL     1       9.689  -1.108   0.870  0.00  0.00    +0.000 OA
ATOM     69  C   UNL     1      10.797  -1.721   0.057  0.00  0.00    +0.000 C 
ATOM     70  C   UNL     1      10.105  -3.206   0.078  0.00  0.00    +0.000 C 
ATOM     71  C   UNL     1      10.052  -1.378  -1.446  0.00  0.00    +0.000 C 
ATOM     72  C   UNL     1      11.046  -0.022  -1.746  0.00  0.00    +0.000 C 
ATOM     73  C   UNL     1      11.013   0.519  -0.126  0.00  0.00    +0.000 C 
BRANCH  71  74
ATOM     74  O   UNL     1      10.998  -2.278  -2.169  0.00  0.00    +0.000 OA
ATOM     75  H   UNL     1      11.905  -2.099  -1.874  0.00  0.00    +0.000 HD
ENDBRANCH  71  74
BRANCH  72  76
ATOM     76  O   UNL     1       9.856   0.756  -2.228  0.00  0.00    +0.000 OA
ATOM     77  H   UNL     1       9.124   0.648  -1.601  0.00  0.00    +0.000 HD
ENDBRANCH  72  76
BRANCH  73  78
ATOM     78  O   UNL     1      10.727   1.952  -0.433  0.00  0.00    +0.000 OA
ATOM     79  H   UNL     1      10.012   2.006  -1.087  0.00  0.00    +0.000 HD
ENDBRANCH  73  78
ENDBRANCH  66  67
ENDBRANCH  56  66
ENDBRANCH  52  53
ENDBRANCH  51  52
ENDBRANCH   3  51
TORSDOF 22
