REMARK  Name = 101970
REMARK  9 active torsions:
REMARK  status: ('A' for Active; 'I' for Inactive)
REMARK    1  A    between atoms: O_1  and  C_10
REMARK    2  A    between atoms: O_4  and  C_26
REMARK    3  A    between atoms: O_4  and  C_29
REMARK    4  A    between atoms: C_7  and  C_18
REMARK    5  A    between atoms: C_10  and  C_21
REMARK    6  A    between atoms: C_13  and  C_22
REMARK    7  A    between atoms: C_15  and  C_23
REMARK    8  A    between atoms: C_21  and  C_26
REMARK    9  A    between atoms: C_29  and  C_30
REMARK                            x       y       z     vdW  Elec       q    Type
REMARK                         _______ _______ _______ _____ _____    ______ ____
ROOT
ATOM      1  O   UNL     1       1.618   2.592  -0.749  0.00  0.00    +0.000 OA
ATOM      2  O   UNL     1       7.196   0.065   1.636  0.00  0.00    +0.000 OA
ATOM      3  C   UNL     1      -0.862   0.217  -0.225  0.00  0.00    +0.000 C 
ATOM      4  C   UNL     1       0.013  -1.016   0.115  0.00  0.00    +0.000 C 
ATOM      5  C   UNL     1       1.415  -0.954  -0.515  0.00  0.00    +0.000 C 
ATOM      6  C   UNL     1      -2.205  -0.207   0.441  0.00  0.00    +0.000 C 
ATOM      7  C   UNL     1       2.157   0.319   0.007  0.00  0.00    +0.000 C 
ATOM      8  C   UNL     1      -0.887  -2.192  -0.250  0.00  0.00    +0.000 C 
ATOM      9  C   UNL     1      -2.290  -1.753   0.238  0.00  0.00    +0.000 C 
ATOM     10  C   UNL     1      -0.163   1.452   0.359  0.00  0.00    +0.000 C 
ATOM     11  C   UNL     1       3.626   0.433  -0.535  0.00  0.00    +0.000 C 
ATOM     12  C   UNL     1       2.220  -2.225  -0.205  0.00  0.00    +0.000 C 
ATOM     13  C   UNL     1       1.249   1.553  -0.207  0.00  0.00    +0.000 C 
ATOM     14  C   UNL     1      -1.054   0.430  -1.753  0.00  0.00    +0.000 C 
ATOM     15  C   UNL     1       3.638  -2.144  -0.758  0.00  0.00    +0.000 C 
ATOM     16  C   UNL     1       4.328  -0.903  -0.251  0.00  0.00    +0.000 C 
ATOM     17  C   UNL     1      -3.369  -2.254  -0.718  0.00  0.00    +0.000 C 
ATOM     18  C   UNL     1       3.683   0.703  -2.055  0.00  0.00    +0.000 C 
ATOM     19  C   UNL     1       4.353   1.585   0.148  0.00  0.00    +0.000 C 
ATOM     20  C   UNL     1       5.469  -1.013   0.449  0.00  0.00    +0.000 C 
ATOM     21  C   UNL     1       5.487   1.479   0.848  0.00  0.00    +0.000 C 
ATOM     22  C   UNL     1       6.139   0.170   1.024  0.00  0.00    +0.000 C 
ENDROOT
BRANCH   6  23
ATOM     23  O   UNL     1      -2.140   0.054   1.849  0.00  0.00    +0.000 OA
ATOM     24  H   UNL     1      -1.622  -0.642   2.284  0.00  0.00    +0.000 HD
ENDBRANCH   6  23
BRANCH   6  26
ATOM     25  O   UNL     1      -3.309   1.479  -0.832  0.00  0.00    +0.000 OA
ATOM     26  C   UNL     1      -3.398   0.604   0.028  0.00  0.00    +0.000 C 
BRANCH  26  27
ATOM     27  C   UNL     1      -4.701   0.283   0.728  0.00  0.00    +0.000 C 
BRANCH  27  28
ATOM     28  O   UNL     1      -5.799   0.529  -0.125  0.00  0.00    +0.000 OA
BRANCH  28  30
ATOM     29  O   UNL     1      -7.269  -0.142   1.526  0.00  0.00    +0.000 OA
ATOM     30  C   UNL     1      -7.041   0.275   0.398  0.00  0.00    +0.000 C 
ATOM     31  C   UNL     1      -8.104   0.581  -0.614  0.00  0.00    +0.000 C 
ENDBRANCH  28  30
ENDBRANCH  27  28
ENDBRANCH  26  27
ENDBRANCH   6  26
TORSDOF 5
