REMARK  Name = 63019
REMARK  13 active torsions:
REMARK  status: ('A' for Active; 'I' for Inactive)
REMARK    1  A    between atoms: O_1  and  C_12
REMARK    2  A    between atoms: O_1  and  C_30
REMARK    3  A    between atoms: O_2  and  C_14
REMARK    4  A    between atoms: O_4  and  C_27
REMARK    5  A    between atoms: O_4  and  C_33
REMARK    6  A    between atoms: C_8  and  C_20
REMARK    7  A    between atoms: C_12  and  C_22
REMARK    8  A    between atoms: C_16  and  C_23
REMARK    9  A    between atoms: C_19  and  C_25
REMARK   10  A    between atoms: C_22  and  C_27
REMARK   11  A    between atoms: C_30  and  C_31
REMARK   12  A    between atoms: C_31  and  C_32
REMARK   13  A    between atoms: C_33  and  C_34
REMARK                            x       y       z     vdW  Elec       q    Type
REMARK                         _______ _______ _______ _____ _____    ______ ____
ROOT
ATOM      1  O   UNL     1      -6.602  -0.657   2.614  0.00  0.00    +0.000 OA
ATOM      2  C   UNL     1       0.781   0.061  -0.886  0.00  0.00    +0.000 C 
ATOM      3  C   UNL     1      -0.288   1.157  -0.685  0.00  0.00    +0.000 C 
ATOM      4  C   UNL     1      -1.714   0.693  -1.017  0.00  0.00    +0.000 C 
ATOM      5  C   UNL     1      -2.086  -0.504  -0.076  0.00  0.00    +0.000 C 
ATOM      6  C   UNL     1       2.054   0.879  -0.533  0.00  0.00    +0.000 C 
ATOM      7  C   UNL     1       0.436  -1.101   0.065  0.00  0.00    +0.000 C 
ATOM      8  C   UNL     1      -1.004  -1.630  -0.116  0.00  0.00    +0.000 C 
ATOM      9  C   UNL     1       0.291   2.357  -1.431  0.00  0.00    +0.000 C 
ATOM     10  C   UNL     1      -3.583  -0.971  -0.271  0.00  0.00    +0.000 C 
ATOM     11  C   UNL     1       1.811   2.259  -1.185  0.00  0.00    +0.000 C 
ATOM     12  C   UNL     1      -2.709   1.856  -0.859  0.00  0.00    +0.000 C 
ATOM     13  C   UNL     1      -4.165   1.419  -1.068  0.00  0.00    +0.000 C 
ATOM     14  C   UNL     1       0.877  -0.441  -2.354  0.00  0.00    +0.000 C 
ATOM     15  C   UNL     1      -4.481   0.272  -0.111  0.00  0.00    +0.000 C 
ATOM     16  C   UNL     1      -3.870  -1.608  -1.650  0.00  0.00    +0.000 C 
ATOM     17  C   UNL     1      -3.919  -2.042   0.757  0.00  0.00    +0.000 C 
ATOM     18  C   UNL     1      -5.079   2.650  -0.981  0.00  0.00    +0.000 C 
ATOM     19  C   UNL     1      -5.444   0.350   0.824  0.00  0.00    +0.000 C 
ATOM     20  C   UNL     1      -4.877  -1.956   1.684  0.00  0.00    +0.000 C 
ATOM     21  C   UNL     1      -5.713  -0.749   1.775  0.00  0.00    +0.000 C 
ENDROOT
BRANCH   8  22
ATOM     22  O   UNL     1      -1.088  -2.382  -1.319  0.00  0.00    +0.000 OA
ATOM     23  H   UNL     1      -1.369  -1.804  -2.042  0.00  0.00    +0.000 HD
ENDBRANCH   8  22
BRANCH   6  25
ATOM     24  O   UNL     1       4.098   0.807  -1.754  0.00  0.00    +0.000 OA
ATOM     25  C   UNL     1       3.343   0.246  -0.962  0.00  0.00    +0.000 C 
BRANCH  25  26
ATOM     26  C   UNL     1       3.655  -1.111  -0.366  0.00  0.00    +0.000 C 
BRANCH  26  27
ATOM     27  O   UNL     1       5.049  -1.292  -0.241  0.00  0.00    +0.000 OA
BRANCH  27  29
ATOM     28  O   UNL     1       4.723  -3.396   0.656  0.00  0.00    +0.000 OA
ATOM     29  C   UNL     1       5.458  -2.490   0.289  0.00  0.00    +0.000 C 
ATOM     30  C   UNL     1       6.954  -2.541   0.360  0.00  0.00    +0.000 C 
ENDBRANCH  27  29
ENDBRANCH  26  27
ENDBRANCH  25  26
ENDBRANCH   6  25
BRANCH   6  31
ATOM     31  O   UNL     1       2.191   1.039   0.876  0.00  0.00    +0.000 OA
BRANCH  31  33
ATOM     32  O   UNL     1       4.039   2.381   0.553  0.00  0.00    +0.000 OA
ATOM     33  C   UNL     1       3.235   1.823   1.287  0.00  0.00    +0.000 C 
BRANCH  33  34
ATOM     34  C   UNL     1       3.239   1.891   2.796  0.00  0.00    +0.000 C 
ATOM     35  C   UNL     1       4.387   2.732   3.327  0.00  0.00    +0.000 C 
ENDBRANCH  33  34
ENDBRANCH  31  33
ENDBRANCH   6  31
TORSDOF 8
