REMARK  Name = 107782
REMARK  11 active torsions:
REMARK  status: ('A' for Active; 'I' for Inactive)
REMARK    1  A    between atoms: P_1  and  O_6
REMARK    2  A    between atoms: P_1  and  O_8
REMARK    3  A    between atoms: P_1  and  O_9
REMARK    4  A    between atoms: O_3  and  C_15
REMARK    5  A    between atoms: O_4  and  C_19
REMARK    6  A    between atoms: O_6  and  C_30
REMARK    7  A    between atoms: C_11  and  C_22
REMARK    8  A    between atoms: C_15  and  C_25
REMARK    9  A    between atoms: C_18  and  C_26
REMARK   10  A    between atoms: C_20  and  C_27
REMARK   11  A    between atoms: C_25  and  C_30
REMARK                            x       y       z     vdW  Elec       q    Type
REMARK                         _______ _______ _______ _____ _____    ______ ____
ROOT
ATOM      1  F   UNL     1       2.419  -0.181  -1.308  0.00  0.00    +0.000 F 
ATOM      2  O   UNL     1       7.270  -0.098  -1.817  0.00  0.00    +0.000 OA
ATOM      3  C   UNL     1      -0.675  -0.233   0.354  0.00  0.00    +0.000 C 
ATOM      4  C   UNL     1       0.199   0.991   0.003  0.00  0.00    +0.000 C 
ATOM      5  C   UNL     1       1.610   0.926   0.608  0.00  0.00    +0.000 C 
ATOM      6  C   UNL     1       2.342  -0.350   0.066  0.00  0.00    +0.000 C 
ATOM      7  C   UNL     1      -2.013   0.182  -0.333  0.00  0.00    +0.000 C 
ATOM      8  C   UNL     1      -0.701   2.169   0.358  0.00  0.00    +0.000 C 
ATOM      9  C   UNL     1       0.026  -1.480  -0.226  0.00  0.00    +0.000 C 
ATOM     10  C   UNL     1      -2.094   1.733  -0.164  0.00  0.00    +0.000 C 
ATOM     11  C   UNL     1       1.487  -1.639   0.252  0.00  0.00    +0.000 C 
ATOM     12  C   UNL     1       3.838  -0.432   0.567  0.00  0.00    +0.000 C 
ATOM     13  C   UNL     1       2.397   2.206   0.268  0.00  0.00    +0.000 C 
ATOM     14  C   UNL     1      -0.902  -0.406   1.882  0.00  0.00    +0.000 C 
ATOM     15  C   UNL     1       3.843   2.140   0.745  0.00  0.00    +0.000 C 
ATOM     16  C   UNL     1       4.514   0.899   0.216  0.00  0.00    +0.000 C 
ATOM     17  C   UNL     1      -3.201   2.267   0.739  0.00  0.00    +0.000 C 
ATOM     18  C   UNL     1       3.982  -0.653   2.090  0.00  0.00    +0.000 C 
ATOM     19  C   UNL     1       4.551  -1.602  -0.098  0.00  0.00    +0.000 C 
ATOM     20  C   UNL     1       5.612   0.999  -0.550  0.00  0.00    +0.000 C 
ATOM     21  C   UNL     1       5.643  -1.508  -0.863  0.00  0.00    +0.000 C 
ATOM     22  C   UNL     1       6.258  -0.196  -1.131  0.00  0.00    +0.000 C 
ENDROOT
BRANCH   7  23
ATOM     23  O   UNL     1      -1.951  -0.108  -1.736  0.00  0.00    +0.000 OA
ATOM     24  H   UNL     1      -1.927  -1.072  -1.858  0.00  0.00    +0.000 HD
ENDBRANCH   7  23
BRANCH  11  25
ATOM     25  O   UNL     1       1.506  -2.090   1.598  0.00  0.00    +0.000 OA
ATOM     26  H   UNL     1       2.088  -2.867   1.640  0.00  0.00    +0.000 HD
ENDBRANCH  11  25
BRANCH   7  28
ATOM     27  O   UNL     1      -3.127  -1.471   0.975  0.00  0.00    +0.000 OA
ATOM     28  C   UNL     1      -3.210  -0.615   0.095  0.00  0.00    +0.000 C 
BRANCH  28  29
ATOM     29  C   UNL     1      -4.511  -0.303  -0.614  0.00  0.00    +0.000 C 
BRANCH  29  30
ATOM     30  O   UNL     1      -5.612  -0.526   0.242  0.00  0.00    +0.000 OA
BRANCH  30  31
ATOM     31  P   UNL     1      -7.106  -0.252  -0.325  0.00  0.00    +0.000 P 
ATOM     32  O   UNL     1      -8.211  -0.516   0.655  0.00  0.00    +0.000 OA
BRANCH  31  33
ATOM     33  O   UNL     1      -7.165  -1.124  -1.685  0.00  0.00    +0.000 OA
ATOM     34  H   UNL     1      -8.011  -1.177  -2.179  0.00  0.00    +0.000 HD
ENDBRANCH  31  33
BRANCH  31  35
ATOM     35  O   UNL     1      -7.019   1.271  -0.863  0.00  0.00    +0.000 OA
ATOM     36  H   UNL     1      -7.837   1.710  -1.178  0.00  0.00    +0.000 HD
ENDBRANCH  31  35
ENDBRANCH  30  31
ENDBRANCH  29  30
ENDBRANCH  28  29
ENDBRANCH   7  28
TORSDOF 8
