REMARK  Name = 229295
REMARK  10 active torsions:
REMARK  status: ('A' for Active; 'I' for Inactive)
REMARK    1  A    between atoms: O_1  and  C_8
REMARK    2  A    between atoms: O_1  and  C_23
REMARK    3  A    between atoms: C_4  and  C_15
REMARK    4  A    between atoms: C_8  and  C_19
REMARK    5  A    between atoms: C_23  and  C_25
REMARK    6  A    between atoms: C_25  and  C_26
REMARK    7  A    between atoms: C_26  and  C_27
REMARK    8  A    between atoms: C_27  and  C_28
REMARK    9  A    between atoms: C_28  and  C_29
REMARK   10  A    between atoms: C_29  and  C_30
REMARK                            x       y       z     vdW  Elec       q    Type
REMARK                         _______ _______ _______ _____ _____    ______ ____
ROOT
ATOM      1  O   UNL     1      -7.913   1.103  -1.321  0.00  0.00    +0.000 OA
ATOM      2  C   UNL     1      -0.160   0.012   0.412  0.00  0.00    +0.000 C 
ATOM      3  C   UNL     1      -1.154  -1.084  -0.037  0.00  0.00    +0.000 C 
ATOM      4  C   UNL     1      -2.516  -0.968   0.652  0.00  0.00    +0.000 C 
ATOM      5  C   UNL     1      -3.136   0.431   0.314  0.00  0.00    +0.000 C 
ATOM      6  C   UNL     1       1.121  -0.439  -0.353  0.00  0.00    +0.000 C 
ATOM      7  C   UNL     1      -0.754   1.383   0.039  0.00  0.00    +0.000 C 
ATOM      8  C   UNL     1      -0.358  -2.377   0.125  0.00  0.00    +0.000 C 
ATOM      9  C   UNL     1      -2.160   1.586   0.636  0.00  0.00    +0.000 C 
ATOM     10  C   UNL     1      -4.507   0.563   1.029  0.00  0.00    +0.000 C 
ATOM     11  C   UNL     1       1.099  -1.982  -0.190  0.00  0.00    +0.000 C 
ATOM     12  C   UNL     1      -3.467  -2.112   0.249  0.00  0.00    +0.000 C 
ATOM     13  C   UNL     1       0.126   0.006   1.943  0.00  0.00    +0.000 C 
ATOM     14  C   UNL     1      -4.859  -1.943   0.865  0.00  0.00    +0.000 C 
ATOM     15  C   UNL     1      -5.387  -0.572   0.535  0.00  0.00    +0.000 C 
ATOM     16  C   UNL     1      -5.218   1.918   0.892  0.00  0.00    +0.000 C 
ATOM     17  C   UNL     1      -5.903   2.085  -0.453  0.00  0.00    +0.000 C 
ATOM     18  C   UNL     1      -6.490  -0.404  -0.209  0.00  0.00    +0.000 C 
ATOM     19  C   UNL     1      -6.871   0.948  -0.687  0.00  0.00    +0.000 C 
ENDROOT
BRANCH   6  20
ATOM     20  C   UNL     1       1.108  -0.080  -1.785  0.00  0.00    +0.000 C 
ATOM     21  C   UNL     1       1.098   0.211  -2.950  0.00  0.00    +0.000 C 
ENDBRANCH   6  20
BRANCH   6  22
ATOM     22  O   UNL     1       2.297   0.105   0.232  0.00  0.00    +0.000 OA
BRANCH  22  24
ATOM     23  O   UNL     1       3.603  -1.129  -1.215  0.00  0.00    +0.000 OA
ATOM     24  C   UNL     1       3.484  -0.328  -0.298  0.00  0.00    +0.000 C 
BRANCH  24  25
ATOM     25  C   UNL     1       4.629   0.365   0.407  0.00  0.00    +0.000 C 
BRANCH  25  26
ATOM     26  C   UNL     1       5.997   0.013  -0.177  0.00  0.00    +0.000 C 
BRANCH  26  27
ATOM     27  C   UNL     1       7.144   0.718   0.554  0.00  0.00    +0.000 C 
BRANCH  27  28
ATOM     28  C   UNL     1       8.501   0.325  -0.034  0.00  0.00    +0.000 C 
BRANCH  28  29
ATOM     29  C   UNL     1       9.649   1.004   0.713  0.00  0.00    +0.000 C 
ATOM     30  C   UNL     1      10.997   0.642   0.111  0.00  0.00    +0.000 C 
ENDBRANCH  28  29
ENDBRANCH  27  28
ENDBRANCH  26  27
ENDBRANCH  25  26
ENDBRANCH  24  25
ENDBRANCH  22  24
ENDBRANCH   6  22
TORSDOF 8
