REMARK  Name = 31211
REMARK  7 active torsions:
REMARK  status: ('A' for Active; 'I' for Inactive)
REMARK    1  A    between atoms: O_1  and  C_9
REMARK    2  A    between atoms: O_1  and  C_14
REMARK    3  A    between atoms: O_2  and  C_12
REMARK    4  A    between atoms: C_4  and  C_5
REMARK    5  A    between atoms: C_4  and  C_6
REMARK    6  A    between atoms: C_6  and  C_10
REMARK    7  A    between atoms: C_10  and  C_13
REMARK                            x       y       z     vdW  Elec       q    Type
REMARK                         _______ _______ _______ _____ _____    ______ ____
ROOT
ATOM      1  C   UNL     1       0.068   0.437   0.434  0.00  0.00    +0.000 A 
ATOM      2  C   UNL     1      -0.768  -0.663   0.313  0.00  0.00    +0.000 A 
ATOM      3  C   UNL     1      -0.410   1.725   0.242  0.00  0.00    +0.000 A 
ATOM      4  C   UNL     1      -2.113  -0.471  -0.006  0.00  0.00    +0.000 A 
ATOM      5  C   UNL     1      -1.754   1.917  -0.077  0.00  0.00    +0.000 A 
ATOM      6  C   UNL     1      -2.606   0.819  -0.201  0.00  0.00    +0.000 A 
ENDROOT
BRANCH   4   7
ATOM      7  O   UNL     1      -2.934  -1.551  -0.124  0.00  0.00    +0.000 OA
ATOM      8  C   UNL     1      -2.352  -2.835   0.091  0.00  0.00    +0.000 C 
ENDBRANCH   4   7
BRANCH   6   9
ATOM      9  O   UNL     1      -3.917   1.019  -0.512  0.00  0.00    +0.000 OA
ATOM     10  H   UNL     1      -4.356   0.152  -0.557  0.00  0.00    +0.000 HD
ENDBRANCH   6   9
BRANCH   1  11
ATOM     11  C   UNL     1       1.520   0.229   0.778  0.00  0.00    +0.000 C 
BRANCH  11  12
ATOM     12  C   UNL     1       2.379   0.063  -0.474  0.00  0.00    +0.000 C 
BRANCH  12  14
ATOM     13  O   UNL     1       4.280  -0.161   1.004  0.00  0.00    +0.000 OA
ATOM     14  C   UNL     1       3.846  -0.157  -0.147  0.00  0.00    +0.000 C 
ATOM     15  C   UNL     1       4.763  -0.370  -1.323  0.00  0.00    +0.000 C 
ENDBRANCH  12  14
ENDBRANCH  11  12
ENDBRANCH   1  11
TORSDOF 5
