REMARK  Name = 25230266
REMARK  8 active torsions:
REMARK  status: ('A' for Active; 'I' for Inactive)
REMARK    1  A    between atoms: O_2  and  C_14
REMARK    2  A    between atoms: O_2  and  C_18
REMARK    3  A    between atoms: O_5  and  C_23
REMARK    4  A    between atoms: O_5  and  C_26
REMARK    5  A    between atoms: C_8  and  C_9
REMARK    6  A    between atoms: C_9  and  C_10
REMARK    7  A    between atoms: C_18  and  C_20
REMARK    8  A    between atoms: C_19  and  C_20
REMARK                            x       y       z     vdW  Elec       q    Type
REMARK                         _______ _______ _______ _____ _____    ______ ____
ROOT
ATOM      1  C   UNL     1      -2.962   0.046   0.881  0.00  0.00    +0.000 A 
ATOM      2  C   UNL     1      -1.933  -0.885   0.740  0.00  0.00    +0.000 A 
ATOM      3  C   UNL     1      -2.678   1.411   0.848  0.00  0.00    +0.000 A 
ATOM      4  C   UNL     1      -0.334   0.915   0.533  0.00  0.00    +0.000 A 
ATOM      5  C   UNL     1      -0.619  -0.450   0.566  0.00  0.00    +0.000 A 
ATOM      6  C   UNL     1      -1.364   1.846   0.674  0.00  0.00    +0.000 A 
ENDROOT
BRANCH   4   7
ATOM      7  O   UNL     1       0.948   1.339   0.363  0.00  0.00    +0.000 OA
BRANCH   7   8
ATOM      8  C   UNL     1       1.951   0.334   0.225  0.00  0.00    +0.000 C 
BRANCH   8  10
ATOM      9  O   UNL     1       3.449   2.199   0.019  0.00  0.00    +0.000 OA
ATOM     10  C   UNL     1       3.313   0.978   0.057  0.00  0.00    +0.000 C 
BRANCH  10  11
ATOM     11  C   UNL     1       4.512   0.100  -0.066  0.00  0.00    +0.000 A 
ATOM     12  C   UNL     1       5.778   0.665  -0.221  0.00  0.00    +0.000 A 
ATOM     13  C   UNL     1       4.367  -1.287  -0.025  0.00  0.00    +0.000 A 
ATOM     14  C   UNL     1       6.899  -0.157  -0.335  0.00  0.00    +0.000 A 
ATOM     15  C   UNL     1       5.488  -2.109  -0.139  0.00  0.00    +0.000 A 
ATOM     16  C   UNL     1       6.754  -1.544  -0.294  0.00  0.00    +0.000 A 
BRANCH  14  17
ATOM     17  O   UNL     1       8.134   0.393  -0.487  0.00  0.00    +0.000 OA
ATOM     18  C   UNL     1       9.237  -0.506  -0.598  0.00  0.00    +0.000 C 
ENDBRANCH  14  17
ENDBRANCH  10  11
ENDBRANCH   8  10
ENDBRANCH   7   8
ENDBRANCH   4   7
BRANCH   1  19
ATOM     19  C   UNL     1      -4.382  -0.423   1.069  0.00  0.00    +0.000 C 
BRANCH  19  24
ATOM     20  S   UNL     1      -5.715   1.004  -0.874  0.00  0.00    +0.000 S 
ATOM     21  O   UNL     1      -6.287  -2.619   0.326  0.00  0.00    +0.000 OA
ATOM     22  O   UNL     1      -8.288   1.176  -1.382  0.00  0.00    +0.000 OA
ATOM     23  N   UNL     1      -7.465  -0.826  -0.536  0.00  0.00    +0.000 N 
ATOM     24  C   UNL     1      -5.103  -0.594  -0.257  0.00  0.00    +0.000 C 
ATOM     25  C   UNL     1      -6.324  -1.474  -0.112  0.00  0.00    +0.000 C 
ATOM     26  C   UNL     1      -7.378   0.469  -0.977  0.00  0.00    +0.000 C 
ATOM     27  H   UNL     1      -8.362  -1.300  -0.510  0.00  0.00    +0.000 HD
ENDBRANCH  19  24
ENDBRANCH   1  19
TORSDOF 7
