REMARK  Name = 119871
REMARK  12 active torsions:
REMARK  status: ('A' for Active; 'I' for Inactive)
REMARK    1  A    between atoms: O_2  and  C_15
REMARK    2  A    between atoms: O_4  and  C_26
REMARK    3  A    between atoms: O_4  and  C_29
REMARK    4  A    between atoms: C_7  and  C_18
REMARK    5  A    between atoms: C_11  and  C_21
REMARK    6  A    between atoms: C_14  and  C_22
REMARK    7  A    between atoms: C_16  and  C_23
REMARK    8  A    between atoms: C_21  and  C_26
REMARK    9  A    between atoms: C_29  and  C_30
REMARK   10  A    between atoms: C_30  and  C_31
REMARK   11  A    between atoms: C_30  and  C_32
REMARK   12  A    between atoms: C_30  and  C_33
REMARK                            x       y       z     vdW  Elec       q    Type
REMARK                         _______ _______ _______ _____ _____    ______ ____
ROOT
ATOM      1  F   UNL     1       5.571   2.252  -0.041  0.00  0.00    +0.000 F 
ATOM      2  O   UNL     1       6.989  -2.108  -1.779  0.00  0.00    +0.000 OA
ATOM      3  C   UNL     1      -0.445   0.709   0.309  0.00  0.00    +0.000 C 
ATOM      4  C   UNL     1       0.780   1.511  -0.173  0.00  0.00    +0.000 C 
ATOM      5  C   UNL     1       2.098   1.054   0.467  0.00  0.00    +0.000 C 
ATOM      6  C   UNL     1       2.341  -0.451   0.091  0.00  0.00    +0.000 C 
ATOM      7  C   UNL     1      -1.546   1.438  -0.499  0.00  0.00    +0.000 C 
ATOM      8  C   UNL     1       0.341   2.965  -0.021  0.00  0.00    +0.000 C 
ATOM      9  C   UNL     1      -0.231  -0.761  -0.092  0.00  0.00    +0.000 C 
ATOM     10  C   UNL     1      -1.162   2.940  -0.390  0.00  0.00    +0.000 C 
ATOM     11  C   UNL     1       1.103  -1.342   0.429  0.00  0.00    +0.000 C 
ATOM     12  C   UNL     1       3.738  -0.978   0.612  0.00  0.00    +0.000 C 
ATOM     13  C   UNL     1       3.263   1.938  -0.007  0.00  0.00    +0.000 C 
ATOM     14  C   UNL     1      -0.715   0.833   1.831  0.00  0.00    +0.000 C 
ATOM     15  C   UNL     1       4.611   1.441   0.493  0.00  0.00    +0.000 C 
ATOM     16  C   UNL     1       4.812  -0.004   0.109  0.00  0.00    +0.000 C 
ATOM     17  C   UNL     1      -1.446   3.687  -1.690  0.00  0.00    +0.000 C 
ATOM     18  C   UNL     1       3.845  -1.060   2.151  0.00  0.00    +0.000 C 
ATOM     19  C   UNL     1       3.986  -2.388   0.095  0.00  0.00    +0.000 C 
ATOM     20  C   UNL     1       5.849  -0.375  -0.658  0.00  0.00    +0.000 C 
ATOM     21  C   UNL     1       5.016  -2.760  -0.672  0.00  0.00    +0.000 C 
ATOM     22  C   UNL     1       6.030  -1.776  -1.090  0.00  0.00    +0.000 C 
ENDROOT
BRANCH  11  23
ATOM     23  O   UNL     1       1.004  -1.575   1.827  0.00  0.00    +0.000 OA
ATOM     24  H   UNL     1       0.253  -2.175   1.976  0.00  0.00    +0.000 HD
ENDBRANCH  11  23
BRANCH   7  26
ATOM     25  O   UNL     1      -3.457   1.858   0.859  0.00  0.00    +0.000 OA
ATOM     26  C   UNL     1      -2.938   1.165  -0.015  0.00  0.00    +0.000 C 
BRANCH  26  27
ATOM     27  C   UNL     1      -3.655  -0.002  -0.658  0.00  0.00    +0.000 C 
BRANCH  27  28
ATOM     28  O   UNL     1      -4.955  -0.144  -0.125  0.00  0.00    +0.000 OA
BRANCH  28  30
ATOM     29  O   UNL     1      -5.333  -1.954  -1.493  0.00  0.00    +0.000 OA
ATOM     30  C   UNL     1      -5.714  -1.174  -0.629  0.00  0.00    +0.000 C 
BRANCH  30  31
ATOM     31  C   UNL     1      -7.097  -1.217   0.029  0.00  0.00    +0.000 C 
ATOM     32  C   UNL     1      -7.831   0.104  -0.233  0.00  0.00    +0.000 C 
ATOM     33  C   UNL     1      -7.915  -2.371  -0.573  0.00  0.00    +0.000 C 
ATOM     34  C   UNL     1      -6.939  -1.452   1.537  0.00  0.00    +0.000 C 
ENDBRANCH  30  31
ENDBRANCH  28  30
ENDBRANCH  27  28
ENDBRANCH  26  27
ENDBRANCH   7  26
TORSDOF 6
