REMARK  Name = 13327
REMARK  5 active torsions:
REMARK  status: ('A' for Active; 'I' for Inactive)
REMARK    1  A    between atoms: O_2  and  C_12
REMARK    2  A    between atoms: O_2  and  C_24
REMARK    3  A    between atoms: C_6  and  C_17
REMARK    4  A    between atoms: C_9  and  C_20
REMARK    5  A    between atoms: C_24  and  C_25
REMARK                            x       y       z     vdW  Elec       q    Type
REMARK                         _______ _______ _______ _____ _____    ______ ____
ROOT
ATOM      1 CL   UNL     1      -5.026  -2.063  -0.858  0.00  0.00    +0.000 Cl
ATOM      2  O   UNL     1      -5.615   0.643  -1.802  0.00  0.00    +0.000 OA
ATOM      3  C   UNL     1       1.159  -0.855  -0.045  0.00  0.00    +0.000 C 
ATOM      4  C   UNL     1       2.074   0.340   0.291  0.00  0.00    +0.000 C 
ATOM      5  C   UNL     1      -0.198  -0.770   0.660  0.00  0.00    +0.000 C 
ATOM      6  C   UNL     1      -0.921   0.543   0.193  0.00  0.00    +0.000 C 
ATOM      7  C   UNL     1      -2.355   0.671   0.827  0.00  0.00    +0.000 C 
ATOM      8  C   UNL     1       1.395   1.619  -0.215  0.00  0.00    +0.000 C 
ATOM      9  C   UNL     1      -0.017   1.790   0.380  0.00  0.00    +0.000 C 
ATOM     10  C   UNL     1       3.330  -0.080  -0.497  0.00  0.00    +0.000 C 
ATOM     11  C   UNL     1       2.052  -2.067   0.201  0.00  0.00    +0.000 C 
ATOM     12  C   UNL     1      -1.059  -2.016   0.393  0.00  0.00    +0.000 C 
ATOM     13  C   UNL     1       3.452  -1.592  -0.228  0.00  0.00    +0.000 C 
ATOM     14  C   UNL     1      -3.111  -0.617   0.430  0.00  0.00    +0.000 C 
ATOM     15  C   UNL     1       2.411   0.497   1.796  0.00  0.00    +0.000 C 
ATOM     16  C   UNL     1      -2.471  -1.883   0.968  0.00  0.00    +0.000 C 
ATOM     17  C   UNL     1      -3.130   1.927   0.341  0.00  0.00    +0.000 C 
ATOM     18  C   UNL     1      -2.288   0.818   2.370  0.00  0.00    +0.000 C 
ATOM     19  C   UNL     1      -3.659   1.793  -1.071  0.00  0.00    +0.000 C 
ATOM     20  C   UNL     1      -4.162  -0.632  -0.416  0.00  0.00    +0.000 C 
ATOM     21  C   UNL     1      -4.586   0.608  -1.130  0.00  0.00    +0.000 C 
ENDROOT
BRANCH  10  22
ATOM     22  O   UNL     1       4.493   0.620  -0.098  0.00  0.00    +0.000 OA
BRANCH  22  24
ATOM     23  O   UNL     1       5.773  -0.617  -1.571  0.00  0.00    +0.000 OA
ATOM     24  C   UNL     1       5.659   0.252  -0.717  0.00  0.00    +0.000 C 
ATOM     25  C   UNL     1       6.801   1.073  -0.198  0.00  0.00    +0.000 C 
ENDBRANCH  22  24
ENDBRANCH  10  22
TORSDOF 2
