REMARK  Name = 67333747
REMARK  15 active torsions:
REMARK  status: ('A' for Active; 'I' for Inactive)
REMARK    1  A    between atoms: O_1  and  C_10
REMARK    2  A    between atoms: O_1  and  C_24
REMARK    3  A    between atoms: C_5  and  C_16
REMARK    4  A    between atoms: C_8  and  C_19
REMARK    5  A    between atoms: C_12  and  C_20
REMARK    6  A    between atoms: C_24  and  C_25
REMARK    7  A    between atoms: C_25  and  C_26
REMARK    8  A    between atoms: C_26  and  C_27
REMARK    9  A    between atoms: C_27  and  C_28
REMARK   10  A    between atoms: C_28  and  C_29
REMARK   11  A    between atoms: C_29  and  C_30
REMARK   12  A    between atoms: C_30  and  C_31
REMARK   13  A    between atoms: C_31  and  C_32
REMARK   14  A    between atoms: C_32  and  C_33
REMARK   15  A    between atoms: C_33  and  C_34
REMARK                            x       y       z     vdW  Elec       q    Type
REMARK                         _______ _______ _______ _____ _____    ______ ____
ROOT
ATOM      1  O   UNL     1      -6.180  -4.342   1.385  0.00  0.00    +0.000 OA
ATOM      2  C   UNL     1      -2.220   1.900  -0.631  0.00  0.00    +0.000 C 
ATOM      3  C   UNL     1      -0.699   1.914  -0.380  0.00  0.00    +0.000 C 
ATOM      4  C   UNL     1      -2.764   0.502  -0.953  0.00  0.00    +0.000 C 
ATOM      5  C   UNL     1      -2.495  -0.431   0.274  0.00  0.00    +0.000 C 
ATOM      6  C   UNL     1      -0.990  -0.420   0.723  0.00  0.00    +0.000 C 
ATOM      7  C   UNL     1      -0.404   1.014   0.830  0.00  0.00    +0.000 C 
ATOM      8  C   UNL     1      -0.518   3.425  -0.103  0.00  0.00    +0.000 C 
ATOM      9  C   UNL     1      -2.418   3.042  -1.625  0.00  0.00    +0.000 C 
ATOM     10  C   UNL     1      -4.261   0.513  -1.357  0.00  0.00    +0.000 C 
ATOM     11  C   UNL     1      -3.079  -1.871   0.073  0.00  0.00    +0.000 C 
ATOM     12  C   UNL     1      -1.407   4.110  -1.163  0.00  0.00    +0.000 C 
ATOM     13  C   UNL     1      -4.707  -0.920  -1.671  0.00  0.00    +0.000 C 
ATOM     14  C   UNL     1       0.166   1.502  -1.596  0.00  0.00    +0.000 C 
ATOM     15  C   UNL     1      -4.484  -1.856  -0.510  0.00  0.00    +0.000 C 
ATOM     16  C   UNL     1      -3.037  -2.646   1.409  0.00  0.00    +0.000 C 
ATOM     17  C   UNL     1      -0.090  -1.353  -0.098  0.00  0.00    +0.000 C 
ATOM     18  C   UNL     1      -5.202   1.162  -0.333  0.00  0.00    +0.000 C 
ATOM     19  C   UNL     1      -3.817  -3.948   1.351  0.00  0.00    +0.000 C 
ATOM     20  C   UNL     1      -5.485  -2.643  -0.082  0.00  0.00    +0.000 C 
ATOM     21  C   UNL     1      -5.243  -3.680   0.947  0.00  0.00    +0.000 C 
ENDROOT
BRANCH   8  22
ATOM     22  O   UNL     1       0.825   3.867  -0.154  0.00  0.00    +0.000 OA
BRANCH  22  24
ATOM     23  O   UNL     1       1.042   3.524   2.116  0.00  0.00    +0.000 OA
ATOM     24  C   UNL     1       1.506   3.869   1.038  0.00  0.00    +0.000 C 
BRANCH  24  25
ATOM     25  C   UNL     1       2.906   4.398   0.821  0.00  0.00    +0.000 C 
BRANCH  25  26
ATOM     26  C   UNL     1       3.994   3.400   1.222  0.00  0.00    +0.000 C 
BRANCH  26  27
ATOM     27  C   UNL     1       3.955   2.125   0.373  0.00  0.00    +0.000 C 
BRANCH  27  28
ATOM     28  C   UNL     1       5.081   1.139   0.703  0.00  0.00    +0.000 C 
BRANCH  28  29
ATOM     29  C   UNL     1       5.024  -0.145  -0.128  0.00  0.00    +0.000 C 
BRANCH  29  30
ATOM     30  C   UNL     1       6.151  -1.131   0.199  0.00  0.00    +0.000 C 
BRANCH  30  31
ATOM     31  C   UNL     1       6.116  -2.403  -0.650  0.00  0.00    +0.000 C 
BRANCH  31  32
ATOM     32  C   UNL     1       7.216  -3.381  -0.229  0.00  0.00    +0.000 C 
BRANCH  32  33
ATOM     33  C   UNL     1       7.203  -4.639  -1.097  0.00  0.00    +0.000 C 
ATOM     34  C   UNL     1       8.316  -5.598  -0.705  0.00  0.00    +0.000 C 
ENDBRANCH  32  33
ENDBRANCH  31  32
ENDBRANCH  30  31
ENDBRANCH  29  30
ENDBRANCH  28  29
ENDBRANCH  27  28
ENDBRANCH  26  27
ENDBRANCH  25  26
ENDBRANCH  24  25
ENDBRANCH  22  24
ENDBRANCH   8  22
TORSDOF 11
