REMARK  Name = 192254
REMARK  9 active torsions:
REMARK  status: ('A' for Active; 'I' for Inactive)
REMARK    1  A    between atoms: O_1  and  C_14
REMARK    2  A    between atoms: O_2  and  C_24
REMARK    3  A    between atoms: O_3  and  C_27
REMARK    4  A    between atoms: C_7  and  C_19
REMARK    5  A    between atoms: C_9  and  C_22
REMARK    6  A    between atoms: C_10  and  C_21
REMARK    7  A    between atoms: C_21  and  C_25
REMARK    8  A    between atoms: C_21  and  C_26
REMARK    9  A    between atoms: C_25  and  C_27
REMARK                            x       y       z     vdW  Elec       q    Type
REMARK                         _______ _______ _______ _____ _____    ______ ____
ROOT
ATOM      1  C   UNL     1      -0.319  -0.983   0.326  0.00  0.00    +0.000 C 
ATOM      2  C   UNL     1       1.067  -1.062  -0.345  0.00  0.00    +0.000 C 
ATOM      3  C   UNL     1      -1.300  -0.051  -0.422  0.00  0.00    +0.000 C 
ATOM      4  C   UNL     1       1.673   0.383  -0.386  0.00  0.00    +0.000 C 
ATOM      5  C   UNL     1       3.118   0.410  -1.012  0.00  0.00    +0.000 C 
ATOM      6  C   UNL     1      -2.553  -0.233   0.469  0.00  0.00    +0.000 C 
ATOM      7  C   UNL     1       4.037  -0.593  -0.241  0.00  0.00    +0.000 C 
ATOM      8  C   UNL     1      -0.715   1.367  -0.407  0.00  0.00    +0.000 C 
ATOM      9  C   UNL     1       0.694   1.406  -1.021  0.00  0.00    +0.000 C 
ATOM     10  C   UNL     1       2.013  -2.042   0.376  0.00  0.00    +0.000 C 
ATOM     11  C   UNL     1      -1.140  -2.254   0.539  0.00  0.00    +0.000 C 
ATOM     12  C   UNL     1      -2.579  -1.750   0.757  0.00  0.00    +0.000 C 
ATOM     13  C   UNL     1       3.433  -2.002  -0.188  0.00  0.00    +0.000 C 
ATOM     14  C   UNL     1       3.773   1.821  -0.945  0.00  0.00    +0.000 C 
ATOM     15  C   UNL     1      -1.587  -0.479  -1.883  0.00  0.00    +0.000 C 
ATOM     16  C   UNL     1       4.390  -0.109   1.181  0.00  0.00    +0.000 C 
ATOM     17  C   UNL     1       3.079   0.024  -2.513  0.00  0.00    +0.000 C 
ATOM     18  C   UNL     1       4.091   2.288   0.470  0.00  0.00    +0.000 C 
ATOM     19  C   UNL     1       4.994   1.292   1.184  0.00  0.00    +0.000 C 
ENDROOT
BRANCH  10  20
ATOM     20  O   UNL     1       1.530  -3.376   0.224  0.00  0.00    +0.000 OA
ATOM     21  H   UNL     1       1.481  -3.573  -0.727  0.00  0.00    +0.000 HD
ENDBRANCH  10  20
BRANCH  19  22
ATOM     22  O   UNL     1       5.183   1.730   2.525  0.00  0.00    +0.000 OA
ATOM     23  H   UNL     1       4.315   1.744   2.963  0.00  0.00    +0.000 HD
ENDBRANCH  19  22
BRANCH   6  24
ATOM     24  C   UNL     1      -3.870   0.285  -0.091  0.00  0.00    +0.000 C 
ATOM     25  C   UNL     1      -3.755   1.780  -0.411  0.00  0.00    +0.000 C 
BRANCH  24  26
ATOM     26  C   UNL     1      -5.037   0.054   0.886  0.00  0.00    +0.000 C 
BRANCH  26  28
ATOM     27  O   UNL     1      -6.676   0.656  -0.818  0.00  0.00    +0.000 OA
ATOM     28  C   UNL     1      -6.358   0.562   0.358  0.00  0.00    +0.000 C 
BRANCH  28  29
ATOM     29  O   UNL     1      -7.184   0.876   1.389  0.00  0.00    +0.000 OA
ATOM     30  H   UNL     1      -8.057   1.195   1.075  0.00  0.00    +0.000 HD
ENDBRANCH  28  29
ENDBRANCH  26  28
ENDBRANCH  24  26
ENDBRANCH   6  24
TORSDOF 6
