REMARK  Name = 
REMARK  20 active torsions:
REMARK  status: ('A' for Active; 'I' for Inactive)
REMARK    1  A    between atoms: C_1  and  N_2
REMARK    2  A    between atoms: N_4  and  C_5
REMARK    3  A    between atoms: C_7  and  C_8
REMARK    4  A    between atoms: C_8  and  O_9
REMARK    5  A    between atoms: O_9  and  P_10
REMARK    6  A    between atoms: P_10  and  O_12
REMARK    7  A    between atoms: P_10  and  O_13
REMARK    8  A    between atoms: O_13  and  P_14
REMARK    9  A    between atoms: P_14  and  O_16
REMARK   10  A    between atoms: P_14  and  O_17
REMARK   11  A    between atoms: O_17  and  P_18
REMARK   12  A    between atoms: P_18  and  O_20
REMARK   13  A    between atoms: P_18  and  O_21
REMARK   14  A    between atoms: O_21  and  C_22
REMARK   15  A    between atoms: C_22  and  C_23
REMARK   16  A    between atoms: C_25  and  N_26
REMARK   17  A    between atoms: C_36  and  O_37
REMARK   18  A    between atoms: C_38  and  O_39
REMARK   19  A    between atoms: C_40  and  O_41
REMARK   20  A    between atoms: C_42  and  O_43
REMARK                            x       y       z     vdW  Elec       q    Type
REMARK                         _______ _______ _______ _____ _____    ______ ____
ROOT
ATOM      1  P   UNL     1      -0.763   1.270   0.306  0.00  0.00    +0.000 P 
ATOM      2  O   UNL     1       0.197   2.445   0.366  0.00  0.00    +0.000 OA
ENDROOT
BRANCH   1   3
ATOM      3  O   UNL     1      -1.587   1.392  -1.177  0.00  0.00    +0.000 OA
ATOM      4  H   UNL     1      -0.944   1.425  -1.903  0.00  0.00    +0.000 HD
ENDBRANCH   1   3
BRANCH   1   5
ATOM      5  O   UNL     1       0.160  -0.159   0.162  0.00  0.00    +0.000 OA
BRANCH   5   6
ATOM      6  P   UNL     1       1.352   0.304  -0.965  0.00  0.00    +0.000 P 
ATOM      7  O   UNL     1       0.674   1.084  -2.079  0.00  0.00    +0.000 OA
BRANCH   6   8
ATOM      8  O   UNL     1       2.187  -0.988  -1.599  0.00  0.00    +0.000 OA
ATOM      9  H   UNL     1       2.849  -0.667  -2.231  0.00  0.00    +0.000 HD
ENDBRANCH   6   8
BRANCH   6  10
ATOM     10  O   UNL     1       2.331   1.374  -0.075  0.00  0.00    +0.000 OA
BRANCH  10  11
ATOM     11  C   UNL     1       2.887   0.583   0.948  0.00  0.00    +0.000 C 
BRANCH  11  14
ATOM     12  C   UNL     1       5.852  -0.047  -0.672  0.00  0.00    +0.000 C 
ATOM     13  O   UNL     1       5.091   0.819   0.350  0.00  0.00    +0.000 OA
ATOM     14  C   UNL     1       3.999  -0.200  -0.024  0.00  0.00    +0.000 C 
ATOM     15  C   UNL     1       4.636  -1.069   1.337  0.00  0.00    +0.000 C 
ATOM     16  C   UNL     1       6.110  -1.342   0.480  0.00  0.00    +0.000 C 
BRANCH  12  20
ATOM     17  C   UNL     1       9.465   3.322  -0.293  0.00  0.00    +0.000 C 
ATOM     18  N   UNL     1       8.746   2.151  -0.556  0.00  0.00    +0.000 N 
ATOM     19  C   UNL     1       7.405   1.951  -0.561  0.00  0.00    +0.000 A 
ATOM     20  N   UNL     1       7.255   0.644  -0.260  0.00  0.00    +0.000 N 
ATOM     21  C   UNL     1       8.366   0.002  -0.644  0.00  0.00    +0.000 A 
ATOM     22  N   UNL     1       8.609  -1.308  -0.850  0.00  0.00    +0.000 NA
ATOM     23  C   UNL     1       9.868  -1.730  -0.823  0.00  0.00    +0.000 A 
ATOM     24  N   UNL     1      10.133  -3.136  -0.769  0.00  0.00    +0.000 N 
ATOM     25  N   UNL     1      10.846  -0.816  -1.027  0.00  0.00    +0.000 N 
ATOM     26  C   UNL     1      10.646   0.510  -0.879  0.00  0.00    +0.000 A 
ATOM     27  O   UNL     1      11.577   1.358  -0.922  0.00  0.00    +0.000 OA
ATOM     28  C   UNL     1       9.353   0.960  -0.786  0.00  0.00    +0.000 A 
ATOM     29  H   UNL     1       9.396  -3.771  -0.619  0.00  0.00    +0.000 HD
ATOM     30  H   UNL     1      11.053  -3.468  -0.882  0.00  0.00    +0.000 HD
ATOM     31  H   UNL     1      11.739  -1.132  -1.293  0.00  0.00    +0.000 HD
ENDBRANCH  12  20
BRANCH  15  32
ATOM     32  O   UNL     1       3.969  -2.386   0.966  0.00  0.00    +0.000 OA
ATOM     33  H   UNL     1       4.088  -2.553   0.018  0.00  0.00    +0.000 HD
ENDBRANCH  15  32
BRANCH  16  34
ATOM     34  O   UNL     1       5.538  -2.307  -0.542  0.00  0.00    +0.000 OA
ATOM     35  H   UNL     1       4.717  -1.941  -0.907  0.00  0.00    +0.000 HD
ENDBRANCH  16  34
ENDBRANCH  11  14
ENDBRANCH  10  11
ENDBRANCH   6  10
ENDBRANCH   5   6
ENDBRANCH   1   5
BRANCH   1  36
ATOM     36  O   UNL     1      -1.788   1.207   1.618  0.00  0.00    +0.000 OA
BRANCH  36  37
ATOM     37  P   UNL     1      -3.031   0.105   1.263  0.00  0.00    +0.000 P 
ATOM     38  O   UNL     1      -2.453  -1.281   1.319  0.00  0.00    +0.000 OA
BRANCH  37  39
ATOM     39  O   UNL     1      -4.211   0.326   2.453  0.00  0.00    +0.000 OA
ATOM     40  H   UNL     1      -3.844   0.093   3.320  0.00  0.00    +0.000 HD
ENDBRANCH  37  39
BRANCH  37  41
ATOM     41  O   UNL     1      -3.600   0.491  -0.277  0.00  0.00    +0.000 OA
BRANCH  41  42
ATOM     42  C   UNL     1      -3.886  -0.719  -0.934  0.00  0.00    +0.000 C 
BRANCH  42  43
ATOM     43  C   UNL     1      -5.025  -1.276   0.160  0.00  0.00    +0.000 C 
ATOM     44  O   UNL     1      -6.166  -0.564  -0.591  0.00  0.00    +0.000 OA
ATOM     45  C   UNL     1      -7.014  -1.121   0.567  0.00  0.00    +0.000 C 
ATOM     46  C   UNL     1      -6.928  -2.778   0.001  0.00  0.00    +0.000 C 
ATOM     47  C   UNL     1      -5.488  -2.560  -0.919  0.00  0.00    +0.000 C 
BRANCH  45  48
ATOM     48  N   UNL     1      -8.392  -0.875  -0.252  0.00  0.00    +0.000 N 
ATOM     49  C   UNL     1      -9.536  -1.267   0.360  0.00  0.00    +0.000 A 
ATOM     50  N   UNL     1     -10.467  -0.307   0.329  0.00  0.00    +0.000 NA
ATOM     51  C   UNL     1      -9.913   0.788  -0.221  0.00  0.00    +0.000 A 
ATOM     52  C   UNL     1      -8.656   0.403  -0.627  0.00  0.00    +0.000 A 
ATOM     53  N   UNL     1      -7.888   1.330  -1.232  0.00  0.00    +0.000 NA
ATOM     54  C   UNL     1      -8.444   2.508  -1.622  0.00  0.00    +0.000 A 
ATOM     55  N   UNL     1      -9.630   2.926  -1.118  0.00  0.00    +0.000 NA
ATOM     56  C   UNL     1     -10.353   2.103  -0.329  0.00  0.00    +0.000 A 
ATOM     57  N   UNL     1     -11.151   2.648   0.721  0.00  0.00    +0.000 N 
ATOM     58  H   UNL     1     -11.472   3.577   0.664  0.00  0.00    +0.000 HD
ATOM     59  H   UNL     1     -11.381   2.096   1.503  0.00  0.00    +0.000 HD
ENDBRANCH  45  48
BRANCH  46  60
ATOM     60  O   UNL     1      -6.215  -3.138   1.294  0.00  0.00    +0.000 OA
ATOM     61  H   UNL     1      -5.507  -2.496   1.462  0.00  0.00    +0.000 HD
ENDBRANCH  46  60
BRANCH  47  62
ATOM     62  O   UNL     1      -4.669  -3.630  -0.209  0.00  0.00    +0.000 OA
ATOM     63  H   UNL     1      -4.796  -3.552   0.749  0.00  0.00    +0.000 HD
ENDBRANCH  47  62
ENDBRANCH  42  43
ENDBRANCH  41  42
ENDBRANCH  37  41
ENDBRANCH  36  37
ENDBRANCH   1  36
TORSDOF 19
