REMARK  Name = 16019963
REMARK  22 active torsions:
REMARK  status: ('A' for Active; 'I' for Inactive)
REMARK    1  A    between atoms: P_1  and  O_11
REMARK    2  A    between atoms: P_1  and  O_13
REMARK    3  A    between atoms: P_1  and  O_14
REMARK    4  A    between atoms: P_2  and  O_12
REMARK    5  A    between atoms: P_2  and  O_15
REMARK    6  A    between atoms: P_2  and  O_16
REMARK    7  A    between atoms: P_3  and  O_13
REMARK    8  A    between atoms: P_3  and  O_19
REMARK    9  A    between atoms: P_3  and  O_20
REMARK   10  A    between atoms: P_4  and  O_19
REMARK   11  A    between atoms: P_4  and  O_22
REMARK   12  A    between atoms: P_4  and  O_23
REMARK   13  A    between atoms: O_7  and  C_31
REMARK   14  A    between atoms: O_8  and  C_32
REMARK   15  A    between atoms: O_9  and  C_35
REMARK   16  A    between atoms: O_10  and  C_36
REMARK   17  A    between atoms: O_11  and  C_38
REMARK   18  A    between atoms: O_12  and  C_40
REMARK   19  A    between atoms: N_25  and  C_30
REMARK   20  A    between atoms: N_26  and  C_34
REMARK   21  A    between atoms: C_33  and  C_38
REMARK   22  A    between atoms: C_37  and  C_40
REMARK                            x       y       z     vdW  Elec       q    Type
REMARK                         _______ _______ _______ _____ _____    ______ ____
ROOT
ATOM      1  N   UNL     1       1.035  -3.521   0.263  0.00  0.00    +0.000 N 
ATOM      2  N   UNL     1      -2.402  -1.614  -0.290  0.00  0.00    +0.000 N 
ATOM      3  N   UNL     1      -0.141  -1.431   0.594  0.00  0.00    +0.000 NA
ATOM      4  N   UNL     1      -0.552  -4.745  -0.727  0.00  0.00    +0.000 NA
ATOM      5  N   UNL     1      -3.205  -3.721  -1.281  0.00  0.00    +0.000 NA
ATOM      6  C   UNL     1      -0.059  -2.713   0.164  0.00  0.00    +0.000 A 
ATOM      7  C   UNL     1      -1.021  -3.492  -0.450  0.00  0.00    +0.000 A 
ATOM      8  C   UNL     1      -2.337  -2.953  -0.720  0.00  0.00    +0.000 A 
ATOM      9  C   UNL     1       0.690  -4.731  -0.286  0.00  0.00    +0.000 A 
ATOM     10  C   UNL     1      -1.329  -0.954   0.337  0.00  0.00    +0.000 A 
ATOM     11  H   UNL     1      -2.819  -4.653  -1.464  0.00  0.00    +0.000 HD
ENDROOT
BRANCH   1  13
ATOM     12  O   UNL     1       2.245  -2.219   1.936  0.00  0.00    +0.000 OA
ATOM     13  C   UNL     1       2.377  -3.170   0.860  0.00  0.00    +0.000 C 
ATOM     14  C   UNL     1       3.326  -2.528  -0.147  0.00  0.00    +0.000 C 
ATOM     15  C   UNL     1       4.249  -1.731   0.754  0.00  0.00    +0.000 C 
ATOM     16  C   UNL     1       3.292  -1.229   1.829  0.00  0.00    +0.000 C 
BRANCH  14  17
ATOM     17  O   UNL     1       4.013  -3.475  -0.941  0.00  0.00    +0.000 OA
ATOM     18  H   UNL     1       4.666  -2.990  -1.473  0.00  0.00    +0.000 HD
ENDBRANCH  14  17
BRANCH  15  19
ATOM     19  O   UNL     1       5.199  -2.592   1.379  0.00  0.00    +0.000 OA
ATOM     20  H   UNL     1       5.747  -2.044   1.967  0.00  0.00    +0.000 HD
ENDBRANCH  15  19
BRANCH  16  21
ATOM     21  C   UNL     1       2.652   0.107   1.481  0.00  0.00    +0.000 C 
BRANCH  21  22
ATOM     22  O   UNL     1       3.670   1.081   1.327  0.00  0.00    +0.000 OA
BRANCH  22  23
ATOM     23  P   UNL     1       3.280   2.607   0.952  0.00  0.00    +0.000 P 
ATOM     24  O   UNL     1       4.447   3.541   0.817  0.00  0.00    +0.000 OA
BRANCH  23  25
ATOM     25  O   UNL     1       2.208   3.037   2.085  0.00  0.00    +0.000 OA
ATOM     26  H   UNL     1       1.917   3.972   2.132  0.00  0.00    +0.000 HD
ENDBRANCH  23  25
BRANCH  23  27
ATOM     27  O   UNL     1       2.377   2.479  -0.382  0.00  0.00    +0.000 OA
BRANCH  27  28
ATOM     28  P   UNL     1       2.744   1.990  -1.876  0.00  0.00    +0.000 P 
ATOM     29  O   UNL     1       3.426   3.014  -2.734  0.00  0.00    +0.000 OA
BRANCH  28  30
ATOM     30  O   UNL     1       3.586   0.630  -1.643  0.00  0.00    +0.000 OA
ATOM     31  H   UNL     1       3.995   0.185  -2.416  0.00  0.00    +0.000 HD
ENDBRANCH  28  30
BRANCH  28  32
ATOM     32  O   UNL     1       1.331   1.463  -2.454  0.00  0.00    +0.000 OA
BRANCH  32  33
ATOM     33  P   UNL     1      -0.046   2.234  -2.802  0.00  0.00    +0.000 P 
ATOM     34  O   UNL     1      -0.681   2.938  -1.639  0.00  0.00    +0.000 OA
BRANCH  33  35
ATOM     35  O   UNL     1      -0.955   1.093  -3.498  0.00  0.00    +0.000 OA
ATOM     36  H   UNL     1      -1.885   1.301  -3.728  0.00  0.00    +0.000 HD
ENDBRANCH  33  35
BRANCH  33  37
ATOM     37  O   UNL     1       0.371   3.189  -4.038  0.00  0.00    +0.000 OA
ATOM     38  H   UNL     1      -0.281   3.838  -4.377  0.00  0.00    +0.000 HD
ENDBRANCH  33  37
ENDBRANCH  32  33
ENDBRANCH  28  32
ENDBRANCH  27  28
ENDBRANCH  23  27
ENDBRANCH  22  23
ENDBRANCH  21  22
ENDBRANCH  16  21
ENDBRANCH   1  13
BRANCH   2  40
ATOM     39  O   UNL     1      -3.385   0.510  -0.664  0.00  0.00    +0.000 OA
ATOM     40  C   UNL     1      -3.636  -0.895  -0.482  0.00  0.00    +0.000 C 
ATOM     41  C   UNL     1      -4.522  -1.014   0.749  0.00  0.00    +0.000 C 
ATOM     42  C   UNL     1      -5.303   0.282   0.706  0.00  0.00    +0.000 C 
ATOM     43  C   UNL     1      -4.257   1.267   0.203  0.00  0.00    +0.000 C 
BRANCH  41  44
ATOM     44  O   UNL     1      -5.365  -2.147   0.703  0.00  0.00    +0.000 OA
ATOM     45  H   UNL     1      -5.970  -2.092   1.462  0.00  0.00    +0.000 HD
ENDBRANCH  41  44
BRANCH  42  46
ATOM     46  O   UNL     1      -6.339   0.204  -0.272  0.00  0.00    +0.000 OA
ATOM     47  H   UNL     1      -6.786   1.068  -0.291  0.00  0.00    +0.000 HD
ENDBRANCH  42  46
BRANCH  43  48
ATOM     48  C   UNL     1      -3.411   1.869   1.318  0.00  0.00    +0.000 C 
BRANCH  48  49
ATOM     49  O   UNL     1      -2.468   2.757   0.743  0.00  0.00    +0.000 OA
BRANCH  49  50
ATOM     50  P   UNL     1      -1.440   3.533   1.723  0.00  0.00    +0.000 P 
ATOM     51  O   UNL     1      -0.477   4.453   1.032  0.00  0.00    +0.000 OA
BRANCH  50  52
ATOM     52  O   UNL     1      -0.763   2.346   2.587  0.00  0.00    +0.000 OA
ATOM     53  H   UNL     1      -0.036   2.565   3.208  0.00  0.00    +0.000 HD
ENDBRANCH  50  52
BRANCH  50  54
ATOM     54  O   UNL     1      -2.426   4.250   2.786  0.00  0.00    +0.000 OA
ATOM     55  H   UNL     1      -2.044   4.868   3.446  0.00  0.00    +0.000 HD
ENDBRANCH  50  54
ENDBRANCH  49  50
ENDBRANCH  48  49
ENDBRANCH  43  48
ENDBRANCH   2  40
TORSDOF 22
