REMARK  Name = 439455
REMARK  15 active torsions:
REMARK  status: ('A' for Active; 'I' for Inactive)
REMARK    1  A    between atoms: P_1  and  O_4
REMARK    2  A    between atoms: P_1  and  O_10
REMARK    3  A    between atoms: P_1  and  O_11
REMARK    4  A    between atoms: P_2  and  O_5
REMARK    5  A    between atoms: P_2  and  O_12
REMARK    6  A    between atoms: P_2  and  O_13
REMARK    7  A    between atoms: P_3  and  O_6
REMARK    8  A    between atoms: P_3  and  O_14
REMARK    9  A    between atoms: P_3  and  O_15
REMARK   10  A    between atoms: O_4  and  C_19
REMARK   11  A    between atoms: O_5  and  C_20
REMARK   12  A    between atoms: O_6  and  C_21
REMARK   13  A    between atoms: O_7  and  C_22
REMARK   14  A    between atoms: O_8  and  C_23
REMARK   15  A    between atoms: O_9  and  C_24
REMARK                            x       y       z     vdW  Elec       q    Type
REMARK                         _______ _______ _______ _____ _____    ______ ____
ROOT
ATOM      1  C   UNL     1       0.415  -0.903  -1.112  0.00  0.00    +0.000 C 
ATOM      2  C   UNL     1       1.281  -0.235  -0.033  0.00  0.00    +0.000 C 
ATOM      3  C   UNL     1      -1.244   1.042  -0.997  0.00  0.00    +0.000 C 
ATOM      4  C   UNL     1      -0.390   0.140  -1.899  0.00  0.00    +0.000 C 
ATOM      5  C   UNL     1       0.479   0.713   0.878  0.00  0.00    +0.000 C 
ATOM      6  C   UNL     1      -0.400   1.710   0.098  0.00  0.00    +0.000 C 
ENDROOT
BRANCH   4   7
ATOM      7  O   UNL     1      -1.216  -0.526  -2.852  0.00  0.00    +0.000 OA
ATOM      8  H   UNL     1      -1.704   0.157  -3.344  0.00  0.00    +0.000 HD
ENDBRANCH   4   7
BRANCH   5   9
ATOM      9  O   UNL     1      -0.334  -0.072   1.747  0.00  0.00    +0.000 OA
ATOM     10  H   UNL     1      -0.985  -0.549   1.206  0.00  0.00    +0.000 HD
ENDBRANCH   5   9
BRANCH   6  11
ATOM     11  O   UNL     1       0.415   2.727  -0.480  0.00  0.00    +0.000 OA
ATOM     12  H   UNL     1       0.942   3.127   0.233  0.00  0.00    +0.000 HD
ENDBRANCH   6  11
BRANCH   1  13
ATOM     13  O   UNL     1      -0.469  -1.846  -0.510  0.00  0.00    +0.000 OA
BRANCH  13  14
ATOM     14  P   UNL     1       0.172  -3.037   0.370  0.00  0.00    +0.000 P 
ATOM     15  O   UNL     1       0.982  -2.592   1.553  0.00  0.00    +0.000 OA
BRANCH  14  16
ATOM     16  O   UNL     1       0.969  -3.934  -0.714  0.00  0.00    +0.000 OA
ATOM     17  H   UNL     1       1.499  -4.697  -0.401  0.00  0.00    +0.000 HD
ENDBRANCH  14  16
BRANCH  14  18
ATOM     18  O   UNL     1      -1.117  -3.945   0.728  0.00  0.00    +0.000 OA
ATOM     19  H   UNL     1      -1.010  -4.699   1.346  0.00  0.00    +0.000 HD
ENDBRANCH  14  18
ENDBRANCH  13  14
ENDBRANCH   1  13
BRANCH   2  20
ATOM     20  O   UNL     1       2.327   0.486  -0.681  0.00  0.00    +0.000 OA
BRANCH  20  21
ATOM     21  P   UNL     1       3.436   1.206   0.242  0.00  0.00    +0.000 P 
ATOM     22  O   UNL     1       2.904   2.240   1.192  0.00  0.00    +0.000 OA
BRANCH  21  23
ATOM     23  O   UNL     1       4.534   1.741  -0.817  0.00  0.00    +0.000 OA
ATOM     24  H   UNL     1       5.292   2.270  -0.488  0.00  0.00    +0.000 HD
ENDBRANCH  21  23
BRANCH  21  25
ATOM     25  O   UNL     1       4.175  -0.049   0.944  0.00  0.00    +0.000 OA
ATOM     26  H   UNL     1       4.844   0.123   1.641  0.00  0.00    +0.000 HD
ENDBRANCH  21  25
ENDBRANCH  20  21
ENDBRANCH   2  20
BRANCH   3  27
ATOM     27  O   UNL     1      -2.285   0.290  -0.377  0.00  0.00    +0.000 OA
BRANCH  27  28
ATOM     28  P   UNL     1      -3.340   1.075   0.559  0.00  0.00    +0.000 P 
ATOM     29  O   UNL     1      -2.741   1.783   1.740  0.00  0.00    +0.000 OA
BRANCH  28  30
ATOM     30  O   UNL     1      -4.450  -0.045   0.916  0.00  0.00    +0.000 OA
ATOM     31  H   UNL     1      -5.176   0.186   1.534  0.00  0.00    +0.000 HD
ENDBRANCH  28  30
BRANCH  28  32
ATOM     32  O   UNL     1      -4.103   2.033  -0.496  0.00  0.00    +0.000 OA
ATOM     33  H   UNL     1      -4.744   2.695  -0.159  0.00  0.00    +0.000 HD
ENDBRANCH  28  32
ENDBRANCH  27  28
ENDBRANCH   3  27
TORSDOF 15
