REMARK  Name = 5289437
REMARK  21 active torsions:
REMARK  status: ('A' for Active; 'I' for Inactive)
REMARK    1  A    between atoms: P_2  and  O_7
REMARK    2  A    between atoms: P_2  and  O_14
REMARK    3  A    between atoms: P_2  and  O_15
REMARK    4  A    between atoms: P_3  and  O_9
REMARK    5  A    between atoms: P_3  and  O_13
REMARK    6  A    between atoms: P_3  and  O_17
REMARK    7  A    between atoms: P_4  and  O_12
REMARK    8  A    between atoms: P_4  and  O_13
REMARK    9  A    between atoms: O_7  and  C_28
REMARK   10  A    between atoms: O_8  and  C_29
REMARK   11  A    between atoms: O_9  and  C_36
REMARK   12  A    between atoms: O_10  and  C_32
REMARK   13  A    between atoms: O_11  and  C_33
REMARK   14  A    between atoms: O_12  and  C_37
REMARK   15  A    between atoms: N_21  and  C_30
REMARK   16  A    between atoms: N_22  and  C_35
REMARK   17  A    between atoms: N_26  and  C_44
REMARK   18  A    between atoms: N_27  and  C_48
REMARK   19  A    between atoms: C_31  and  C_36
REMARK   20  A    between atoms: C_34  and  C_37
REMARK   21  A    between atoms: C_43  and  C_48
REMARK                            x       y       z     vdW  Elec       q    Type
REMARK                         _______ _______ _______ _____ _____    ______ ____
ROOT
ATOM      1  P   UNL     1      -1.769   2.768  -1.121  0.00  0.00    +0.000 P 
ATOM      2  O   UNL     1      -1.538   1.540  -1.953  0.00  0.00    +0.000 OA
ENDROOT
BRANCH   1   3
ATOM      3  O   UNL     1      -1.810   4.147  -1.966  0.00  0.00    +0.000 OA
ATOM      4  H   UNL     1      -2.329   4.178  -2.797  0.00  0.00    +0.000 HD
ENDBRANCH   1   3
BRANCH   1   5
ATOM      5  O   UNL     1      -0.654   3.031   0.022  0.00  0.00    +0.000 OA
BRANCH   5   6
ATOM      6  C   UNL     1       0.704   3.214  -0.341  0.00  0.00    +0.000 C 
BRANCH   6  11
ATOM      7  O   UNL     1       1.334   1.294   0.968  0.00  0.00    +0.000 OA
ATOM      8  C   UNL     1       3.398   1.527  -0.170  0.00  0.00    +0.000 C 
ATOM      9  C   UNL     1       3.074   2.849   0.498  0.00  0.00    +0.000 C 
ATOM     10  C   UNL     1       2.529   0.565   0.626  0.00  0.00    +0.000 C 
ATOM     11  C   UNL     1       1.584   2.708   0.793  0.00  0.00    +0.000 C 
BRANCH  10  12
ATOM     12  N   UNL     1       2.172  -0.653  -0.097  0.00  0.00    +0.000 N 
ATOM     13  N   UNL     1       1.045  -2.019  -1.451  0.00  0.00    +0.000 NA
ATOM     14  N   UNL     1       3.927  -2.159   0.647  0.00  0.00    +0.000 NA
ATOM     15  N   UNL     1       3.687  -4.368  -0.363  0.00  0.00    +0.000 NA
ATOM     16  C   UNL     1       2.828  -1.851  -0.058  0.00  0.00    +0.000 A 
ATOM     17  C   UNL     1       1.108  -0.805  -0.947  0.00  0.00    +0.000 A 
ATOM     18  C   UNL     1       2.114  -2.684  -0.904  0.00  0.00    +0.000 A 
ATOM     19  C   UNL     1       2.581  -3.986  -1.046  0.00  0.00    +0.000 A 
ATOM     20  C   UNL     1       4.283  -3.444   0.429  0.00  0.00    +0.000 A 
BRANCH  19  21
ATOM     21  N   UNL     1       1.918  -4.899  -1.885  0.00  0.00    +0.000 N 
ATOM     22  H   UNL     1       1.092  -4.617  -2.395  0.00  0.00    +0.000 HD
ATOM     23  H   UNL     1       2.277  -5.840  -1.972  0.00  0.00    +0.000 HD
ENDBRANCH  19  21
ENDBRANCH  10  12
BRANCH   9  24
ATOM     24  O   UNL     1       3.781   2.944   1.734  0.00  0.00    +0.000 OA
ATOM     25  H   UNL     1       3.514   3.777   2.158  0.00  0.00    +0.000 HD
ENDBRANCH   9  24
BRANCH   8  26
ATOM     26  O   UNL     1       4.767   1.188  -0.091  0.00  0.00    +0.000 OA
BRANCH  26  27
ATOM     27  P   UNL     1       5.799   1.879  -1.133  0.00  0.00    +0.000 P 
ATOM     28  O   UNL     1       5.862   3.376  -1.061  0.00  0.00    +0.000 OA
BRANCH  27  29
ATOM     29  O   UNL     1       5.359   1.273  -2.566  0.00  0.00    +0.000 OA
ATOM     30  H   UNL     1       5.798   1.606  -3.377  0.00  0.00    +0.000 HD
ENDBRANCH  27  29
BRANCH  27  31
ATOM     31  O   UNL     1       7.194   1.121  -0.821  0.00  0.00    +0.000 OA
ATOM     32  H   UNL     1       8.011   1.429  -1.267  0.00  0.00    +0.000 HD
ENDBRANCH  27  31
ENDBRANCH  26  27
ENDBRANCH   8  26
ENDBRANCH   6  11
ENDBRANCH   5   6
ENDBRANCH   1   5
BRANCH   1  33
ATOM     33  O   UNL     1      -3.178   2.780  -0.326  0.00  0.00    +0.000 OA
BRANCH  33  34
ATOM     34  P   UNL     1      -4.718   2.714  -0.865  0.00  0.00    +0.000 P 
ATOM     35  O   UNL     1      -4.919   3.821  -1.878  0.00  0.00    +0.000 OA
ATOM     36  O   UNL     1      -5.640   2.584   0.327  0.00  0.00    +0.000 OA
BRANCH  34  37
ATOM     37  O   UNL     1      -4.674   1.273  -1.638  0.00  0.00    +0.000 OA
BRANCH  37  38
ATOM     38  C   UNL     1      -4.922   0.086  -0.902  0.00  0.00    +0.000 C 
BRANCH  38  42
ATOM     39  O   UNL     1      -2.783  -1.009  -1.057  0.00  0.00    +0.000 OA
ATOM     40  C   UNL     1      -4.687  -2.432  -1.144  0.00  0.00    +0.000 C 
ATOM     41  C   UNL     1      -3.892  -2.749   0.106  0.00  0.00    +0.000 C 
ATOM     42  C   UNL     1      -4.146  -1.061  -1.535  0.00  0.00    +0.000 C 
ATOM     43  C   UNL     1      -2.532  -2.172  -0.247  0.00  0.00    +0.000 C 
BRANCH  43  44
ATOM     44  N   UNL     1      -1.769  -1.845   0.984  0.00  0.00    +0.000 N 
ATOM     45  C   UNL     1      -1.935  -0.641   1.547  0.00  0.00    +0.000 A 
ATOM     46  C   UNL     1      -0.940  -2.767   1.493  0.00  0.00    +0.000 A 
ATOM     47  C   UNL     1      -1.236  -0.309   2.699  0.00  0.00    +0.000 A 
ATOM     48  C   UNL     1      -0.214  -2.490   2.643  0.00  0.00    +0.000 A 
ATOM     49  C   UNL     1      -0.367  -1.246   3.249  0.00  0.00    +0.000 A 
BRANCH  47  51
ATOM     50  S   UNL     1      -2.830   1.913   3.268  0.00  0.00    +0.000 S 
ATOM     51  C   UNL     1      -1.409   0.995   3.317  0.00  0.00    +0.000 C 
BRANCH  51  52
ATOM     52  N   UNL     1      -0.310   1.503   4.000  0.00  0.00    +0.000 N 
ATOM     53  H   UNL     1      -0.367   2.405   4.461  0.00  0.00    +0.000 HD
ATOM     54  H   UNL     1       0.590   1.038   4.043  0.00  0.00    +0.000 HD
ENDBRANCH  51  52
ENDBRANCH  47  51
ENDBRANCH  43  44
BRANCH  40  55
ATOM     55  O   UNL     1      -4.354  -3.368  -2.170  0.00  0.00    +0.000 OA
ATOM     56  H   UNL     1      -4.847  -3.111  -2.968  0.00  0.00    +0.000 HD
ENDBRANCH  40  55
BRANCH  41  57
ATOM     57  O   UNL     1      -3.823  -4.132   0.383  0.00  0.00    +0.000 OA
ATOM     58  H   UNL     1      -4.735  -4.454   0.483  0.00  0.00    +0.000 HD
ENDBRANCH  41  57
ENDBRANCH  38  42
ENDBRANCH  37  38
ENDBRANCH  34  37
ENDBRANCH  33  34
ENDBRANCH   1  33
TORSDOF 21
