REMARK  Name = 447048
REMARK  17 active torsions:
REMARK  status: ('A' for Active; 'I' for Inactive)
REMARK    1  A    between atoms: P_1  and  O_7
REMARK    2  A    between atoms: P_1  and  O_12
REMARK    3  A    between atoms: P_1  and  O_13
REMARK    4  A    between atoms: P_2  and  O_10
REMARK    5  A    between atoms: P_2  and  O_12
REMARK    6  A    between atoms: P_2  and  O_15
REMARK    7  A    between atoms: O_4  and  C_22
REMARK    8  A    between atoms: O_5  and  C_23
REMARK    9  A    between atoms: O_7  and  C_26
REMARK   10  A    between atoms: O_8  and  C_27
REMARK   11  A    between atoms: O_9  and  C_29
REMARK   12  A    between atoms: O_10  and  C_31
REMARK   13  A    between atoms: O_11  and  C_30
REMARK   14  A    between atoms: N_17  and  C_25
REMARK   15  A    between atoms: N_21  and  C_35
REMARK   16  A    between atoms: C_24  and  C_26
REMARK   17  A    between atoms: C_28  and  C_31
REMARK                            x       y       z     vdW  Elec       q    Type
REMARK                         _______ _______ _______ _____ _____    ______ ____
ROOT
ATOM      1  O   UNL     1       3.707  -1.542   0.563  0.00  0.00    +0.000 OA
ENDROOT
BRANCH   1   2
ATOM      2  P   UNL     1       4.220  -0.055   0.941  0.00  0.00    +0.000 P 
ATOM      3  O   UNL     1       5.643   0.234   0.561  0.00  0.00    +0.000 OA
BRANCH   2   4
ATOM      4  O   UNL     1       3.909   0.089   2.522  0.00  0.00    +0.000 OA
ATOM      5  H   UNL     1       4.251   0.873   3.003  0.00  0.00    +0.000 HD
ENDBRANCH   2   4
BRANCH   2   6
ATOM      6  O   UNL     1       3.138   0.934   0.260  0.00  0.00    +0.000 OA
BRANCH   6   7
ATOM      7  P   UNL     1       3.181   2.526  -0.015  0.00  0.00    +0.000 P 
ATOM      8  O   UNL     1       4.306   2.978  -0.899  0.00  0.00    +0.000 OA
BRANCH   7   9
ATOM      9  O   UNL     1       3.191   3.153   1.476  0.00  0.00    +0.000 OA
ATOM     10  H   UNL     1       2.564   2.813   2.150  0.00  0.00    +0.000 HD
ENDBRANCH   7   9
BRANCH   7  11
ATOM     11  O   UNL     1       1.691   2.841  -0.559  0.00  0.00    +0.000 OA
BRANCH  11  12
ATOM     12  C   UNL     1       0.584   2.439   0.231  0.00  0.00    +0.000 C 
BRANCH  12  15
ATOM     13  O   UNL     1      -0.775   2.167  -1.753  0.00  0.00    +0.000 OA
ATOM     14  C   UNL     1      -1.956   2.442   0.280  0.00  0.00    +0.000 C 
ATOM     15  C   UNL     1      -0.697   2.839  -0.480  0.00  0.00    +0.000 C 
ATOM     16  C   UNL     1      -2.956   2.305  -0.847  0.00  0.00    +0.000 C 
ATOM     17  C   UNL     1      -2.096   1.608  -1.892  0.00  0.00    +0.000 C 
BRANCH  14  18
ATOM     18  O   UNL     1      -2.321   3.412   1.239  0.00  0.00    +0.000 OA
ATOM     19  H   UNL     1      -3.183   3.149   1.604  0.00  0.00    +0.000 HD
ENDBRANCH  14  18
BRANCH  16  20
ATOM     20  O   UNL     1      -3.341   3.599  -1.307  0.00  0.00    +0.000 OA
ATOM     21  H   UNL     1      -2.604   3.989  -1.806  0.00  0.00    +0.000 HD
ENDBRANCH  16  20
BRANCH  17  22
ATOM     22  O   UNL     1      -2.631   1.781  -3.192  0.00  0.00    +0.000 OA
ATOM     23  H   UNL     1      -2.294   1.052  -3.740  0.00  0.00    +0.000 HD
ENDBRANCH  17  22
ENDBRANCH  12  15
ENDBRANCH  11  12
ENDBRANCH   7  11
ENDBRANCH   6   7
ENDBRANCH   2   6
ENDBRANCH   1   2
BRANCH   1  24
ATOM     24  C   UNL     1       2.380  -1.933   0.872  0.00  0.00    +0.000 C 
BRANCH  24  28
ATOM     25  O   UNL     1       0.543  -3.312   0.147  0.00  0.00    +0.000 OA
ATOM     26  C   UNL     1       1.912  -2.409  -1.579  0.00  0.00    +0.000 C 
ATOM     27  C   UNL     1       0.514  -1.836  -1.705  0.00  0.00    +0.000 C 
ATOM     28  C   UNL     1       1.912  -2.955  -0.155  0.00  0.00    +0.000 C 
ATOM     29  C   UNL     1      -0.302  -2.856  -0.926  0.00  0.00    +0.000 C 
BRANCH  29  30
ATOM     30  N   UNL     1      -1.551  -2.328  -0.380  0.00  0.00    +0.000 N 
ATOM     31  N   UNL     1      -3.719  -1.829  -0.242  0.00  0.00    +0.000 NA
ATOM     32  N   UNL     1      -0.774  -1.398   1.725  0.00  0.00    +0.000 NA
ATOM     33  N   UNL     1      -2.609  -0.390   2.979  0.00  0.00    +0.000 NA
ATOM     34  C   UNL     1      -1.715  -1.682   0.812  0.00  0.00    +0.000 A 
ATOM     35  C   UNL     1      -2.782  -2.391  -0.977  0.00  0.00    +0.000 A 
ATOM     36  C   UNL     1      -3.066  -1.381   0.879  0.00  0.00    +0.000 A 
ATOM     37  C   UNL     1      -3.505  -0.710   2.015  0.00  0.00    +0.000 A 
ATOM     38  C   UNL     1      -1.318  -0.749   2.777  0.00  0.00    +0.000 A 
BRANCH  37  39
ATOM     39  N   UNL     1      -4.860  -0.366   2.167  0.00  0.00    +0.000 N 
ATOM     40  H   UNL     1      -5.155   0.122   3.001  0.00  0.00    +0.000 HD
ATOM     41  H   UNL     1      -5.530  -0.602   1.448  0.00  0.00    +0.000 HD
ENDBRANCH  37  39
ENDBRANCH  29  30
BRANCH  26  42
ATOM     42  O   UNL     1       2.063  -3.498  -2.490  0.00  0.00    +0.000 OA
ATOM     43  H   UNL     1       2.954  -3.866  -2.356  0.00  0.00    +0.000 HD
ENDBRANCH  26  42
BRANCH  27  44
ATOM     44  O   UNL     1       0.080  -1.726  -3.045  0.00  0.00    +0.000 OA
ATOM     45  H   UNL     1      -0.838  -1.404  -3.032  0.00  0.00    +0.000 HD
ENDBRANCH  27  44
ENDBRANCH  24  28
ENDBRANCH   1  24
TORSDOF 17
