REMARK  Name = 23700
REMARK  18 active torsions:
REMARK  status: ('A' for Active; 'I' for Inactive)
REMARK    1  A    between atoms: P_1  and  O_5
REMARK    2  A    between atoms: P_1  and  O_12
REMARK    3  A    between atoms: P_1  and  O_13
REMARK    4  A    between atoms: P_2  and  O_10
REMARK    5  A    between atoms: P_2  and  O_12
REMARK    6  A    between atoms: P_2  and  O_16
REMARK    7  A    between atoms: O_5  and  C_31
REMARK    8  A    between atoms: O_6  and  C_24
REMARK    9  A    between atoms: O_7  and  C_25
REMARK   10  A    between atoms: O_8  and  C_26
REMARK   11  A    between atoms: O_9  and  C_27
REMARK   12  A    between atoms: O_10  and  C_32
REMARK   13  A    between atoms: O_11  and  C_33
REMARK   14  A    between atoms: N_20  and  C_29
REMARK   15  A    between atoms: N_21  and  C_23
REMARK   16  A    between atoms: C_28  and  C_32
REMARK   17  A    between atoms: C_30  and  C_33
REMARK   18  A    between atoms: C_36  and  C_38
REMARK                            x       y       z     vdW  Elec       q    Type
REMARK                         _______ _______ _______ _____ _____    ______ ____
ROOT
ATOM      1  P   UNL     1      -1.396   3.093  -1.985  0.00  0.00    +0.000 P 
ATOM      2  O   UNL     1      -1.569   4.357  -1.195  0.00  0.00    +0.000 OA
ENDROOT
BRANCH   1   3
ATOM      3  O   UNL     1      -1.060   3.307  -3.553  0.00  0.00    +0.000 OA
ATOM      4  H   UNL     1      -0.959   2.518  -4.127  0.00  0.00    +0.000 HD
ENDBRANCH   1   3
BRANCH   1   5
ATOM      5  O   UNL     1      -0.230   2.097  -1.469  0.00  0.00    +0.000 OA
BRANCH   5   6
ATOM      6  C   UNL     1       1.103   2.576  -1.437  0.00  0.00    +0.000 C 
BRANCH   6  10
ATOM      7  O   UNL     1       1.624   1.125   0.407  0.00  0.00    +0.000 OA
ATOM      8  C   UNL     1       3.055   2.993   0.139  0.00  0.00    +0.000 C 
ATOM      9  C   UNL     1       3.845   1.735  -0.150  0.00  0.00    +0.000 C 
ATOM     10  C   UNL     1       1.619   2.509  -0.006  0.00  0.00    +0.000 C 
ATOM     11  C   UNL     1       2.983   0.665   0.498  0.00  0.00    +0.000 C 
BRANCH  11  14
ATOM     12  O   UNL     1       4.755  -1.393   1.272  0.00  0.00    +0.000 OA
ATOM     13  O   UNL     1       3.316  -4.159  -2.122  0.00  0.00    +0.000 OA
ATOM     14  N   UNL     1       3.091  -0.603  -0.166  0.00  0.00    +0.000 N 
ATOM     15  N   UNL     1       4.038  -2.768  -0.419  0.00  0.00    +0.000 N 
ATOM     16  C   UNL     1       4.014  -1.568   0.302  0.00  0.00    +0.000 A 
ATOM     17  C   UNL     1       2.290  -0.881  -1.266  0.00  0.00    +0.000 A 
ATOM     18  C   UNL     1       2.323  -2.031  -1.944  0.00  0.00    +0.000 A 
ATOM     19  C   UNL     1       3.260  -3.091  -1.521  0.00  0.00    +0.000 A 
ATOM     20  H   UNL     1       4.694  -3.476  -0.101  0.00  0.00    +0.000 HD
ENDBRANCH  11  14
BRANCH   8  21
ATOM     21  O   UNL     1       3.248   3.398   1.494  0.00  0.00    +0.000 OA
ATOM     22  H   UNL     1       2.692   4.182   1.646  0.00  0.00    +0.000 HD
ENDBRANCH   8  21
BRANCH   9  23
ATOM     23  O   UNL     1       5.149   1.783   0.392  0.00  0.00    +0.000 OA
ATOM     24  H   UNL     1       5.561   0.916   0.239  0.00  0.00    +0.000 HD
ENDBRANCH   9  23
ENDBRANCH   6  10
ENDBRANCH   5   6
ENDBRANCH   1   5
BRANCH   1  25
ATOM     25  O   UNL     1      -2.700   2.138  -2.020  0.00  0.00    +0.000 OA
BRANCH  25  26
ATOM     26  P   UNL     1      -3.519   1.416  -0.828  0.00  0.00    +0.000 P 
ATOM     27  O   UNL     1      -4.101   2.363   0.181  0.00  0.00    +0.000 OA
BRANCH  26  28
ATOM     28  O   UNL     1      -4.616   0.527  -1.618  0.00  0.00    +0.000 OA
ATOM     29  H   UNL     1      -5.427   0.964  -1.956  0.00  0.00    +0.000 HD
ENDBRANCH  26  28
BRANCH  26  30
ATOM     30  O   UNL     1      -2.486   0.338  -0.216  0.00  0.00    +0.000 OA
BRANCH  30  36
ATOM     31  O   UNL     1      -3.489  -1.759   0.216  0.00  0.00    +0.000 OA
ATOM     32  C   UNL     1      -1.773  -0.926   1.736  0.00  0.00    +0.000 C 
ATOM     33  C   UNL     1      -0.723  -1.773   1.008  0.00  0.00    +0.000 C 
ATOM     34  C   UNL     1      -1.383  -2.986   0.342  0.00  0.00    +0.000 C 
ATOM     35  C   UNL     1      -2.550  -2.533  -0.545  0.00  0.00    +0.000 C 
ATOM     36  C   UNL     1      -2.929  -0.574   0.789  0.00  0.00    +0.000 C 
BRANCH  32  38
ATOM     37  O   UNL     1      -2.571   0.446   4.168  0.00  0.00    +0.000 OA
ATOM     38  N   UNL     1      -1.185   0.265   2.306  0.00  0.00    +0.000 N 
ATOM     39  C   UNL     1      -1.638   0.848   3.478  0.00  0.00    +0.000 C 
ATOM     40  C   UNL     1      -0.833   2.061   3.860  0.00  0.00    +0.000 C 
ATOM     41  H   UNL     1      -0.436   0.719   1.790  0.00  0.00    +0.000 HD
ENDBRANCH  32  38
BRANCH  33  42
ATOM     42  O   UNL     1       0.264  -2.213   1.937  0.00  0.00    +0.000 OA
ATOM     43  H   UNL     1       0.915  -2.740   1.442  0.00  0.00    +0.000 HD
ENDBRANCH  33  42
BRANCH  34  44
ATOM     44  O   UNL     1      -1.860  -3.863   1.366  0.00  0.00    +0.000 OA
ATOM     45  H   UNL     1      -2.676  -3.486   1.736  0.00  0.00    +0.000 HD
ENDBRANCH  34  44
BRANCH  35  46
ATOM     46  C   UNL     1      -3.318  -3.698  -1.158  0.00  0.00    +0.000 C 
BRANCH  46  47
ATOM     47  O   UNL     1      -4.047  -3.221  -2.274  0.00  0.00    +0.000 OA
ATOM     48  H   UNL     1      -4.525  -3.980  -2.651  0.00  0.00    +0.000 HD
ENDBRANCH  46  47
ENDBRANCH  35  46
ENDBRANCH  30  36
ENDBRANCH  26  30
ENDBRANCH  25  26
ENDBRANCH   1  25
TORSDOF 17
