REMARK  Name = 444761
REMARK  11 active torsions:
REMARK  status: ('A' for Active; 'I' for Inactive)
REMARK    1  A    between atoms: P_1  and  O_7
REMARK    2  A    between atoms: P_1  and  O_8
REMARK    3  A    between atoms: P_1  and  C_17
REMARK    4  A    between atoms: P_2  and  O_6
REMARK    5  A    between atoms: P_2  and  O_10
REMARK    6  A    between atoms: P_2  and  O_11
REMARK    7  A    between atoms: O_4  and  C_14
REMARK    8  A    between atoms: O_5  and  C_15
REMARK    9  A    between atoms: O_6  and  C_18
REMARK   10  A    between atoms: C_13  and  C_17
REMARK   11  A    between atoms: C_16  and  C_18
REMARK                            x       y       z     vdW  Elec       q    Type
REMARK                         _______ _______ _______ _____ _____    ______ ____
ROOT
ATOM      1  O   UNL     1      -0.519  -0.262   0.621  0.00  0.00    +0.000 OA
ATOM      2  C   UNL     1      -1.700  -0.821   0.022  0.00  0.00    +0.000 C 
ATOM      3  C   UNL     1      -1.244  -2.070  -0.723  0.00  0.00    +0.000 C 
ATOM      4  C   UNL     1      -0.112  -2.570   0.152  0.00  0.00    +0.000 C 
ATOM      5  C   UNL     1       0.484  -1.290   0.739  0.00  0.00    +0.000 C 
ENDROOT
BRANCH   3   6
ATOM      6  O   UNL     1      -0.743  -1.732  -2.010  0.00  0.00    +0.000 OA
ATOM      7  H   UNL     1      -0.417  -2.552  -2.420  0.00  0.00    +0.000 HD
ENDBRANCH   3   6
BRANCH   4   8
ATOM      8  O   UNL     1      -0.637  -3.379   1.201  0.00  0.00    +0.000 OA
ATOM      9  H   UNL     1       0.109  -3.645   1.765  0.00  0.00    +0.000 HD
ENDBRANCH   4   8
BRANCH   2  10
ATOM     10  C   UNL     1      -2.377   0.237  -0.830  0.00  0.00    +0.000 C 
BRANCH  10  11
ATOM     11  P   UNL     1      -2.862   1.685   0.132  0.00  0.00    +0.000 P 
ATOM     12  O   UNL     1      -1.720   2.373   0.796  0.00  0.00    +0.000 OA
BRANCH  11  13
ATOM     13  O   UNL     1      -3.997   1.093   1.108  0.00  0.00    +0.000 OA
ATOM     14  H   UNL     1      -4.417   1.685   1.768  0.00  0.00    +0.000 HD
ENDBRANCH  11  13
BRANCH  11  15
ATOM     15  O   UNL     1      -3.688   2.557  -0.941  0.00  0.00    +0.000 OA
ATOM     16  H   UNL     1      -4.048   3.429  -0.672  0.00  0.00    +0.000 HD
ENDBRANCH  11  15
ENDBRANCH  10  11
ENDBRANCH   2  10
BRANCH   5  17
ATOM     17  C   UNL     1       1.723  -0.812  -0.005  0.00  0.00    +0.000 C 
BRANCH  17  18
ATOM     18  O   UNL     1       2.190   0.378   0.606  0.00  0.00    +0.000 OA
BRANCH  18  19
ATOM     19  P   UNL     1       3.508   1.094  -0.003  0.00  0.00    +0.000 P 
ATOM     20  O   UNL     1       3.933   2.348   0.703  0.00  0.00    +0.000 OA
BRANCH  19  21
ATOM     21  O   UNL     1       3.160   1.268  -1.573  0.00  0.00    +0.000 OA
ATOM     22  H   UNL     1       3.792   1.748  -2.149  0.00  0.00    +0.000 HD
ENDBRANCH  19  21
BRANCH  19  23
ATOM     23  O   UNL     1       4.601  -0.098   0.004  0.00  0.00    +0.000 OA
ATOM     24  H   UNL     1       5.529   0.107  -0.239  0.00  0.00    +0.000 HD
ENDBRANCH  19  23
ENDBRANCH  18  19
ENDBRANCH  17  18
ENDBRANCH   5  17
TORSDOF 11
