REMARK  Name = 122336
REMARK  15 active torsions:
REMARK  status: ('A' for Active; 'I' for Inactive)
REMARK    1  A    between atoms: P_1  and  O_11
REMARK    2  A    between atoms: P_1  and  O_13
REMARK    3  A    between atoms: P_1  and  O_14
REMARK    4  A    between atoms: O_2  and  C_16
REMARK    5  A    between atoms: O_2  and  C_20
REMARK    6  A    between atoms: O_5  and  C_17
REMARK    7  A    between atoms: O_6  and  C_18
REMARK    8  A    between atoms: O_7  and  C_19
REMARK    9  A    between atoms: O_8  and  C_21
REMARK   10  A    between atoms: O_9  and  C_23
REMARK   11  A    between atoms: O_10  and  C_24
REMARK   12  A    between atoms: O_11  and  C_26
REMARK   13  A    between atoms: O_12  and  C_27
REMARK   14  A    between atoms: C_22  and  C_26
REMARK   15  A    between atoms: C_25  and  C_27
REMARK                            x       y       z     vdW  Elec       q    Type
REMARK                         _______ _______ _______ _____ _____    ______ ____
ROOT
ATOM      1  O   UNL     1      -1.102   0.486  -0.852  0.00  0.00    +0.000 OA
ATOM      2  C   UNL     1       0.151   1.167  -0.764  0.00  0.00    +0.000 C 
ATOM      3  C   UNL     1      -0.058   2.681  -0.803  0.00  0.00    +0.000 C 
ATOM      4  C   UNL     1      -1.035   3.144   0.276  0.00  0.00    +0.000 C 
ATOM      5  C   UNL     1      -2.316   2.307   0.237  0.00  0.00    +0.000 C 
ATOM      6  C   UNL     1      -1.997   0.806   0.220  0.00  0.00    +0.000 C 
ENDROOT
BRANCH   3   7
ATOM      7  O   UNL     1       1.183   3.356  -0.636  0.00  0.00    +0.000 OA
ATOM      8  H   UNL     1       1.569   3.061   0.207  0.00  0.00    +0.000 HD
ENDBRANCH   3   7
BRANCH   4   9
ATOM      9  O   UNL     1      -1.385   4.509   0.036  0.00  0.00    +0.000 OA
ATOM     10  H   UNL     1      -1.897   4.821   0.801  0.00  0.00    +0.000 HD
ENDBRANCH   4   9
BRANCH   5  11
ATOM     11  O   UNL     1      -3.093   2.635   1.386  0.00  0.00    +0.000 OA
ATOM     12  H   UNL     1      -3.400   3.552   1.284  0.00  0.00    +0.000 HD
ENDBRANCH   5  11
BRANCH   2  13
ATOM     13  O   UNL     1       0.915   0.748   0.366  0.00  0.00    +0.000 OA
BRANCH  13  15
ATOM     14  O   UNL     1       1.758  -1.105  -0.848  0.00  0.00    +0.000 OA
ATOM     15  C   UNL     1       1.127  -0.662   0.356  0.00  0.00    +0.000 C 
ATOM     16  C   UNL     1       1.908  -1.147   1.578  0.00  0.00    +0.000 C 
ATOM     17  C   UNL     1       3.375  -0.727   1.514  0.00  0.00    +0.000 C 
ATOM     18  C   UNL     1       3.984  -1.101   0.161  0.00  0.00    +0.000 C 
ATOM     19  C   UNL     1       3.098  -0.623  -0.997  0.00  0.00    +0.000 C 
BRANCH  16  20
ATOM     20  O   UNL     1       1.324  -0.638   2.771  0.00  0.00    +0.000 OA
ATOM     21  H   UNL     1       1.312   0.333   2.705  0.00  0.00    +0.000 HD
ENDBRANCH  16  20
BRANCH  17  22
ATOM     22  O   UNL     1       4.103  -1.410   2.537  0.00  0.00    +0.000 OA
ATOM     23  H   UNL     1       4.998  -1.032   2.566  0.00  0.00    +0.000 HD
ENDBRANCH  17  22
BRANCH  18  24
ATOM     24  O   UNL     1       5.275  -0.503   0.077  0.00  0.00    +0.000 OA
ATOM     25  H   UNL     1       5.847  -0.940   0.728  0.00  0.00    +0.000 HD
ENDBRANCH  18  24
BRANCH  19  26
ATOM     26  C   UNL     1       3.603  -1.121  -2.349  0.00  0.00    +0.000 C 
BRANCH  26  27
ATOM     27  O   UNL     1       2.729  -0.648  -3.358  0.00  0.00    +0.000 OA
ATOM     28  H   UNL     1       1.838  -0.980  -3.155  0.00  0.00    +0.000 HD
ENDBRANCH  26  27
ENDBRANCH  19  26
ENDBRANCH  13  15
ENDBRANCH   2  13
BRANCH   6  29
ATOM     29  C   UNL     1      -3.250  -0.043   0.022  0.00  0.00    +0.000 C 
BRANCH  29  30
ATOM     30  O   UNL     1      -2.871  -1.407   0.007  0.00  0.00    +0.000 OA
BRANCH  30  31
ATOM     31  P   UNL     1      -4.024  -2.528  -0.190  0.00  0.00    +0.000 P 
ATOM     32  O   UNL     1      -3.533  -3.947  -0.194  0.00  0.00    +0.000 OA
BRANCH  31  33
ATOM     33  O   UNL     1      -4.790  -2.058  -1.534  0.00  0.00    +0.000 OA
ATOM     34  H   UNL     1      -5.498  -2.629  -1.902  0.00  0.00    +0.000 HD
ENDBRANCH  31  33
BRANCH  31  35
ATOM     35  O   UNL     1      -5.079  -2.173   0.983  0.00  0.00    +0.000 OA
ATOM     36  H   UNL     1      -5.839  -2.774   1.135  0.00  0.00    +0.000 HD
ENDBRANCH  31  35
ENDBRANCH  30  31
ENDBRANCH  29  30
ENDBRANCH   6  29
TORSDOF 15
