REMARK  Name = 445114
REMARK  19 active torsions:
REMARK  status: ('A' for Active; 'I' for Inactive)
REMARK    1  A    between atoms: P_1  and  O_3
REMARK    2  A    between atoms: P_1  and  O_7
REMARK    3  A    between atoms: P_1  and  N_12
REMARK    4  A    between atoms: O_3  and  C_19
REMARK    5  A    between atoms: O_4  and  C_15
REMARK    6  A    between atoms: O_5  and  C_16
REMARK    7  A    between atoms: O_6  and  C_17
REMARK    8  A    between atoms: O_10  and  C_31
REMARK    9  A    between atoms: N_12  and  C_21
REMARK   10  A    between atoms: N_13  and  CA_25
REMARK   11  A    between atoms: C_18  and  C_20
REMARK   12  A    between atoms: C_21  and  C_22
REMARK   13  A    between atoms: C_21  and  C_24
REMARK   14  A    between atoms: C_22  and  C_23
REMARK   15  A    between atoms: C_23  and  C_26
REMARK   16  A    between atoms: C_23  and  C_27
REMARK   17  A    between atoms: CA_25  and  CB_28
REMARK   18  A    between atoms: CA_25  and  C_31
REMARK   19  A    between atoms: CB_28  and  CG_29
REMARK                            x       y       z     vdW  Elec       q    Type
REMARK                         _______ _______ _______ _____ _____    ______ ____
ROOT
ATOM      1  C   UNL     1      -0.621  -2.494  -0.489  0.00  0.00    +0.000 C 
ENDROOT
BRANCH   1   4
ATOM      2  O   UNL     1       0.919  -1.014  -1.624  0.00  0.00    +0.000 OA
ATOM      3  N   UNL     1       1.634  -2.094   0.303  0.00  0.00    +0.000 N 
ATOM      4  C   ACE A   0       0.715  -1.787  -0.689  0.00  0.00    +0.000 C 
ATOM      5  H   UNL     1       1.367  -2.725   1.053  0.00  0.00    +0.000 HD
BRANCH   3   6
ATOM      6  CA  UNL     1       2.962  -1.525   0.350  0.00  0.00    +0.000 C 
BRANCH   6   8
ATOM      7  OXT UNL     1       5.169  -2.303   0.961  0.00  0.00    +0.000 OA
ATOM      8  C   UNL     1       3.964  -2.526   0.905  0.00  0.00    +0.000 C 
BRANCH   8   9
ATOM      9  O   UNL     1       3.426  -3.695   1.329  0.00  0.00    +0.000 OA
ATOM     10  H   UNL     1       4.108  -4.309   1.675  0.00  0.00    +0.000 HD
ENDBRANCH   8   9
ENDBRANCH   6   8
BRANCH   6  11
ATOM     11  CB  UNL     1       2.990  -0.235   1.182  0.00  0.00    +0.000 C 
BRANCH  11  13
ATOM     12  NE1 UNL     1       6.168   1.588   0.877  0.00  0.00    +0.000 N 
ATOM     13  CG  UNL     1       4.153   0.658   0.853  0.00  0.00    +0.000 A 
ATOM     14  CD2 UNL     1       4.179   1.689  -0.128  0.00  0.00    +0.000 A 
ATOM     15  CE2 UNL     1       5.455   2.256  -0.092  0.00  0.00    +0.000 A 
ATOM     16  CD1 UNL     1       5.390   0.620   1.454  0.00  0.00    +0.000 A 
ATOM     17  CE3 UNL     1       3.237   2.195  -1.045  0.00  0.00    +0.000 A 
ATOM     18  CZ2 UNL     1       5.837   3.309  -0.931  0.00  0.00    +0.000 A 
ATOM     19  CZ3 UNL     1       3.605   3.248  -1.890  0.00  0.00    +0.000 A 
ATOM     20  CH2 UNL     1       4.885   3.795  -1.832  0.00  0.00    +0.000 A 
ATOM     21  HE1 UNL     1       7.127   1.786   1.128  0.00  0.00    +0.000 HD
ENDBRANCH  11  13
ENDBRANCH   6  11
ENDBRANCH   3   6
ENDBRANCH   1   4
BRANCH   1  22
ATOM     22  N   UNL     1      -1.597  -1.430  -0.242  0.00  0.00    +0.000 NA
ATOM     23  H   UNL     1      -1.554  -0.732  -0.983  0.00  0.00    +0.000 HD
BRANCH  22  24
ATOM     24  P   UNL     1      -1.824  -0.916   1.313  0.00  0.00    +0.000 P 
ATOM     25  O   UNL     1      -2.291  -1.950   2.305  0.00  0.00    +0.000 OA
BRANCH  24  26
ATOM     26  O   UNL     1      -0.413  -0.253   1.774  0.00  0.00    +0.000 OA
ATOM     27  H   UNL     1      -0.311   0.036   2.706  0.00  0.00    +0.000 HD
ENDBRANCH  24  26
BRANCH  24  28
ATOM     28  O   UNL     1      -2.810   0.376   1.281  0.00  0.00    +0.000 OA
BRANCH  28  34
ATOM     29  O   UNL     1      -4.156   0.487  -0.670  0.00  0.00    +0.000 OA
ATOM     30  C   UNL     1      -4.739   2.683   1.086  0.00  0.00    +0.000 C 
ATOM     31  C   UNL     1      -4.707   2.858  -0.432  0.00  0.00    +0.000 C 
ATOM     32  C   UNL     1      -5.059   1.235   1.464  0.00  0.00    +0.000 C 
ATOM     33  C   UNL     1      -3.781   1.810  -1.065  0.00  0.00    +0.000 C 
ATOM     34  C   UNL     1      -4.123   0.265   0.744  0.00  0.00    +0.000 C 
ATOM     35  C   UNL     1      -3.829   1.851  -2.590  0.00  0.00    +0.000 C 
BRANCH  30  36
ATOM     36  O   UNL     1      -5.721   3.557   1.639  0.00  0.00    +0.000 OA
ATOM     37  H   UNL     1      -5.726   3.419   2.602  0.00  0.00    +0.000 HD
ENDBRANCH  30  36
BRANCH  31  38
ATOM     38  O   UNL     1      -4.233   4.172  -0.717  0.00  0.00    +0.000 OA
ATOM     39  H   UNL     1      -3.321   4.241  -0.388  0.00  0.00    +0.000 HD
ENDBRANCH  31  38
BRANCH  32  40
ATOM     40  O   UNL     1      -6.397   0.916   1.079  0.00  0.00    +0.000 OA
ATOM     41  H   UNL     1      -6.580   0.009   1.379  0.00  0.00    +0.000 HD
ENDBRANCH  32  40
ENDBRANCH  28  34
ENDBRANCH  24  28
ENDBRANCH  22  24
ENDBRANCH   1  22
BRANCH   1  42
ATOM     42  C   UNL     1      -1.037  -3.318  -1.718  0.00  0.00    +0.000 C 
BRANCH  42  43
ATOM     43  C   UNL     1      -2.359  -4.097  -1.549  0.00  0.00    +0.000 C 
ATOM     44  C   UNL     1      -2.759  -4.853  -2.817  0.00  0.00    +0.000 C 
ATOM     45  C   UNL     1      -2.233  -5.079  -0.381  0.00  0.00    +0.000 C 
ENDBRANCH  42  43
ENDBRANCH   1  42
TORSDOF 16
