REMARK  Name = 193491
REMARK  21 active torsions:
REMARK  status: ('A' for Active; 'I' for Inactive)
REMARK    1  A    between atoms: P_1  and  O_9
REMARK    2  A    between atoms: P_1  and  O_10
REMARK    3  A    between atoms: P_1  and  O_11
REMARK    4  A    between atoms: P_2  and  O_10
REMARK    5  A    between atoms: P_2  and  O_13
REMARK    6  A    between atoms: P_2  and  O_14
REMARK    7  A    between atoms: P_3  and  O_13
REMARK    8  A    between atoms: P_3  and  O_16
REMARK    9  A    between atoms: P_3  and  O_17
REMARK   10  A    between atoms: P_4  and  O_16
REMARK   11  A    between atoms: P_4  and  O_19
REMARK   12  A    between atoms: P_4  and  O_20
REMARK   13  A    between atoms: P_5  and  O_19
REMARK   14  A    between atoms: P_5  and  O_22
REMARK   15  A    between atoms: P_5  and  O_23
REMARK   16  A    between atoms: O_7  and  C_30
REMARK   17  A    between atoms: O_8  and  C_31
REMARK   18  A    between atoms: O_9  and  C_34
REMARK   19  A    between atoms: N_25  and  C_32
REMARK   20  A    between atoms: N_29  and  C_38
REMARK   21  A    between atoms: C_33  and  C_34
REMARK                            x       y       z     vdW  Elec       q    Type
REMARK                         _______ _______ _______ _____ _____    ______ ____
ROOT
ATOM      1  P   UNL     1      -1.764   1.775  -2.394  0.00  0.00    +0.000 P 
ATOM      2  O   UNL     1      -1.052   2.412  -3.552  0.00  0.00    +0.000 OA
ENDROOT
BRANCH   1   3
ATOM      3  O   UNL     1      -3.274   1.295  -2.712  0.00  0.00    +0.000 OA
ATOM      4  H   UNL     1      -3.884   1.914  -3.167  0.00  0.00    +0.000 HD
ENDBRANCH   1   3
BRANCH   1   5
ATOM      5  O   UNL     1      -1.944   2.706  -1.083  0.00  0.00    +0.000 OA
BRANCH   5   6
ATOM      6  C   UNL     1      -0.867   3.543  -0.698  0.00  0.00    +0.000 C 
BRANCH   6  11
ATOM      7  O   UNL     1       0.043   1.792   0.682  0.00  0.00    +0.000 OA
ATOM      8  C   UNL     1       1.948   3.199   0.749  0.00  0.00    +0.000 C 
ATOM      9  C   UNL     1       0.748   4.005   1.208  0.00  0.00    +0.000 C 
ATOM     10  C   UNL     1       1.456   1.776   0.963  0.00  0.00    +0.000 C 
ATOM     11  C   UNL     1      -0.421   3.162   0.706  0.00  0.00    +0.000 C 
BRANCH  10  12
ATOM     12  N   UNL     1       2.116   0.784   0.116  0.00  0.00    +0.000 N 
ATOM     13  N   UNL     1       2.843  -0.222  -1.735  0.00  0.00    +0.000 NA
ATOM     14  N   UNL     1       2.965  -0.757   1.790  0.00  0.00    +0.000 NA
ATOM     15  N   UNL     1       4.168  -2.613   0.757  0.00  0.00    +0.000 NA
ATOM     16  C   UNL     1       2.780  -0.335   0.531  0.00  0.00    +0.000 A 
ATOM     17  C   UNL     1       2.181   0.808  -1.252  0.00  0.00    +0.000 A 
ATOM     18  C   UNL     1       3.224  -0.945  -0.632  0.00  0.00    +0.000 A 
ATOM     19  C   UNL     1       3.943  -2.127  -0.487  0.00  0.00    +0.000 A 
ATOM     20  C   UNL     1       3.673  -1.908   1.803  0.00  0.00    +0.000 A 
BRANCH  19  21
ATOM     21  N   UNL     1       4.433  -2.812  -1.613  0.00  0.00    +0.000 N 
ATOM     22  H   UNL     1       4.265  -2.451  -2.543  0.00  0.00    +0.000 HD
ATOM     23  H   UNL     1       4.952  -3.669  -1.482  0.00  0.00    +0.000 HD
ENDBRANCH  19  21
ENDBRANCH  10  12
BRANCH   8  24
ATOM     24  O   UNL     1       3.116   3.472   1.495  0.00  0.00    +0.000 OA
ATOM     25  H   UNL     1       3.300   4.423   1.412  0.00  0.00    +0.000 HD
ENDBRANCH   8  24
BRANCH   9  26
ATOM     26  O   UNL     1       0.714   4.036   2.635  0.00  0.00    +0.000 OA
ATOM     27  H   UNL     1      -0.090   4.517   2.895  0.00  0.00    +0.000 HD
ENDBRANCH   9  26
ENDBRANCH   6  11
ENDBRANCH   5   6
ENDBRANCH   1   5
BRANCH   1  28
ATOM     28  O   UNL     1      -1.060   0.436  -1.821  0.00  0.00    +0.000 OA
BRANCH  28  29
ATOM     29  P   UNL     1      -0.728  -0.973  -2.536  0.00  0.00    +0.000 P 
ATOM     30  O   UNL     1      -1.919  -1.712  -3.071  0.00  0.00    +0.000 OA
BRANCH  29  31
ATOM     31  O   UNL     1       0.385  -0.583  -3.642  0.00  0.00    +0.000 OA
ATOM     32  H   UNL     1       0.095  -0.160  -4.478  0.00  0.00    +0.000 HD
ENDBRANCH  29  31
BRANCH  29  33
ATOM     33  O   UNL     1       0.114  -1.778  -1.419  0.00  0.00    +0.000 OA
BRANCH  33  34
ATOM     34  P   UNL     1      -0.282  -2.368   0.030  0.00  0.00    +0.000 P 
ATOM     35  O   UNL     1       0.827  -3.065   0.760  0.00  0.00    +0.000 OA
BRANCH  34  36
ATOM     36  O   UNL     1      -1.577  -3.284  -0.284  0.00  0.00    +0.000 OA
ATOM     37  H   UNL     1      -1.975  -3.808   0.444  0.00  0.00    +0.000 HD
ENDBRANCH  34  36
BRANCH  34  38
ATOM     38  O   UNL     1      -0.906  -1.084   0.787  0.00  0.00    +0.000 OA
BRANCH  38  39
ATOM     39  P   UNL     1      -1.632  -0.972   2.227  0.00  0.00    +0.000 P 
ATOM     40  O   UNL     1      -1.662   0.411   2.808  0.00  0.00    +0.000 OA
BRANCH  39  41
ATOM     41  O   UNL     1      -0.853  -2.073   3.118  0.00  0.00    +0.000 OA
ATOM     42  H   UNL     1       0.041  -1.859   3.462  0.00  0.00    +0.000 HD
ENDBRANCH  39  41
BRANCH  39  43
ATOM     43  O   UNL     1      -3.075  -1.646   1.968  0.00  0.00    +0.000 OA
BRANCH  43  44
ATOM     44  P   UNL     1      -4.319  -1.195   1.046  0.00  0.00    +0.000 P 
ATOM     45  O   UNL     1      -4.031  -1.073  -0.421  0.00  0.00    +0.000 OA
BRANCH  44  46
ATOM     46  O   UNL     1      -5.480  -2.256   1.423  0.00  0.00    +0.000 OA
ATOM     47  H   UNL     1      -6.325  -2.230   0.926  0.00  0.00    +0.000 HD
ENDBRANCH  44  46
BRANCH  44  48
ATOM     48  O   UNL     1      -4.830   0.168   1.751  0.00  0.00    +0.000 OA
ATOM     49  H   UNL     1      -5.538   0.690   1.317  0.00  0.00    +0.000 HD
ENDBRANCH  44  48
ENDBRANCH  43  44
ENDBRANCH  39  43
ENDBRANCH  38  39
ENDBRANCH  34  38
ENDBRANCH  33  34
ENDBRANCH  29  33
ENDBRANCH  28  29
ENDBRANCH   1  28
TORSDOF 21
