REMARK  Name = 444727
REMARK  21 active torsions:
REMARK  status: ('A' for Active; 'I' for Inactive)
REMARK    1  A    between atoms: P_1  and  O_16
REMARK    2  A    between atoms: P_1  and  O_18
REMARK    3  A    between atoms: P_1  and  O_19
REMARK    4  A    between atoms: O_2  and  C_21
REMARK    5  A    between atoms: O_2  and  C_27
REMARK    6  A    between atoms: O_4  and  C_24
REMARK    7  A    between atoms: O_4  and  C_26
REMARK    8  A    between atoms: O_7  and  C_22
REMARK    9  A    between atoms: O_8  and  C_23
REMARK   10  A    between atoms: O_9  and  C_28
REMARK   11  A    between atoms: O_10  and  C_29
REMARK   12  A    between atoms: O_11  and  C_30
REMARK   13  A    between atoms: O_12  and  C_31
REMARK   14  A    between atoms: O_13  and  C_32
REMARK   15  A    between atoms: O_14  and  C_35
REMARK   16  A    between atoms: O_15  and  C_36
REMARK   17  A    between atoms: O_16  and  C_37
REMARK   18  A    between atoms: O_17  and  C_38
REMARK   19  A    between atoms: C_25  and  C_36
REMARK   20  A    between atoms: C_33  and  C_37
REMARK   21  A    between atoms: C_34  and  C_38
REMARK                            x       y       z     vdW  Elec       q    Type
REMARK                         _______ _______ _______ _____ _____    ______ ____
ROOT
ATOM      1  O   UNL     1       0.984   3.273   1.139  0.00  0.00    +0.000 OA
ATOM      2  C   UNL     1      -1.109   1.905  -0.279  0.00  0.00    +0.000 C 
ATOM      3  C   UNL     1      -0.298   1.227   0.827  0.00  0.00    +0.000 C 
ATOM      4  C   UNL     1      -1.129   3.422  -0.085  0.00  0.00    +0.000 C 
ATOM      5  C   UNL     1       1.088   1.857   0.955  0.00  0.00    +0.000 C 
ATOM      6  C   UNL     1       0.301   3.951   0.080  0.00  0.00    +0.000 C 
ENDROOT
BRANCH   3   7
ATOM      7  O   UNL     1      -0.962   1.380   2.082  0.00  0.00    +0.000 OA
ATOM      8  H   UNL     1      -0.454   0.882   2.746  0.00  0.00    +0.000 HD
ENDBRANCH   3   7
BRANCH   4   9
ATOM      9  O   UNL     1      -1.720   4.042  -1.224  0.00  0.00    +0.000 OA
ATOM     10  H   UNL     1      -1.181   3.820  -2.003  0.00  0.00    +0.000 HD
ENDBRANCH   4   9
BRANCH   2  11
ATOM     11  O   UNL     1      -2.436   1.384  -0.260  0.00  0.00    +0.000 OA
BRANCH  11  13
ATOM     12  O   UNL     1      -2.225  -0.977  -0.364  0.00  0.00    +0.000 OA
ATOM     13  C   UNL     1      -2.551   0.223  -1.074  0.00  0.00    +0.000 C 
ATOM     14  C   UNL     1      -3.961   0.138  -1.657  0.00  0.00    +0.000 C 
ATOM     15  C   UNL     1      -4.984  -0.198  -0.571  0.00  0.00    +0.000 C 
ATOM     16  C   UNL     1      -4.557  -1.441   0.213  0.00  0.00    +0.000 C 
ATOM     17  C   UNL     1      -3.116  -1.278   0.714  0.00  0.00    +0.000 C 
BRANCH  14  18
ATOM     18  O   UNL     1      -3.956  -0.884  -2.655  0.00  0.00    +0.000 OA
ATOM     19  H   UNL     1      -3.348  -0.604  -3.360  0.00  0.00    +0.000 HD
ENDBRANCH  14  18
BRANCH  15  20
ATOM     20  O   UNL     1      -6.252  -0.410  -1.185  0.00  0.00    +0.000 OA
ATOM     21  H   UNL     1      -6.486   0.403  -1.664  0.00  0.00    +0.000 HD
ENDBRANCH  15  20
BRANCH  16  22
ATOM     22  O   UNL     1      -5.418  -1.617   1.335  0.00  0.00    +0.000 OA
ATOM     23  H   UNL     1      -5.339  -0.831   1.901  0.00  0.00    +0.000 HD
ENDBRANCH  16  22
BRANCH  17  24
ATOM     24  C   UNL     1      -2.608  -2.552   1.381  0.00  0.00    +0.000 C 
BRANCH  24  25
ATOM     25  O   UNL     1      -1.276  -2.337   1.808  0.00  0.00    +0.000 OA
BRANCH  25  26
ATOM     26  P   UNL     1      -0.108  -3.288   1.210  0.00  0.00    +0.000 P 
ATOM     27  O   UNL     1       1.272  -2.990   1.717  0.00  0.00    +0.000 OA
BRANCH  26  28
ATOM     28  O   UNL     1      -0.650  -4.776   1.538  0.00  0.00    +0.000 OA
ATOM     29  H   UNL     1      -0.069  -5.543   1.352  0.00  0.00    +0.000 HD
ENDBRANCH  26  28
BRANCH  26  30
ATOM     30  O   UNL     1      -0.299  -3.167  -0.391  0.00  0.00    +0.000 OA
ATOM     31  H   UNL     1       0.343  -3.619  -0.980  0.00  0.00    +0.000 HD
ENDBRANCH  26  30
ENDBRANCH  25  26
ENDBRANCH  24  25
ENDBRANCH  17  24
ENDBRANCH  11  13
ENDBRANCH   2  11
BRANCH   5  32
ATOM     32  O   UNL     1       1.879   1.514  -0.177  0.00  0.00    +0.000 OA
BRANCH  32  34
ATOM     33  O   UNL     1       4.943  -1.268  -0.483  0.00  0.00    +0.000 OA
ATOM     34  C   UNL     1       2.585   0.293   0.031  0.00  0.00    +0.000 C 
ATOM     35  C   UNL     1       2.792  -0.437  -1.297  0.00  0.00    +0.000 C 
ATOM     36  C   UNL     1       3.927   0.607   0.693  0.00  0.00    +0.000 C 
ATOM     37  C   UNL     1       3.709  -1.649  -1.095  0.00  0.00    +0.000 C 
ATOM     38  C   UNL     1       4.793  -0.648   0.799  0.00  0.00    +0.000 C 
BRANCH  35  39
ATOM     39  O   UNL     1       1.535  -0.887  -1.795  0.00  0.00    +0.000 OA
ATOM     40  H   UNL     1       1.139  -1.474  -1.129  0.00  0.00    +0.000 HD
ENDBRANCH  35  39
BRANCH  36  41
ATOM     41  O   UNL     1       4.645   1.563  -0.088  0.00  0.00    +0.000 OA
ATOM     42  H   UNL     1       5.468   1.772   0.385  0.00  0.00    +0.000 HD
ENDBRANCH  36  41
BRANCH  38  43
ATOM     43  O   UNL     1       4.241  -1.532   1.769  0.00  0.00    +0.000 OA
ATOM     44  H   UNL     1       4.974  -2.065   2.120  0.00  0.00    +0.000 HD
ENDBRANCH  38  43
BRANCH  37  45
ATOM     45  C   UNL     1       4.048  -2.322  -2.422  0.00  0.00    +0.000 C 
BRANCH  45  46
ATOM     46  O   UNL     1       4.902  -3.422  -2.164  0.00  0.00    +0.000 OA
ATOM     47  H   UNL     1       5.108  -3.832  -3.021  0.00  0.00    +0.000 HD
ENDBRANCH  45  46
ENDBRANCH  37  45
ENDBRANCH  32  34
ENDBRANCH   5  32
BRANCH   6  48
ATOM     48  C   UNL     1       0.312   5.441   0.412  0.00  0.00    +0.000 C 
BRANCH  48  49
ATOM     49  O   UNL     1       1.657   5.858   0.562  0.00  0.00    +0.000 OA
ATOM     50  H   UNL     1       1.641   6.807   0.777  0.00  0.00    +0.000 HD
ENDBRANCH  48  49
ENDBRANCH   6  48
TORSDOF 21
