REMARK  Name = 447462
REMARK  15 active torsions:
REMARK  status: ('A' for Active; 'I' for Inactive)
REMARK    1  A    between atoms: P_1  and  O_6
REMARK    2  A    between atoms: P_1  and  O_11
REMARK    3  A    between atoms: P_1  and  O_13
REMARK    4  A    between atoms: P_2  and  O_7
REMARK    5  A    between atoms: P_2  and  O_11
REMARK    6  A    between atoms: P_2  and  O_14
REMARK    7  A    between atoms: O_4  and  C_20
REMARK    8  A    between atoms: O_6  and  C_24
REMARK    9  A    between atoms: O_7  and  C_28
REMARK   10  A    between atoms: O_8  and  C_25
REMARK   11  A    between atoms: O_9  and  C_26
REMARK   12  A    between atoms: O_10  and  C_27
REMARK   13  A    between atoms: N_18  and  C_23
REMARK   14  A    between atoms: C_21  and  C_24
REMARK   15  A    between atoms: C_32  and  C_34
REMARK                            x       y       z     vdW  Elec       q    Type
REMARK                         _______ _______ _______ _____ _____    ______ ____
ROOT
ATOM      1  P   UNL     1       2.852  -2.273  -1.264  0.00  0.00    +0.000 P 
ATOM      2  O   UNL     1       3.495  -3.278  -0.353  0.00  0.00    +0.000 OA
ENDROOT
BRANCH   1   3
ATOM      3  O   UNL     1       2.694  -2.749  -2.802  0.00  0.00    +0.000 OA
ATOM      4  H   UNL     1       2.303  -2.127  -3.453  0.00  0.00    +0.000 HD
ENDBRANCH   1   3
BRANCH   1   5
ATOM      5  O   UNL     1       1.363  -1.800  -0.848  0.00  0.00    +0.000 OA
BRANCH   5   6
ATOM      6  C   UNL     1       0.341  -2.779  -0.766  0.00  0.00    +0.000 C 
BRANCH   6   9
ATOM      7  O   UNL     1      -0.796  -1.508   0.919  0.00  0.00    +0.000 OA
ATOM      8  C   UNL     1      -1.331  -3.816   0.838  0.00  0.00    +0.000 C 
ATOM      9  C   UNL     1      -0.214  -2.799   0.653  0.00  0.00    +0.000 C 
ATOM     10  C   UNL     1      -2.571  -3.032   0.479  0.00  0.00    +0.000 C 
ATOM     11  C   UNL     1      -2.224  -1.631   0.957  0.00  0.00    +0.000 C 
BRANCH  11  14
ATOM     12  O   UNL     1      -4.734  -0.378   1.449  0.00  0.00    +0.000 OA
ATOM     13  O   UNL     1      -4.319   2.292  -2.272  0.00  0.00    +0.000 OA
ATOM     14  N   UNL     1      -2.811  -0.605   0.145  0.00  0.00    +0.000 N 
ATOM     15  N   UNL     1      -4.514   0.947  -0.410  0.00  0.00    +0.000 N 
ATOM     16  C   UNL     1      -2.117  -0.172  -0.978  0.00  0.00    +0.000 A 
ATOM     17  C   UNL     1      -4.064  -0.043   0.470  0.00  0.00    +0.000 A 
ATOM     18  C   UNL     1      -2.551   0.775  -1.818  0.00  0.00    +0.000 A 
ATOM     19  C   UNL     1      -3.864   1.416  -1.542  0.00  0.00    +0.000 A 
ATOM     20  C   UNL     1      -1.788   1.227  -3.022  0.00  0.00    +0.000 C 
ATOM     21  H   UNL     1      -5.415   1.367  -0.196  0.00  0.00    +0.000 HD
ENDBRANCH  11  14
BRANCH   8  22
ATOM     22  O   UNL     1      -1.397  -4.221   2.203  0.00  0.00    +0.000 OA
ATOM     23  H   UNL     1      -0.564  -4.679   2.411  0.00  0.00    +0.000 HD
ENDBRANCH   8  22
ENDBRANCH   6   9
ENDBRANCH   5   6
ENDBRANCH   1   5
BRANCH   1  24
ATOM     24  O   UNL     1       3.654  -0.876  -1.397  0.00  0.00    +0.000 OA
BRANCH  24  25
ATOM     25  P   UNL     1       4.060   0.224  -0.284  0.00  0.00    +0.000 P 
ATOM     26  O   UNL     1       4.937  -0.305   0.814  0.00  0.00    +0.000 OA
BRANCH  25  27
ATOM     27  O   UNL     1       4.729   1.408  -1.160  0.00  0.00    +0.000 OA
ATOM     28  H   UNL     1       5.659   1.312  -1.455  0.00  0.00    +0.000 HD
ENDBRANCH  25  27
BRANCH  25  29
ATOM     29  O   UNL     1       2.654   0.835   0.220  0.00  0.00    +0.000 OA
BRANCH  29  34
ATOM     30  O   UNL     1       2.736   3.192   0.452  0.00  0.00    +0.000 OA
ATOM     31  C   UNL     1       0.139   2.259   1.329  0.00  0.00    +0.000 C 
ATOM     32  C   UNL     1       1.435   1.915   2.064  0.00  0.00    +0.000 C 
ATOM     33  C   UNL     1       0.320   3.540   0.512  0.00  0.00    +0.000 C 
ATOM     34  C   UNL     1       2.646   1.935   1.128  0.00  0.00    +0.000 C 
ATOM     35  C   UNL     1       1.584   3.479  -0.338  0.00  0.00    +0.000 C 
BRANCH  31  36
ATOM     36  O   UNL     1      -0.883   2.461   2.306  0.00  0.00    +0.000 OA
ATOM     37  H   UNL     1      -0.622   3.208   2.870  0.00  0.00    +0.000 HD
ENDBRANCH  31  36
BRANCH  32  38
ATOM     38  O   UNL     1       1.332   0.632   2.673  0.00  0.00    +0.000 OA
ATOM     39  H   UNL     1       2.171   0.457   3.132  0.00  0.00    +0.000 HD
ENDBRANCH  32  38
BRANCH  33  40
ATOM     40  O   UNL     1      -0.793   3.729  -0.356  0.00  0.00    +0.000 OA
ATOM     41  H   UNL     1      -0.647   4.557  -0.845  0.00  0.00    +0.000 HD
ENDBRANCH  33  40
ENDBRANCH  29  34
ENDBRANCH  25  29
ENDBRANCH  24  25
ENDBRANCH   1  24
TORSDOF 14
