REMARK  Name = 
REMARK  21 active torsions:
REMARK  status: ('A' for Active; 'I' for Inactive)
REMARK    1  A    between atoms: P_2  and  O_3
REMARK    2  A    between atoms: P_2  and  O_4
REMARK    3  A    between atoms: P_2  and  O_5
REMARK    4  A    between atoms: O_5  and  C_6
REMARK    5  A    between atoms: C_7  and  O_8
REMARK    6  A    between atoms: O_8  and  P_9
REMARK    7  A    between atoms: P_9  and  O_11
REMARK    8  A    between atoms: P_9  and  O_12
REMARK    9  A    between atoms: C_13  and  O_14
REMARK   10  A    between atoms: O_14  and  P_15
REMARK   11  A    between atoms: P_15  and  O_17
REMARK   12  A    between atoms: P_15  and  O_18
REMARK   13  A    between atoms: C_19  and  O_20
REMARK   14  A    between atoms: O_20  and  P_21
REMARK   15  A    between atoms: P_21  and  O_23
REMARK   16  A    between atoms: P_21  and  O_24
REMARK   17  A    between atoms: C_25  and  O_26
REMARK   18  A    between atoms: C_27  and  O_28
REMARK   19  A    between atoms: O_28  and  P_29
REMARK   20  A    between atoms: P_29  and  O_31
REMARK   21  A    between atoms: P_29  and  O_32
REMARK                            x       y       z     vdW  Elec       q    Type
REMARK                         _______ _______ _______ _____ _____    ______ ____
ROOT
ATOM      1  C   UNL     1       1.591  -0.055  -0.308  0.00  0.00    +0.000 C 
ATOM      2  C   UNL     1       0.121  -0.412  -1.154  0.00  0.00    +0.000 C 
ATOM      3  C   UNL     1      -0.851  -0.481   0.257  0.00  0.00    +0.000 C 
ATOM      4  C   UNL     1      -1.489   1.107   0.057  0.00  0.00    +0.000 C 
ATOM      5  C   UNL     1       0.036   1.831  -0.284  0.00  0.00    +0.000 C 
ATOM      6  C   UNL     1       0.829   0.888   0.913  0.00  0.00    +0.000 C 
ENDROOT
BRANCH   5   7
ATOM      7  O   UNL     1      -0.166   3.021   0.617  0.00  0.00    +0.000 OA
ATOM      8  H   UNL     1      -0.506   2.723   1.475  0.00  0.00    +0.000 HD
ENDBRANCH   5   7
BRANCH   1   9
ATOM      9  O   UNL     1       1.584  -1.270   0.579  0.00  0.00    +0.000 OA
BRANCH   9  11
ATOM     10  O   UNL     1       3.161  -1.832   0.189  0.00  0.00    +0.000 OA
ATOM     11  P   UNL     1       3.118  -1.871   0.220  0.00  0.00    +0.000 P 
BRANCH  11  12
ATOM     12  O   UNL     1       4.302  -1.593   1.258  0.00  0.00    +0.000 OA
ATOM     13  H   UNL     1       5.122  -1.992   0.929  0.00  0.00    +0.000 HD
ENDBRANCH  11  12
BRANCH  11  14
ATOM     14  O   UNL     1       3.436  -2.021  -1.391  0.00  0.00    +0.000 OA
ATOM     15  H   UNL     1       4.332  -2.371  -1.512  0.00  0.00    +0.000 HD
ENDBRANCH  11  14
ENDBRANCH   9  11
ENDBRANCH   1   9
BRANCH   2  16
ATOM     16  O   UNL     1       0.361  -1.882  -1.258  0.00  0.00    +0.000 OA
BRANCH  16  17
ATOM     17  P   UNL     1      -0.365  -2.960  -0.433  0.00  0.00    +0.000 P 
ATOM     18  O   UNL     1       0.551  -4.195  -0.457  0.00  0.00    +0.000 OA
BRANCH  17  19
ATOM     19  O   UNL     1      -1.758  -3.746  -1.052  0.00  0.00    +0.000 OA
ATOM     20  H   UNL     1      -1.659  -3.873  -2.008  0.00  0.00    +0.000 HD
ENDBRANCH  17  19
BRANCH  17  21
ATOM     21  O   UNL     1      -0.688  -2.814   1.220  0.00  0.00    +0.000 OA
ATOM     22  H   UNL     1       0.057  -2.374   1.658  0.00  0.00    +0.000 HD
ENDBRANCH  17  21
ENDBRANCH  16  17
ENDBRANCH   2  16
BRANCH   3  23
ATOM     23  O   UNL     1      -2.009  -1.024  -0.518  0.00  0.00    +0.000 OA
BRANCH  23  24
ATOM     24  P   UNL     1      -2.476  -0.191  -1.789  0.00  0.00    +0.000 P 
ATOM     25  O   UNL     1      -3.033  -1.218  -2.780  0.00  0.00    +0.000 OA
BRANCH  24  26
ATOM     26  O   UNL     1      -3.846   0.749  -1.402  0.00  0.00    +0.000 OA
ATOM     27  H   UNL     1      -4.461   0.220  -0.871  0.00  0.00    +0.000 HD
ENDBRANCH  24  26
BRANCH  24  28
ATOM     28  O   UNL     1      -1.478   0.759  -2.686  0.00  0.00    +0.000 OA
ATOM     29  H   UNL     1      -0.683   0.257  -2.926  0.00  0.00    +0.000 HD
ENDBRANCH  24  28
ENDBRANCH  23  24
ENDBRANCH   3  23
BRANCH   4  30
ATOM     30  O   UNL     1      -1.430   1.347   1.540  0.00  0.00    +0.000 OA
BRANCH  30  31
ATOM     31  P   UNL     1      -2.944   1.398   2.184  0.00  0.00    +0.000 P 
ATOM     32  O   UNL     1      -3.595   2.757   2.152  0.00  0.00    +0.000 OA
BRANCH  31  33
ATOM     33  O   UNL     1      -2.788   0.986   3.831  0.00  0.00    +0.000 OA
ATOM     34  H   UNL     1      -2.167   1.596   4.259  0.00  0.00    +0.000 HD
ENDBRANCH  31  33
BRANCH  31  35
ATOM     35  O   UNL     1      -4.030   0.290   1.550  0.00  0.00    +0.000 OA
ATOM     36  H   UNL     1      -4.164   0.471   0.607  0.00  0.00    +0.000 HD
ENDBRANCH  31  35
ENDBRANCH  30  31
ENDBRANCH   4  30
BRANCH   6  37
ATOM     37  O   UNL     1       1.955   1.858   1.089  0.00  0.00    +0.000 OA
BRANCH  37  38
ATOM     38  P   UNL     1       2.673   2.427  -0.184  0.00  0.00    +0.000 P 
ATOM     39  O   UNL     1       3.244   3.784   0.253  0.00  0.00    +0.000 OA
BRANCH  38  40
ATOM     40  O   UNL     1       4.090   1.579  -0.612  0.00  0.00    +0.000 OA
ATOM     41  H   UNL     1       4.583   1.347   0.191  0.00  0.00    +0.000 HD
ENDBRANCH  38  40
BRANCH  38  42
ATOM     42  O   UNL     1       1.890   2.786  -1.601  0.00  0.00    +0.000 OA
ATOM     43  H   UNL     1       1.073   3.271  -1.405  0.00  0.00    +0.000 HD
ENDBRANCH  38  42
ENDBRANCH  37  38
ENDBRANCH   6  37
TORSDOF 21
