REMARK  Name = 445132
REMARK  8 active torsions:
REMARK  status: ('A' for Active; 'I' for Inactive)
REMARK    1  A    between atoms: P_1  and  O_5
REMARK    2  A    between atoms: P_1  and  O_9
REMARK    3  A    between atoms: P_1  and  O_10
REMARK    4  A    between atoms: O_3  and  C_14
REMARK    5  A    between atoms: O_4  and  C_15
REMARK    6  A    between atoms: O_5  and  C_18
REMARK    7  A    between atoms: N_12  and  C_16
REMARK    8  A    between atoms: C_17  and  C_18
REMARK                            x       y       z     vdW  Elec       q    Type
REMARK                         _______ _______ _______ _____ _____    ______ ____
ROOT
ATOM      1  O   UNL     1      -0.073   0.821   1.467  0.00  0.00    +0.000 OA
ATOM      2  C   UNL     1       0.093   1.612  -0.760  0.00  0.00    +0.000 C 
ATOM      3  C   UNL     1      -1.227   2.074  -0.179  0.00  0.00    +0.000 C 
ATOM      4  C   UNL     1       0.883   1.263   0.489  0.00  0.00    +0.000 C 
ATOM      5  C   UNL     1      -1.405   1.127   1.000  0.00  0.00    +0.000 C 
ENDROOT
BRANCH   4   9
ATOM      6  O   UNL     1       0.262  -1.464   0.640  0.00  0.00    +0.000 OA
ATOM      7  O   UNL     1       3.506   1.786  -0.157  0.00  0.00    +0.000 OA
ATOM      8  O   UNL     1       4.722  -2.615  -0.438  0.00  0.00    +0.000 OA
ATOM      9  N   UNL     1       1.835   0.214   0.261  0.00  0.00    +0.000 N 
ATOM     10  N   UNL     1       4.069  -0.421  -0.286  0.00  0.00    +0.000 N 
ATOM     11  C   UNL     1       1.416  -1.127   0.364  0.00  0.00    +0.000 C 
ATOM     12  C   UNL     1       3.158   0.605  -0.066  0.00  0.00    +0.000 C 
ATOM     13  C   UNL     1       2.450  -2.190   0.124  0.00  0.00    +0.000 C 
ATOM     14  C   UNL     1       3.844  -1.779  -0.225  0.00  0.00    +0.000 C 
ATOM     15  H   UNL     1       5.015  -0.134  -0.521  0.00  0.00    +0.000 HD
ENDBRANCH   4   9
BRANCH   2  16
ATOM     16  O   UNL     1       0.717   2.615  -1.536  0.00  0.00    +0.000 OA
ATOM     17  H   UNL     1       1.586   2.275  -1.808  0.00  0.00    +0.000 HD
ENDBRANCH   2  16
BRANCH   3  18
ATOM     18  O   UNL     1      -1.104   3.399   0.337  0.00  0.00    +0.000 OA
ATOM     19  H   UNL     1      -0.453   3.401   1.058  0.00  0.00    +0.000 HD
ENDBRANCH   3  18
BRANCH   5  20
ATOM     20  C   UNL     1      -2.087  -0.181   0.623  0.00  0.00    +0.000 C 
BRANCH  20  21
ATOM     21  O   UNL     1      -3.375   0.110   0.110  0.00  0.00    +0.000 OA
BRANCH  21  22
ATOM     22  P   UNL     1      -4.314  -1.120  -0.367  0.00  0.00    +0.000 P 
ATOM     23  O   UNL     1      -5.660  -0.721  -0.897  0.00  0.00    +0.000 OA
BRANCH  22  24
ATOM     24  O   UNL     1      -4.339  -2.103   0.916  0.00  0.00    +0.000 OA
ATOM     25  H   UNL     1      -4.910  -2.901   0.892  0.00  0.00    +0.000 HD
ENDBRANCH  22  24
BRANCH  22  26
ATOM     26  O   UNL     1      -3.371  -1.907  -1.419  0.00  0.00    +0.000 OA
ATOM     27  H   UNL     1      -3.749  -2.656  -1.927  0.00  0.00    +0.000 HD
ENDBRANCH  22  26
ENDBRANCH  21  22
ENDBRANCH  20  21
ENDBRANCH   5  20
TORSDOF 8
