REMARK  Name = 122195
REMARK  15 active torsions:
REMARK  status: ('A' for Active; 'I' for Inactive)
REMARK    1  A    between atoms: P_1  and  O_4
REMARK    2  A    between atoms: P_1  and  O_10
REMARK    3  A    between atoms: P_1  and  O_11
REMARK    4  A    between atoms: P_2  and  O_5
REMARK    5  A    between atoms: P_2  and  O_12
REMARK    6  A    between atoms: P_2  and  O_13
REMARK    7  A    between atoms: P_3  and  O_6
REMARK    8  A    between atoms: P_3  and  O_14
REMARK    9  A    between atoms: P_3  and  O_15
REMARK   10  A    between atoms: O_4  and  C_19
REMARK   11  A    between atoms: O_5  and  C_20
REMARK   12  A    between atoms: O_6  and  C_21
REMARK   13  A    between atoms: O_7  and  C_22
REMARK   14  A    between atoms: O_8  and  C_23
REMARK   15  A    between atoms: O_9  and  C_24
REMARK                            x       y       z     vdW  Elec       q    Type
REMARK                         _______ _______ _______ _____ _____    ______ ____
ROOT
ATOM      1  C   UNL     1       0.536   1.429  -0.403  0.00  0.00    +0.000 C 
ATOM      2  C   UNL     1       1.583   0.569   0.329  0.00  0.00    +0.000 C 
ATOM      3  C   UNL     1      -1.177  -0.413  -0.124  0.00  0.00    +0.000 C 
ATOM      4  C   UNL     1      -0.545   0.590  -1.099  0.00  0.00    +0.000 C 
ATOM      5  C   UNL     1       0.962  -0.504   1.244  0.00  0.00    +0.000 C 
ATOM      6  C   UNL     1      -0.143  -1.320   0.557  0.00  0.00    +0.000 C 
ENDROOT
BRANCH   4   7
ATOM      7  O   UNL     1       0.017  -0.103  -2.210  0.00  0.00    +0.000 OA
ATOM      8  H   UNL     1      -0.674  -0.681  -2.578  0.00  0.00    +0.000 HD
ENDBRANCH   4   7
BRANCH   5   9
ATOM      9  O   UNL     1       0.440   0.105   2.423  0.00  0.00    +0.000 OA
ATOM     10  H   UNL     1       0.073  -0.596   2.987  0.00  0.00    +0.000 HD
ENDBRANCH   5   9
BRANCH   6  11
ATOM     11  O   UNL     1       0.461  -2.194  -0.395  0.00  0.00    +0.000 OA
ATOM     12  H   UNL     1      -0.254  -2.693  -0.826  0.00  0.00    +0.000 HD
ENDBRANCH   6  11
BRANCH   1  13
ATOM     13  O   UNL     1      -0.075   2.305   0.542  0.00  0.00    +0.000 OA
BRANCH  13  14
ATOM     14  P   UNL     1      -1.150   3.376  -0.003  0.00  0.00    +0.000 P 
ATOM     15  O   UNL     1      -2.350   2.788  -0.686  0.00  0.00    +0.000 OA
BRANCH  14  16
ATOM     16  O   UNL     1      -0.267   4.386  -0.906  0.00  0.00    +0.000 OA
ATOM     17  H   UNL     1      -0.721   5.104  -1.396  0.00  0.00    +0.000 HD
ENDBRANCH  14  16
BRANCH  14  18
ATOM     18  O   UNL     1      -1.475   4.247   1.319  0.00  0.00    +0.000 OA
ATOM     19  H   UNL     1      -2.185   4.923   1.280  0.00  0.00    +0.000 HD
ENDBRANCH  14  18
ENDBRANCH  13  14
ENDBRANCH   1  13
BRANCH   2  20
ATOM     20  O   UNL     1       2.426  -0.077  -0.622  0.00  0.00    +0.000 OA
BRANCH  20  21
ATOM     21  P   UNL     1       3.667  -0.946  -0.069  0.00  0.00    +0.000 P 
ATOM     22  O   UNL     1       3.298  -2.091   0.828  0.00  0.00    +0.000 OA
BRANCH  21  23
ATOM     23  O   UNL     1       4.650   0.158   0.588  0.00  0.00    +0.000 OA
ATOM     24  H   UNL     1       5.463  -0.144   1.047  0.00  0.00    +0.000 HD
ENDBRANCH  21  23
BRANCH  21  25
ATOM     25  O   UNL     1       4.435  -1.364  -1.430  0.00  0.00    +0.000 OA
ATOM     26  H   UNL     1       5.191  -1.986  -1.376  0.00  0.00    +0.000 HD
ENDBRANCH  21  25
ENDBRANCH  20  21
ENDBRANCH   2  20
BRANCH   3  27
ATOM     27  O   UNL     1      -2.136  -1.223  -0.800  0.00  0.00    +0.000 OA
BRANCH  27  28
ATOM     28  P   UNL     1      -2.999  -2.269   0.074  0.00  0.00    +0.000 P 
ATOM     29  O   UNL     1      -2.197  -3.305   0.806  0.00  0.00    +0.000 OA
BRANCH  28  30
ATOM     30  O   UNL     1      -4.083  -2.849  -0.977  0.00  0.00    +0.000 OA
ATOM     31  H   UNL     1      -4.695  -3.557  -0.684  0.00  0.00    +0.000 HD
ENDBRANCH  28  30
BRANCH  28  32
ATOM     32  O   UNL     1      -3.880  -1.295   1.017  0.00  0.00    +0.000 OA
ATOM     33  H   UNL     1      -4.433  -1.691   1.723  0.00  0.00    +0.000 HD
ENDBRANCH  28  32
ENDBRANCH  27  28
ENDBRANCH   3  27
TORSDOF 15
