REMARK  Name = 448872
REMARK  16 active torsions:
REMARK  status: ('A' for Active; 'I' for Inactive)
REMARK    1  A    between atoms: P_1  and  O_9
REMARK    2  A    between atoms: P_1  and  O_12
REMARK    3  A    between atoms: P_1  and  O_15
REMARK    4  A    between atoms: P_2  and  O_8
REMARK    5  A    between atoms: P_2  and  O_12
REMARK    6  A    between atoms: P_2  and  O_16
REMARK    7  A    between atoms: O_6  and  C_22
REMARK    8  A    between atoms: O_7  and  C_23
REMARK    9  A    between atoms: O_8  and  C_30
REMARK   10  A    between atoms: O_9  and  C_31
REMARK   11  A    between atoms: O_10  and  C_26
REMARK   12  A    between atoms: O_11  and  C_28
REMARK   13  A    between atoms: O_13  and  C_32
REMARK   14  A    between atoms: N_20  and  C_25
REMARK   15  A    between atoms: C_24  and  C_30
REMARK   16  A    between atoms: C_29  and  C_32
REMARK                            x       y       z     vdW  Elec       q    Type
REMARK                         _______ _______ _______ _____ _____    ______ ____
ROOT
ATOM      1  P   UNL     1      -0.522  -3.704  -0.678  0.00  0.00    +0.000 P 
ATOM      2  O   UNL     1      -0.542  -4.652  -1.842  0.00  0.00    +0.000 OA
ENDROOT
BRANCH   1   3
ATOM      3  O   UNL     1      -1.340  -4.203   0.624  0.00  0.00    +0.000 OA
ATOM      4  H   UNL     1      -1.477  -3.590   1.377  0.00  0.00    +0.000 HD
ENDBRANCH   1   3
BRANCH   1   5
ATOM      5  O   UNL     1       0.943  -3.334  -0.099  0.00  0.00    +0.000 OA
BRANCH   5   6
ATOM      6  C   UNL     1       1.031  -2.444   0.999  0.00  0.00    +0.000 C 
BRANCH   6  10
ATOM      7  O   UNL     1       3.165  -1.645   0.235  0.00  0.00    +0.000 OA
ATOM      8  C   UNL     1       2.705  -1.296   2.532  0.00  0.00    +0.000 C 
ATOM      9  C   UNL     1       2.752   0.049   1.839  0.00  0.00    +0.000 C 
ATOM     10  C   UNL     1       2.497  -2.250   1.364  0.00  0.00    +0.000 C 
ATOM     11  C   UNL     1       3.493  -0.284   0.556  0.00  0.00    +0.000 C 
BRANCH  11  14
ATOM     12  O   UNL     1       4.840   2.083  -0.194  0.00  0.00    +0.000 OA
ATOM     13  O   UNL     1       1.902   2.877  -3.655  0.00  0.00    +0.000 OA
ATOM     14  N   UNL     1       3.102   0.560  -0.537  0.00  0.00    +0.000 N 
ATOM     15  N   UNL     1       3.375   2.477  -1.916  0.00  0.00    +0.000 N 
ATOM     16  C   UNL     1       3.846   1.727  -0.830  0.00  0.00    +0.000 A 
ATOM     17  C   UNL     1       1.993   0.229  -1.307  0.00  0.00    +0.000 A 
ATOM     18  C   UNL     1       1.556   0.954  -2.340  0.00  0.00    +0.000 A 
ATOM     19  C   UNL     1       2.277   2.188  -2.711  0.00  0.00    +0.000 A 
ATOM     20  H   UNL     1       3.895   3.320  -2.145  0.00  0.00    +0.000 HD
ENDBRANCH  11  14
BRANCH   8  21
ATOM     21  O   UNL     1       3.970  -1.594   3.123  0.00  0.00    +0.000 OA
ATOM     22  H   UNL     1       3.905  -2.479   3.520  0.00  0.00    +0.000 HD
ENDBRANCH   8  21
BRANCH   9  23
ATOM     23  O   UNL     1       3.417   1.028   2.612  0.00  0.00    +0.000 OA
ATOM     24  H   UNL     1       3.476   1.834   2.073  0.00  0.00    +0.000 HD
ENDBRANCH   9  23
ENDBRANCH   6  10
ENDBRANCH   5   6
ENDBRANCH   1   5
BRANCH   1  25
ATOM     25  O   UNL     1      -1.169  -2.254  -0.980  0.00  0.00    +0.000 OA
BRANCH  25  26
ATOM     26  P   UNL     1      -2.660  -1.833  -1.443  0.00  0.00    +0.000 P 
ATOM     27  O   UNL     1      -2.921  -2.005  -2.911  0.00  0.00    +0.000 OA
BRANCH  26  28
ATOM     28  O   UNL     1      -3.611  -2.728  -0.487  0.00  0.00    +0.000 OA
ATOM     29  H   UNL     1      -3.761  -3.670  -0.715  0.00  0.00    +0.000 HD
ENDBRANCH  26  28
BRANCH  26  30
ATOM     30  O   UNL     1      -2.846  -0.324  -0.904  0.00  0.00    +0.000 OA
BRANCH  30  37
ATOM     31  F   UNL     1      -3.252   3.993   0.210  0.00  0.00    +0.000 F 
ATOM     32  O   UNL     1      -1.525   0.858   0.670  0.00  0.00    +0.000 OA
ATOM     33  C   UNL     1      -4.215   1.921   0.726  0.00  0.00    +0.000 C 
ATOM     34  C   UNL     1      -2.980   2.810   0.829  0.00  0.00    +0.000 C 
ATOM     35  C   UNL     1      -3.880   0.500   1.172  0.00  0.00    +0.000 C 
ATOM     36  C   UNL     1      -1.765   2.171   0.157  0.00  0.00    +0.000 C 
ATOM     37  C   UNL     1      -2.626  -0.034   0.476  0.00  0.00    +0.000 C 
BRANCH  33  38
ATOM     38  O   UNL     1      -5.231   2.437   1.586  0.00  0.00    +0.000 OA
ATOM     39  H   UNL     1      -4.888   2.438   2.496  0.00  0.00    +0.000 HD
ENDBRANCH  33  38
BRANCH  35  40
ATOM     40  O   UNL     1      -4.982  -0.368   0.933  0.00  0.00    +0.000 OA
ATOM     41  H   UNL     1      -4.723  -1.259   1.223  0.00  0.00    +0.000 HD
ENDBRANCH  35  40
BRANCH  36  42
ATOM     42  C   UNL     1      -0.510   3.001   0.398  0.00  0.00    +0.000 C 
BRANCH  42  43
ATOM     43  O   UNL     1      -0.287   3.089   1.794  0.00  0.00    +0.000 OA
ATOM     44  H   UNL     1       0.523   3.612   1.922  0.00  0.00    +0.000 HD
ENDBRANCH  42  43
ENDBRANCH  36  42
ENDBRANCH  30  37
ENDBRANCH  26  30
ENDBRANCH  25  26
ENDBRANCH   1  25
TORSDOF 16
