REMARK  Name = 448176
REMARK  14 active torsions:
REMARK  status: ('A' for Active; 'I' for Inactive)
REMARK    1  A    between atoms: P_1  and  O_5
REMARK    2  A    between atoms: P_1  and  O_9
REMARK    3  A    between atoms: P_1  and  C_22
REMARK    4  A    between atoms: P_2  and  O_11
REMARK    5  A    between atoms: P_2  and  O_12
REMARK    6  A    between atoms: P_2  and  C_22
REMARK    7  A    between atoms: P_3  and  O_8
REMARK    8  A    between atoms: P_3  and  O_14
REMARK    9  A    between atoms: P_3  and  O_15
REMARK   10  A    between atoms: O_5  and  C_20
REMARK   11  A    between atoms: O_6  and  C_17
REMARK   12  A    between atoms: O_7  and  C_19
REMARK   13  A    between atoms: O_8  and  C_21
REMARK   14  A    between atoms: C_18  and  C_21
REMARK                            x       y       z     vdW  Elec       q    Type
REMARK                         _______ _______ _______ _____ _____    ______ ____
ROOT
ATOM      1  O   UNL     1      -0.063  -0.623  -0.034  0.00  0.00    +0.000 OA
ATOM      2  C   UNL     1      -0.976  -2.802   0.119  0.00  0.00    +0.000 C 
ATOM      3  C   UNL     1      -1.234  -1.387  -0.384  0.00  0.00    +0.000 C 
ATOM      4  C   UNL     1       0.522  -2.915  -0.060  0.00  0.00    +0.000 C 
ATOM      5  C   UNL     1       0.959  -1.535   0.412  0.00  0.00    +0.000 C 
ENDROOT
BRANCH   2   6
ATOM      6  O   UNL     1      -1.704  -3.764  -0.613  0.00  0.00    +0.000 OA
ATOM      7  H   UNL     1      -2.650  -3.573  -0.494  0.00  0.00    +0.000 HD
ENDBRANCH   2   6
BRANCH   4   8
ATOM      8  O   UNL     1       0.828  -3.084  -1.443  0.00  0.00    +0.000 OA
ATOM      9  H   UNL     1       0.689  -2.239  -1.902  0.00  0.00    +0.000 HD
ENDBRANCH   4   8
BRANCH   5  10
ATOM     10  O   UNL     1       2.243  -1.208  -0.088  0.00  0.00    +0.000 OA
BRANCH  10  11
ATOM     11  P   UNL     1       3.216  -0.193   0.710  0.00  0.00    +0.000 P 
ATOM     12  O   UNL     1       4.587  -0.053   0.117  0.00  0.00    +0.000 OA
BRANCH  11  13
ATOM     13  O   UNL     1       3.205  -0.737   2.233  0.00  0.00    +0.000 OA
ATOM     14  H   UNL     1       3.700  -1.556   2.448  0.00  0.00    +0.000 HD
ENDBRANCH  11  13
BRANCH  11  15
ATOM     15  C   UNL     1       2.310   1.371   0.812  0.00  0.00    +0.000 C 
BRANCH  15  16
ATOM     16  P   UNL     1       1.959   2.433  -0.610  0.00  0.00    +0.000 P 
ATOM     17  O   UNL     1       1.088   1.802  -1.654  0.00  0.00    +0.000 OA
BRANCH  16  18
ATOM     18  O   UNL     1       1.366   3.774   0.070  0.00  0.00    +0.000 OA
ATOM     19  H   UNL     1       1.065   4.507  -0.508  0.00  0.00    +0.000 HD
ENDBRANCH  16  18
BRANCH  16  20
ATOM     20  O   UNL     1       3.429   2.879  -1.109  0.00  0.00    +0.000 OA
ATOM     21  H   UNL     1       3.509   3.446  -1.905  0.00  0.00    +0.000 HD
ENDBRANCH  16  20
ENDBRANCH  15  16
ENDBRANCH  11  15
ENDBRANCH  10  11
ENDBRANCH   5  10
BRANCH   3  22
ATOM     22  C   UNL     1      -2.465  -0.747   0.233  0.00  0.00    +0.000 C 
BRANCH  22  23
ATOM     23  O   UNL     1      -2.610   0.564  -0.289  0.00  0.00    +0.000 OA
BRANCH  23  24
ATOM     24  P   UNL     1      -3.858   1.462   0.216  0.00  0.00    +0.000 P 
ATOM     25  O   UNL     1      -3.937   2.834  -0.386  0.00  0.00    +0.000 OA
BRANCH  24  26
ATOM     26  O   UNL     1      -3.733   1.420   1.828  0.00  0.00    +0.000 OA
ATOM     27  H   UNL     1      -4.353   1.957   2.366  0.00  0.00    +0.000 HD
ENDBRANCH  24  26
BRANCH  24  28
ATOM     28  O   UNL     1      -5.131   0.510  -0.083  0.00  0.00    +0.000 OA
ATOM     29  H   UNL     1      -6.034   0.869   0.055  0.00  0.00    +0.000 HD
ENDBRANCH  24  28
ENDBRANCH  23  24
ENDBRANCH  22  23
ENDBRANCH   3  22
TORSDOF 14
