REMARK  Name = 8977
REMARK  11 active torsions:
REMARK  status: ('A' for Active; 'I' for Inactive)
REMARK    1  A    between atoms: P_1  and  O_6
REMARK    2  A    between atoms: P_1  and  O_7
REMARK    3  A    between atoms: P_1  and  O_8
REMARK    4  A    between atoms: P_2  and  O_7
REMARK    5  A    between atoms: P_2  and  O_11
REMARK    6  A    between atoms: P_2  and  O_12
REMARK    7  A    between atoms: O_4  and  C_19
REMARK    8  A    between atoms: O_5  and  C_20
REMARK    9  A    between atoms: O_6  and  C_23
REMARK   10  A    between atoms: N_14  and  C_21
REMARK   11  A    between atoms: C_22  and  C_23
REMARK                            x       y       z     vdW  Elec       q    Type
REMARK                         _______ _______ _______ _____ _____    ______ ____
ROOT
ATOM      1  O   UNL     1       0.485   1.085  -0.688  0.00  0.00    +0.000 OA
ATOM      2  C   UNL     1      -0.887   2.576   0.598  0.00  0.00    +0.000 C 
ATOM      3  C   UNL     1       0.510   2.503   1.184  0.00  0.00    +0.000 C 
ATOM      4  C   UNL     1      -0.890   1.431  -0.416  0.00  0.00    +0.000 C 
ATOM      5  C   UNL     1       1.332   2.019   0.002  0.00  0.00    +0.000 C 
ENDROOT
BRANCH   4   7
ATOM      6  O   UNL     1      -4.656  -2.977   0.940  0.00  0.00    +0.000 OA
ATOM      7  N   UNL     1      -1.610   0.242   0.043  0.00  0.00    +0.000 N 
ATOM      8  N   UNL     1      -3.846   0.572  -0.859  0.00  0.00    +0.000 N 
ATOM      9  N   UNL     1      -1.990  -1.722   1.061  0.00  0.00    +0.000 NA
ATOM     10  N   UNL     1      -5.395  -1.186  -0.332  0.00  0.00    +0.000 NA
ATOM     11  N   UNL     1      -6.026   0.686  -1.617  0.00  0.00    +0.000 N 
ATOM     12  C   UNL     1      -2.905  -0.087  -0.177  0.00  0.00    +0.000 A 
ATOM     13  C   UNL     1      -1.094  -0.785   0.801  0.00  0.00    +0.000 A 
ATOM     14  C   UNL     1      -3.127  -1.281   0.444  0.00  0.00    +0.000 A 
ATOM     15  C   UNL     1      -4.434  -1.905   0.390  0.00  0.00    +0.000 A 
ATOM     16  C   UNL     1      -5.100  -0.034  -0.906  0.00  0.00    +0.000 A 
ATOM     17  H   UNL     1      -3.686   1.462  -1.319  0.00  0.00    +0.000 HD
ATOM     18  H   UNL     1      -5.787   1.570  -2.054  0.00  0.00    +0.000 HD
ATOM     19  H   UNL     1      -6.978   0.354  -1.727  0.00  0.00    +0.000 HD
ENDBRANCH   4   7
BRANCH   2  20
ATOM     20  O   UNL     1      -1.097   3.810  -0.086  0.00  0.00    +0.000 OA
ATOM     21  H   UNL     1      -1.989   3.780  -0.472  0.00  0.00    +0.000 HD
ENDBRANCH   2  20
BRANCH   3  22
ATOM     22  O   UNL     1       0.975   3.739   1.684  0.00  0.00    +0.000 OA
ATOM     23  H   UNL     1       1.885   3.607   2.001  0.00  0.00    +0.000 HD
ENDBRANCH   3  22
BRANCH   5  24
ATOM     24  C   UNL     1       2.628   1.340   0.403  0.00  0.00    +0.000 C 
BRANCH  24  25
ATOM     25  O   UNL     1       3.295   0.930  -0.770  0.00  0.00    +0.000 OA
BRANCH  25  26
ATOM     26  P   UNL     1       4.722   0.167  -0.674  0.00  0.00    +0.000 P 
ATOM     27  O   UNL     1       5.326  -0.216  -1.994  0.00  0.00    +0.000 OA
BRANCH  26  28
ATOM     28  O   UNL     1       5.643   1.151   0.220  0.00  0.00    +0.000 OA
ATOM     29  H   UNL     1       6.056   1.932  -0.207  0.00  0.00    +0.000 HD
ENDBRANCH  26  28
BRANCH  26  30
ATOM     30  O   UNL     1       4.446  -1.082   0.315  0.00  0.00    +0.000 OA
BRANCH  30  31
ATOM     31  P   UNL     1       3.520  -2.394   0.133  0.00  0.00    +0.000 P 
ATOM     32  O   UNL     1       2.063  -2.107  -0.082  0.00  0.00    +0.000 OA
BRANCH  31  33
ATOM     33  O   UNL     1       3.864  -3.270   1.446  0.00  0.00    +0.000 OA
ATOM     34  H   UNL     1       3.356  -4.093   1.615  0.00  0.00    +0.000 HD
ENDBRANCH  31  33
BRANCH  31  35
ATOM     35  O   UNL     1       4.248  -3.202  -1.062  0.00  0.00    +0.000 OA
ATOM     36  H   UNL     1       3.823  -4.012  -1.416  0.00  0.00    +0.000 HD
ENDBRANCH  31  35
ENDBRANCH  30  31
ENDBRANCH  26  30
ENDBRANCH  25  26
ENDBRANCH  24  25
ENDBRANCH   5  24
TORSDOF 11
