REMARK  Name = 44462678
REMARK  15 active torsions:
REMARK  status: ('A' for Active; 'I' for Inactive)
REMARK    1  A    between atoms: P_1  and  O_7
REMARK    2  A    between atoms: P_1  and  O_8
REMARK    3  A    between atoms: P_1  and  O_9
REMARK    4  A    between atoms: P_2  and  O_8
REMARK    5  A    between atoms: P_2  and  O_11
REMARK    6  A    between atoms: P_2  and  N_21
REMARK    7  A    between atoms: P_3  and  O_13
REMARK    8  A    between atoms: P_3  and  O_14
REMARK    9  A    between atoms: P_3  and  N_21
REMARK   10  A    between atoms: O_5  and  C_22
REMARK   11  A    between atoms: O_6  and  C_23
REMARK   12  A    between atoms: O_7  and  C_26
REMARK   13  A    between atoms: N_16  and  C_24
REMARK   14  A    between atoms: N_20  and  C_30
REMARK   15  A    between atoms: C_25  and  C_26
REMARK                            x       y       z     vdW  Elec       q    Type
REMARK                         _______ _______ _______ _____ _____    ______ ____
ROOT
ATOM      1  O   UNL     1       0.637  -1.262  -0.295  0.00  0.00    +0.000 OA
ATOM      2  C   UNL     1      -0.792  -2.889   0.695  0.00  0.00    +0.000 C 
ATOM      3  C   UNL     1       0.637  -3.384   0.736  0.00  0.00    +0.000 C 
ATOM      4  C   UNL     1      -0.602  -1.398   0.431  0.00  0.00    +0.000 C 
ATOM      5  C   UNL     1       1.276  -2.547  -0.358  0.00  0.00    +0.000 C 
ENDROOT
BRANCH   4   6
ATOM      6  N   UNL     1      -1.745  -0.786  -0.343  0.00  0.00    +0.000 N 
ATOM      7  N   UNL     1      -2.970  -0.144  -2.091  0.00  0.00    +0.000 NA
ATOM      8  N   UNL     1      -3.152   0.014   1.468  0.00  0.00    +0.000 NA
ATOM      9  N   UNL     1      -5.163   1.100   0.614  0.00  0.00    +0.000 NA
ATOM     10  C   UNL     1      -2.850  -0.173   0.174  0.00  0.00    +0.000 A 
ATOM     11  C   UNL     1      -1.862  -0.743  -1.707  0.00  0.00    +0.000 A 
ATOM     12  C   UNL     1      -3.597   0.218  -0.926  0.00  0.00    +0.000 A 
ATOM     13  C   UNL     1      -4.795   0.877  -0.670  0.00  0.00    +0.000 A 
ATOM     14  C   UNL     1      -4.331   0.661   1.589  0.00  0.00    +0.000 A 
BRANCH  13  15
ATOM     15  N   UNL     1      -5.616   1.309  -1.726  0.00  0.00    +0.000 N 
ATOM     16  H   UNL     1      -5.343   1.144  -2.686  0.00  0.00    +0.000 HD
ATOM     17  H   UNL     1      -6.482   1.786  -1.515  0.00  0.00    +0.000 HD
ENDBRANCH  13  15
ENDBRANCH   4   6
BRANCH   2  18
ATOM     18  O   UNL     1      -1.451  -3.103   1.932  0.00  0.00    +0.000 OA
ATOM     19  H   UNL     1      -0.938  -2.665   2.632  0.00  0.00    +0.000 HD
ENDBRANCH   2  18
BRANCH   3  20
ATOM     20  O   UNL     1       0.702  -4.768   0.452  0.00  0.00    +0.000 OA
ATOM     21  H   UNL     1       0.308  -4.921  -0.424  0.00  0.00    +0.000 HD
ENDBRANCH   3  20
BRANCH   5  22
ATOM     22  C   UNL     1       2.775  -2.377  -0.189  0.00  0.00    +0.000 C 
BRANCH  22  23
ATOM     23  O   UNL     1       3.275  -1.595  -1.260  0.00  0.00    +0.000 OA
BRANCH  23  24
ATOM     24  P   UNL     1       4.019  -0.190  -0.958  0.00  0.00    +0.000 P 
ATOM     25  O   UNL     1       4.501   0.542  -2.177  0.00  0.00    +0.000 OA
BRANCH  24  26
ATOM     26  O   UNL     1       5.186  -0.571   0.096  0.00  0.00    +0.000 OA
ATOM     27  H   UNL     1       5.852   0.109   0.332  0.00  0.00    +0.000 HD
ENDBRANCH  24  26
BRANCH  24  28
ATOM     28  O   UNL     1       2.965   0.642  -0.057  0.00  0.00    +0.000 OA
BRANCH  28  29
ATOM     29  P   UNL     1       3.108   2.067   0.707  0.00  0.00    +0.000 P 
ATOM     30  O   UNL     1       3.645   3.144  -0.197  0.00  0.00    +0.000 OA
BRANCH  29  31
ATOM     31  O   UNL     1       4.156   1.684   1.886  0.00  0.00    +0.000 OA
ATOM     32  H   UNL     1       3.805   1.340   2.735  0.00  0.00    +0.000 HD
ENDBRANCH  29  31
BRANCH  29  33
ATOM     33  N   UNL     1       1.649   2.329   1.441  0.00  0.00    +0.000 NA
ATOM     34  H   UNL     1       1.668   2.911   2.277  0.00  0.00    +0.000 HD
BRANCH  33  35
ATOM     35  P   UNL     1       0.431   2.654   0.370  0.00  0.00    +0.000 P 
ATOM     36  O   UNL     1       0.350   1.804  -0.869  0.00  0.00    +0.000 OA
BRANCH  35  37
ATOM     37  O   UNL     1       0.567   4.234   0.017  0.00  0.00    +0.000 OA
ATOM     38  H   UNL     1      -0.033   4.618  -0.658  0.00  0.00    +0.000 HD
ENDBRANCH  35  37
BRANCH  35  39
ATOM     39  O   UNL     1      -0.953   2.648   1.218  0.00  0.00    +0.000 OA
ATOM     40  H   UNL     1      -1.800   2.773   0.739  0.00  0.00    +0.000 HD
ENDBRANCH  35  39
ENDBRANCH  33  35
ENDBRANCH  29  33
ENDBRANCH  28  29
ENDBRANCH  24  28
ENDBRANCH  23  24
ENDBRANCH  22  23
ENDBRANCH   5  22
TORSDOF 15
