REMARK  Name = 25134172
REMARK  9 active torsions:
REMARK  status: ('A' for Active; 'I' for Inactive)
REMARK    1  A    between atoms: P_1  and  O_4
REMARK    2  A    between atoms: P_1  and  O_8
REMARK    3  A    between atoms: P_1  and  O_9
REMARK    4  A    between atoms: O_3  and  C_11
REMARK    5  A    between atoms: O_4  and  C_15
REMARK    6  A    between atoms: O_5  and  C_12
REMARK    7  A    between atoms: O_6  and  C_13
REMARK    8  A    between atoms: O_7  and  C_16
REMARK    9  A    between atoms: C_14  and  C_16
REMARK                            x       y       z     vdW  Elec       q    Type
REMARK                         _______ _______ _______ _____ _____    ______ ____
ROOT
ATOM      1  O   UNL     1      -0.143  -0.833   0.458  0.00  0.00    +0.000 OA
ATOM      2  C   UNL     1      -1.847   1.380  -0.212  0.00  0.00    +0.000 C 
ATOM      3  C   UNL     1      -2.399   0.002   0.156  0.00  0.00    +0.000 C 
ATOM      4  C   UNL     1      -0.434   1.575   0.338  0.00  0.00    +0.000 C 
ATOM      5  C   UNL     1      -1.390  -1.096  -0.189  0.00  0.00    +0.000 C 
ATOM      6  C   UNL     1       0.460   0.379   0.011  0.00  0.00    +0.000 C 
ENDROOT
BRANCH   2   7
ATOM      7  O   UNL     1      -2.715   2.367   0.347  0.00  0.00    +0.000 OA
ATOM      8  H   UNL     1      -2.703   2.267   1.315  0.00  0.00    +0.000 HD
ENDBRANCH   2   7
BRANCH   3   9
ATOM      9  O   UNL     1      -3.609  -0.228  -0.561  0.00  0.00    +0.000 OA
ATOM     10  H   UNL     1      -3.401  -0.220  -1.511  0.00  0.00    +0.000 HD
ENDBRANCH   3   9
BRANCH   4  11
ATOM     11  O   UNL     1       0.145   2.740  -0.249  0.00  0.00    +0.000 OA
ATOM     12  H   UNL     1       0.184   2.606  -1.212  0.00  0.00    +0.000 HD
ENDBRANCH   4  11
BRANCH   6  13
ATOM     13  O   UNL     1       1.709   0.569   0.674  0.00  0.00    +0.000 OA
BRANCH  13  14
ATOM     14  P   UNL     1       3.035  -0.054  -0.004  0.00  0.00    +0.000 P 
ATOM     15  O   UNL     1       4.310   0.186   0.751  0.00  0.00    +0.000 OA
BRANCH  14  16
ATOM     16  O   UNL     1       3.005   0.525  -1.513  0.00  0.00    +0.000 OA
ATOM     17  H   UNL     1       3.755   0.325  -2.113  0.00  0.00    +0.000 HD
ENDBRANCH  14  16
BRANCH  14  18
ATOM     18  O   UNL     1       2.636  -1.609  -0.194  0.00  0.00    +0.000 OA
ATOM     19  H   UNL     1       3.318  -2.239  -0.511  0.00  0.00    +0.000 HD
ENDBRANCH  14  18
ENDBRANCH  13  14
ENDBRANCH   6  13
BRANCH   5  20
ATOM     20  C   UNL     1      -1.868  -2.469   0.274  0.00  0.00    +0.000 C 
BRANCH  20  21
ATOM     21  O   UNL     1      -0.894  -3.431  -0.087  0.00  0.00    +0.000 OA
ATOM     22  H   UNL     1      -1.217  -4.295   0.221  0.00  0.00    +0.000 HD
ENDBRANCH  20  21
ENDBRANCH   5  20
TORSDOF 9
