REMARK  Name = 445079
REMARK  12 active torsions:
REMARK  status: ('A' for Active; 'I' for Inactive)
REMARK    1  A    between atoms: P_1  and  O_6
REMARK    2  A    between atoms: P_1  and  O_7
REMARK    3  A    between atoms: P_1  and  C_16
REMARK    4  A    between atoms: O_3  and  C_14
REMARK    5  A    between atoms: O_4  and  C_17
REMARK    6  A    between atoms: O_5  and  C_18
REMARK    7  A    between atoms: O_9  and  C_19
REMARK    8  A    between atoms: N_11  and  C_12
REMARK    9  A    between atoms: C_13  and  C_17
REMARK   10  A    between atoms: C_17  and  C_18
REMARK   11  A    between atoms: C_18  and  C_19
REMARK   12  A    between atoms: C_20  and  C_21
REMARK                            x       y       z     vdW  Elec       q    Type
REMARK                         _______ _______ _______ _____ _____    ______ ____
ROOT
ATOM      1  O   UNL     1      -1.044  -0.332   0.990  0.00  0.00    +0.000 OA
ATOM      2  C   UNL     1       1.289  -0.497   0.250  0.00  0.00    +0.000 C 
ATOM      3  C   UNL     1      -0.084   0.166   0.053  0.00  0.00    +0.000 C 
ATOM      4  C   UNL     1       1.163  -2.024   0.233  0.00  0.00    +0.000 C 
ATOM      5  C   UNL     1       0.082  -2.483   1.205  0.00  0.00    +0.000 C 
ATOM      6  C   UNL     1      -1.224  -1.745   0.980  0.00  0.00    +0.000 C 
ENDROOT
BRANCH   2   8
ATOM      7  O   UNL     1       3.798   0.910   0.646  0.00  0.00    +0.000 OA
ATOM      8  N   UNL     1       2.223  -0.062  -0.766  0.00  0.00    +0.000 N 
ATOM      9  C   UNL     1       3.399   0.605  -0.475  0.00  0.00    +0.000 C 
ATOM     10  C   UNL     1       4.196   0.918  -1.714  0.00  0.00    +0.000 C 
ATOM     11  H   UNL     1       1.998  -0.268  -1.735  0.00  0.00    +0.000 HD
ENDBRANCH   2   8
BRANCH   6  12
ATOM     12  P   UNL     1      -2.087  -2.157  -0.542  0.00  0.00    +0.000 P 
ATOM     13  O   UNL     1      -1.302  -1.877  -1.779  0.00  0.00    +0.000 OA
BRANCH  12  14
ATOM     14  O   UNL     1      -3.475  -1.351  -0.393  0.00  0.00    +0.000 OA
ATOM     15  H   UNL     1      -4.129  -1.388  -1.123  0.00  0.00    +0.000 HD
ENDBRANCH  12  14
BRANCH  12  16
ATOM     16  O   UNL     1      -2.507  -3.695  -0.308  0.00  0.00    +0.000 OA
ATOM     17  H   UNL     1      -2.978  -4.175  -1.022  0.00  0.00    +0.000 HD
ENDBRANCH  12  16
ENDBRANCH   6  12
BRANCH   4  18
ATOM     18  O   UNL     1       2.407  -2.602   0.620  0.00  0.00    +0.000 OA
ATOM     19  H   UNL     1       3.082  -2.290  -0.007  0.00  0.00    +0.000 HD
ENDBRANCH   4  18
BRANCH   3  20
ATOM     20  C   UNL     1      -0.021   1.678   0.260  0.00  0.00    +0.000 C 
BRANCH  20  21
ATOM     21  O   UNL     1       0.524   1.918   1.554  0.00  0.00    +0.000 OA
ATOM     22  H   UNL     1      -0.090   1.543   2.208  0.00  0.00    +0.000 HD
ENDBRANCH  20  21
BRANCH  20  23
ATOM     23  C   UNL     1      -1.391   2.354   0.119  0.00  0.00    +0.000 C 
BRANCH  23  24
ATOM     24  O   UNL     1      -1.919   2.018  -1.169  0.00  0.00    +0.000 OA
ATOM     25  H   UNL     1      -1.303   2.355  -1.842  0.00  0.00    +0.000 HD
ENDBRANCH  23  24
BRANCH  23  26
ATOM     26  C   UNL     1      -1.353   3.877   0.207  0.00  0.00    +0.000 C 
BRANCH  26  27
ATOM     27  O   UNL     1      -2.675   4.380   0.032  0.00  0.00    +0.000 OA
ATOM     28  H   UNL     1      -3.220   4.028   0.756  0.00  0.00    +0.000 HD
ENDBRANCH  26  27
ENDBRANCH  23  26
ENDBRANCH  20  23
ENDBRANCH   3  20
TORSDOF 11
