REMARK  Name = 
REMARK  13 active torsions:
REMARK  status: ('A' for Active; 'I' for Inactive)
REMARK    1  A    between atoms: SB_4  and  O_20
REMARK    2  A    between atoms: SB_4  and  O_37
REMARK    3  A    between atoms: C_7  and  C_11
REMARK    4  A    between atoms: C_8  and  C_14
REMARK    5  A    between atoms: C_14  and  O_15
REMARK    6  A    between atoms: C_14  and  C_16
REMARK    7  A    between atoms: C_16  and  O_17
REMARK    8  A    between atoms: O_20  and  SB_21
REMARK    9  A    between atoms: C_24  and  C_28
REMARK   10  A    between atoms: C_25  and  C_31
REMARK   11  A    between atoms: C_31  and  O_32
REMARK   12  A    between atoms: C_31  and  C_33
REMARK   13  A    between atoms: C_33  and  O_34
REMARK                            x       y       z     vdW  Elec       q    Type
REMARK                         _______ _______ _______ _____ _____    ______ ____
ROOT
ATOM      1 NA   UNL     1       5.907 -16.081   0.000  0.00  0.00    +0.000 Na
ENDROOT
TORSDOF 0
REMARK  Name = 
REMARK  13 active torsions:
REMARK  status: ('A' for Active; 'I' for Inactive)
REMARK    1  A    between atoms: SB_4  and  O_20
REMARK    2  A    between atoms: SB_4  and  O_37
REMARK    3  A    between atoms: C_7  and  C_11
REMARK    4  A    between atoms: C_8  and  C_14
REMARK    5  A    between atoms: C_14  and  O_15
REMARK    6  A    between atoms: C_14  and  C_16
REMARK    7  A    between atoms: C_16  and  O_17
REMARK    8  A    between atoms: O_20  and  SB_21
REMARK    9  A    between atoms: C_24  and  C_28
REMARK   10  A    between atoms: C_25  and  C_31
REMARK   11  A    between atoms: C_31  and  O_32
REMARK   12  A    between atoms: C_31  and  C_33
REMARK   13  A    between atoms: C_33  and  O_34
REMARK                            x       y       z     vdW  Elec       q    Type
REMARK                         _______ _______ _______ _____ _____    ______ ____
ROOT
ATOM      1 NA   UNL     1       9.495 -20.279   0.000  0.00  0.00    +0.000 Na
ENDROOT
TORSDOF 0
REMARK  Name = 
REMARK  13 active torsions:
REMARK  status: ('A' for Active; 'I' for Inactive)
REMARK    1  A    between atoms: SB_4  and  O_20
REMARK    2  A    between atoms: SB_4  and  O_37
REMARK    3  A    between atoms: C_7  and  C_11
REMARK    4  A    between atoms: C_8  and  C_14
REMARK    5  A    between atoms: C_14  and  O_15
REMARK    6  A    between atoms: C_14  and  C_16
REMARK    7  A    between atoms: C_16  and  O_17
REMARK    8  A    between atoms: O_20  and  SB_21
REMARK    9  A    between atoms: C_24  and  C_28
REMARK   10  A    between atoms: C_25  and  C_31
REMARK   11  A    between atoms: C_31  and  O_32
REMARK   12  A    between atoms: C_31  and  C_33
REMARK   13  A    between atoms: C_33  and  O_34
REMARK                            x       y       z     vdW  Elec       q    Type
REMARK                         _______ _______ _______ _____ _____    ______ ____
ROOT
ATOM      1 NA   UNL     1       2.592 -20.279   0.000  0.00  0.00    +0.000 Na
ENDROOT
TORSDOF 0
REMARK  Name = 
REMARK  13 active torsions:
REMARK  status: ('A' for Active; 'I' for Inactive)
REMARK    1  A    between atoms: SB_4  and  O_20
REMARK    2  A    between atoms: SB_4  and  O_37
REMARK    3  A    between atoms: C_7  and  C_11
REMARK    4  A    between atoms: C_8  and  C_14
REMARK    5  A    between atoms: C_14  and  O_15
REMARK    6  A    between atoms: C_14  and  C_16
REMARK    7  A    between atoms: C_16  and  O_17
REMARK    8  A    between atoms: O_20  and  SB_21
REMARK    9  A    between atoms: C_24  and  C_28
REMARK   10  A    between atoms: C_25  and  C_31
REMARK   11  A    between atoms: C_31  and  O_32
REMARK   12  A    between atoms: C_31  and  C_33
REMARK   13  A    between atoms: C_33  and  O_34
REMARK                            x       y       z     vdW  Elec       q    Type
REMARK                         _______ _______ _______ _____ _____    ______ ____
ROOT
ATOM      1 SB   UNL     1       5.247 -17.807   0.000  0.00  0.00    +0.000 Sb
ATOM      2  O   UNL     1       5.247 -18.632   0.000  0.00  0.00    +0.000 OA
ATOM      3  O   UNL     1       4.532 -17.395   0.000  0.00  0.00    +0.000 OA
ATOM      4  C   UNL     1       4.532 -19.045   0.000  0.00  0.00    +0.000 C 
ATOM      5  C   UNL     1       3.818 -17.807   0.000  0.00  0.00    +0.000 C 
ATOM      6  C   UNL     1       3.818 -18.632   0.000  0.00  0.00    +0.000 C 
ATOM      7  O   UNL     1       4.453 -18.031   0.000  0.00  0.00    +0.000 OA
ENDROOT
BRANCH   4   8
ATOM      8  C   UNL     1       4.533 -19.870   0.000  0.00  0.00    +0.000 C 
ATOM      9  O   UNL     1       3.818 -20.282   0.000  0.00  0.00    +0.000 OA
ATOM     10  O   UNL     1       5.247 -20.282   0.000  0.00  0.00    +0.000 OA
ENDBRANCH   4   8
BRANCH   1  11
ATOM     11  O   UNL     1       5.248 -16.987   0.000  0.00  0.00    +0.000 OA
ATOM     12  H   UNL     1       6.089 -16.503   0.000  0.00  0.00    +0.000 HD
ENDBRANCH   1  11
BRANCH   5  13
ATOM     13  C   UNL     1       3.104 -17.395   0.000  0.00  0.00    +0.000 C 
BRANCH  13  14
ATOM     14  O   UNL     1       3.104 -16.570   0.000  0.00  0.00    +0.000 OA
ATOM     15  H   UNL     1       3.944 -16.085   0.000  0.00  0.00    +0.000 HD
ENDBRANCH  13  14
BRANCH  13  16
ATOM     16  C   UNL     1       2.389 -17.807   0.000  0.00  0.00    +0.000 C 
BRANCH  16  17
ATOM     17  O   UNL     1       1.675 -17.395   0.000  0.00  0.00    +0.000 OA
ATOM     18  H   UNL     1       1.675 -16.425   0.000  0.00  0.00    +0.000 HD
ENDBRANCH  16  17
ENDBRANCH  13  16
ENDBRANCH   5  13
BRANCH   1  19
ATOM     19  O   UNL     1       5.964 -17.405   0.000  0.00  0.00    +0.000 OA
BRANCH  19  20
ATOM     20 SB   UNL     1       6.681 -17.807   0.000  0.00  0.00    +0.000 Sb
ATOM     21  O   UNL     1       6.681 -18.632   0.000  0.00  0.00    +0.000 OA
ATOM     22  O   UNL     1       7.395 -17.395   0.000  0.00  0.00    +0.000 OA
ATOM     23  C   UNL     1       7.395 -19.045   0.000  0.00  0.00    +0.000 C 
ATOM     24  C   UNL     1       8.110 -17.807   0.000  0.00  0.00    +0.000 C 
ATOM     25  C   UNL     1       8.110 -18.632   0.000  0.00  0.00    +0.000 C 
ATOM     26  O   UNL     1       7.475 -18.031   0.000  0.00  0.00    +0.000 OA
ATOM     27  O   UNL     1       6.680 -16.987   0.000  0.00  0.00    +0.000 OA
BRANCH  23  28
ATOM     28  C   UNL     1       7.395 -19.870   0.000  0.00  0.00    +0.000 C 
ATOM     29  O   UNL     1       8.110 -20.282   0.000  0.00  0.00    +0.000 OA
ATOM     30  O   UNL     1       6.681 -20.282   0.000  0.00  0.00    +0.000 OA
ENDBRANCH  23  28
BRANCH  24  31
ATOM     31  C   UNL     1       8.824 -17.395   0.000  0.00  0.00    +0.000 C 
BRANCH  31  32
ATOM     32  O   UNL     1       8.824 -16.570   0.000  0.00  0.00    +0.000 OA
ATOM     33  H   UNL     1       9.664 -16.085   0.000  0.00  0.00    +0.000 HD
ENDBRANCH  31  32
BRANCH  31  34
ATOM     34  C   UNL     1       9.539 -17.807   0.000  0.00  0.00    +0.000 C 
BRANCH  34  35
ATOM     35  O   UNL     1      10.253 -17.395   0.000  0.00  0.00    +0.000 OA
ATOM     36  H   UNL     1      11.093 -17.880   0.000  0.00  0.00    +0.000 HD
ENDBRANCH  34  35
ENDBRANCH  31  34
ENDBRANCH  24  31
ENDBRANCH  19  20
ENDBRANCH   1  19
TORSDOF 13
REMARK  Name = 
REMARK  13 active torsions:
REMARK  status: ('A' for Active; 'I' for Inactive)
REMARK    1  A    between atoms: SB_4  and  O_20
REMARK    2  A    between atoms: SB_4  and  O_37
REMARK    3  A    between atoms: C_7  and  C_11
REMARK    4  A    between atoms: C_8  and  C_14
REMARK    5  A    between atoms: C_14  and  O_15
REMARK    6  A    between atoms: C_14  and  C_16
REMARK    7  A    between atoms: C_16  and  O_17
REMARK    8  A    between atoms: O_20  and  SB_21
REMARK    9  A    between atoms: C_24  and  C_28
REMARK   10  A    between atoms: C_25  and  C_31
REMARK   11  A    between atoms: C_31  and  O_32
REMARK   12  A    between atoms: C_31  and  C_33
REMARK   13  A    between atoms: C_33  and  O_34
REMARK                            x       y       z     vdW  Elec       q    Type
REMARK                         _______ _______ _______ _____ _____    ______ ____
ROOT
ATOM      1  O   HOH     1       6.166 -21.487   0.000  0.00  0.00    +0.000 OA
ATOM      2  H   HOH     0       7.136 -21.487   0.000  0.00  0.00    +0.000 HD
ATOM      3  H   HOH     0       5.681 -20.647   0.000  0.00  0.00    +0.000 HD
ENDROOT
TORSDOF 0
REMARK  Name = 
REMARK  13 active torsions:
REMARK  status: ('A' for Active; 'I' for Inactive)
REMARK    1  A    between atoms: SB_4  and  O_20
REMARK    2  A    between atoms: SB_4  and  O_37
REMARK    3  A    between atoms: C_7  and  C_11
REMARK    4  A    between atoms: C_8  and  C_14
REMARK    5  A    between atoms: C_14  and  O_15
REMARK    6  A    between atoms: C_14  and  C_16
REMARK    7  A    between atoms: C_16  and  O_17
REMARK    8  A    between atoms: O_20  and  SB_21
REMARK    9  A    between atoms: C_24  and  C_28
REMARK   10  A    between atoms: C_25  and  C_31
REMARK   11  A    between atoms: C_31  and  O_32
REMARK   12  A    between atoms: C_31  and  C_33
REMARK   13  A    between atoms: C_33  and  O_34
REMARK                            x       y       z     vdW  Elec       q    Type
REMARK                         _______ _______ _______ _____ _____    ______ ____
ROOT
ATOM      1  O   HOH     1       6.173 -22.155   0.000  0.00  0.00    +0.000 OA
ATOM      2  H   HOH     0       7.143 -22.155   0.000  0.00  0.00    +0.000 HD
ATOM      3  H   HOH     0       5.688 -21.315   0.000  0.00  0.00    +0.000 HD
ENDROOT
TORSDOF 0
REMARK  Name = 
REMARK  13 active torsions:
REMARK  status: ('A' for Active; 'I' for Inactive)
REMARK    1  A    between atoms: SB_4  and  O_20
REMARK    2  A    between atoms: SB_4  and  O_37
REMARK    3  A    between atoms: C_7  and  C_11
REMARK    4  A    between atoms: C_8  and  C_14
REMARK    5  A    between atoms: C_14  and  O_15
REMARK    6  A    between atoms: C_14  and  C_16
REMARK    7  A    between atoms: C_16  and  O_17
REMARK    8  A    between atoms: O_20  and  SB_21
REMARK    9  A    between atoms: C_24  and  C_28
REMARK   10  A    between atoms: C_25  and  C_31
REMARK   11  A    between atoms: C_31  and  O_32
REMARK   12  A    between atoms: C_31  and  C_33
REMARK   13  A    between atoms: C_33  and  O_34
REMARK                            x       y       z     vdW  Elec       q    Type
REMARK                         _______ _______ _______ _____ _____    ______ ____
ROOT
ATOM      1  O   HOH     1       6.166 -22.799   0.000  0.00  0.00    +0.000 OA
ATOM      2  H   HOH     0       7.136 -22.799   0.000  0.00  0.00    +0.000 HD
ATOM      3  H   HOH     0       5.681 -21.959   0.000  0.00  0.00    +0.000 HD
ENDROOT
TORSDOF 0
REMARK  Name = 
REMARK  13 active torsions:
REMARK  status: ('A' for Active; 'I' for Inactive)
REMARK    1  A    between atoms: SB_4  and  O_20
REMARK    2  A    between atoms: SB_4  and  O_37
REMARK    3  A    between atoms: C_7  and  C_11
REMARK    4  A    between atoms: C_8  and  C_14
REMARK    5  A    between atoms: C_14  and  O_15
REMARK    6  A    between atoms: C_14  and  C_16
REMARK    7  A    between atoms: C_16  and  O_17
REMARK    8  A    between atoms: O_20  and  SB_21
REMARK    9  A    between atoms: C_24  and  C_28
REMARK   10  A    between atoms: C_25  and  C_31
REMARK   11  A    between atoms: C_31  and  O_32
REMARK   12  A    between atoms: C_31  and  C_33
REMARK   13  A    between atoms: C_33  and  O_34
REMARK                            x       y       z     vdW  Elec       q    Type
REMARK                         _______ _______ _______ _____ _____    ______ ____
ROOT
ATOM      1  O   HOH     1       8.452 -21.487   0.000  0.00  0.00    +0.000 OA
ATOM      2  H   HOH     0       9.422 -21.487   0.000  0.00  0.00    +0.000 HD
ATOM      3  H   HOH     0       7.967 -20.647   0.000  0.00  0.00    +0.000 HD
ENDROOT
TORSDOF 0
REMARK  Name = 
REMARK  13 active torsions:
REMARK  status: ('A' for Active; 'I' for Inactive)
REMARK    1  A    between atoms: SB_4  and  O_20
REMARK    2  A    between atoms: SB_4  and  O_37
REMARK    3  A    between atoms: C_7  and  C_11
REMARK    4  A    between atoms: C_8  and  C_14
REMARK    5  A    between atoms: C_14  and  O_15
REMARK    6  A    between atoms: C_14  and  C_16
REMARK    7  A    between atoms: C_16  and  O_17
REMARK    8  A    between atoms: O_20  and  SB_21
REMARK    9  A    between atoms: C_24  and  C_28
REMARK   10  A    between atoms: C_25  and  C_31
REMARK   11  A    between atoms: C_31  and  O_32
REMARK   12  A    between atoms: C_31  and  C_33
REMARK   13  A    between atoms: C_33  and  O_34
REMARK                            x       y       z     vdW  Elec       q    Type
REMARK                         _______ _______ _______ _____ _____    ______ ____
ROOT
ATOM      1  O   HOH     1       8.460 -22.155   0.000  0.00  0.00    +0.000 OA
ATOM      2  H   HOH     0       9.430 -22.155   0.000  0.00  0.00    +0.000 HD
ATOM      3  H   HOH     0       7.975 -21.315   0.000  0.00  0.00    +0.000 HD
ENDROOT
TORSDOF 0
REMARK  Name = 
REMARK  13 active torsions:
REMARK  status: ('A' for Active; 'I' for Inactive)
REMARK    1  A    between atoms: SB_4  and  O_20
REMARK    2  A    between atoms: SB_4  and  O_37
REMARK    3  A    between atoms: C_7  and  C_11
REMARK    4  A    between atoms: C_8  and  C_14
REMARK    5  A    between atoms: C_14  and  O_15
REMARK    6  A    between atoms: C_14  and  C_16
REMARK    7  A    between atoms: C_16  and  O_17
REMARK    8  A    between atoms: O_20  and  SB_21
REMARK    9  A    between atoms: C_24  and  C_28
REMARK   10  A    between atoms: C_25  and  C_31
REMARK   11  A    between atoms: C_31  and  O_32
REMARK   12  A    between atoms: C_31  and  C_33
REMARK   13  A    between atoms: C_33  and  O_34
REMARK                            x       y       z     vdW  Elec       q    Type
REMARK                         _______ _______ _______ _____ _____    ______ ____
ROOT
ATOM      1  O   HOH     1       8.452 -22.799   0.000  0.00  0.00    +0.000 OA
ATOM      2  H   HOH     0       9.422 -22.799   0.000  0.00  0.00    +0.000 HD
ATOM      3  H   HOH     0       7.967 -21.959   0.000  0.00  0.00    +0.000 HD
ENDROOT
TORSDOF 0
REMARK  Name = 
REMARK  13 active torsions:
REMARK  status: ('A' for Active; 'I' for Inactive)
REMARK    1  A    between atoms: SB_4  and  O_20
REMARK    2  A    between atoms: SB_4  and  O_37
REMARK    3  A    between atoms: C_7  and  C_11
REMARK    4  A    between atoms: C_8  and  C_14
REMARK    5  A    between atoms: C_14  and  O_15
REMARK    6  A    between atoms: C_14  and  C_16
REMARK    7  A    between atoms: C_16  and  O_17
REMARK    8  A    between atoms: O_20  and  SB_21
REMARK    9  A    between atoms: C_24  and  C_28
REMARK   10  A    between atoms: C_25  and  C_31
REMARK   11  A    between atoms: C_31  and  O_32
REMARK   12  A    between atoms: C_31  and  C_33
REMARK   13  A    between atoms: C_33  and  O_34
REMARK                            x       y       z     vdW  Elec       q    Type
REMARK                         _______ _______ _______ _____ _____    ______ ____
ROOT
ATOM      1  O   HOH     1       3.900 -21.487   0.000  0.00  0.00    +0.000 OA
ATOM      2  H   HOH     0       4.870 -21.487   0.000  0.00  0.00    +0.000 HD
ATOM      3  H   HOH     0       3.415 -20.647   0.000  0.00  0.00    +0.000 HD
ENDROOT
TORSDOF 0
REMARK  Name = 
REMARK  13 active torsions:
REMARK  status: ('A' for Active; 'I' for Inactive)
REMARK    1  A    between atoms: SB_4  and  O_20
REMARK    2  A    between atoms: SB_4  and  O_37
REMARK    3  A    between atoms: C_7  and  C_11
REMARK    4  A    between atoms: C_8  and  C_14
REMARK    5  A    between atoms: C_14  and  O_15
REMARK    6  A    between atoms: C_14  and  C_16
REMARK    7  A    between atoms: C_16  and  O_17
REMARK    8  A    between atoms: O_20  and  SB_21
REMARK    9  A    between atoms: C_24  and  C_28
REMARK   10  A    between atoms: C_25  and  C_31
REMARK   11  A    between atoms: C_31  and  O_32
REMARK   12  A    between atoms: C_31  and  C_33
REMARK   13  A    between atoms: C_33  and  O_34
REMARK                            x       y       z     vdW  Elec       q    Type
REMARK                         _______ _______ _______ _____ _____    ______ ____
ROOT
ATOM      1  O   HOH     1       3.907 -22.155   0.000  0.00  0.00    +0.000 OA
ATOM      2  H   HOH     0       4.877 -22.155   0.000  0.00  0.00    +0.000 HD
ATOM      3  H   HOH     0       3.422 -21.315   0.000  0.00  0.00    +0.000 HD
ENDROOT
TORSDOF 0
REMARK  Name = 
REMARK  13 active torsions:
REMARK  status: ('A' for Active; 'I' for Inactive)
REMARK    1  A    between atoms: SB_4  and  O_20
REMARK    2  A    between atoms: SB_4  and  O_37
REMARK    3  A    between atoms: C_7  and  C_11
REMARK    4  A    between atoms: C_8  and  C_14
REMARK    5  A    between atoms: C_14  and  O_15
REMARK    6  A    between atoms: C_14  and  C_16
REMARK    7  A    between atoms: C_16  and  O_17
REMARK    8  A    between atoms: O_20  and  SB_21
REMARK    9  A    between atoms: C_24  and  C_28
REMARK   10  A    between atoms: C_25  and  C_31
REMARK   11  A    between atoms: C_31  and  O_32
REMARK   12  A    between atoms: C_31  and  C_33
REMARK   13  A    between atoms: C_33  and  O_34
REMARK                            x       y       z     vdW  Elec       q    Type
REMARK                         _______ _______ _______ _____ _____    ______ ____
ROOT
ATOM      1  O   HOH     1       3.900 -22.799   0.000  0.00  0.00    +0.000 OA
ATOM      2  H   HOH     0       4.870 -22.799   0.000  0.00  0.00    +0.000 HD
ATOM      3  H   HOH     0       3.415 -21.959   0.000  0.00  0.00    +0.000 HD
ENDROOT
TORSDOF 0
