REMARK  Name = 5988
REMARK  13 active torsions:
REMARK  status: ('A' for Active; 'I' for Inactive)
REMARK    1  A    between atoms: O_2  and  C_12
REMARK    2  A    between atoms: O_2  and  C_16
REMARK    3  A    between atoms: O_4  and  C_13
REMARK    4  A    between atoms: O_5  and  C_14
REMARK    5  A    between atoms: O_6  and  C_17
REMARK    6  A    between atoms: O_7  and  C_18
REMARK    7  A    between atoms: O_8  and  C_19
REMARK    8  A    between atoms: O_9  and  C_21
REMARK    9  A    between atoms: O_10  and  C_22
REMARK   10  A    between atoms: O_11  and  C_23
REMARK   11  A    between atoms: C_12  and  C_21
REMARK   12  A    between atoms: C_15  and  C_22
REMARK   13  A    between atoms: C_20  and  C_23
REMARK                            x       y       z     vdW  Elec       q    Type
REMARK                         _______ _______ _______ _____ _____    ______ ____
ROOT
ATOM      1  O   UNL     1      -0.603  -0.892   0.812  0.00  0.00    +0.000 OA
ENDROOT
BRANCH   1   3
ATOM      2  O   UNL     1       0.928   0.483  -0.305  0.00  0.00    +0.000 OA
ATOM      3  C   UNL     1       0.753  -0.745   0.397  0.00  0.00    +0.000 C 
ATOM      4  C   UNL     1       1.646  -0.785   1.639  0.00  0.00    +0.000 C 
ATOM      5  C   UNL     1       3.115  -0.555   1.275  0.00  0.00    +0.000 C 
ATOM      6  C   UNL     1       3.292   0.658   0.352  0.00  0.00    +0.000 C 
ATOM      7  C   UNL     1       2.258   0.720  -0.786  0.00  0.00    +0.000 C 
BRANCH   4   8
ATOM      8  O   UNL     1       1.223   0.216   2.566  0.00  0.00    +0.000 OA
ATOM      9  H   UNL     1       0.279   0.067   2.743  0.00  0.00    +0.000 HD
ENDBRANCH   4   8
BRANCH   5  10
ATOM     10  O   UNL     1       3.611  -1.729   0.638  0.00  0.00    +0.000 OA
ATOM     11  H   UNL     1       4.549  -1.577   0.433  0.00  0.00    +0.000 HD
ENDBRANCH   5  10
BRANCH   6  12
ATOM     12  O   UNL     1       3.150   1.835   1.154  0.00  0.00    +0.000 OA
ATOM     13  H   UNL     1       3.343   2.601   0.587  0.00  0.00    +0.000 HD
ENDBRANCH   6  12
BRANCH   7  14
ATOM     14  C   UNL     1       2.589  -0.190  -1.967  0.00  0.00    +0.000 C 
BRANCH  14  15
ATOM     15  O   UNL     1       3.837   0.206  -2.504  0.00  0.00    +0.000 OA
ATOM     16  H   UNL     1       3.749   1.123  -2.813  0.00  0.00    +0.000 HD
ENDBRANCH  14  15
ENDBRANCH   7  14
ENDBRANCH   1   3
BRANCH   1  18
ATOM     17  O   UNL     1      -1.468   0.439  -0.918  0.00  0.00    +0.000 OA
ATOM     18  C   UNL     1      -1.495  -0.863  -0.304  0.00  0.00    +0.000 C 
ATOM     19  C   UNL     1      -2.930  -1.023   0.187  0.00  0.00    +0.000 C 
ATOM     20  C   UNL     1      -3.229   0.374   0.689  0.00  0.00    +0.000 C 
ATOM     21  C   UNL     1      -2.550   1.224  -0.379  0.00  0.00    +0.000 C 
BRANCH  19  22
ATOM     22  O   UNL     1      -3.070  -2.005   1.193  0.00  0.00    +0.000 OA
ATOM     23  H   UNL     1      -3.980  -1.948   1.532  0.00  0.00    +0.000 HD
ENDBRANCH  19  22
BRANCH  20  24
ATOM     24  O   UNL     1      -4.620   0.632   0.733  0.00  0.00    +0.000 OA
ATOM     25  H   UNL     1      -4.736   1.566   0.975  0.00  0.00    +0.000 HD
ENDBRANCH  20  24
BRANCH  18  26
ATOM     26  C   UNL     1      -1.090  -1.927  -1.312  0.00  0.00    +0.000 C 
BRANCH  26  27
ATOM     27  O   UNL     1      -1.958  -1.848  -2.430  0.00  0.00    +0.000 OA
ATOM     28  H   UNL     1      -1.696  -2.551  -3.049  0.00  0.00    +0.000 HD
ENDBRANCH  26  27
ENDBRANCH  18  26
BRANCH  21  29
ATOM     29  C   UNL     1      -2.003   2.532   0.165  0.00  0.00    +0.000 C 
BRANCH  29  30
ATOM     30  O   UNL     1      -1.385   3.245  -0.893  0.00  0.00    +0.000 OA
ATOM     31  H   UNL     1      -0.679   2.681  -1.254  0.00  0.00    +0.000 HD
ENDBRANCH  29  30
ENDBRANCH  21  29
ENDBRANCH   1  18
TORSDOF 13
