REMARK  Name = 213046
REMARK  4 active torsions:
REMARK  status: ('A' for Active; 'I' for Inactive)
REMARK    1  A    between atoms: N_4  and  C_17
REMARK    2  A    between atoms: N_5  and  C_23
REMARK    3  A    between atoms: C_17  and  C_18
REMARK    4  A    between atoms: C_19  and  C_23
REMARK                            x       y       z     vdW  Elec       q    Type
REMARK                         _______ _______ _______ _____ _____    ______ ____
ROOT
ATOM      1  C   UNL     1      -2.010  -1.586   0.339  0.00  0.00    +0.000 C 
ATOM      2  C   UNL     1      -0.490  -1.884   0.368  0.00  0.00    +0.000 C 
ATOM      3  C   UNL     1      -2.715  -2.237   1.542  0.00  0.00    +0.000 C 
ATOM      4  C   UNL     1      -0.233  -3.398   0.462  0.00  0.00    +0.000 C 
ATOM      5  C   UNL     1      -2.442  -3.735   1.623  0.00  0.00    +0.000 C 
ATOM      6  C   UNL     1      -0.947  -4.027   1.653  0.00  0.00    +0.000 C 
ENDROOT
BRANCH   1   7
ATOM      7  C   UNL     1      -2.313  -0.085   0.326  0.00  0.00    +0.000 C 
BRANCH   7  10
ATOM      8  O   UNL     1      -4.040   1.306   2.236  0.00  0.00    +0.000 OA
ATOM      9  O   UNL     1      -4.087  -0.708  -1.929  0.00  0.00    +0.000 OA
ATOM     10  N   UNL     1      -3.737   0.168   0.214  0.00  0.00    +0.000 N 
ATOM     11  C   UNL     1      -6.351   2.360   0.422  0.00  0.00    +0.000 C 
ATOM     12  C   UNL     1      -6.373   1.387  -1.587  0.00  0.00    +0.000 C 
ATOM     13  C   UNL     1      -5.888   0.922   0.727  0.00  0.00    +0.000 C 
ATOM     14  C   UNL     1      -5.903   0.253  -0.656  0.00  0.00    +0.000 C 
ATOM     15  C   UNL     1      -5.742   2.632  -0.956  0.00  0.00    +0.000 C 
ATOM     16  C   UNL     1      -7.851   2.315   0.077  0.00  0.00    +0.000 C 
ATOM     17  C   UNL     1      -7.867   1.644  -1.309  0.00  0.00    +0.000 C 
ATOM     18  C   UNL     1      -4.454   0.835   1.187  0.00  0.00    +0.000 C 
ATOM     19  C   UNL     1      -4.478  -0.175  -0.899  0.00  0.00    +0.000 C 
ENDBRANCH   7  10
ENDBRANCH   1   7
BRANCH   2  20
ATOM     20  C   UNL     1       0.241  -1.322  -0.855  0.00  0.00    +0.000 C 
BRANCH  20  22
ATOM     21  S   UNL     1       8.083   0.122  -0.990  0.00  0.00    +0.000 S 
ATOM     22  N   UNL     1       1.682  -1.548  -0.750  0.00  0.00    +0.000 NA
ATOM     23  N   UNL     1       4.427  -0.754  -0.648  0.00  0.00    +0.000 N 
ATOM     24  N   UNL     1       6.736  -0.807  -1.243  0.00  0.00    +0.000 NA
ATOM     25  C   UNL     1       2.369  -1.070  -1.957  0.00  0.00    +0.000 C 
ATOM     26  C   UNL     1       2.224  -0.878   0.440  0.00  0.00    +0.000 C 
ATOM     27  C   UNL     1       3.870  -1.349  -1.870  0.00  0.00    +0.000 C 
ATOM     28  C   UNL     1       3.728  -1.133   0.584  0.00  0.00    +0.000 C 
ATOM     29  C   UNL     1       5.701  -0.231  -0.630  0.00  0.00    +0.000 A 
ATOM     30  C   UNL     1       5.958   0.995   0.075  0.00  0.00    +0.000 A 
ATOM     31  C   UNL     1       7.308   1.332  -0.044  0.00  0.00    +0.000 A 
ATOM     32  C   UNL     1       5.114   1.851   0.816  0.00  0.00    +0.000 A 
ATOM     33  C   UNL     1       7.847   2.486   0.547  0.00  0.00    +0.000 A 
ATOM     34  C   UNL     1       5.641   3.004   1.409  0.00  0.00    +0.000 A 
ATOM     35  C   UNL     1       6.990   3.315   1.275  0.00  0.00    +0.000 A 
ENDBRANCH  20  22
ENDBRANCH   2  20
TORSDOF 4
