REMARK  Name = 13559281
REMARK  8 active torsions:
REMARK  status: ('A' for Active; 'I' for Inactive)
REMARK    1  A    between atoms: O_1  and  C_7
REMARK    2  A    between atoms: N_4  and  C_30
REMARK    3  A    between atoms: N_4  and  C_31
REMARK    4  A    between atoms: N_4  and  C_32
REMARK    5  A    between atoms: C_5  and  C_14
REMARK    6  A    between atoms: C_7  and  C_17
REMARK    7  A    between atoms: C_12  and  C_19
REMARK    8  A    between atoms: C_17  and  C_22
REMARK                            x       y       z     vdW  Elec       q    Type
REMARK                         _______ _______ _______ _____ _____    ______ ____
ROOT
ATOM      1  O   UNL     1      -6.525  -0.059  -1.120  0.00  0.00    +0.000 OA
ATOM      2  C   UNL     1       1.494  -1.768   0.002  0.00  0.00    +0.000 C 
ATOM      3  C   UNL     1       0.237  -2.392   0.644  0.00  0.00    +0.000 C 
ATOM      4  C   UNL     1       2.302  -3.062  -0.298  0.00  0.00    +0.000 C 
ATOM      5  C   UNL     1      -0.762  -1.353   1.165  0.00  0.00    +0.000 C 
ATOM      6  C   UNL     1       1.016  -0.961  -1.216  0.00  0.00    +0.000 C 
ATOM      7  C   UNL     1       0.810  -3.400   1.639  0.00  0.00    +0.000 C 
ATOM      8  C   UNL     1       2.071  -3.950   0.946  0.00  0.00    +0.000 C 
ATOM      9  C   UNL     1      -0.082   0.103  -0.903  0.00  0.00    +0.000 C 
ATOM     10  C   UNL     1      -1.204  -0.417   0.020  0.00  0.00    +0.000 C 
ATOM     11  C   UNL     1       2.305  -0.865   0.968  0.00  0.00    +0.000 C 
ATOM     12  C   UNL     1      -1.938  -2.056   1.868  0.00  0.00    +0.000 C 
ATOM     13  C   UNL     1      -2.508  -0.066  -0.137  0.00  0.00    +0.000 C 
ATOM     14  C   UNL     1      -3.083  -1.085   2.103  0.00  0.00    +0.000 C 
ATOM     15  C   UNL     1      -3.550  -0.544   0.781  0.00  0.00    +0.000 C 
ATOM     16  C   UNL     1      -3.043   0.895  -1.181  0.00  0.00    +0.000 C 
ATOM     17  C   UNL     1      -4.859  -0.520   0.477  0.00  0.00    +0.000 C 
ATOM     18  C   UNL     1      -4.281   0.336  -1.870  0.00  0.00    +0.000 C 
ATOM     19  C   UNL     1      -5.325  -0.057  -0.853  0.00  0.00    +0.000 C 
ENDROOT
BRANCH   9  20
ATOM     20  C   UNL     1       0.484   1.476  -0.530  0.00  0.00    +0.000 A 
ATOM     21  C   UNL     1       1.454   2.066  -1.335  0.00  0.00    +0.000 A 
ATOM     22  C   UNL     1       0.024   2.126   0.612  0.00  0.00    +0.000 A 
ATOM     23  C   UNL     1       1.968   3.317  -0.996  0.00  0.00    +0.000 A 
ATOM     24  C   UNL     1       0.539   3.377   0.951  0.00  0.00    +0.000 A 
ATOM     25  C   UNL     1       1.511   3.973   0.147  0.00  0.00    +0.000 A 
BRANCH  25  26
ATOM     26  N   UNL     1       2.031   5.238   0.491  0.00  0.00    +0.000 N 
ATOM     27  C   UNL     1       2.097   5.652   1.878  0.00  0.00    +0.000 C 
ATOM     28  C   UNL     1       2.495   6.145  -0.540  0.00  0.00    +0.000 C 
ENDBRANCH  25  26
ENDBRANCH   9  20
BRANCH   4  30
ATOM     29  O   UNL     1       4.599  -2.861   0.319  0.00  0.00    +0.000 OA
ATOM     30  C   UNL     1       3.761  -2.860  -0.581  0.00  0.00    +0.000 C 
ATOM     31  C   UNL     1       4.150  -2.658  -2.021  0.00  0.00    +0.000 C 
ENDBRANCH   4  30
BRANCH   4  32
ATOM     32  O   UNL     1       1.812  -3.770  -1.432  0.00  0.00    +0.000 OA
ATOM     33  H   UNL     1       1.083  -4.353  -1.165  0.00  0.00    +0.000 HD
ENDBRANCH   4  32
TORSDOF 4
