REMARK  Name = 90420193
REMARK  11 active torsions:
REMARK  status: ('A' for Active; 'I' for Inactive)
REMARK    1  A    between atoms: O_3  and  C_13
REMARK    2  A    between atoms: N_5  and  C_20
REMARK    3  A    between atoms: N_7  and  C_22
REMARK    4  A    between atoms: N_10  and  C_27
REMARK    5  A    between atoms: N_10  and  C_31
REMARK    6  A    between atoms: C_20  and  C_21
REMARK    7  A    between atoms: C_26  and  C_29
REMARK    8  A    between atoms: C_28  and  C_30
REMARK    9  A    between atoms: C_30  and  C_33
REMARK   10  A    between atoms: C_34  and  C_36
REMARK   11  A    between atoms: C_35  and  C_39
REMARK                            x       y       z     vdW  Elec       q    Type
REMARK                         _______ _______ _______ _____ _____    ______ ____
ROOT
ATOM      1  N   UNL     1      -3.468   0.910  -0.462  0.00  0.00    +0.000 N 
ATOM      2  N   UNL     1      -5.689   1.049  -0.271  0.00  0.00    +0.000 NA
ATOM      3  C   UNL     1      -1.875   2.627  -0.118  0.00  0.00    +0.000 A 
ATOM      4  C   UNL     1      -2.150   1.348  -0.437  0.00  0.00    +0.000 A 
ATOM      5  C   UNL     1      -3.010   3.502   0.193  0.00  0.00    +0.000 A 
ATOM      6  C   UNL     1      -4.558   1.720  -0.172  0.00  0.00    +0.000 A 
ATOM      7  C   UNL     1      -4.301   3.091   0.174  0.00  0.00    +0.000 A 
ATOM      8  C   UNL     1      -3.962  -0.335  -0.757  0.00  0.00    +0.000 A 
ATOM      9  C   UNL     1      -5.326  -0.223  -0.633  0.00  0.00    +0.000 A 
ATOM     10  C   UNL     1      -5.402   4.064   0.507  0.00  0.00    +0.000 C 
ENDROOT
BRANCH   8  12
ATOM     11  S   UNL     1      -2.219  -1.980   1.416  0.00  0.00    +0.000 S 
ATOM     12  N   UNL     1      -3.167  -1.375  -1.086  0.00  0.00    +0.000 N 
ATOM     13  N   UNL     1      -1.042  -2.571  -0.809  0.00  0.00    +0.000 NA
ATOM     14  C   UNL     1      -3.127  -1.870  -2.503  0.00  0.00    +0.000 C 
ATOM     15  C   UNL     1      -2.105  -1.992  -0.296  0.00  0.00    +0.000 A 
ATOM     16  C   UNL     1      -0.251  -3.044   0.221  0.00  0.00    +0.000 A 
ATOM     17  C   UNL     1      -0.724  -2.818   1.496  0.00  0.00    +0.000 A 
BRANCH  16  19
ATOM     18  F   UNL     1       4.529  -5.677  -0.878  0.00  0.00    +0.000 F 
ATOM     19  C   UNL     1       0.983  -3.724  -0.063  0.00  0.00    +0.000 A 
ATOM     20  C   UNL     1       1.169  -5.038   0.364  0.00  0.00    +0.000 A 
ATOM     21  C   UNL     1       1.995  -3.069  -0.766  0.00  0.00    +0.000 A 
ATOM     22  C   UNL     1       2.367  -5.699   0.089  0.00  0.00    +0.000 A 
ATOM     23  C   UNL     1       3.193  -3.729  -1.041  0.00  0.00    +0.000 A 
ATOM     24  C   UNL     1       3.379  -5.044  -0.614  0.00  0.00    +0.000 A 
ENDBRANCH  16  19
BRANCH  17  26
ATOM     25  N   UNL     1       0.391  -3.506   3.724  0.00  0.00    +0.000 NA
ATOM     26  C   UNL     1      -0.110  -3.197   2.724  0.00  0.00    +0.000 C 
ENDBRANCH  17  26
ENDBRANCH   8  12
BRANCH   3  28
ATOM     27  N   UNL     1       2.125   3.687   0.503  0.00  0.00    +0.000 NA
ATOM     28  N   UNL     1      -0.616   3.150  -0.069  0.00  0.00    +0.000 N 
ATOM     29  C   UNL     1       1.745   2.537  -0.332  0.00  0.00    +0.000 C 
ATOM     30  C   UNL     1       1.085   3.955   1.506  0.00  0.00    +0.000 C 
ATOM     31  C   UNL     1       0.415   2.795  -1.043  0.00  0.00    +0.000 C 
ATOM     32  C   UNL     1      -0.260   4.243   0.835  0.00  0.00    +0.000 C 
BRANCH  27  33
ATOM     33  C   UNL     1       3.414   3.447   1.150  0.00  0.00    +0.000 C 
BRANCH  33  39
ATOM     34  O   UNL     1       4.609   4.764  -0.446  0.00  0.00    +0.000 OA
ATOM     35  N   UNL     1       5.260   2.583  -0.145  0.00  0.00    +0.000 N 
ATOM     36  C   UNL     1       6.292   0.910  -0.745  0.00  0.00    +0.000 C 
ATOM     37  C   UNL     1       5.290   1.233   0.375  0.00  0.00    +0.000 C 
ATOM     38  C   UNL     1       6.398   2.417  -1.025  0.00  0.00    +0.000 C 
ATOM     39  C   UNL     1       4.479   3.675   0.111  0.00  0.00    +0.000 C 
BRANCH  36  40
ATOM     40  O   UNL     1       7.505   0.257  -0.330  0.00  0.00    +0.000 OA
ATOM     41  H   UNL     1       8.071   0.254  -1.121  0.00  0.00    +0.000 HD
ENDBRANCH  36  40
ENDBRANCH  33  39
ENDBRANCH  27  33
ENDBRANCH   3  28
BRANCH   9  42
ATOM     42  C   UNL     1      -6.354  -1.258  -0.833  0.00  0.00    +0.000 C 
ATOM     43  C   UNL     1      -6.907  -1.817   0.484  0.00  0.00    +0.000 C 
ENDBRANCH   9  42
TORSDOF 8
