REMARK  Name = 23647657
REMARK  5 active torsions:
REMARK  status: ('A' for Active; 'I' for Inactive)
REMARK    1  A    between atoms: S_1  and  N_10
REMARK    2  A    between atoms: S_1  and  C_13
REMARK    3  A    between atoms: C_14  and  C_20
REMARK    4  A    between atoms: C_15  and  C_17
REMARK    5  A    between atoms: C_22  and  C_24
REMARK                            x       y       z     vdW  Elec       q    Type
REMARK                         _______ _______ _______ _____ _____    ______ ____
ROOT
ATOM      1  C   UNL     1       3.460   0.387  -0.094  0.00  0.00    +0.000 A 
ATOM      2  C   UNL     1       2.343  -0.415   0.142  0.00  0.00    +0.000 A 
ATOM      3  C   UNL     1       0.910   1.519  -0.073  0.00  0.00    +0.000 A 
ATOM      4  C   UNL     1       1.068   0.151   0.153  0.00  0.00    +0.000 A 
ATOM      5  C   UNL     1       3.302   1.754  -0.320  0.00  0.00    +0.000 A 
ATOM      6  C   UNL     1       2.027   2.320  -0.309  0.00  0.00    +0.000 A 
ENDROOT
BRANCH   3   8
ATOM      7  O   UNL     1      -1.428   1.239   0.177  0.00  0.00    +0.000 OA
ATOM      8  C   UNL     1      -0.408   2.104  -0.062  0.00  0.00    +0.000 A 
ATOM      9  C   UNL     1      -0.888   3.380  -0.244  0.00  0.00    +0.000 A 
ATOM     10  C   UNL     1      -2.573   1.970   0.148  0.00  0.00    +0.000 A 
ATOM     11  C   UNL     1      -2.295   3.293  -0.107  0.00  0.00    +0.000 A 
BRANCH  10  16
ATOM     12  S   UNL     1      -3.121  -1.074  -0.589  0.00  0.00    +0.000 S 
ATOM     13  O   UNL     1      -6.448   0.156   0.785  0.00  0.00    +0.000 OA
ATOM     14  N   UNL     1      -5.553  -1.805  -0.069  0.00  0.00    +0.000 NA
ATOM     15  N   UNL     1      -4.153  -3.501  -0.995  0.00  0.00    +0.000 N 
ATOM     16  C   UNL     1      -3.843   1.387   0.359  0.00  0.00    +0.000 C 
ATOM     17  C   UNL     1      -4.167   0.108   0.079  0.00  0.00    +0.000 C 
ATOM     18  C   UNL     1      -5.513  -0.476   0.313  0.00  0.00    +0.000 C 
ATOM     19  C   UNL     1      -4.428  -2.247  -0.540  0.00  0.00    +0.000 C 
ATOM     20  H   UNL     1      -4.859  -4.228  -0.997  0.00  0.00    +0.000 HD
ATOM     21  H   UNL     1      -3.233  -3.745  -1.346  0.00  0.00    +0.000 HD
ENDBRANCH  10  16
ENDBRANCH   3   8
BRANCH   2  25
ATOM     22  F   UNL     1       1.286  -2.511   0.600  0.00  0.00    +0.000 F 
ATOM     23  F   UNL     1       3.059  -2.556  -0.648  0.00  0.00    +0.000 F 
ATOM     24  F   UNL     1       3.242  -2.161   1.482  0.00  0.00    +0.000 F 
ATOM     25  C   UNL     1       2.478  -1.882   0.388  0.00  0.00    +0.000 C 
ENDBRANCH   2  25
BRANCH   1  26
ATOM     26  S   UNL     1       5.074  -0.290  -0.115  0.00  0.00    +0.000 S 
ATOM     27  O   UNL     1       5.386  -0.764   1.225  0.00  0.00    +0.000 OA
ATOM     28  O   UNL     1       5.177  -1.196  -1.248  0.00  0.00    +0.000 OA
BRANCH  26  29
ATOM     29  N   UNL     1       6.003   1.106  -0.439  0.00  0.00    +0.000 NA
ATOM     30  H   UNL     1       6.582   1.482   0.323  0.00  0.00    +0.000 HD
ATOM     31  H   UNL     1       6.437   1.186  -1.367  0.00  0.00    +0.000 HD
ENDBRANCH  26  29
ENDBRANCH   1  26
TORSDOF 5
