REMARK  Name = 16049839
REMARK  7 active torsions:
REMARK  status: ('A' for Active; 'I' for Inactive)
REMARK    1  A    between atoms: O_4  and  C_16
REMARK    2  A    between atoms: N_7  and  CA_9
REMARK    3  A    between atoms: CA_9  and  C_10
REMARK    4  A    between atoms: CA_9  and  C_16
REMARK    5  A    between atoms: C_14  and  C_18
REMARK    6  A    between atoms: C_15  and  C_19
REMARK    7  A    between atoms: C_18  and  C_26
REMARK                            x       y       z     vdW  Elec       q    Type
REMARK                         _______ _______ _______ _____ _____    ______ ____
ROOT
ATOM      1  S   UNL     1      -1.397   0.293   0.426  0.00  0.00    +0.000 S 
ATOM      2  O   UNL     1      -0.943  -3.458   0.870  0.00  0.00    +0.000 OA
ATOM      3  N   UNL     1       1.167   0.683   0.966  0.00  0.00    +0.000 N 
ATOM      4  N   UNL     1       0.352  -1.538   0.985  0.00  0.00    +0.000 NA
ATOM      5  C   UNL     1       0.220  -0.255   0.839  0.00  0.00    +0.000 C 
ATOM      6  C   UNL     1      -1.945  -1.331   0.451  0.00  0.00    +0.000 C 
ATOM      7  C   UNL     1      -3.190  -1.742   0.208  0.00  0.00    +0.000 C 
ATOM      8  C   UNL     1      -0.821  -2.243   0.786  0.00  0.00    +0.000 C 
ATOM      9  H   UNL     1       0.934   1.659   0.810  0.00  0.00    +0.000 HD
ENDROOT
BRANCH   7  12
ATOM     10  O   UNL     1      -4.099   0.268  -0.801  0.00  0.00    +0.000 OA
ATOM     11  C   UNL     1      -5.330   0.830  -0.932  0.00  0.00    +0.000 A 
ATOM     12  C   UNL     1      -4.287  -0.877  -0.117  0.00  0.00    +0.000 A 
ATOM     13  C   UNL     1      -6.286   0.042  -0.335  0.00  0.00    +0.000 A 
ATOM     14  C   UNL     1      -5.599  -1.075   0.198  0.00  0.00    +0.000 A 
BRANCH  11  15
ATOM     15  C   UNL     1      -5.387   2.109  -1.654  0.00  0.00    +0.000 C 
ATOM     16  C   UNL     1      -5.223   3.325  -0.731  0.00  0.00    +0.000 C 
ENDBRANCH  11  15
ENDBRANCH   7  12
BRANCH   3  17
ATOM     17  CA  UNL     1       2.552   0.361   1.284  0.00  0.00    +0.000 C 
BRANCH  17  19
ATOM     18  F   UNL     1       5.655  -0.391  -3.342  0.00  0.00    +0.000 F 
ATOM     19  C   UNL     1       3.375   0.162   0.056  0.00  0.00    +0.000 A 
ATOM     20  C   UNL     1       3.112   0.912  -1.089  0.00  0.00    +0.000 A 
ATOM     21  C   UNL     1       4.408  -0.776   0.054  0.00  0.00    +0.000 A 
ATOM     22  C   UNL     1       3.882   0.726  -2.237  0.00  0.00    +0.000 A 
ATOM     23  C   UNL     1       5.178  -0.963  -1.094  0.00  0.00    +0.000 A 
ATOM     24  C   UNL     1       4.915  -0.212  -2.240  0.00  0.00    +0.000 A 
ENDBRANCH  17  19
BRANCH  17  26
ATOM     25  OXT UNL     1       4.337   1.645   2.287  0.00  0.00    +0.000 OA
ATOM     26  C   UNL     1       3.133   1.428   2.201  0.00  0.00    +0.000 C 
BRANCH  26  27
ATOM     27  O   UNL     1       2.221   2.077   2.965  0.00  0.00    +0.000 OA
ATOM     28  H   UNL     1       2.642   2.733   3.560  0.00  0.00    +0.000 HD
ENDBRANCH  26  27
ENDBRANCH  17  26
ENDBRANCH   3  17
TORSDOF 6
