REMARK  Name = 11363176
REMARK  12 active torsions:
REMARK  status: ('A' for Active; 'I' for Inactive)
REMARK    1  A    between atoms: O_3  and  C_21
REMARK    2  A    between atoms: O_3  and  C_24
REMARK    3  A    between atoms: O_5  and  C_19
REMARK    4  A    between atoms: O_6  and  C_30
REMARK    5  A    between atoms: N_7  and  C_9
REMARK    6  A    between atoms: N_8  and  C_17
REMARK    7  A    between atoms: C_13  and  C_20
REMARK    8  A    between atoms: C_15  and  C_16
REMARK    9  A    between atoms: C_17  and  C_22
REMARK   10  A    between atoms: C_19  and  C_21
REMARK   11  A    between atoms: C_19  and  C_30
REMARK   12  A    between atoms: C_22  and  C_31
REMARK                            x       y       z     vdW  Elec       q    Type
REMARK                         _______ _______ _______ _____ _____    ______ ____
ROOT
ATOM      1  S   UNL     1       0.771   0.574   0.078  0.00  0.00    +0.000 S 
ATOM      2  O   UNL     1       2.776  -2.649  -0.258  0.00  0.00    +0.000 OA
ATOM      3  N   UNL     1       3.197  -0.342   0.089  0.00  0.00    +0.000 N 
ATOM      4  N   UNL     1       2.953   2.028   0.421  0.00  0.00    +0.000 NA
ATOM      5  C   UNL     1       2.491   0.846   0.202  0.00  0.00    +0.000 C 
ATOM      6  C   UNL     1       2.413  -1.494  -0.071  0.00  0.00    +0.000 C 
ATOM      7  C   UNL     1       0.974  -1.121  -0.056  0.00  0.00    +0.000 C 
ATOM      8  C   UNL     1      -0.015  -2.011  -0.147  0.00  0.00    +0.000 C 
ENDROOT
BRANCH   8  10
ATOM      9 CL   UNL     1      -4.354  -1.431   2.583  0.00  0.00    +0.000 Cl
ATOM     10  C   UNL     1      -1.441  -1.720  -0.136  0.00  0.00    +0.000 A 
ATOM     11  C   UNL     1      -4.168  -1.165  -0.118  0.00  0.00    +0.000 A 
ATOM     12  C   UNL     1      -2.143  -1.713   1.069  0.00  0.00    +0.000 A 
ATOM     13  C   UNL     1      -2.106  -1.450  -1.333  0.00  0.00    +0.000 A 
ATOM     14  C   UNL     1      -3.509  -1.434   1.078  0.00  0.00    +0.000 A 
ATOM     15  C   UNL     1      -3.472  -1.171  -1.323  0.00  0.00    +0.000 A 
BRANCH  11  16
ATOM     16  O   UNL     1      -5.509  -0.888  -0.139  0.00  0.00    +0.000 OA
BRANCH  16  17
ATOM     17  C   UNL     1      -5.893   0.380  -0.660  0.00  0.00    +0.000 C 
BRANCH  17  18
ATOM     18  C   UNL     1      -7.202   0.827  -0.020  0.00  0.00    +0.000 C 
BRANCH  18  19
ATOM     19  O   UNL     1      -8.219  -0.124  -0.343  0.00  0.00    +0.000 OA
ATOM     20  H   UNL     1      -8.306  -0.156  -1.311  0.00  0.00    +0.000 HD
ENDBRANCH  18  19
BRANCH  18  21
ATOM     21  C   UNL     1      -7.645   2.185  -0.549  0.00  0.00    +0.000 C 
BRANCH  21  22
ATOM     22  O   UNL     1      -8.883   2.537   0.061  0.00  0.00    +0.000 OA
ATOM     23  H   UNL     1      -9.523   1.837  -0.153  0.00  0.00    +0.000 HD
ENDBRANCH  21  22
ENDBRANCH  18  21
ENDBRANCH  17  18
ENDBRANCH  16  17
ENDBRANCH  11  16
ENDBRANCH   8  10
BRANCH   3  24
ATOM     24  C   UNL     1       4.633  -0.409   0.123  0.00  0.00    +0.000 A 
ATOM     25  C   UNL     1       5.381  -0.301  -1.048  0.00  0.00    +0.000 A 
ATOM     26  C   UNL     1       5.274  -0.583   1.349  0.00  0.00    +0.000 A 
ATOM     27  C   UNL     1       6.773  -0.368  -0.994  0.00  0.00    +0.000 A 
ATOM     28  C   UNL     1       4.720  -0.114  -2.375  0.00  0.00    +0.000 C 
ATOM     29  C   UNL     1       6.666  -0.650   1.403  0.00  0.00    +0.000 A 
ATOM     30  C   UNL     1       7.416  -0.542   0.232  0.00  0.00    +0.000 A 
ENDBRANCH   3  24
BRANCH   4  31
ATOM     31  C   UNL     1       1.939   3.072   0.484  0.00  0.00    +0.000 C 
BRANCH  31  32
ATOM     32  C   UNL     1       2.600   4.420   0.745  0.00  0.00    +0.000 C 
ATOM     33  C   UNL     1       3.583   4.811  -0.349  0.00  0.00    +0.000 C 
ENDBRANCH  31  32
ENDBRANCH   4  31
TORSDOF 10
