REMARK  Name = 71186236
REMARK  8 active torsions:
REMARK  status: ('A' for Active; 'I' for Inactive)
REMARK    1  A    between atoms: O_5  and  C_33
REMARK    2  A    between atoms: N_7  and  C_20
REMARK    3  A    between atoms: N_8  and  C_16
REMARK    4  A    between atoms: C_14  and  C_17
REMARK    5  A    between atoms: C_16  and  C_21
REMARK    6  A    between atoms: C_20  and  C_22
REMARK    7  A    between atoms: C_29  and  C_33
REMARK    8  A    between atoms: C_32  and  C_34
REMARK                            x       y       z     vdW  Elec       q    Type
REMARK                         _______ _______ _______ _____ _____    ______ ____
ROOT
ATOM      1  N   UNL     1      -1.389  -1.894  -0.253  0.00  0.00    +0.000 NA
ATOM      2  C   UNL     1      -3.890  -3.344   0.028  0.00  0.00    +0.000 C 
ATOM      3  C   UNL     1      -4.948  -3.608  -1.019  0.00  0.00    +0.000 C 
ATOM      4  C   UNL     1      -5.130  -4.131   0.378  0.00  0.00    +0.000 C 
ATOM      5  C   UNL     1      -3.744  -1.950   0.580  0.00  0.00    +0.000 C 
ATOM      6  C   UNL     1      -2.577  -4.075  -0.063  0.00  0.00    +0.000 C 
ATOM      7  C   UNL     1      -2.676  -1.169  -0.202  0.00  0.00    +0.000 C 
ATOM      8  C   UNL     1      -1.565  -3.236  -0.844  0.00  0.00    +0.000 C 
ENDROOT
BRANCH   7  11
ATOM      9  O   UNL     1      -2.057   0.177   1.672  0.00  0.00    +0.000 OA
ATOM     10  N   UNL     1      -2.804   1.226  -0.264  0.00  0.00    +0.000 N 
ATOM     11  C   UNL     1      -2.464   0.131   0.514  0.00  0.00    +0.000 C 
ATOM     12  H   UNL     1      -3.132   1.095  -1.217  0.00  0.00    +0.000 HD
BRANCH  10  13
ATOM     13  C   UNL     1      -2.712   2.573   0.220  0.00  0.00    +0.000 C 
ATOM     14  C   UNL     1      -3.890   3.489   0.062  0.00  0.00    +0.000 C 
ATOM     15  C   UNL     1      -3.516   2.976   1.421  0.00  0.00    +0.000 C 
BRANCH  13  16
ATOM     16  C   UNL     1      -1.351   3.152   0.062  0.00  0.00    +0.000 A 
ATOM     17  C   UNL     1      -1.045   3.916  -1.065  0.00  0.00    +0.000 A 
ATOM     18  C   UNL     1      -0.382   2.932   1.040  0.00  0.00    +0.000 A 
ATOM     19  C   UNL     1       0.231   4.459  -1.213  0.00  0.00    +0.000 A 
ATOM     20  C   UNL     1       0.894   3.475   0.891  0.00  0.00    +0.000 A 
ATOM     21  C   UNL     1       1.201   4.239  -0.235  0.00  0.00    +0.000 A 
BRANCH  21  23
ATOM     22  O   UNL     1       2.910   5.493  -1.343  0.00  0.00    +0.000 OA
ATOM     23  C   UNL     1       2.531   4.804  -0.390  0.00  0.00    +0.000 C 
BRANCH  23  24
ATOM     24  O   UNL     1       3.353   4.496   0.651  0.00  0.00    +0.000 OA
ATOM     25  H   UNL     1       4.247   4.882   0.536  0.00  0.00    +0.000 HD
ENDBRANCH  23  24
ENDBRANCH  21  23
ENDBRANCH  13  16
ENDBRANCH  10  13
ENDBRANCH   7  11
BRANCH   1  26
ATOM     26  C   UNL     1      -0.379  -1.163  -1.029  0.00  0.00    +0.000 C 
BRANCH  26  27
ATOM     27  C   UNL     1       1.021  -1.567  -0.648  0.00  0.00    +0.000 A 
ATOM     28  C   UNL     1       1.584  -1.097   0.538  0.00  0.00    +0.000 A 
ATOM     29  C   UNL     1       1.754  -2.413  -1.481  0.00  0.00    +0.000 A 
ATOM     30  C   UNL     1       2.881  -1.472   0.891  0.00  0.00    +0.000 A 
ATOM     31  C   UNL     1       3.050  -2.788  -1.128  0.00  0.00    +0.000 A 
ATOM     32  C   UNL     1       3.613  -2.317   0.058  0.00  0.00    +0.000 A 
BRANCH  32  36
ATOM     33  F   UNL     1       5.396  -2.177   1.625  0.00  0.00    +0.000 F 
ATOM     34  F   UNL     1       5.156  -4.069   0.581  0.00  0.00    +0.000 F 
ATOM     35  F   UNL     1       5.946  -2.346  -0.473  0.00  0.00    +0.000 F 
ATOM     36  C   UNL     1       4.998  -2.720   0.437  0.00  0.00    +0.000 C 
ENDBRANCH  32  36
ENDBRANCH  26  27
ENDBRANCH   1  26
TORSDOF 8
