REMARK  Name = 118063735
REMARK  8 active torsions:
REMARK  status: ('A' for Active; 'I' for Inactive)
REMARK    1  A    between atoms: O_4  and  C_35
REMARK    2  A    between atoms: N_6  and  C_19
REMARK    3  A    between atoms: N_7  and  C_16
REMARK    4  A    between atoms: N_7  and  C_17
REMARK    5  A    between atoms: C_11  and  C_14
REMARK    6  A    between atoms: C_16  and  C_20
REMARK    7  A    between atoms: C_17  and  C_22
REMARK    8  A    between atoms: C_31  and  C_35
REMARK                            x       y       z     vdW  Elec       q    Type
REMARK                         _______ _______ _______ _____ _____    ______ ____
ROOT
ATOM      1  O   UNL     1      -0.214   1.712  -2.558  0.00  0.00    +0.000 OA
ATOM      2  N   UNL     1      -1.325   0.972  -0.639  0.00  0.00    +0.000 N 
ATOM      3  C   UNL     1      -0.223   1.007  -1.529  0.00  0.00    +0.000 C 
ENDROOT
BRANCH   3  10
ATOM      4 CL   UNL     1       7.263  -3.084   0.635  0.00  0.00    +0.000 Cl
ATOM      5  O   UNL     1       3.762   1.648   0.920  0.00  0.00    +0.000 OA
ATOM      6  N   UNL     1       2.192  -1.494  -1.313  0.00  0.00    +0.000 N 
ATOM      7  N   UNL     1       0.998  -1.047  -1.753  0.00  0.00    +0.000 NA
ATOM      8  C   UNL     1       2.071   0.538  -0.518  0.00  0.00    +0.000 A 
ATOM      9  C   UNL     1       2.865  -0.575  -0.570  0.00  0.00    +0.000 A 
ATOM     10  C   UNL     1       0.931   0.197  -1.263  0.00  0.00    +0.000 A 
ATOM     11  C   UNL     1       4.147  -0.638   0.082  0.00  0.00    +0.000 A 
ATOM     12  C   UNL     1       2.494   1.749   0.211  0.00  0.00    +0.000 C 
ATOM     13  C   UNL     1       4.530   0.508   0.805  0.00  0.00    +0.000 A 
ATOM     14  C   UNL     1       4.991  -1.749   0.028  0.00  0.00    +0.000 A 
ATOM     15  C   UNL     1       2.567  -2.841  -1.675  0.00  0.00    +0.000 C 
ATOM     16  C   UNL     1       5.757   0.527   1.471  0.00  0.00    +0.000 A 
ATOM     17  C   UNL     1       6.216  -1.719   0.696  0.00  0.00    +0.000 A 
ATOM     18  C   UNL     1       6.598  -0.585   1.415  0.00  0.00    +0.000 A 
ENDBRANCH   3  10
BRANCH   2  19
ATOM     19  C   UNL     1      -1.327   0.143   0.564  0.00  0.00    +0.000 C 
BRANCH  19  20
ATOM     20  C   UNL     1      -2.415  -0.891   0.533  0.00  0.00    +0.000 A 
ATOM     21  C   UNL     1      -3.392  -0.904   1.528  0.00  0.00    +0.000 A 
ATOM     22  C   UNL     1      -2.450  -1.837  -0.491  0.00  0.00    +0.000 A 
ATOM     23  C   UNL     1      -4.404  -1.864   1.500  0.00  0.00    +0.000 A 
ATOM     24  C   UNL     1      -3.461  -2.797  -0.520  0.00  0.00    +0.000 A 
ATOM     25  C   UNL     1      -4.438  -2.811   0.475  0.00  0.00    +0.000 A 
BRANCH  25  27
ATOM     26  O   UNL     1      -6.406  -3.915   1.270  0.00  0.00    +0.000 OA
ATOM     27  C   UNL     1      -5.493  -3.811   0.444  0.00  0.00    +0.000 C 
BRANCH  27  28
ATOM     28  O   UNL     1      -5.380  -4.654  -0.618  0.00  0.00    +0.000 OA
ATOM     29  H   UNL     1      -6.096  -5.325  -0.630  0.00  0.00    +0.000 HD
ENDBRANCH  27  28
ENDBRANCH  25  27
ENDBRANCH  19  20
ENDBRANCH   2  19
BRANCH   2  30
ATOM     30  C   UNL     1      -2.529   1.760  -0.864  0.00  0.00    +0.000 C 
BRANCH  30  31
ATOM     31  C   UNL     1      -2.421   3.133  -0.266  0.00  0.00    +0.000 A 
ATOM     32  C   UNL     1      -2.835   3.357   1.047  0.00  0.00    +0.000 A 
ATOM     33  C   UNL     1      -1.907   4.185  -1.024  0.00  0.00    +0.000 A 
ATOM     34  C   UNL     1      -2.735   4.633   1.602  0.00  0.00    +0.000 A 
ATOM     35  C   UNL     1      -1.807   5.461  -0.469  0.00  0.00    +0.000 A 
ATOM     36  C   UNL     1      -2.220   5.685   0.844  0.00  0.00    +0.000 A 
ENDBRANCH  30  31
ENDBRANCH   2  30
TORSDOF 7
