REMARK  Name = 18633059
REMARK  1 active torsions:
REMARK  status: ('A' for Active; 'I' for Inactive)
REMARK    1  A    between atoms: C_5  and  C_15
REMARK                            x       y       z     vdW  Elec       q    Type
REMARK                         _______ _______ _______ _____ _____    ______ ____
ROOT
ATOM      1  O   UNL     1      -4.952   1.074   0.494  0.00  0.00    +0.000 OA
ATOM      2  O   UNL     1       5.637  -0.142   0.596  0.00  0.00    +0.000 OA
ATOM      3  C   UNL     1      -1.958  -0.676   0.304  0.00  0.00    +0.000 C 
ATOM      4  C   UNL     1      -0.519  -0.751  -0.203  0.00  0.00    +0.000 C 
ATOM      5  C   UNL     1      -2.695   0.559  -0.253  0.00  0.00    +0.000 C 
ATOM      6  C   UNL     1       0.241   0.520   0.264  0.00  0.00    +0.000 C 
ATOM      7  C   UNL     1      -2.013   1.801   0.312  0.00  0.00    +0.000 C 
ATOM      8  C   UNL     1      -0.520   1.831  -0.064  0.00  0.00    +0.000 C 
ATOM      9  C   UNL     1       1.691   0.531  -0.307  0.00  0.00    +0.000 C 
ATOM     10  C   UNL     1      -2.915  -1.834   0.044  0.00  0.00    +0.000 C 
ATOM     11  C   UNL     1       0.207  -2.003   0.310  0.00  0.00    +0.000 C 
ATOM     12  C   UNL     1      -4.082   0.242   0.276  0.00  0.00    +0.000 C 
ATOM     13  C   UNL     1      -4.271  -1.254   0.473  0.00  0.00    +0.000 C 
ATOM     14  C   UNL     1       2.345  -0.846  -0.309  0.00  0.00    +0.000 C 
ATOM     15  C   UNL     1      -2.816   0.636  -1.786  0.00  0.00    +0.000 C 
ATOM     16  C   UNL     1       2.568   1.524   0.489  0.00  0.00    +0.000 C 
ATOM     17  C   UNL     1       1.674  -1.967   0.009  0.00  0.00    +0.000 C 
ATOM     18  C   UNL     1       3.788  -0.905  -0.727  0.00  0.00    +0.000 C 
ATOM     19  C   UNL     1       4.019   1.533   0.026  0.00  0.00    +0.000 C 
ATOM     20  C   UNL     1       4.569   0.128   0.050  0.00  0.00    +0.000 C 
ENDROOT
TORSDOF 0
