REMARK  Name = 247839
REMARK  6 active torsions:
REMARK  status: ('A' for Active; 'I' for Inactive)
REMARK    1  A    between atoms: O_1  and  C_10
REMARK    2  A    between atoms: C_5  and  C_17
REMARK    3  A    between atoms: C_8  and  C_19
REMARK    4  A    between atoms: C_11  and  C_20
REMARK    5  A    between atoms: C_15  and  C_23
REMARK    6  A    between atoms: C_20  and  C_25
REMARK                            x       y       z     vdW  Elec       q    Type
REMARK                         _______ _______ _______ _____ _____    ______ ____
ROOT
ATOM      1  O   UNL     1      -5.881   0.566  -1.291  0.00  0.00    +0.000 OA
ATOM      2  C   UNL     1       1.488  -0.974  -0.345  0.00  0.00    +0.000 C 
ATOM      3  C   UNL     1       2.434   0.193   0.001  0.00  0.00    +0.000 C 
ATOM      4  C   UNL     1       0.113  -0.864   0.330  0.00  0.00    +0.000 C 
ATOM      5  C   UNL     1      -0.571   0.457  -0.142  0.00  0.00    +0.000 C 
ATOM      6  C   UNL     1      -2.047   0.617   0.408  0.00  0.00    +0.000 C 
ATOM      7  C   UNL     1       1.784   1.491  -0.511  0.00  0.00    +0.000 C 
ATOM      8  C   UNL     1       0.355   1.703   0.037  0.00  0.00    +0.000 C 
ATOM      9  C   UNL     1       3.680  -0.254  -0.800  0.00  0.00    +0.000 C 
ATOM     10  C   UNL     1       2.348  -2.209  -0.098  0.00  0.00    +0.000 C 
ATOM     11  C   UNL     1      -0.758  -2.076  -0.031  0.00  0.00    +0.000 C 
ATOM     12  C   UNL     1       3.747  -1.779  -0.577  0.00  0.00    +0.000 C 
ATOM     13  C   UNL     1      -2.165  -1.972   0.567  0.00  0.00    +0.000 C 
ATOM     14  C   UNL     1      -2.844  -0.676   0.121  0.00  0.00    +0.000 C 
ATOM     15  C   UNL     1       2.771   0.299   1.511  0.00  0.00    +0.000 C 
ATOM     16  C   UNL     1      -2.691   1.830  -0.327  0.00  0.00    +0.000 C 
ATOM     17  C   UNL     1      -2.116   0.869   1.932  0.00  0.00    +0.000 C 
ATOM     18  C   UNL     1      -4.203   1.881  -0.207  0.00  0.00    +0.000 C 
ATOM     19  C   UNL     1      -4.068  -0.664  -0.440  0.00  0.00    +0.000 C 
ATOM     20  C   UNL     1      -2.926  -3.274   0.275  0.00  0.00    +0.000 C 
ATOM     21  C   UNL     1      -4.793   0.597  -0.721  0.00  0.00    +0.000 C 
ENDROOT
BRANCH   9  23
ATOM     22  O   UNL     1       5.664   0.016   0.495  0.00  0.00    +0.000 OA
ATOM     23  C   UNL     1       4.947   0.441  -0.409  0.00  0.00    +0.000 C 
ATOM     24  C   UNL     1       5.303   1.684  -1.179  0.00  0.00    +0.000 C 
ENDBRANCH   9  23
BRANCH   8  25
ATOM     25  O   UNL     1       0.429   2.097   1.400  0.00  0.00    +0.000 OA
ATOM     26  H   UNL     1       0.968   2.905   1.447  0.00  0.00    +0.000 HD
ENDBRANCH   8  25
TORSDOF 2
