REMARK  Name = 84088
REMARK  14 active torsions:
REMARK  status: ('A' for Active; 'I' for Inactive)
REMARK    1  A    between atoms: O_1  and  C_12
REMARK    2  A    between atoms: O_2  and  C_15
REMARK    3  A    between atoms: O_4  and  C_28
REMARK    4  A    between atoms: O_4  and  C_29
REMARK    5  A    between atoms: N_7  and  C_30
REMARK    6  A    between atoms: N_7  and  C_31
REMARK    7  A    between atoms: N_7  and  C_32
REMARK    8  A    between atoms: C_8  and  C_19
REMARK    9  A    between atoms: C_12  and  C_24
REMARK   10  A    between atoms: C_14  and  C_23
REMARK   11  A    between atoms: C_24  and  C_28
REMARK   12  A    between atoms: C_29  and  C_30
REMARK   13  A    between atoms: C_31  and  C_33
REMARK   14  A    between atoms: C_32  and  C_34
REMARK                            x       y       z     vdW  Elec       q    Type
REMARK                         _______ _______ _______ _____ _____    ______ ____
ROOT
ATOM      1  O   UNL     1      -8.062   2.152  -1.413  0.00  0.00    +0.000 OA
ATOM      2  C   UNL     1      -0.390  -0.956   0.282  0.00  0.00    +0.000 C 
ATOM      3  C   UNL     1      -1.597  -1.696  -0.333  0.00  0.00    +0.000 C 
ATOM      4  C   UNL     1      -2.949  -1.263   0.254  0.00  0.00    +0.000 C 
ATOM      5  C   UNL     1      -3.143   0.267  -0.004  0.00  0.00    +0.000 C 
ATOM      6  C   UNL     1       0.762  -1.674  -0.473  0.00  0.00    +0.000 C 
ATOM      7  C   UNL     1      -0.565   0.546  -0.022  0.00  0.00    +0.000 C 
ATOM      8  C   UNL     1      -4.558   0.797   0.468  0.00  0.00    +0.000 C 
ATOM      9  C   UNL     1      -1.917   1.110   0.467  0.00  0.00    +0.000 C 
ATOM     10  C   UNL     1      -1.193  -3.166  -0.246  0.00  0.00    +0.000 C 
ATOM     11  C   UNL     1       0.327  -3.157  -0.507  0.00  0.00    +0.000 C 
ATOM     12  C   UNL     1      -4.093  -2.062  -0.391  0.00  0.00    +0.000 C 
ATOM     13  C   UNL     1      -0.238  -1.194   1.810  0.00  0.00    +0.000 C 
ATOM     14  C   UNL     1      -5.653  -0.118  -0.097  0.00  0.00    +0.000 C 
ATOM     15  C   UNL     1      -5.455  -1.601   0.104  0.00  0.00    +0.000 C 
ATOM     16  C   UNL     1      -4.739   2.243  -0.081  0.00  0.00    +0.000 C 
ATOM     17  C   UNL     1      -4.730   0.819   2.003  0.00  0.00    +0.000 C 
ATOM     18  C   UNL     1      -6.179   2.729  -0.051  0.00  0.00    +0.000 C 
ATOM     19  C   UNL     1      -6.764   0.324  -0.709  0.00  0.00    +0.000 C 
ATOM     20  C   UNL     1      -7.067   1.771  -0.800  0.00  0.00    +0.000 C 
ENDROOT
BRANCH   6  21
ATOM     21  O   UNL     1       0.886  -1.190  -1.807  0.00  0.00    +0.000 OA
ATOM     22  H   UNL     1       1.455  -1.801  -2.304  0.00  0.00    +0.000 HD
ENDBRANCH   6  21
BRANCH   9  23
ATOM     23  O   UNL     1      -1.890   1.239   1.882  0.00  0.00    +0.000 OA
ATOM     24  H   UNL     1      -1.142   1.815   2.114  0.00  0.00    +0.000 HD
ENDBRANCH   9  23
BRANCH   6  26
ATOM     25  O   UNL     1       2.544  -2.211   1.016  0.00  0.00    +0.000 OA
ATOM     26  C   UNL     1       2.114  -1.461   0.141  0.00  0.00    +0.000 C 
BRANCH  26  27
ATOM     27  C   UNL     1       2.906  -0.279  -0.375  0.00  0.00    +0.000 C 
BRANCH  27  28
ATOM     28  O   UNL     1       4.159  -0.197   0.272  0.00  0.00    +0.000 OA
BRANCH  28  30
ATOM     29  O   UNL     1       4.693   1.679  -0.960  0.00  0.00    +0.000 OA
ATOM     30  C   UNL     1       4.976   0.841  -0.113  0.00  0.00    +0.000 C 
BRANCH  30  31
ATOM     31  C   UNL     1       6.262   0.781   0.672  0.00  0.00    +0.000 C 
BRANCH  31  32
ATOM     32  N   UNL     1       7.340   1.321  -0.144  0.00  0.00    +0.000 NA
BRANCH  32  33
ATOM     33  C   UNL     1       7.813   0.321  -1.104  0.00  0.00    +0.000 C 
ATOM     34  C   UNL     1       8.939   0.872  -1.962  0.00  0.00    +0.000 C 
ENDBRANCH  32  33
BRANCH  32  35
ATOM     35  C   UNL     1       8.448   1.776   0.698  0.00  0.00    +0.000 C 
ATOM     36  C   UNL     1       9.014   0.635   1.527  0.00  0.00    +0.000 C 
ENDBRANCH  32  35
ENDBRANCH  31  32
ENDBRANCH  30  31
ENDBRANCH  28  30
ENDBRANCH  27  28
ENDBRANCH  26  27
ENDBRANCH   6  26
TORSDOF 10
