REMARK  Name = 5311071
REMARK  12 active torsions:
REMARK  status: ('A' for Active; 'I' for Inactive)
REMARK    1  A    between atoms: O_1  and  C_24
REMARK    2  A    between atoms: C_2  and  C_10
REMARK    3  A    between atoms: C_3  and  C_8
REMARK    4  A    between atoms: C_8  and  C_13
REMARK    5  A    between atoms: C_8  and  C_15
REMARK    6  A    between atoms: C_14  and  C_16
REMARK    7  A    between atoms: C_17  and  C_19
REMARK    8  A    between atoms: C_19  and  C_23
REMARK    9  A    between atoms: C_19  and  C_26
REMARK   10  A    between atoms: C_20  and  C_27
REMARK   11  A    between atoms: C_23  and  C_28
REMARK   12  A    between atoms: C_23  and  C_29
REMARK                            x       y       z     vdW  Elec       q    Type
REMARK                         _______ _______ _______ _____ _____    ______ ____
ROOT
ATOM      1  C   UNL     1      -0.697  -1.333   0.143  0.00  0.00    +0.000 C 
ATOM      2  C   UNL     1      -2.062  -0.881  -0.431  0.00  0.00    +0.000 C 
ATOM      3  C   UNL     1       0.230  -0.869  -1.007  0.00  0.00    +0.000 C 
ATOM      4  C   UNL     1      -1.766   0.504  -1.050  0.00  0.00    +0.000 C 
ATOM      5  C   UNL     1      -0.245   0.558  -1.287  0.00  0.00    +0.000 C 
ATOM      6  C   UNL     1      -0.549  -2.860   0.303  0.00  0.00    +0.000 C 
ATOM      7  C   UNL     1       1.669  -1.198  -0.717  0.00  0.00    +0.000 C 
ATOM      8  C   UNL     1      -0.393  -0.637   1.495  0.00  0.00    +0.000 C 
ATOM      9  C   UNL     1       0.914  -3.268   0.551  0.00  0.00    +0.000 C 
ATOM     10  C   UNL     1       1.893  -2.678  -0.478  0.00  0.00    +0.000 C 
ATOM     11  C   UNL     1       2.670  -0.308  -0.674  0.00  0.00    +0.000 C 
ENDROOT
BRANCH  11  12
ATOM     12  C   UNL     1       4.039  -0.670  -0.400  0.00  0.00    +0.000 C 
ATOM     13  C   UNL     1       5.041   0.222  -0.357  0.00  0.00    +0.000 C 
ATOM     14  C   UNL     1       6.461  -0.187  -0.024  0.00  0.00    +0.000 C 
ATOM     15  C   UNL     1       4.805   1.695  -0.598  0.00  0.00    +0.000 C 
ATOM     16  C   UNL     1       7.012   0.691   1.112  0.00  0.00    +0.000 C 
ATOM     17  C   UNL     1       5.380   2.550   0.535  0.00  0.00    +0.000 C 
ATOM     18  C   UNL     1       6.832   2.191   0.856  0.00  0.00    +0.000 C 
ATOM     19  C   UNL     1       7.357  -0.144  -1.265  0.00  0.00    +0.000 C 
BRANCH  17  20
ATOM     20  O   UNL     1       4.591   2.384   1.713  0.00  0.00    +0.000 OA
ATOM     21  H   UNL     1       3.678   2.633   1.493  0.00  0.00    +0.000 HD
ENDBRANCH  17  20
ENDBRANCH  11  12
BRANCH   2  22
ATOM     22  C   UNL     1      -3.232  -0.858   0.542  0.00  0.00    +0.000 C 
ATOM     23  C   UNL     1      -3.484  -2.250   1.126  0.00  0.00    +0.000 C 
BRANCH  22  24
ATOM     24  C   UNL     1      -4.478  -0.355  -0.147  0.00  0.00    +0.000 C 
ATOM     25  C   UNL     1      -5.145   0.748   0.227  0.00  0.00    +0.000 C 
BRANCH  25  26
ATOM     26  C   UNL     1      -6.386   1.259  -0.472  0.00  0.00    +0.000 C 
ATOM     27  C   UNL     1      -6.064   2.634  -1.067  0.00  0.00    +0.000 C 
BRANCH  26  28
ATOM     28  C   UNL     1      -7.604   1.298   0.494  0.00  0.00    +0.000 C 
ATOM     29  C   UNL     1      -7.928  -0.083   1.076  0.00  0.00    +0.000 C 
ATOM     30  C   UNL     1      -8.860   1.846  -0.200  0.00  0.00    +0.000 C 
ENDBRANCH  26  28
ENDBRANCH  25  26
ENDBRANCH  22  24
ENDBRANCH   2  22
TORSDOF 6
