REMARK  Name = 
REMARK  23 active torsions:
REMARK  status: ('A' for Active; 'I' for Inactive)
REMARK    1  A    between atoms: C_9  and  C_10
REMARK    2  A    between atoms: C_9  and  C_13
REMARK    3  A    between atoms: C_10  and  O_12
REMARK    4  A    between atoms: C_13  and  O_15
REMARK    5  A    between atoms: C_17  and  O_18
REMARK    6  A    between atoms: O_18  and  C_19
REMARK    7  A    between atoms: C_21  and  C_22
REMARK    8  A    between atoms: C_22  and  O_23
REMARK    9  A    between atoms: O_23  and  O_24
REMARK   10  A    between atoms: C_25  and  O_26
REMARK   11  A    between atoms: O_26  and  S_27
REMARK   12  A    between atoms: S_27  and  O_30
REMARK   13  A    between atoms: C_31  and  O_32
REMARK   14  A    between atoms: O_32  and  S_33
REMARK   15  A    between atoms: S_33  and  O_36
REMARK   16  A    between atoms: C_37  and  O_38
REMARK   17  A    between atoms: O_38  and  C_39
REMARK   18  A    between atoms: C_39  and  C_41
REMARK   19  A    between atoms: C_41  and  C_42
REMARK   20  A    between atoms: C_42  and  C_43
REMARK   21  A    between atoms: C_42  and  C_44
REMARK   22  A    between atoms: C_46  and  C_47
REMARK   23  A    between atoms: C_51  and  O_52
REMARK                            x       y       z     vdW  Elec       q    Type
REMARK                         _______ _______ _______ _____ _____    ______ ____
ROOT
ATOM      1  O   UNL     1      -0.810  -1.336  -0.998  0.00  0.00    +0.000 OA
ENDROOT
BRANCH   1  12
ATOM      2  C   UNL     1       5.091   0.966   4.376  0.00  0.00    +0.000 C 
ATOM      3  C   UNL     1       4.394   1.073   3.518  0.00  0.00    +0.000 C 
ATOM      4  C   UNL     1       4.507   2.360   2.567  0.00  0.00    +0.000 C 
ATOM      5  C   UNL     1       5.197   1.459   1.400  0.00  0.00    +0.000 C 
ATOM      6  C   UNL     1       4.445   0.273   1.248  0.00  0.00    +0.000 C 
ATOM      7  C   UNL     1       5.009  -0.844   0.637  0.00  0.00    +0.000 C 
ATOM      8  C   UNL     1       4.576  -1.584  -0.487  0.00  0.00    +0.000 C 
ATOM      9  C   UNL     1       3.362  -0.992  -1.380  0.00  0.00    +0.000 C 
ATOM     10  C   UNL     1       2.609  -2.401  -1.663  0.00  0.00    +0.000 C 
ATOM     11  C   UNL     1       1.164  -2.230  -1.816  0.00  0.00    +0.000 C 
ATOM     12  C   UNL     1       0.517  -1.739  -0.387  0.00  0.00    +0.000 C 
ATOM     13  C   UNL     1       1.151  -0.222  -0.585  0.00  0.00    +0.000 C 
ATOM     14  C   UNL     1       2.498  -0.600  -0.047  0.00  0.00    +0.000 C 
ATOM     15  C   UNL     1       2.563  -1.636   0.889  0.00  0.00    +0.000 C 
ATOM     16  C   UNL     1       3.348   0.770   0.141  0.00  0.00    +0.000 C 
ATOM     17  C   UNL     1       2.393   1.476   1.250  0.00  0.00    +0.000 C 
ATOM     18  C   UNL     1       2.970   2.399   2.046  0.00  0.00    +0.000 C 
ATOM     19  C   UNL     1       3.582   0.024   2.605  0.00  0.00    +0.000 C 
BRANCH  10  20
ATOM     20  C   UNL     1       3.029  -2.582  -3.099  0.00  0.00    +0.000 C 
ATOM     21  O   UNL     1       3.970  -3.345  -3.460  0.00  0.00    +0.000 OA
BRANCH  20  22
ATOM     22  O   UNL     1       2.413  -1.887  -4.138  0.00  0.00    +0.000 OA
ATOM     23  H   UNL     1       1.706  -1.301  -3.954  0.00  0.00    +0.000 HD
ENDBRANCH  20  22
ENDBRANCH  10  20
BRANCH  10  24
ATOM     24  C   UNL     1       3.170  -3.507  -0.980  0.00  0.00    +0.000 C 
ATOM     25  O   UNL     1       4.365  -3.874  -1.232  0.00  0.00    +0.000 OA
BRANCH  24  26
ATOM     26  O   UNL     1       2.509  -4.556  -0.332  0.00  0.00    +0.000 OA
ATOM     27  H   UNL     1       1.614  -4.456  -0.071  0.00  0.00    +0.000 HD
ENDBRANCH  24  26
ENDBRANCH  10  24
BRANCH  19  28
ATOM     28  O   UNL     1       4.471  -1.127   3.081  0.00  0.00    +0.000 OA
ATOM     29  H   UNL     1       5.403  -0.863   3.017  0.00  0.00    +0.000 HD
ENDBRANCH  19  28
ENDBRANCH   1  12
BRANCH   1  30
ATOM     30  C   UNL     1      -1.123  -0.294   0.070  0.00  0.00    +0.000 C 
ATOM     31  O   UNL     1      -1.573   0.669  -1.018  0.00  0.00    +0.000 OA
ATOM     32  C   UNL     1      -1.917   1.844  -0.150  0.00  0.00    +0.000 C 
ATOM     33  C   UNL     1      -3.533   1.330   0.016  0.00  0.00    +0.000 C 
ATOM     34  C   UNL     1      -3.346   0.181   1.253  0.00  0.00    +0.000 C 
ATOM     35  C   UNL     1      -2.646  -1.066   0.323  0.00  0.00    +0.000 C 
BRANCH  32  36
ATOM     36  C   UNL     1      -2.376   2.733  -1.459  0.00  0.00    +0.000 C 
BRANCH  36  37
ATOM     37  O   UNL     1      -1.310   3.547  -1.756  0.00  0.00    +0.000 OA
BRANCH  37  38
ATOM     38  O   UNL     1      -1.435   3.861  -3.042  0.00  0.00    +0.000 OA
ATOM     39  H   UNL     1      -0.702   4.439  -3.306  0.00  0.00    +0.000 HD
ENDBRANCH  37  38
ENDBRANCH  36  37
ENDBRANCH  32  36
BRANCH  33  40
ATOM     40  O   UNL     1      -3.742   2.425   1.019  0.00  0.00    +0.000 OA
BRANCH  40  41
ATOM     41  S   UNL     1      -5.107   3.277   0.593  0.00  0.00    +0.000 S 
ATOM     42  O   UNL     1      -6.168   2.234   0.382  0.00  0.00    +0.000 OA
ATOM     43  O   UNL     1      -5.430   4.056   1.854  0.00  0.00    +0.000 OA
BRANCH  41  44
ATOM     44  O   UNL     1      -4.895   4.257  -0.740  0.00  0.00    +0.000 OA
ATOM     45  H   UNL     1      -4.692   3.710  -1.514  0.00  0.00    +0.000 HD
ENDBRANCH  41  44
ENDBRANCH  40  41
ENDBRANCH  33  40
BRANCH  34  46
ATOM     46  O   UNL     1      -2.104   0.721   1.900  0.00  0.00    +0.000 OA
BRANCH  46  47
ATOM     47  S   UNL     1      -2.238  -0.004   3.430  0.00  0.00    +0.000 S 
ATOM     48  O   UNL     1      -3.618  -0.480   3.750  0.00  0.00    +0.000 OA
ATOM     49  O   UNL     1      -1.387  -1.251   3.397  0.00  0.00    +0.000 OA
BRANCH  47  50
ATOM     50  O   UNL     1      -1.712   0.953   4.679  0.00  0.00    +0.000 OA
ATOM     51  H   UNL     1      -2.249   1.760   4.716  0.00  0.00    +0.000 HD
ENDBRANCH  47  50
ENDBRANCH  46  47
ENDBRANCH  34  46
BRANCH  35  52
ATOM     52  O   UNL     1      -3.223  -0.735  -1.027  0.00  0.00    +0.000 OA
BRANCH  52  53
ATOM     53  C   UNL     1      -4.392  -1.099  -1.487  0.00  0.00    +0.000 C 
ATOM     54  O   UNL     1      -5.287  -1.190  -0.628  0.00  0.00    +0.000 OA
BRANCH  53  55
ATOM     55  C   UNL     1      -4.681  -0.420  -2.803  0.00  0.00    +0.000 C 
BRANCH  55  56
ATOM     56  C   UNL     1      -3.577  -0.530  -3.788  0.00  0.00    +0.000 C 
ATOM     57  C   UNL     1      -3.100  -1.901  -4.098  0.00  0.00    +0.000 C 
ATOM     58  C   UNL     1      -2.573   0.546  -3.823  0.00  0.00    +0.000 C 
ENDBRANCH  55  56
ENDBRANCH  53  55
ENDBRANCH  52  53
ENDBRANCH  35  52
ENDBRANCH   1  30
TORSDOF 20
