REMARK  Name = 15478
REMARK  6 active torsions:
REMARK  status: ('A' for Active; 'I' for Inactive)
REMARK    1  A    between atoms: O_1  and  C_6
REMARK    2  A    between atoms: O_2  and  C_11
REMARK    3  A    between atoms: O_3  and  C_24
REMARK    4  A    between atoms: C_8  and  C_20
REMARK    5  A    between atoms: C_10  and  C_22
REMARK    6  A    between atoms: C_14  and  C_25
REMARK                            x       y       z     vdW  Elec       q    Type
REMARK                         _______ _______ _______ _____ _____    ______ ____
ROOT
ATOM      1  C   UNL     1      -0.678   0.555  -0.049  0.00  0.00    +0.000 C 
ATOM      2  C   UNL     1       0.727   0.709   0.603  0.00  0.00    +0.000 C 
ATOM      3  C   UNL     1      -1.292  -0.865   0.120  0.00  0.00    +0.000 C 
ATOM      4  C   UNL     1       1.723  -0.417   0.199  0.00  0.00    +0.000 C 
ATOM      5  C   UNL     1       3.139  -0.248   0.875  0.00  0.00    +0.000 C 
ATOM      6  C   UNL     1      -0.250  -1.949  -0.291  0.00  0.00    +0.000 C 
ATOM      7  C   UNL     1       3.698   1.180   0.573  0.00  0.00    +0.000 C 
ATOM      8  C   UNL     1       1.087  -1.799   0.437  0.00  0.00    +0.000 C 
ATOM      9  C   UNL     1      -2.459  -0.862  -0.923  0.00  0.00    +0.000 C 
ATOM     10  C   UNL     1      -0.724   0.787  -1.571  0.00  0.00    +0.000 C 
ATOM     11  C   UNL     1       1.327   2.105   0.346  0.00  0.00    +0.000 C 
ATOM     12  C   UNL     1       2.705   2.281   0.975  0.00  0.00    +0.000 C 
ATOM     13  C   UNL     1      -1.922  -0.019  -2.096  0.00  0.00    +0.000 C 
ATOM     14  C   UNL     1       4.174  -1.294   0.363  0.00  0.00    +0.000 C 
ATOM     15  C   UNL     1      -1.798  -1.134   1.556  0.00  0.00    +0.000 C 
ATOM     16  C   UNL     1       4.124   1.357  -0.904  0.00  0.00    +0.000 C 
ATOM     17  C   UNL     1       3.053  -0.451   2.411  0.00  0.00    +0.000 C 
ATOM     18  C   UNL     1       4.571  -1.116  -1.101  0.00  0.00    +0.000 C 
ATOM     19  C   UNL     1       5.106   0.285  -1.370  0.00  0.00    +0.000 C 
ENDROOT
BRANCH   9  22
ATOM     20  O   UNL     1      -5.884  -0.275   0.437  0.00  0.00    +0.000 OA
ATOM     21  O   UNL     1      -6.184   2.000   0.253  0.00  0.00    +0.000 OA
ATOM     22  C   UNL     1      -3.772  -0.308  -0.446  0.00  0.00    +0.000 C 
ATOM     23  C   UNL     1      -4.824  -1.181   0.114  0.00  0.00    +0.000 C 
ATOM     24  C   UNL     1      -4.158   0.964  -0.457  0.00  0.00    +0.000 C 
ATOM     25  C   UNL     1      -5.509   0.995   0.106  0.00  0.00    +0.000 C 
ENDBRANCH   9  22
BRANCH   1  26
ATOM     26  O   UNL     1      -1.556   1.512   0.564  0.00  0.00    +0.000 OA
ATOM     27  H   UNL     1      -1.432   1.475   1.527  0.00  0.00    +0.000 HD
ENDBRANCH   1  26
BRANCH   6  28
ATOM     28  O   UNL     1      -0.774  -3.253  -0.032  0.00  0.00    +0.000 OA
ATOM     29  H   UNL     1      -1.489  -3.425  -0.666  0.00  0.00    +0.000 HD
ENDBRANCH   6  28
BRANCH  19  30
ATOM     30  O   UNL     1       6.351   0.442  -0.692  0.00  0.00    +0.000 OA
ATOM     31  H   UNL     1       6.960  -0.235  -1.034  0.00  0.00    +0.000 HD
ENDBRANCH  19  30
TORSDOF 4
