REMARK  Name = 42611099
REMARK  5 active torsions:
REMARK  status: ('A' for Active; 'I' for Inactive)
REMARK    1  A    between atoms: O_1  and  C_12
REMARK    2  A    between atoms: O_2  and  C_21
REMARK    3  A    between atoms: C_6  and  C_18
REMARK    4  A    between atoms: C_7  and  C_19
REMARK    5  A    between atoms: C_12  and  C_22
REMARK                            x       y       z     vdW  Elec       q    Type
REMARK                         _______ _______ _______ _____ _____    ______ ____
ROOT
ATOM      1  C   UNL     1      -0.587   0.404   0.068  0.00  0.00    +0.000 C 
ATOM      2  C   UNL     1       0.170  -0.946   0.292  0.00  0.00    +0.000 C 
ATOM      3  C   UNL     1       1.619  -0.784  -0.186  0.00  0.00    +0.000 C 
ATOM      4  C   UNL     1      -2.102   0.304   0.484  0.00  0.00    +0.000 C 
ATOM      5  C   UNL     1       2.380   0.336   0.558  0.00  0.00    +0.000 C 
ATOM      6  C   UNL     1      -2.731  -0.875  -0.327  0.00  0.00    +0.000 C 
ATOM      7  C   UNL     1       0.171   1.605   0.693  0.00  0.00    +0.000 C 
ATOM      8  C   UNL     1       1.655   1.667   0.287  0.00  0.00    +0.000 C 
ATOM      9  C   UNL     1      -0.532  -2.105  -0.431  0.00  0.00    +0.000 C 
ATOM     10  C   UNL     1       3.803   0.167  -0.057  0.00  0.00    +0.000 C 
ATOM     11  C   UNL     1       2.560  -1.983  -0.085  0.00  0.00    +0.000 C 
ATOM     12  C   UNL     1      -2.013  -2.206  -0.073  0.00  0.00    +0.000 C 
ATOM     13  C   UNL     1      -2.864   1.602   0.094  0.00  0.00    +0.000 C 
ATOM     14  C   UNL     1       3.977  -1.373  -0.114  0.00  0.00    +0.000 C 
ATOM     15  C   UNL     1      -4.248  -1.008  -0.111  0.00  0.00    +0.000 C 
ATOM     16  C   UNL     1      -2.240   0.098   2.014  0.00  0.00    +0.000 C 
ATOM     17  C   UNL     1       2.454   0.121   2.099  0.00  0.00    +0.000 C 
ATOM     18  C   UNL     1      -4.385   1.499   0.266  0.00  0.00    +0.000 C 
ATOM     19  C   UNL     1      -4.981   0.291  -0.452  0.00  0.00    +0.000 C 
ENDROOT
BRANCH  10  20
ATOM     20  O   UNL     1       4.818   0.727   0.765  0.00  0.00    +0.000 OA
ATOM     21  H   UNL     1       5.681   0.440   0.420  0.00  0.00    +0.000 HD
ENDBRANCH  10  20
BRANCH  19  22
ATOM     22  O   UNL     1      -4.912   0.525  -1.859  0.00  0.00    +0.000 OA
ATOM     23  H   UNL     1      -5.426   1.329  -2.049  0.00  0.00    +0.000 HD
ENDBRANCH  19  22
BRANCH  10  24
ATOM     24  C   UNL     1       3.939   0.736  -1.412  0.00  0.00    +0.000 C 
ATOM     25  C   UNL     1       4.049   1.199  -2.514  0.00  0.00    +0.000 C 
ENDBRANCH  10  24
TORSDOF 3
