REMARK  Name = 13472
REMARK  2 active torsions:
REMARK  status: ('A' for Active; 'I' for Inactive)
REMARK    1  A    between atoms: C_6  and  C_16
REMARK    2  A    between atoms: C_7  and  C_17
REMARK                            x       y       z     vdW  Elec       q    Type
REMARK                         _______ _______ _______ _____ _____    ______ ____
ROOT
ATOM      1  O   UNL     1       4.849   1.095  -0.988  0.00  0.00    +0.000 OA
ATOM      2  O   UNL     1      -5.361  -0.059  -1.330  0.00  0.00    +0.000 OA
ATOM      3  C   UNL     1       0.602  -0.782   0.406  0.00  0.00    +0.000 C 
ATOM      4  C   UNL     1       1.954  -0.702  -0.307  0.00  0.00    +0.000 C 
ATOM      5  C   UNL     1      -0.255   0.462  -0.021  0.00  0.00    +0.000 C 
ATOM      6  C   UNL     1       2.736   0.565   0.097  0.00  0.00    +0.000 C 
ATOM      7  C   UNL     1      -1.690   0.444   0.626  0.00  0.00    +0.000 C 
ATOM      8  C   UNL     1       0.529   1.792   0.183  0.00  0.00    +0.000 C 
ATOM      9  C   UNL     1       1.954   1.773  -0.403  0.00  0.00    +0.000 C 
ATOM     10  C   UNL     1       2.967  -1.831  -0.151  0.00  0.00    +0.000 C 
ATOM     11  C   UNL     1      -0.133  -2.091   0.084  0.00  0.00    +0.000 C 
ATOM     12  C   UNL     1       4.039   0.255  -0.619  0.00  0.00    +0.000 C 
ATOM     13  C   UNL     1       4.232  -1.242  -0.792  0.00  0.00    +0.000 C 
ATOM     14  C   UNL     1      -2.321  -0.920   0.325  0.00  0.00    +0.000 C 
ATOM     15  C   UNL     1      -1.517  -2.133   0.724  0.00  0.00    +0.000 C 
ATOM     16  C   UNL     1       3.079   0.699   1.592  0.00  0.00    +0.000 C 
ATOM     17  C   UNL     1      -1.650   0.655   2.157  0.00  0.00    +0.000 C 
ATOM     18  C   UNL     1      -2.537   1.578   0.066  0.00  0.00    +0.000 C 
ATOM     19  C   UNL     1      -3.495  -1.074  -0.307  0.00  0.00    +0.000 C 
ATOM     20  C   UNL     1      -3.706   1.431  -0.565  0.00  0.00    +0.000 C 
ATOM     21  C   UNL     1      -4.277   0.088  -0.776  0.00  0.00    +0.000 C 
ENDROOT
TORSDOF 0
