REMARK  Name = 5753
REMARK  6 active torsions:
REMARK  status: ('A' for Active; 'I' for Inactive)
REMARK    1  A    between atoms: O_1  and  C_12
REMARK    2  A    between atoms: O_4  and  C_25
REMARK    3  A    between atoms: C_6  and  C_17
REMARK    4  A    between atoms: C_9  and  C_20
REMARK    5  A    between atoms: C_11  and  C_21
REMARK    6  A    between atoms: C_21  and  C_25
REMARK                            x       y       z     vdW  Elec       q    Type
REMARK                         _______ _______ _______ _____ _____    ______ ____
ROOT
ATOM      1  O   UNL     1       6.267  -0.379  -1.275  0.00  0.00    +0.000 OA
ATOM      2  C   UNL     1      -1.100   1.202  -0.303  0.00  0.00    +0.000 C 
ATOM      3  C   UNL     1      -2.057   0.051   0.065  0.00  0.00    +0.000 C 
ATOM      4  C   UNL     1       0.283   1.077   0.351  0.00  0.00    +0.000 C 
ATOM      5  C   UNL     1       0.939  -0.262  -0.119  0.00  0.00    +0.000 C 
ATOM      6  C   UNL     1       2.420  -0.441   0.412  0.00  0.00    +0.000 C 
ATOM      7  C   UNL     1      -1.435  -1.259  -0.448  0.00  0.00    +0.000 C 
ATOM      8  C   UNL     1      -3.309   0.512  -0.719  0.00  0.00    +0.000 C 
ATOM      9  C   UNL     1      -0.002  -1.492   0.081  0.00  0.00    +0.000 C 
ATOM     10  C   UNL     1      -1.938   2.451  -0.050  0.00  0.00    +0.000 C 
ATOM     11  C   UNL     1       1.167   2.272  -0.038  0.00  0.00    +0.000 C 
ATOM     12  C   UNL     1      -3.349   2.040  -0.508  0.00  0.00    +0.000 C 
ATOM     13  C   UNL     1       3.220   0.835   0.115  0.00  0.00    +0.000 C 
ATOM     14  C   UNL     1      -2.372  -0.039   1.581  0.00  0.00    +0.000 C 
ATOM     15  C   UNL     1       2.576   2.138   0.520  0.00  0.00    +0.000 C 
ATOM     16  C   UNL     1       3.055  -1.653  -0.332  0.00  0.00    +0.000 C 
ATOM     17  C   UNL     1       2.505  -0.687   1.935  0.00  0.00    +0.000 C 
ATOM     18  C   UNL     1       4.571  -1.704  -0.225  0.00  0.00    +0.000 C 
ATOM     19  C   UNL     1       4.444   0.845  -0.439  0.00  0.00    +0.000 C 
ATOM     20  C   UNL     1       5.171  -0.415  -0.719  0.00  0.00    +0.000 C 
ENDROOT
BRANCH   9  21
ATOM     21  O   UNL     1      -0.065  -1.875   1.448  0.00  0.00    +0.000 OA
ATOM     22  H   UNL     1       0.033  -1.091   2.008  0.00  0.00    +0.000 HD
ENDBRANCH   9  21
BRANCH   8  24
ATOM     23  O   UNL     1      -5.269   0.289   0.615  0.00  0.00    +0.000 OA
ATOM     24  C   UNL     1      -4.581  -0.160  -0.301  0.00  0.00    +0.000 C 
BRANCH  24  25
ATOM     25  C   UNL     1      -4.962  -1.410  -1.065  0.00  0.00    +0.000 C 
BRANCH  25  26
ATOM     26  O   UNL     1      -6.181  -1.936  -0.584  0.00  0.00    +0.000 OA
ATOM     27  H   UNL     1      -6.878  -1.288  -0.782  0.00  0.00    +0.000 HD
ENDBRANCH  25  26
ENDBRANCH  24  25
ENDBRANCH   8  24
TORSDOF 4
