REMARK  Name = 11269429
REMARK  10 active torsions:
REMARK  status: ('A' for Active; 'I' for Inactive)
REMARK    1  A    between atoms: O_1  and  C_21
REMARK    2  A    between atoms: O_2  and  C_22
REMARK    3  A    between atoms: O_3  and  C_27
REMARK    4  A    between atoms: C_4  and  C_12
REMARK    5  A    between atoms: C_6  and  C_14
REMARK    6  A    between atoms: C_15  and  C_16
REMARK    7  A    between atoms: C_17  and  C_24
REMARK    8  A    between atoms: C_26  and  C_27
REMARK    9  A    between atoms: C_27  and  C_28
REMARK   10  A    between atoms: C_27  and  C_29
REMARK                            x       y       z     vdW  Elec       q    Type
REMARK                         _______ _______ _______ _____ _____    ______ ____
ROOT
ATOM      1  C   UNL     1       1.091  -1.028   0.449  0.00  0.00    +0.000 C 
ATOM      2  C   UNL     1      -0.219  -0.865   1.260  0.00  0.00    +0.000 C 
ATOM      3  C   UNL     1       2.113  -0.601   1.530  0.00  0.00    +0.000 C 
ATOM      4  C   UNL     1      -0.060   0.512   1.907  0.00  0.00    +0.000 C 
ATOM      5  C   UNL     1       1.210  -2.501   0.007  0.00  0.00    +0.000 C 
ATOM      6  C   UNL     1       1.444   0.606   2.224  0.00  0.00    +0.000 C 
ATOM      7  C   UNL     1      -1.423  -1.233   0.436  0.00  0.00    +0.000 C 
ATOM      8  C   UNL     1      -0.019  -2.954  -0.801  0.00  0.00    +0.000 C 
ATOM      9  C   UNL     1       1.153  -0.101  -0.795  0.00  0.00    +0.000 C 
ATOM     10  C   UNL     1      -1.354  -2.648  -0.101  0.00  0.00    +0.000 C 
ATOM     11  C   UNL     1      -2.465  -0.427   0.191  0.00  0.00    +0.000 C 
ENDROOT
BRANCH  11  12
ATOM     12  C   UNL     1      -3.604  -0.825  -0.599  0.00  0.00    +0.000 C 
ATOM     13  C   UNL     1      -4.648  -0.017  -0.845  0.00  0.00    +0.000 C 
ATOM     14  C   UNL     1      -5.846  -0.480  -1.644  0.00  0.00    +0.000 C 
ATOM     15  C   UNL     1      -4.731   1.351  -0.333  0.00  0.00    +0.000 C 
ATOM     16  C   UNL     1      -7.173  -0.184  -0.936  0.00  0.00    +0.000 C 
ATOM     17  C   UNL     1      -6.030   1.656   0.389  0.00  0.00    +0.000 C 
ATOM     18  C   UNL     1      -7.246   1.268  -0.463  0.00  0.00    +0.000 C 
ATOM     19  C   UNL     1      -3.743   2.239  -0.534  0.00  0.00    +0.000 C 
BRANCH  16  20
ATOM     20  O   UNL     1      -7.327  -1.048   0.188  0.00  0.00    +0.000 OA
ATOM     21  H   UNL     1      -7.294  -1.963  -0.139  0.00  0.00    +0.000 HD
ENDBRANCH  16  20
BRANCH  17  22
ATOM     22  O   UNL     1      -6.162   3.037   0.720  0.00  0.00    +0.000 OA
ATOM     23  H   UNL     1      -6.229   3.543  -0.108  0.00  0.00    +0.000 HD
ENDBRANCH  17  22
ENDBRANCH  11  12
BRANCH   3  24
ATOM     24  C   UNL     1       3.453  -0.284   1.021  0.00  0.00    +0.000 C 
ATOM     25  C   UNL     1       4.548  -0.024   0.605  0.00  0.00    +0.000 C 
BRANCH  25  26
ATOM     26  C   UNL     1       5.801   0.273   0.129  0.00  0.00    +0.000 C 
ATOM     27  C   UNL     1       6.896   0.532  -0.287  0.00  0.00    +0.000 C 
BRANCH  27  28
ATOM     28  C   UNL     1       8.241   0.849  -0.799  0.00  0.00    +0.000 C 
ATOM     29  C   UNL     1       9.122   1.391   0.327  0.00  0.00    +0.000 C 
ATOM     30  C   UNL     1       8.147   1.854  -1.947  0.00  0.00    +0.000 C 
BRANCH  28  31
ATOM     31  O   UNL     1       8.832  -0.351  -1.297  0.00  0.00    +0.000 OA
ATOM     32  H   UNL     1       8.944  -0.967  -0.552  0.00  0.00    +0.000 HD
ENDBRANCH  28  31
ENDBRANCH  27  28
ENDBRANCH  25  26
ENDBRANCH   3  24
TORSDOF 7
