REMARK  Name = 
REMARK  12 active torsions:
REMARK  status: ('A' for Active; 'I' for Inactive)
REMARK    1  A    between atoms: C_1  and  C_14
REMARK    2  A    between atoms: C_2  and  C_25
REMARK    3  A    between atoms: C_3  and  C_26
REMARK    4  A    between atoms: C_4  and  C_7
REMARK    5  A    between atoms: C_4  and  C_14
REMARK    6  A    between atoms: C_7  and  C_22
REMARK    7  A    between atoms: C_13  and  C_23
REMARK    8  A    between atoms: C_13  and  N_27
REMARK    9  A    between atoms: C_14  and  C_17
REMARK   10  A    between atoms: C_16  and  O_28
REMARK   11  A    between atoms: C_20  and  O_29
REMARK   12  A    between atoms: C_21  and  O_30
REMARK                            x       y       z     vdW  Elec       q    Type
REMARK                         _______ _______ _______ _____ _____    ______ ____
ROOT
ATOM      1  C   UNL     1       0.085   2.138   0.000  0.00  0.00    +0.000 C 
ATOM      2  C   UNL     1      -2.431   1.736   0.000  0.00  0.00    +0.000 C 
ATOM      3  C   UNL     1      -3.125   3.298   0.000  0.00  0.00    +0.000 C 
ATOM      4  C   UNL     1      -2.442   3.761   0.000  0.00  0.00    +0.000 C 
ATOM      5  C   UNL     1       1.709   2.429   0.000  0.00  0.00    +0.000 C 
ATOM      6  C   UNL     1       0.897   2.284   0.000  0.00  0.00    +0.000 C 
ATOM      7  C   UNL     1       1.458   3.836   0.000  0.00  0.00    +0.000 C 
ATOM      8  C   UNL     1       0.114   4.321   0.000  0.00  0.00    +0.000 C 
ATOM      9  C   UNL     1      -0.727   1.993   0.000  0.00  0.00    +0.000 C 
ATOM     10  C   UNL     1       0.646   3.690   0.000  0.00  0.00    +0.000 C 
ATOM     11  C   UNL     1       1.990   3.205   0.000  0.00  0.00    +0.000 C 
ATOM     12  C   UNL     1      -2.895   2.506   0.000  0.00  0.00    +0.000 C 
ATOM     13  C   UNL     1      -1.790   3.255   0.000  0.00  0.00    +0.000 C 
ATOM     14  C   UNL     1      -0.447   2.769   0.000  0.00  0.00    +0.000 C 
ATOM     15  C   UNL     1      -0.698   4.176   0.000  0.00  0.00    +0.000 C 
ATOM     16  C   UNL     1      -1.539   1.848   0.000  0.00  0.00    +0.000 C 
ATOM     17  C   UNL     1      -0.978   3.400   0.000  0.00  0.00    +0.000 C 
ATOM     18  C   UNL     1       0.365   2.914   0.000  0.00  0.00    +0.000 C 
ATOM     19  C   UNL     1      -2.071   2.479   0.000  0.00  0.00    +0.000 C 
ENDROOT
BRANCH  12  21
ATOM     20  C   UNL     1      -4.219   1.967   0.000  0.00  0.00    +0.000 C 
ATOM     21  C   UNL     1      -3.402   1.854   0.000  0.00  0.00    +0.000 C 
BRANCH  21  22
ATOM     22  C   UNL     1      -3.091   1.090   0.000  0.00  0.00    +0.000 C 
BRANCH  22  23
ATOM     23  C   UNL     1      -3.597   0.439   0.000  0.00  0.00    +0.000 C 
BRANCH  23  24
ATOM     24  C   UNL     1      -3.286  -0.325   0.000  0.00  0.00    +0.000 C 
ATOM     25  N   UNL     1      -3.793  -0.977   0.000  0.00  0.00    +0.000 NA
ATOM     26  O   UNL     1      -2.469  -0.438   0.000  0.00  0.00    +0.000 OA
BRANCH  25  27
ATOM     27  C   UNL     1      -3.482  -1.741   0.000  0.00  0.00    +0.000 C 
BRANCH  27  28
ATOM     28  C   UNL     1      -3.988  -2.392   0.000  0.00  0.00    +0.000 C 
ATOM     29  O   UNL     1      -3.677  -3.156   0.000  0.00  0.00    +0.000 OA
ATOM     30  O   UNL     1      -4.805  -2.279   0.000  0.00  0.00    +0.000 OA
ENDBRANCH  27  28
ENDBRANCH  25  27
ENDBRANCH  23  24
ENDBRANCH  22  23
ENDBRANCH  21  22
ENDBRANCH  12  21
BRANCH  11  31
ATOM     31  O   UNL     1       2.802   3.350   0.000  0.00  0.00    +0.000 OA
ATOM     32  H   UNL     1       3.427   2.608   0.000  0.00  0.00    +0.000 HD
ENDBRANCH  11  31
BRANCH  15  33
ATOM     33  O   UNL     1      -1.230   4.806   0.000  0.00  0.00    +0.000 OA
ATOM     34  H   UNL     1      -0.900   5.719   0.000  0.00  0.00    +0.000 HD
ENDBRANCH  15  33
BRANCH  16  35
ATOM     35  O   UNL     1      -1.819   1.072   0.000  0.00  0.00    +0.000 OA
ATOM     36  H   UNL     1      -2.774   0.901   0.000  0.00  0.00    +0.000 HD
ENDBRANCH  16  35
TORSDOF 9
REMARK  Name = 
REMARK  12 active torsions:
REMARK  status: ('A' for Active; 'I' for Inactive)
REMARK    1  A    between atoms: C_1  and  C_14
REMARK    2  A    between atoms: C_2  and  C_25
REMARK    3  A    between atoms: C_3  and  C_26
REMARK    4  A    between atoms: C_4  and  C_7
REMARK    5  A    between atoms: C_4  and  C_14
REMARK    6  A    between atoms: C_7  and  C_22
REMARK    7  A    between atoms: C_13  and  C_23
REMARK    8  A    between atoms: C_13  and  N_27
REMARK    9  A    between atoms: C_14  and  C_17
REMARK   10  A    between atoms: C_16  and  O_28
REMARK   11  A    between atoms: C_20  and  O_29
REMARK   12  A    between atoms: C_21  and  O_30
REMARK                            x       y       z     vdW  Elec       q    Type
REMARK                         _______ _______ _______ _____ _____    ______ ____
ROOT
ATOM      1 CL   UNL     1       4.805   1.728   0.000  0.00  0.00    +0.000 Cl
ATOM      2  H   UNL     1       6.033   1.728   0.000  0.00  0.00    +0.000 HD
ENDROOT
TORSDOF 0
REMARK  Name = 
REMARK  12 active torsions:
REMARK  status: ('A' for Active; 'I' for Inactive)
REMARK    1  A    between atoms: C_1  and  C_14
REMARK    2  A    between atoms: C_2  and  C_25
REMARK    3  A    between atoms: C_3  and  C_26
REMARK    4  A    between atoms: C_4  and  C_7
REMARK    5  A    between atoms: C_4  and  C_14
REMARK    6  A    between atoms: C_7  and  C_22
REMARK    7  A    between atoms: C_13  and  C_23
REMARK    8  A    between atoms: C_13  and  N_27
REMARK    9  A    between atoms: C_14  and  C_17
REMARK   10  A    between atoms: C_16  and  O_28
REMARK   11  A    between atoms: C_20  and  O_29
REMARK   12  A    between atoms: C_21  and  O_30
REMARK                            x       y       z     vdW  Elec       q    Type
REMARK                         _______ _______ _______ _____ _____    ______ ____
ROOT
ATOM      1  N   UNL     1      -1.576  -4.806   0.000  0.00  0.00    +0.000 NA
ATOM      2  H   UNL     1      -0.556  -4.806   0.000  0.00  0.00    +0.000 HD
ATOM      3  H   UNL     1      -2.086  -3.923   0.000  0.00  0.00    +0.000 HD
ATOM      4  H   UNL     1      -2.086  -5.690   0.000  0.00  0.00    +0.000 HD
ENDROOT
TORSDOF 0
REMARK  Name = 
REMARK  12 active torsions:
REMARK  status: ('A' for Active; 'I' for Inactive)
REMARK    1  A    between atoms: C_1  and  C_14
REMARK    2  A    between atoms: C_2  and  C_25
REMARK    3  A    between atoms: C_3  and  C_26
REMARK    4  A    between atoms: C_4  and  C_7
REMARK    5  A    between atoms: C_4  and  C_14
REMARK    6  A    between atoms: C_7  and  C_22
REMARK    7  A    between atoms: C_13  and  C_23
REMARK    8  A    between atoms: C_13  and  N_27
REMARK    9  A    between atoms: C_14  and  C_17
REMARK   10  A    between atoms: C_16  and  O_28
REMARK   11  A    between atoms: C_20  and  O_29
REMARK   12  A    between atoms: C_21  and  O_30
REMARK                            x       y       z     vdW  Elec       q    Type
REMARK                         _______ _______ _______ _____ _____    ______ ____
ROOT
ATOM      1  N   UNL     1       0.781  -4.806   0.000  0.00  0.00    +0.000 NA
ATOM      2  H   UNL     1       1.801  -4.806   0.000  0.00  0.00    +0.000 HD
ATOM      3  H   UNL     1       0.271  -3.923   0.000  0.00  0.00    +0.000 HD
ATOM      4  H   UNL     1       0.271  -5.690   0.000  0.00  0.00    +0.000 HD
ENDROOT
TORSDOF 0
REMARK  Name = 
REMARK  12 active torsions:
REMARK  status: ('A' for Active; 'I' for Inactive)
REMARK    1  A    between atoms: C_1  and  C_14
REMARK    2  A    between atoms: C_2  and  C_25
REMARK    3  A    between atoms: C_3  and  C_26
REMARK    4  A    between atoms: C_4  and  C_7
REMARK    5  A    between atoms: C_4  and  C_14
REMARK    6  A    between atoms: C_7  and  C_22
REMARK    7  A    between atoms: C_13  and  C_23
REMARK    8  A    between atoms: C_13  and  N_27
REMARK    9  A    between atoms: C_14  and  C_17
REMARK   10  A    between atoms: C_16  and  O_28
REMARK   11  A    between atoms: C_20  and  O_29
REMARK   12  A    between atoms: C_21  and  O_30
REMARK                            x       y       z     vdW  Elec       q    Type
REMARK                         _______ _______ _______ _____ _____    ______ ____
ROOT
ATOM      1 PT   UNL     1      -1.652  -0.551   0.000  0.00  0.00    +0.000 Pt
ENDROOT
TORSDOF 0
