REMARK  Name = 9838899
REMARK  3 active torsions:
REMARK  status: ('A' for Active; 'I' for Inactive)
REMARK    1  A    between atoms: O_1  and  C_9
REMARK    2  A    between atoms: C_4  and  C_15
REMARK    3  A    between atoms: C_10  and  C_18
REMARK                            x       y       z     vdW  Elec       q    Type
REMARK                         _______ _______ _______ _____ _____    ______ ____
ROOT
ATOM      1  O   UNL     1       5.691   0.111   0.598  0.00  0.00    +0.000 OA
ATOM      2  C   UNL     1      -1.940  -0.622   0.238  0.00  0.00    +0.000 C 
ATOM      3  C   UNL     1      -2.717   0.678  -0.053  0.00  0.00    +0.000 C 
ATOM      4  C   UNL     1      -0.543  -0.627  -0.390  0.00  0.00    +0.000 C 
ATOM      5  C   UNL     1       0.275   0.570   0.188  0.00  0.00    +0.000 C 
ATOM      6  C   UNL     1      -1.948   1.843   0.583  0.00  0.00    +0.000 C 
ATOM      7  C   UNL     1      -0.498   1.912   0.072  0.00  0.00    +0.000 C 
ATOM      8  C   UNL     1      -4.050   0.332   0.637  0.00  0.00    +0.000 C 
ATOM      9  C   UNL     1       0.213  -1.969  -0.227  0.00  0.00    +0.000 C 
ATOM     10  C   UNL     1      -2.931  -1.718  -0.146  0.00  0.00    +0.000 C 
ATOM     11  C   UNL     1       1.692   0.658  -0.459  0.00  0.00    +0.000 C 
ATOM     12  C   UNL     1      -4.301  -1.138   0.249  0.00  0.00    +0.000 C 
ATOM     13  C   UNL     1       1.571  -1.867  -0.935  0.00  0.00    +0.000 C 
ATOM     14  C   UNL     1      -2.952   0.976  -1.556  0.00  0.00    +0.000 C 
ATOM     15  C   UNL     1       2.394  -0.693  -0.462  0.00  0.00    +0.000 C 
ATOM     16  C   UNL     1       2.537   1.740   0.246  0.00  0.00    +0.000 C 
ATOM     17  C   UNL     1       0.387  -2.435   1.224  0.00  0.00    +0.000 C 
ATOM     18  C   UNL     1       4.010   1.662  -0.116  0.00  0.00    +0.000 C 
ATOM     19  C   UNL     1       3.679  -0.873  -0.116  0.00  0.00    +0.000 C 
ATOM     20  C   UNL     1       4.546   0.288   0.189  0.00  0.00    +0.000 C 
ENDROOT
BRANCH   8  21
ATOM     21  O   UNL     1      -5.116   1.171   0.235  0.00  0.00    +0.000 OA
ATOM     22  H   UNL     1      -5.928   0.830   0.649  0.00  0.00    +0.000 HD
ENDBRANCH   8  21
TORSDOF 1
