REMARK  Name = 27812
REMARK  4 active torsions:
REMARK  status: ('A' for Active; 'I' for Inactive)
REMARK    1  A    between atoms: O_1  and  C_6
REMARK    2  A    between atoms: C_3  and  C_9
REMARK    3  A    between atoms: C_6  and  C_17
REMARK    4  A    between atoms: C_9  and  C_18
REMARK                            x       y       z     vdW  Elec       q    Type
REMARK                         _______ _______ _______ _____ _____    ______ ____
ROOT
ATOM      1  O   UNL     1      -6.112   0.560  -0.638  0.00  0.00    +0.000 OA
ATOM      2  C   UNL     1       2.209   0.069   0.446  0.00  0.00    +0.000 C 
ATOM      3  C   UNL     1       1.286  -0.811  -0.436  0.00  0.00    +0.000 C 
ATOM      4  C   UNL     1      -0.034  -1.130   0.269  0.00  0.00    +0.000 C 
ATOM      5  C   UNL     1       3.438   0.194  -0.500  0.00  0.00    +0.000 C 
ATOM      6  C   UNL     1       2.205  -1.933  -0.899  0.00  0.00    +0.000 C 
ATOM      7  C   UNL     1       3.572  -1.239  -1.088  0.00  0.00    +0.000 C 
ATOM      8  C   UNL     1      -0.774   0.195   0.552  0.00  0.00    +0.000 C 
ATOM      9  C   UNL     1       1.439   1.312   0.821  0.00  0.00    +0.000 C 
ATOM     10  C   UNL     1      -0.884  -2.122  -0.532  0.00  0.00    +0.000 C 
ATOM     11  C   UNL     1       0.095   1.337   0.878  0.00  0.00    +0.000 C 
ATOM     12  C   UNL     1      -2.127   0.278   0.472  0.00  0.00    +0.000 C 
ATOM     13  C   UNL     1      -2.262  -2.238   0.105  0.00  0.00    +0.000 C 
ATOM     14  C   UNL     1      -2.945  -0.893   0.108  0.00  0.00    +0.000 C 
ATOM     15  C   UNL     1      -2.943   1.525   0.762  0.00  0.00    +0.000 C 
ATOM     16  C   UNL     1      -4.239  -0.808  -0.244  0.00  0.00    +0.000 C 
ATOM     17  C   UNL     1      -4.062   1.741  -0.248  0.00  0.00    +0.000 C 
ATOM     18  C   UNL     1      -4.914   0.505  -0.370  0.00  0.00    +0.000 C 
ENDROOT
BRANCH   5  19
ATOM     19  O   UNL     1       4.632   0.524   0.198  0.00  0.00    +0.000 OA
ATOM     20  H   UNL     1       5.380   0.424  -0.417  0.00  0.00    +0.000 HD
ENDBRANCH   5  19
BRANCH   2  21
ATOM     21  C   UNL     1       2.629  -0.589   1.789  0.00  0.00    +0.000 C 
ATOM     22  C   UNL     1       3.463   0.365   2.605  0.00  0.00    +0.000 C 
ENDBRANCH   2  21
BRANCH   5  23
ATOM     23  C   UNL     1       3.243   1.179  -1.583  0.00  0.00    +0.000 C 
ATOM     24  C   UNL     1       3.084   1.979  -2.464  0.00  0.00    +0.000 C 
ENDBRANCH   5  23
TORSDOF 3
