REMARK  Name = 9883915
REMARK  7 active torsions:
REMARK  status: ('A' for Active; 'I' for Inactive)
REMARK    1  A    between atoms: O_1  and  C_7
REMARK    2  A    between atoms: O_1  and  C_19
REMARK    3  A    between atoms: O_2  and  C_21
REMARK    4  A    between atoms: O_2  and  C_22
REMARK    5  A    between atoms: C_3  and  C_13
REMARK    6  A    between atoms: C_22  and  C_23
REMARK    7  A    between atoms: C_23  and  C_24
REMARK                            x       y       z     vdW  Elec       q    Type
REMARK                         _______ _______ _______ _____ _____    ______ ____
ROOT
ATOM      1  C   UNL     1       3.340   0.387   0.351  0.00  0.00    +0.000 C 
ATOM      2  C   UNL     1       2.644  -0.745  -0.430  0.00  0.00    +0.000 C 
ATOM      3  C   UNL     1       1.134  -0.764  -0.197  0.00  0.00    +0.000 C 
ATOM      4  C   UNL     1       0.535   0.585  -0.700  0.00  0.00    +0.000 C 
ATOM      5  C   UNL     1       4.803   0.093  -0.035  0.00  0.00    +0.000 C 
ATOM      6  C   UNL     1       2.795   1.726  -0.160  0.00  0.00    +0.000 C 
ATOM      7  C   UNL     1       3.470  -1.980  -0.079  0.00  0.00    +0.000 C 
ATOM      8  C   UNL     1       1.259   1.797  -0.054  0.00  0.00    +0.000 C 
ATOM      9  C   UNL     1       4.908  -1.442   0.045  0.00  0.00    +0.000 C 
ATOM     10  C   UNL     1       0.441  -1.917  -0.924  0.00  0.00    +0.000 C 
ATOM     11  C   UNL     1       3.165   0.318   1.890  0.00  0.00    +0.000 C 
ATOM     12  C   UNL     1      -0.986   0.597  -0.572  0.00  0.00    +0.000 A 
ATOM     13  C   UNL     1      -1.034  -1.963  -0.535  0.00  0.00    +0.000 C 
ATOM     14  C   UNL     1      -1.712  -0.614  -0.538  0.00  0.00    +0.000 A 
ATOM     15  C   UNL     1      -1.707   1.804  -0.575  0.00  0.00    +0.000 A 
ATOM     16  C   UNL     1      -3.115  -0.587  -0.455  0.00  0.00    +0.000 A 
ATOM     17  C   UNL     1      -3.102   1.816  -0.501  0.00  0.00    +0.000 A 
ATOM     18  C   UNL     1      -3.806   0.621  -0.436  0.00  0.00    +0.000 A 
ENDROOT
BRANCH   5  19
ATOM     19  O   UNL     1       5.738   0.728   0.815  0.00  0.00    +0.000 OA
ATOM     20  C   UNL     1       7.078   0.383   0.478  0.00  0.00    +0.000 C 
ENDBRANCH   5  19
BRANCH  18  21
ATOM     21  O   UNL     1      -5.164   0.631  -0.362  0.00  0.00    +0.000 OA
BRANCH  21  22
ATOM     22  C   UNL     1      -5.785  -0.451   0.333  0.00  0.00    +0.000 C 
BRANCH  22  23
ATOM     23  C   UNL     1      -7.093   0.038   0.935  0.00  0.00    +0.000 C 
ATOM     24  C   UNL     1      -7.806  -1.059   1.705  0.00  0.00    +0.000 C 
ENDBRANCH  22  23
ENDBRANCH  21  22
ENDBRANCH  18  21
TORSDOF 4
