REMARK  Name = 400010
REMARK  10 active torsions:
REMARK  status: ('A' for Active; 'I' for Inactive)
REMARK    1  A    between atoms: O_2  and  C_27
REMARK    2  A    between atoms: C_6  and  C_21
REMARK    3  A    between atoms: C_7  and  C_24
REMARK    4  A    between atoms: C_10  and  C_27
REMARK    5  A    between atoms: C_14  and  C_28
REMARK    6  A    between atoms: C_19  and  C_30
REMARK    7  A    between atoms: C_19  and  C_31
REMARK    8  A    between atoms: C_26  and  C_34
REMARK    9  A    between atoms: C_26  and  C_35
REMARK   10  A    between atoms: C_33  and  C_36
REMARK                            x       y       z     vdW  Elec       q    Type
REMARK                         _______ _______ _______ _____ _____    ______ ____
ROOT
ATOM      1  O   UNL     1       1.447   1.974   2.040  0.00  0.00    +0.000 OA
ATOM      2  O   UNL     1      -6.654   0.545  -0.661  0.00  0.00    +0.000 OA
ATOM      3  C   UNL     1       1.020  -0.706  -0.448  0.00  0.00    +0.000 C 
ATOM      4  C   UNL     1      -0.360  -1.278   0.176  0.00  0.00    +0.000 C 
ATOM      5  C   UNL     1       1.808  -0.007   0.701  0.00  0.00    +0.000 C 
ATOM      6  C   UNL     1       3.268   0.440   0.389  0.00  0.00    +0.000 C 
ATOM      7  C   UNL     1       4.086  -0.749  -0.188  0.00  0.00    +0.000 C 
ATOM      8  C   UNL     1       1.911  -1.835  -1.044  0.00  0.00    +0.000 C 
ATOM      9  C   UNL     1      -1.186  -0.079   0.719  0.00  0.00    +0.000 C 
ATOM     10  C   UNL     1       3.352  -1.407  -1.373  0.00  0.00    +0.000 C 
ATOM     11  C   UNL     1      -2.751  -0.157   0.713  0.00  0.00    +0.000 C 
ATOM     12  C   UNL     1      -1.091  -2.155  -0.881  0.00  0.00    +0.000 C 
ATOM     13  C   UNL     1       3.389   1.712  -0.480  0.00  0.00    +0.000 C 
ATOM     14  C   UNL     1      -3.249  -0.946  -0.544  0.00  0.00    +0.000 C 
ATOM     15  C   UNL     1       5.518  -0.326  -0.586  0.00  0.00    +0.000 C 
ATOM     16  C   UNL     1       4.844   2.134  -0.784  0.00  0.00    +0.000 C 
ATOM     17  C   UNL     1      -2.582  -2.325  -0.639  0.00  0.00    +0.000 C 
ATOM     18  C   UNL     1       0.693   0.303  -1.601  0.00  0.00    +0.000 C 
ATOM     19  C   UNL     1       0.957   1.062   1.375  0.00  0.00    +0.000 C 
ATOM     20  C   UNL     1       5.588   0.947  -1.424  0.00  0.00    +0.000 C 
ATOM     21  C   UNL     1      -0.117  -2.220   1.401  0.00  0.00    +0.000 C 
ATOM     22  C   UNL     1      -0.529   0.959   1.286  0.00  0.00    +0.000 C 
ATOM     23  C   UNL     1      -4.800  -1.001  -0.746  0.00  0.00    +0.000 C 
ATOM     24  C   UNL     1      -3.181  -0.760   2.070  0.00  0.00    +0.000 C 
ATOM     25  C   UNL     1      -3.425   1.216   0.635  0.00  0.00    +0.000 C 
ATOM     26  C   UNL     1       4.825   3.306  -1.786  0.00  0.00    +0.000 C 
ATOM     27  C   UNL     1       5.560   2.618   0.491  0.00  0.00    +0.000 C 
ATOM     28  C   UNL     1      -5.454   0.354  -0.446  0.00  0.00    +0.000 C 
ATOM     29  C   UNL     1      -4.635   1.464   0.112  0.00  0.00    +0.000 C 
ATOM     30  C   UNL     1      -5.515  -2.080   0.086  0.00  0.00    +0.000 C 
ATOM     31  C   UNL     1      -5.109  -1.290  -2.239  0.00  0.00    +0.000 C 
ENDROOT
BRANCH   7  33
ATOM     32  O   UNL     1       3.849  -1.725   2.027  0.00  0.00    +0.000 OA
ATOM     33  C   UNL     1       4.288  -1.795   0.889  0.00  0.00    +0.000 C 
BRANCH  33  34
ATOM     34  O   UNL     1       5.030  -2.828   0.420  0.00  0.00    +0.000 OA
ATOM     35  H   UNL     1       5.173  -3.517   1.104  0.00  0.00    +0.000 HD
ENDBRANCH  33  34
ENDBRANCH   7  33
BRANCH  29  37
ATOM     36  N   UNL     1      -5.616   3.853   0.188  0.00  0.00    +0.000 NA
ATOM     37  C   UNL     1      -5.176   2.781   0.154  0.00  0.00    +0.000 C 
ENDBRANCH  29  37
TORSDOF 3
