REMARK  Name = 68926
REMARK  6 active torsions:
REMARK  status: ('A' for Active; 'I' for Inactive)
REMARK    1  A    between atoms: O_2  and  C_20
REMARK    2  A    between atoms: C_4  and  C_13
REMARK    3  A    between atoms: C_6  and  C_15
REMARK    4  A    between atoms: C_6  and  C_16
REMARK    5  A    between atoms: C_16  and  C_20
REMARK    6  A    between atoms: C_20  and  C_24
REMARK                            x       y       z     vdW  Elec       q    Type
REMARK                         _______ _______ _______ _____ _____    ______ ____
ROOT
ATOM      1  O   UNL     1      -6.441  -0.931   1.150  0.00  0.00    +0.000 OA
ATOM      2  C   UNL     1       1.586   0.145  -0.262  0.00  0.00    +0.000 C 
ATOM      3  C   UNL     1       0.517   1.162   0.205  0.00  0.00    +0.000 C 
ATOM      4  C   UNL     1       2.742   0.459   0.745  0.00  0.00    +0.000 C 
ATOM      5  C   UNL     1      -0.749   1.179  -0.666  0.00  0.00    +0.000 C 
ATOM      6  C   UNL     1       1.305   2.457   0.358  0.00  0.00    +0.000 C 
ATOM      7  C   UNL     1       2.683   2.009   0.878  0.00  0.00    +0.000 C 
ATOM      8  C   UNL     1       0.946  -1.252  -0.183  0.00  0.00    +0.000 C 
ATOM      9  C   UNL     1      -1.355  -0.238  -0.705  0.00  0.00    +0.000 C 
ATOM     10  C   UNL     1      -0.347  -1.341  -1.017  0.00  0.00    +0.000 C 
ATOM     11  C   UNL     1       2.062   0.407  -1.723  0.00  0.00    +0.000 C 
ATOM     12  C   UNL     1      -1.728   2.252  -0.157  0.00  0.00    +0.000 C 
ATOM     13  C   UNL     1       2.598  -0.194   2.130  0.00  0.00    +0.000 C 
ATOM     14  C   UNL     1      -2.680  -0.453  -0.508  0.00  0.00    +0.000 C 
ATOM     15  C   UNL     1      -3.120   2.027  -0.724  0.00  0.00    +0.000 C 
ATOM     16  C   UNL     1      -3.611   0.666  -0.309  0.00  0.00    +0.000 C 
ATOM     17  C   UNL     1      -3.366  -1.803  -0.534  0.00  0.00    +0.000 C 
ATOM     18  C   UNL     1      -4.841   0.514   0.209  0.00  0.00    +0.000 C 
ATOM     19  C   UNL     1      -4.340  -1.963   0.627  0.00  0.00    +0.000 C 
ATOM     20  C   UNL     1      -5.312  -0.811   0.679  0.00  0.00    +0.000 C 
ENDROOT
BRANCH   4  22
ATOM     21  O   UNL     1       4.970   0.852  -0.010  0.00  0.00    +0.000 OA
ATOM     22  C   UNL     1       4.093   0.024   0.238  0.00  0.00    +0.000 C 
BRANCH  22  23
ATOM     23  C   UNL     1       4.314  -1.470   0.045  0.00  0.00    +0.000 C 
ATOM     24  C   UNL     1       5.496  -1.968   0.857  0.00  0.00    +0.000 C 
BRANCH  23  25
ATOM     25  O   UNL     1       4.577  -1.729  -1.324  0.00  0.00    +0.000 OA
ATOM     26  H   UNL     1       5.413  -1.290  -1.560  0.00  0.00    +0.000 HD
ENDBRANCH  23  25
ENDBRANCH  22  23
ENDBRANCH   4  22
TORSDOF 3
