REMARK  Name = 10360683
REMARK  4 active torsions:
REMARK  status: ('A' for Active; 'I' for Inactive)
REMARK    1  A    between atoms: O_1  and  C_8
REMARK    2  A    between atoms: O_1  and  C_21
REMARK    3  A    between atoms: C_4  and  C_14
REMARK    4  A    between atoms: C_11  and  C_17
REMARK                            x       y       z     vdW  Elec       q    Type
REMARK                         _______ _______ _______ _____ _____    ______ ____
ROOT
ATOM      1  O   UNL     1      -6.614  -0.449   1.778  0.00  0.00    +0.000 OA
ATOM      2  C   UNL     1       0.503   0.833   0.118  0.00  0.00    +0.000 C 
ATOM      3  C   UNL     1       1.302  -0.299  -0.556  0.00  0.00    +0.000 C 
ATOM      4  C   UNL     1      -0.928   0.944  -0.417  0.00  0.00    +0.000 C 
ATOM      5  C   UNL     1      -1.675  -0.407  -0.141  0.00  0.00    +0.000 C 
ATOM      6  C   UNL     1       0.608  -1.628  -0.232  0.00  0.00    +0.000 C 
ATOM      7  C   UNL     1       2.661  -0.095   0.141  0.00  0.00    +0.000 C 
ATOM      8  C   UNL     1       1.434   2.038   0.012  0.00  0.00    +0.000 C 
ATOM      9  C   UNL     1      -0.865  -1.622  -0.679  0.00  0.00    +0.000 C 
ATOM     10  C   UNL     1      -3.176  -0.362  -0.616  0.00  0.00    +0.000 C 
ATOM     11  C   UNL     1       2.843   1.435   0.165  0.00  0.00    +0.000 C 
ATOM     12  C   UNL     1      -1.675   2.125   0.219  0.00  0.00    +0.000 C 
ATOM     13  C   UNL     1       1.450  -0.158  -2.092  0.00  0.00    +0.000 C 
ATOM     14  C   UNL     1      -3.124   2.195  -0.253  0.00  0.00    +0.000 C 
ATOM     15  C   UNL     1      -3.824   0.883  -0.002  0.00  0.00    +0.000 C 
ATOM     16  C   UNL     1      -3.308  -0.295  -2.154  0.00  0.00    +0.000 C 
ATOM     17  C   UNL     1      -3.904  -1.629  -0.188  0.00  0.00    +0.000 C 
ATOM     18  C   UNL     1      -4.923   0.848   0.768  0.00  0.00    +0.000 C 
ATOM     19  C   UNL     1      -4.997  -1.670   0.580  0.00  0.00    +0.000 C 
ATOM     20  C   UNL     1      -5.596  -0.426   1.095  0.00  0.00    +0.000 C 
ENDROOT
BRANCH   7  21
ATOM     21  O   UNL     1       3.741  -0.756  -0.489  0.00  0.00    +0.000 OA
BRANCH  21  22
ATOM     22  C   UNL     1       4.928  -0.505   0.134  0.00  0.00    +0.000 C 
ATOM     23  C   UNL     1       6.027   0.160  -0.617  0.00  0.00    +0.000 C 
ATOM     24  C   UNL     1       5.250  -0.782   1.401  0.00  0.00    +0.000 C 
ATOM     25  C   UNL     1       7.221  -0.042   0.319  0.00  0.00    +0.000 C 
ATOM     26  C   UNL     1       6.641  -0.334   1.706  0.00  0.00    +0.000 C 
ENDBRANCH  21  22
ENDBRANCH   7  21
TORSDOF 2
