REMARK  Name = 24892842
REMARK  12 active torsions:
REMARK  status: ('A' for Active; 'I' for Inactive)
REMARK    1  A    between atoms: O_1  and  C_5
REMARK    2  A    between atoms: O_2  and  C_17
REMARK    3  A    between atoms: O_2  and  C_18
REMARK    4  A    between atoms: N_4  and  C_19
REMARK    5  A    between atoms: N_4  and  C_21
REMARK    6  A    between atoms: N_4  and  C_22
REMARK    7  A    between atoms: C_5  and  C_6
REMARK    8  A    between atoms: C_7  and  C_17
REMARK    9  A    between atoms: C_18  and  C_19
REMARK   10  A    between atoms: C_18  and  C_20
REMARK   11  A    between atoms: C_21  and  C_23
REMARK   12  A    between atoms: C_22  and  C_24
REMARK                            x       y       z     vdW  Elec       q    Type
REMARK                         _______ _______ _______ _____ _____    ______ ____
ROOT
ATOM      1  C   UNL     1       2.271  -0.799  -0.413  0.00  0.00    +0.000 C 
ATOM      2  C   UNL     1       0.994  -1.228   0.345  0.00  0.00    +0.000 C 
ATOM      3  C   UNL     1       3.488  -1.565   0.143  0.00  0.00    +0.000 C 
ATOM      4  C   UNL     1       0.788  -2.747   0.309  0.00  0.00    +0.000 C 
ATOM      5  C   UNL     1       3.282  -3.082   0.125  0.00  0.00    +0.000 C 
ATOM      6  C   UNL     1       2.005  -3.487   0.853  0.00  0.00    +0.000 C 
ENDROOT
BRANCH   1   7
ATOM      7  C   UNL     1       2.525   0.703  -0.310  0.00  0.00    +0.000 C 
ATOM      8  C   UNL     1       2.706   1.124   1.155  0.00  0.00    +0.000 C 
ATOM      9  C   UNL     1       3.746   1.105  -1.149  0.00  0.00    +0.000 C 
ATOM     10  C   UNL     1       3.014   2.614   1.279  0.00  0.00    +0.000 C 
ATOM     11  C   UNL     1       4.053   2.595  -1.020  0.00  0.00    +0.000 C 
ATOM     12  C   UNL     1       4.223   3.011   0.437  0.00  0.00    +0.000 C 
ENDBRANCH   1   7
BRANCH   1  13
ATOM     13  O   UNL     1       2.160  -1.139  -1.799  0.00  0.00    +0.000 OA
ATOM     14  H   UNL     1       3.048  -1.188  -2.190  0.00  0.00    +0.000 HD
ENDBRANCH   1  13
BRANCH   2  16
ATOM     15  O   UNL     1      -0.629  -0.698  -1.357  0.00  0.00    +0.000 OA
ATOM     16  C   UNL     1      -0.235  -0.564  -0.206  0.00  0.00    +0.000 C 
BRANCH  16  17
ATOM     17  O   UNL     1      -0.820   0.193   0.766  0.00  0.00    +0.000 OA
BRANCH  17  18
ATOM     18  C   UNL     1      -2.009   0.886   0.373  0.00  0.00    +0.000 C 
ATOM     19  C   UNL     1      -2.061   2.192   1.156  0.00  0.00    +0.000 C 
BRANCH  18  20
ATOM     20  C   UNL     1      -3.214  -0.020   0.636  0.00  0.00    +0.000 C 
BRANCH  20  21
ATOM     21  N   UNL     1      -4.468   0.606   0.238  0.00  0.00    +0.000 NA
BRANCH  21  22
ATOM     22  C   UNL     1      -5.605  -0.063   0.875  0.00  0.00    +0.000 C 
ATOM     23  C   UNL     1      -5.708  -1.512   0.431  0.00  0.00    +0.000 C 
ENDBRANCH  21  22
BRANCH  21  24
ATOM     24  C   UNL     1      -4.618   0.583  -1.218  0.00  0.00    +0.000 C 
ATOM     25  C   UNL     1      -5.890   1.293  -1.651  0.00  0.00    +0.000 C 
ENDBRANCH  21  24
ENDBRANCH  20  21
ENDBRANCH  18  20
ENDBRANCH  17  18
ENDBRANCH  16  17
ENDBRANCH   2  16
TORSDOF 9
