REMARK  Name = 91668
REMARK  7 active torsions:
REMARK  status: ('A' for Active; 'I' for Inactive)
REMARK    1  A    between atoms: O_1  and  C_8
REMARK    2  A    between atoms: O_1  and  C_26
REMARK    3  A    between atoms: C_5  and  C_15
REMARK    4  A    between atoms: C_8  and  C_17
REMARK    5  A    between atoms: C_17  and  C_23
REMARK    6  A    between atoms: C_20  and  C_24
REMARK    7  A    between atoms: C_26  and  C_27
REMARK                            x       y       z     vdW  Elec       q    Type
REMARK                         _______ _______ _______ _____ _____    ______ ____
ROOT
ATOM      1  O   UNL     1       6.788  -0.575  -0.967  0.00  0.00    +0.000 OA
ATOM      2  C   UNL     1      -1.586  -0.515   0.656  0.00  0.00    +0.000 C 
ATOM      3  C   UNL     1      -0.751   0.763   0.381  0.00  0.00    +0.000 C 
ATOM      4  C   UNL     1       0.716   0.606   0.801  0.00  0.00    +0.000 C 
ATOM      5  C   UNL     1      -2.985  -0.009   0.218  0.00  0.00    +0.000 C 
ATOM      6  C   UNL     1       1.333  -0.554  -0.030  0.00  0.00    +0.000 C 
ATOM      7  C   UNL     1      -0.981  -1.661  -0.173  0.00  0.00    +0.000 C 
ATOM      8  C   UNL     1      -1.593   1.870   1.014  0.00  0.00    +0.000 C 
ATOM      9  C   UNL     1       0.518  -1.858   0.123  0.00  0.00    +0.000 C 
ATOM     10  C   UNL     1      -3.051   1.435   0.762  0.00  0.00    +0.000 C 
ATOM     11  C   UNL     1       2.836  -0.689   0.332  0.00  0.00    +0.000 C 
ATOM     12  C   UNL     1      -1.613  -0.927   2.155  0.00  0.00    +0.000 C 
ATOM     13  C   UNL     1       1.530   1.859   0.629  0.00  0.00    +0.000 C 
ATOM     14  C   UNL     1       3.578   0.623   0.041  0.00  0.00    +0.000 C 
ATOM     15  C   UNL     1       3.489  -1.878  -0.395  0.00  0.00    +0.000 C 
ATOM     16  C   UNL     1       2.828   1.873   0.268  0.00  0.00    +0.000 C 
ATOM     17  C   UNL     1       4.988  -1.924  -0.157  0.00  0.00    +0.000 C 
ATOM     18  C   UNL     1       4.851   0.629  -0.397  0.00  0.00    +0.000 C 
ATOM     19  C   UNL     1       3.536   3.198   0.132  0.00  0.00    +0.000 C 
ATOM     20  C   UNL     1       5.628  -0.625  -0.564  0.00  0.00    +0.000 C 
ENDROOT
BRANCH   5  22
ATOM     21  O   UNL     1      -5.000  -0.440   1.421  0.00  0.00    +0.000 OA
ATOM     22  C   UNL     1      -4.119  -0.874   0.681  0.00  0.00    +0.000 C 
ATOM     23  C   UNL     1      -4.127  -2.297   0.194  0.00  0.00    +0.000 C 
ENDBRANCH   5  22
BRANCH   5  24
ATOM     24  O   UNL     1      -3.097   0.017  -1.202  0.00  0.00    +0.000 OA
BRANCH  24  26
ATOM     25  O   UNL     1      -5.206   0.944  -1.034  0.00  0.00    +0.000 OA
ATOM     26  C   UNL     1      -4.267   0.521  -1.695  0.00  0.00    +0.000 C 
ATOM     27  C   UNL     1      -4.243   0.486  -3.193  0.00  0.00    +0.000 C 
ENDBRANCH  24  26
ENDBRANCH   5  24
TORSDOF 3
