REMARK  Name = 
REMARK  29 active torsions:
REMARK  status: ('A' for Active; 'I' for Inactive)
REMARK    1  A    between atoms: C_1  and  C_2
REMARK    2  A    between atoms: C_5  and  C_6
REMARK    3  A    between atoms: C_6  and  O_8
REMARK    4  A    between atoms: O_8  and  C_9
REMARK    5  A    between atoms: C_11  and  C_12
REMARK    6  A    between atoms: C_12  and  O_13
REMARK    7  A    between atoms: O_13  and  C_14
REMARK    8  A    between atoms: C_16  and  C_17
REMARK    9  A    between atoms: C_17  and  O_18
REMARK   10  A    between atoms: C_19  and  O_20
REMARK   11  A    between atoms: O_20  and  C_21
REMARK   12  A    between atoms: C_23  and  C_24
REMARK   13  A    between atoms: C_25  and  O_26
REMARK   14  A    between atoms: C_27  and  O_28
REMARK   15  A    between atoms: C_29  and  O_30
REMARK   16  A    between atoms: C_31  and  O_32
REMARK   17  A    between atoms: C_33  and  O_34
REMARK   18  A    between atoms: C_35  and  O_36
REMARK   19  A    between atoms: C_37  and  O_38
REMARK   20  A    between atoms: C_39  and  O_40
REMARK   21  A    between atoms: C_43  and  C_44
REMARK   22  A    between atoms: C_49  and  C_50
REMARK   23  A    between atoms: C_52  and  O_53
REMARK   24  A    between atoms: C_54  and  O_55
REMARK   25  A    between atoms: C_56  and  C_57
REMARK   26  A    between atoms: C_56  and  C_58
REMARK   27  A    between atoms: C_58  and  O_59
REMARK   28  A    between atoms: C_63  and  C_64
REMARK   29  A    between atoms: C_66  and  C_67
REMARK                            x       y       z     vdW  Elec       q    Type
REMARK                         _______ _______ _______ _____ _____    ______ ____
ROOT
ATOM      1  C   UNL     1       0.458  -3.675   0.000  0.00  0.00    +0.000 C 
ATOM      2  O   UNL     1      -0.750  -2.786   0.000  0.00  0.00    +0.000 OA
ATOM      3  C   UNL     1      -2.124  -3.388   0.000  0.00  0.00    +0.000 C 
ATOM      4  C   UNL     1      -2.290  -4.878   0.000  0.00  0.00    +0.000 C 
ATOM      5  C   UNL     1      -1.082  -5.768   0.000  0.00  0.00    +0.000 C 
ATOM      6  C   UNL     1       0.292  -5.166   0.000  0.00  0.00    +0.000 C 
ENDROOT
BRANCH   4   7
ATOM      7  O   UNL     1      -3.664  -5.480   0.000  0.00  0.00    +0.000 OA
ATOM      8  H   UNL     1      -4.445  -4.905   0.000  0.00  0.00    +0.000 HD
ENDBRANCH   4   7
BRANCH   5   9
ATOM      9  O   UNL     1      -1.248  -7.258   0.000  0.00  0.00    +0.000 OA
ATOM     10  H   UNL     1      -2.136  -7.647   0.000  0.00  0.00    +0.000 HD
ENDBRANCH   5   9
BRANCH   6  11
ATOM     11  O   UNL     1       1.500  -6.055   0.000  0.00  0.00    +0.000 OA
ATOM     12  H   UNL     1       1.393  -7.019   0.000  0.00  0.00    +0.000 HD
ENDBRANCH   6  11
BRANCH   1  13
ATOM     13  O   UNL     1       1.832  -3.073   0.000  0.00  0.00    +0.000 OA
BRANCH  13  14
ATOM     14  C   UNL     1       3.040  -3.962   0.000  0.00  0.00    +0.000 C 
ATOM     15  O   UNL     1       2.874  -5.453   0.000  0.00  0.00    +0.000 OA
BRANCH  14  20
ATOM     16  C   UNL     1       8.039  -6.028   0.000  0.00  0.00    +0.000 C 
ATOM     17  C   UNL     1       6.831  -5.139   0.000  0.00  0.00    +0.000 C 
ATOM     18  C   UNL     1       5.457  -5.741   0.000  0.00  0.00    +0.000 C 
ATOM     19  C   UNL     1       4.248  -4.851   0.000  0.00  0.00    +0.000 C 
ATOM     20  C   UNL     1       4.415  -3.361   0.000  0.00  0.00    +0.000 C 
ATOM     21  C   UNL     1       3.206  -2.472   0.000  0.00  0.00    +0.000 C 
ATOM     22  C   UNL     1       3.372  -0.981   0.000  0.00  0.00    +0.000 C 
ATOM     23  C   UNL     1       4.746  -0.379   0.000  0.00  0.00    +0.000 C 
ATOM     24  C   UNL     1       3.889   0.103   0.000  0.00  0.00    +0.000 C 
ATOM     25  C   UNL     1       5.954  -1.268   0.000  0.00  0.00    +0.000 C 
ATOM     26  C   UNL     1       7.328  -0.666   0.000  0.00  0.00    +0.000 C 
ATOM     27  C   UNL     1       7.494   0.824   0.000  0.00  0.00    +0.000 C 
ATOM     28  C   UNL     1       6.286   1.713   0.000  0.00  0.00    +0.000 C 
ATOM     29  C   UNL     1       6.452   3.204   0.000  0.00  0.00    +0.000 C 
ATOM     30  C   UNL     1       7.660   2.315   0.000  0.00  0.00    +0.000 C 
ATOM     31  C   UNL     1       7.826   3.806   0.000  0.00  0.00    +0.000 C 
ATOM     32  C   UNL     1       7.992   5.297   0.000  0.00  0.00    +0.000 C 
ATOM     33  C   UNL     1       6.784   6.186   0.000  0.00  0.00    +0.000 C 
ATOM     34  C   UNL     1       5.410   5.584   0.000  0.00  0.00    +0.000 C 
ATOM     35  C   UNL     1       3.913   5.489   0.000  0.00  0.00    +0.000 C 
ATOM     36  C   UNL     1       5.244   4.093   0.000  0.00  0.00    +0.000 C 
ATOM     37  C   UNL     1       3.870   3.492   0.000  0.00  0.00    +0.000 C 
ATOM     38  C   UNL     1       3.704   2.001   0.000  0.00  0.00    +0.000 C 
ATOM     39  C   UNL     1       4.912   1.112   0.000  0.00  0.00    +0.000 C 
ATOM     40  C   UNL     1       3.969   0.830   0.000  0.00  0.00    +0.000 C 
ATOM     41  C   UNL     1       5.788  -2.759   0.000  0.00  0.00    +0.000 C 
ATOM     42  C   UNL     1       6.997  -3.648   0.000  0.00  0.00    +0.000 C 
ATOM     43  C   UNL     1       8.371  -3.046   0.000  0.00  0.00    +0.000 C 
BRANCH  32  44
ATOM     44  O   UNL     1       9.366   5.898   0.000  0.00  0.00    +0.000 OA
ATOM     45  H   UNL     1      10.147   5.323   0.000  0.00  0.00    +0.000 HD
ENDBRANCH  32  44
BRANCH  33  46
ATOM     46  O   UNL     1       6.950   7.677   0.000  0.00  0.00    +0.000 OA
ATOM     47  H   UNL     1       7.838   8.066   0.000  0.00  0.00    +0.000 HD
ENDBRANCH  33  46
BRANCH  34  48
ATOM     48  C   UNL     1       5.056   7.042   0.000  0.00  0.00    +0.000 C 
BRANCH  48  49
ATOM     49  O   UNL     1       3.617   7.464   0.000  0.00  0.00    +0.000 OA
ATOM     50  H   UNL     1       3.388   8.407   0.000  0.00  0.00    +0.000 HD
ENDBRANCH  48  49
ENDBRANCH  34  48
ENDBRANCH  14  20
ENDBRANCH  13  14
ENDBRANCH   1  13
BRANCH   3  51
ATOM     51  C   UNL     1      -3.332  -2.498   0.000  0.00  0.00    +0.000 C 
BRANCH  51  52
ATOM     52  O   UNL     1      -3.166  -1.008   0.000  0.00  0.00    +0.000 OA
BRANCH  52  53
ATOM     53  C   UNL     1      -4.374  -0.119   0.000  0.00  0.00    +0.000 C 
ATOM     54  O   UNL     1      -4.208   1.372   0.000  0.00  0.00    +0.000 OA
ATOM     55  C   UNL     1      -5.416   2.261   0.000  0.00  0.00    +0.000 C 
ATOM     56  C   UNL     1      -6.790   1.659   0.000  0.00  0.00    +0.000 C 
ATOM     57  C   UNL     1      -6.956   0.169   0.000  0.00  0.00    +0.000 C 
ATOM     58  C   UNL     1      -5.748  -0.720   0.000  0.00  0.00    +0.000 C 
BRANCH  57  59
ATOM     59  O   UNL     1      -8.330  -0.433   0.000  0.00  0.00    +0.000 OA
ATOM     60  H   UNL     1      -9.112   0.142   0.000  0.00  0.00    +0.000 HD
ENDBRANCH  57  59
BRANCH  58  61
ATOM     61  O   UNL     1      -5.914  -2.211   0.000  0.00  0.00    +0.000 OA
ATOM     62  H   UNL     1      -6.803  -2.600   0.000  0.00  0.00    +0.000 HD
ENDBRANCH  58  61
BRANCH  55  63
ATOM     63  C   UNL     1      -5.250   3.752   0.000  0.00  0.00    +0.000 C 
BRANCH  63  64
ATOM     64  O   UNL     1      -3.876   4.354   0.000  0.00  0.00    +0.000 OA
ATOM     65  H   UNL     1      -3.095   3.779   0.000  0.00  0.00    +0.000 HD
ENDBRANCH  63  64
ENDBRANCH  55  63
BRANCH  56  66
ATOM     66  O   UNL     1      -7.998   2.549   0.000  0.00  0.00    +0.000 OA
BRANCH  66  67
ATOM     67  C   UNL     1      -9.373   1.947   0.000  0.00  0.00    +0.000 C 
ATOM     68  O   UNL     1      -9.538   0.456   0.000  0.00  0.00    +0.000 OA
ATOM     69  C   UNL     1     -10.912  -0.146   0.000  0.00  0.00    +0.000 C 
ATOM     70  C   UNL     1     -11.078  -1.636   0.000  0.00  0.00    +0.000 C 
ATOM     71  C   UNL     1     -12.120   0.744   0.000  0.00  0.00    +0.000 C 
ATOM     72  C   UNL     1     -11.955   2.234   0.000  0.00  0.00    +0.000 C 
ATOM     73  C   UNL     1     -10.581   2.836   0.000  0.00  0.00    +0.000 C 
BRANCH  71  74
ATOM     74  O   UNL     1     -13.495   0.142   0.000  0.00  0.00    +0.000 OA
ATOM     75  H   UNL     1     -14.276   0.717   0.000  0.00  0.00    +0.000 HD
ENDBRANCH  71  74
BRANCH  72  76
ATOM     76  O   UNL     1     -13.163   3.123   0.000  0.00  0.00    +0.000 OA
ATOM     77  H   UNL     1     -13.055   4.087   0.000  0.00  0.00    +0.000 HD
ENDBRANCH  72  76
BRANCH  73  78
ATOM     78  O   UNL     1     -10.415   4.327   0.000  0.00  0.00    +0.000 OA
ATOM     79  H   UNL     1      -9.526   4.716   0.000  0.00  0.00    +0.000 HD
ENDBRANCH  73  78
ENDBRANCH  66  67
ENDBRANCH  56  66
ENDBRANCH  52  53
ENDBRANCH  51  52
ENDBRANCH   3  51
TORSDOF 22
