REMARK  Name = 108059
REMARK  6 active torsions:
REMARK  status: ('A' for Active; 'I' for Inactive)
REMARK    1  A    between atoms: O_1  and  C_9
REMARK    2  A    between atoms: O_1  and  C_26
REMARK    3  A    between atoms: C_5  and  C_16
REMARK    4  A    between atoms: C_9  and  C_20
REMARK    5  A    between atoms: C_20  and  C_25
REMARK    6  A    between atoms: C_26  and  C_27
REMARK                            x       y       z     vdW  Elec       q    Type
REMARK                         _______ _______ _______ _____ _____    ______ ____
ROOT
ATOM      1  O   UNL     1      -6.972  -0.020  -1.209  0.00  0.00    +0.000 OA
ATOM      2  C   UNL     1       1.276   0.569   0.599  0.00  0.00    +0.000 C 
ATOM      3  C   UNL     1       0.526  -0.749   0.267  0.00  0.00    +0.000 C 
ATOM      4  C   UNL     1      -0.943  -0.732   0.702  0.00  0.00    +0.000 C 
ATOM      5  C   UNL     1      -1.674   0.439  -0.016  0.00  0.00    +0.000 C 
ATOM      6  C   UNL     1       2.713   0.190   0.128  0.00  0.00    +0.000 C 
ATOM      7  C   UNL     1       0.572   1.699  -0.171  0.00  0.00    +0.000 C 
ATOM      8  C   UNL     1      -0.927   1.784   0.168  0.00  0.00    +0.000 C 
ATOM      9  C   UNL     1       1.438  -1.834   0.838  0.00  0.00    +0.000 C 
ATOM     10  C   UNL     1      -3.169   0.520   0.421  0.00  0.00    +0.000 C 
ATOM     11  C   UNL     1      -1.650  -2.057   0.386  0.00  0.00    +0.000 C 
ATOM     12  C   UNL     1       2.817  -1.264   0.565  0.00  0.00    +0.000 C 
ATOM     13  C   UNL     1       1.270   0.903   2.121  0.00  0.00    +0.000 C 
ATOM     14  C   UNL     1      -3.101  -2.018   0.852  0.00  0.00    +0.000 C 
ATOM     15  C   UNL     1      -3.853  -0.835   0.293  0.00  0.00    +0.000 C 
ATOM     16  C   UNL     1      -3.907   1.612  -0.382  0.00  0.00    +0.000 C 
ATOM     17  C   UNL     1      -5.416   1.523  -0.238  0.00  0.00    +0.000 C 
ATOM     18  C   UNL     1      -5.072  -1.010  -0.240  0.00  0.00    +0.000 C 
ATOM     19  C   UNL     1       3.933  -1.997   0.679  0.00  0.00    +0.000 C 
ATOM     20  C   UNL     1      -5.896   0.153  -0.641  0.00  0.00    +0.000 C 
ENDROOT
BRANCH   6  22
ATOM     21  O   UNL     1       4.695   0.634   1.393  0.00  0.00    +0.000 OA
ATOM     22  C   UNL     1       3.805   1.075   0.666  0.00  0.00    +0.000 C 
ATOM     23  C   UNL     1       3.758   2.526   0.269  0.00  0.00    +0.000 C 
ENDBRANCH   6  22
BRANCH   6  24
ATOM     24  O   UNL     1       2.848   0.229  -1.287  0.00  0.00    +0.000 OA
BRANCH  24  26
ATOM     25  O   UNL     1       5.109  -0.242  -1.224  0.00  0.00    +0.000 OA
ATOM     26  C   UNL     1       4.023  -0.261  -1.788  0.00  0.00    +0.000 C 
ATOM     27  C   UNL     1       3.797  -0.837  -3.152  0.00  0.00    +0.000 C 
ENDBRANCH  24  26
ENDBRANCH   6  24
TORSDOF 3
