REMARK  Name = 11823650
REMARK  4 active torsions:
REMARK  status: ('A' for Active; 'I' for Inactive)
REMARK    1  A    between atoms: O_1  and  C_9
REMARK    2  A    between atoms: C_4  and  C_15
REMARK    3  A    between atoms: C_9  and  C_19
REMARK    4  A    between atoms: C_19  and  C_24
REMARK                            x       y       z     vdW  Elec       q    Type
REMARK                         _______ _______ _______ _____ _____    ______ ____
ROOT
ATOM      1  O   UNL     1      -6.552   0.226  -0.776  0.00  0.00    +0.000 OA
ATOM      2  C   UNL     1       1.849   0.435   0.237  0.00  0.00    +0.000 C 
ATOM      3  C   UNL     1       1.036  -0.802  -0.228  0.00  0.00    +0.000 C 
ATOM      4  C   UNL     1      -0.381  -0.846   0.354  0.00  0.00    +0.000 C 
ATOM      5  C   UNL     1      -1.150   0.435  -0.082  0.00  0.00    +0.000 C 
ATOM      6  C   UNL     1       1.100   1.684  -0.259  0.00  0.00    +0.000 C 
ATOM      7  C   UNL     1       3.221   0.128  -0.437  0.00  0.00    +0.000 C 
ATOM      8  C   UNL     1      -0.355   1.724   0.243  0.00  0.00    +0.000 C 
ATOM      9  C   UNL     1       1.972  -1.975   0.058  0.00  0.00    +0.000 C 
ATOM     10  C   UNL     1      -2.591   0.455   0.516  0.00  0.00    +0.000 C 
ATOM     11  C   UNL     1      -1.150  -2.093  -0.101  0.00  0.00    +0.000 C 
ATOM     12  C   UNL     1       3.331  -1.380  -0.259  0.00  0.00    +0.000 C 
ATOM     13  C   UNL     1       2.006   0.511   1.785  0.00  0.00    +0.000 C 
ATOM     14  C   UNL     1      -2.545  -2.120   0.512  0.00  0.00    +0.000 C 
ATOM     15  C   UNL     1      -3.318  -0.854   0.238  0.00  0.00    +0.000 C 
ATOM     16  C   UNL     1      -3.378   1.671  -0.015  0.00  0.00    +0.000 C 
ATOM     17  C   UNL     1      -4.867   1.573   0.268  0.00  0.00    +0.000 C 
ATOM     18  C   UNL     1      -4.590  -0.928  -0.187  0.00  0.00    +0.000 C 
ATOM     19  C   UNL     1       4.433  -2.130  -0.384  0.00  0.00    +0.000 C 
ATOM     20  C   UNL     1      -5.420   0.293  -0.302  0.00  0.00    +0.000 C 
ENDROOT
BRANCH   7  22
ATOM     21  O   UNL     1       5.025   0.493   1.090  0.00  0.00    +0.000 OA
ATOM     22  C   UNL     1       4.384   0.902   0.123  0.00  0.00    +0.000 C 
ATOM     23  C   UNL     1       4.726   2.198  -0.560  0.00  0.00    +0.000 C 
ENDBRANCH   7  22
BRANCH   7  24
ATOM     24  O   UNL     1       3.213   0.401  -1.833  0.00  0.00    +0.000 OA
ATOM     25  H   UNL     1       3.994  -0.015  -2.237  0.00  0.00    +0.000 HD
ENDBRANCH   7  24
TORSDOF 2
