REMARK  Name = 444025
REMARK  11 active torsions:
REMARK  status: ('A' for Active; 'I' for Inactive)
REMARK    1  A    between atoms: O_2  and  C_13
REMARK    2  A    between atoms: O_2  and  C_29
REMARK    3  A    between atoms: O_3  and  C_15
REMARK    4  A    between atoms: O_4  and  C_23
REMARK    5  A    between atoms: O_4  and  C_30
REMARK    6  A    between atoms: O_6  and  C_29
REMARK    7  A    between atoms: O_6  and  C_31
REMARK    8  A    between atoms: C_9  and  C_20
REMARK    9  A    between atoms: C_13  and  C_23
REMARK   10  A    between atoms: C_17  and  C_24
REMARK   11  A    between atoms: C_31  and  C_32
REMARK                            x       y       z     vdW  Elec       q    Type
REMARK                         _______ _______ _______ _____ _____    ______ ____
ROOT
ATOM      1  O   UNL     1       6.502  -2.201   1.444  0.00  0.00    +0.000 OA
ATOM      2  C   UNL     1      -0.850   0.943  -0.488  0.00  0.00    +0.000 C 
ATOM      3  C   UNL     1       0.013  -0.050  -1.298  0.00  0.00    +0.000 C 
ATOM      4  C   UNL     1       1.506   0.311  -1.321  0.00  0.00    +0.000 C 
ATOM      5  C   UNL     1       2.046   0.316   0.152  0.00  0.00    +0.000 C 
ATOM      6  C   UNL     1      -2.252   0.319  -0.735  0.00  0.00    +0.000 C 
ATOM      7  C   UNL     1      -0.343   0.916   0.968  0.00  0.00    +0.000 C 
ATOM      8  C   UNL     1       1.170   1.205   1.091  0.00  0.00    +0.000 C 
ATOM      9  C   UNL     1      -0.737  -0.173  -2.622  0.00  0.00    +0.000 C 
ATOM     10  C   UNL     1       3.605   0.568   0.216  0.00  0.00    +0.000 C 
ATOM     11  C   UNL     1      -2.225  -0.098  -2.223  0.00  0.00    +0.000 C 
ATOM     12  C   UNL     1       2.287  -0.686  -2.197  0.00  0.00    +0.000 C 
ATOM     13  C   UNL     1      -0.818   2.389  -1.055  0.00  0.00    +0.000 C 
ATOM     14  C   UNL     1       3.791  -0.446  -2.147  0.00  0.00    +0.000 C 
ATOM     15  C   UNL     1       4.271  -0.449  -0.718  0.00  0.00    +0.000 C 
ATOM     16  C   UNL     1       4.033   1.984  -0.233  0.00  0.00    +0.000 C 
ATOM     17  C   UNL     1       4.101   0.408   1.645  0.00  0.00    +0.000 C 
ATOM     18  C   UNL     1       5.196  -1.335  -0.318  0.00  0.00    +0.000 C 
ATOM     19  C   UNL     1       5.021  -0.473   2.051  0.00  0.00    +0.000 C 
ATOM     20  C   UNL     1       5.644  -1.400   1.088  0.00  0.00    +0.000 C 
ENDROOT
BRANCH   8  21
ATOM     21  O   UNL     1       1.410   2.587   0.864  0.00  0.00    +0.000 OA
ATOM     22  H   UNL     1       0.880   3.090   1.505  0.00  0.00    +0.000 HD
ENDBRANCH   8  21
BRANCH   6  24
ATOM     23  O   UNL     1      -4.242   1.590  -1.206  0.00  0.00    +0.000 OA
ATOM     24  C   UNL     1      -3.403   1.218  -0.397  0.00  0.00    +0.000 C 
BRANCH  24  25
ATOM     25  O   UNL     1      -3.357   1.539   0.927  0.00  0.00    +0.000 OA
BRANCH  25  27
ATOM     26 CL   UNL     1      -4.201   2.662   3.128  0.00  0.00    +0.000 Cl
ATOM     27  C   UNL     1      -4.406   2.395   1.387  0.00  0.00    +0.000 C 
ENDBRANCH  25  27
ENDBRANCH  24  25
ENDBRANCH   6  24
BRANCH   6  28
ATOM     28  O   UNL     1      -2.454  -0.834   0.076  0.00  0.00    +0.000 OA
BRANCH  28  30
ATOM     29  O   UNL     1      -4.490  -1.205  -0.938  0.00  0.00    +0.000 OA
ATOM     30  C   UNL     1      -3.623  -1.508  -0.130  0.00  0.00    +0.000 C 
BRANCH  30  31
ATOM     31  O   UNL     1      -3.658  -2.573   0.720  0.00  0.00    +0.000 OA
BRANCH  31  32
ATOM     32  C   UNL     1      -4.827  -3.394   0.635  0.00  0.00    +0.000 C 
ATOM     33  C   UNL     1      -4.710  -4.524   1.635  0.00  0.00    +0.000 C 
ENDBRANCH  31  32
ENDBRANCH  30  31
ENDBRANCH  28  30
ENDBRANCH   6  28
TORSDOF 8
