REMARK  Name = 9782
REMARK  8 active torsions:
REMARK  status: ('A' for Active; 'I' for Inactive)
REMARK    1  A    between atoms: O_2  and  C_11
REMARK    2  A    between atoms: O_3  and  C_15
REMARK    3  A    between atoms: O_5  and  C_26
REMARK    4  A    between atoms: C_7  and  C_18
REMARK    5  A    between atoms: C_11  and  C_21
REMARK    6  A    between atoms: C_14  and  C_22
REMARK    7  A    between atoms: C_16  and  C_23
REMARK    8  A    between atoms: C_21  and  C_26
REMARK                            x       y       z     vdW  Elec       q    Type
REMARK                         _______ _______ _______ _____ _____    ______ ____
ROOT
ATOM      1  F   UNL     1       1.446   0.116   1.315  0.00  0.00    +0.000 F 
ATOM      2  O   UNL     1       6.315  -0.075   1.540  0.00  0.00    +0.000 OA
ATOM      3  C   UNL     1      -1.736   0.298  -0.164  0.00  0.00    +0.000 C 
ATOM      4  C   UNL     1      -0.868  -0.956   0.082  0.00  0.00    +0.000 C 
ATOM      5  C   UNL     1       0.508  -0.888  -0.600  0.00  0.00    +0.000 C 
ATOM      6  C   UNL     1       1.295   0.348  -0.044  0.00  0.00    +0.000 C 
ATOM      7  C   UNL     1      -3.041  -0.125   0.580  0.00  0.00    +0.000 C 
ATOM      8  C   UNL     1      -1.810  -2.101  -0.274  0.00  0.00    +0.000 C 
ATOM      9  C   UNL     1      -0.979   1.504   0.431  0.00  0.00    +0.000 C 
ATOM     10  C   UNL     1      -3.163  -1.665   0.346  0.00  0.00    +0.000 C 
ATOM     11  C   UNL     1       0.456   1.659  -0.123  0.00  0.00    +0.000 C 
ATOM     12  C   UNL     1       2.761   0.428  -0.625  0.00  0.00    +0.000 C 
ATOM     13  C   UNL     1       1.287  -2.196  -0.363  0.00  0.00    +0.000 C 
ATOM     14  C   UNL     1      -2.045   0.545  -1.667  0.00  0.00    +0.000 C 
ATOM     15  C   UNL     1       2.704  -2.133  -0.919  0.00  0.00    +0.000 C 
ATOM     16  C   UNL     1       3.429  -0.929  -0.374  0.00  0.00    +0.000 C 
ATOM     17  C   UNL     1      -4.330  -2.138  -0.515  0.00  0.00    +0.000 C 
ATOM     18  C   UNL     1       2.823   0.715  -2.143  0.00  0.00    +0.000 C 
ATOM     19  C   UNL     1       3.533   1.553   0.049  0.00  0.00    +0.000 C 
ATOM     20  C   UNL     1       4.566  -1.084   0.323  0.00  0.00    +0.000 C 
ATOM     21  C   UNL     1       4.665   1.405   0.746  0.00  0.00    +0.000 C 
ATOM     22  C   UNL     1       5.268   0.071   0.918  0.00  0.00    +0.000 C 
ENDROOT
BRANCH   7  23
ATOM     23  O   UNL     1      -2.894   0.099   1.988  0.00  0.00    +0.000 OA
ATOM     24  H   UNL     1      -2.844   1.056   2.152  0.00  0.00    +0.000 HD
ENDBRANCH   7  23
BRANCH  11  25
ATOM     25  O   UNL     1       0.408   2.171  -1.446  0.00  0.00    +0.000 OA
ATOM     26  H   UNL     1       1.003   2.939  -1.487  0.00  0.00    +0.000 HD
ENDBRANCH  11  25
BRANCH   7  28
ATOM     27  O   UNL     1      -4.194   1.605  -0.587  0.00  0.00    +0.000 OA
ATOM     28  C   UNL     1      -4.244   0.711   0.257  0.00  0.00    +0.000 C 
BRANCH  28  29
ATOM     29  C   UNL     1      -5.509   0.390   1.025  0.00  0.00    +0.000 C 
BRANCH  29  30
ATOM     30  O   UNL     1      -6.651   0.671   0.244  0.00  0.00    +0.000 OA
ATOM     31  H   UNL     1      -6.660   0.041  -0.497  0.00  0.00    +0.000 HD
ENDBRANCH  29  30
ENDBRANCH  28  29
ENDBRANCH   7  28
TORSDOF 5
