REMARK  Name = 31307
REMARK  8 active torsions:
REMARK  status: ('A' for Active; 'I' for Inactive)
REMARK    1  A    between atoms: O_2  and  C_12
REMARK    2  A    between atoms: O_3  and  C_15
REMARK    3  A    between atoms: O_4  and  C_16
REMARK    4  A    between atoms: O_6  and  C_26
REMARK    5  A    between atoms: C_8  and  C_19
REMARK    6  A    between atoms: C_12  and  C_22
REMARK    7  A    between atoms: C_17  and  C_23
REMARK    8  A    between atoms: C_22  and  C_26
REMARK                            x       y       z     vdW  Elec       q    Type
REMARK                         _______ _______ _______ _____ _____    ______ ____
ROOT
ATOM      1  F   UNL     1      -1.337   0.096  -1.274  0.00  0.00    +0.000 F 
ATOM      2  O   UNL     1      -6.194   0.142  -1.632  0.00  0.00    +0.000 OA
ATOM      3  C   UNL     1       1.812   0.144   0.305  0.00  0.00    +0.000 C 
ATOM      4  C   UNL     1       0.901  -1.072   0.022  0.00  0.00    +0.000 C 
ATOM      5  C   UNL     1      -0.491  -0.950   0.659  0.00  0.00    +0.000 C 
ATOM      6  C   UNL     1      -1.208   0.324   0.089  0.00  0.00    +0.000 C 
ATOM      7  C   UNL     1       3.107  -0.347  -0.400  0.00  0.00    +0.000 C 
ATOM      8  C   UNL     1       1.131   1.380  -0.317  0.00  0.00    +0.000 C 
ATOM      9  C   UNL     1       1.773  -2.279   0.378  0.00  0.00    +0.000 C 
ATOM     10  C   UNL     1      -0.316   1.599   0.180  0.00  0.00    +0.000 C 
ATOM     11  C   UNL     1       3.211  -1.828   0.038  0.00  0.00    +0.000 C 
ATOM     12  C   UNL     1      -2.684   0.461   0.636  0.00  0.00    +0.000 C 
ATOM     13  C   UNL     1      -1.317  -2.221   0.387  0.00  0.00    +0.000 C 
ATOM     14  C   UNL     1       2.103   0.368   1.815  0.00  0.00    +0.000 C 
ATOM     15  C   UNL     1      -2.748  -2.103   0.899  0.00  0.00    +0.000 C 
ATOM     16  C   UNL     1      -3.403  -0.863   0.347  0.00  0.00    +0.000 C 
ATOM     17  C   UNL     1      -2.784   0.730   2.155  0.00  0.00    +0.000 C 
ATOM     18  C   UNL     1      -3.388   1.628  -0.042  0.00  0.00    +0.000 C 
ATOM     19  C   UNL     1      -4.525  -0.958  -0.382  0.00  0.00    +0.000 C 
ATOM     20  C   UNL     1      -4.505   1.539  -0.770  0.00  0.00    +0.000 C 
ATOM     21  C   UNL     1      -5.160   0.235  -0.979  0.00  0.00    +0.000 C 
ENDROOT
BRANCH   7  22
ATOM     22  O   UNL     1       2.986  -0.243  -1.815  0.00  0.00    +0.000 OA
ATOM     23  H   UNL     1       3.708  -0.757  -2.215  0.00  0.00    +0.000 HD
ENDBRANCH   7  22
BRANCH  10  24
ATOM     24  O   UNL     1      -0.297   2.202   1.463  0.00  0.00    +0.000 OA
ATOM     25  H   UNL     1      -0.994   2.879   1.482  0.00  0.00    +0.000 HD
ENDBRANCH  10  24
BRANCH  11  26
ATOM     26  O   UNL     1       3.776  -2.645  -0.976  0.00  0.00    +0.000 OA
ATOM     27  H   UNL     1       3.766  -3.562  -0.653  0.00  0.00    +0.000 HD
ENDBRANCH  11  26
BRANCH   7  29
ATOM     28  O   UNL     1       5.296  -0.067   0.499  0.00  0.00    +0.000 OA
ATOM     29  C   UNL     1       4.333   0.450  -0.066  0.00  0.00    +0.000 C 
BRANCH  29  30
ATOM     30  C   UNL     1       4.312   1.911  -0.462  0.00  0.00    +0.000 C 
BRANCH  30  31
ATOM     31  O   UNL     1       5.615   2.366  -0.759  0.00  0.00    +0.000 OA
ATOM     32  H   UNL     1       5.918   1.889  -1.551  0.00  0.00    +0.000 HD
ENDBRANCH  30  31
ENDBRANCH  29  30
ENDBRANCH   7  29
TORSDOF 6
