REMARK  Name = 7092657
REMARK  4 active torsions:
REMARK  status: ('A' for Active; 'I' for Inactive)
REMARK    1  A    between atoms: O_1  and  C_8
REMARK    2  A    between atoms: C_3  and  C_16
REMARK    3  A    between atoms: C_7  and  C_17
REMARK    4  A    between atoms: C_8  and  C_18
REMARK                            x       y       z     vdW  Elec       q    Type
REMARK                         _______ _______ _______ _____ _____    ______ ____
ROOT
ATOM      1  O   UNL     1       5.933   0.137   0.687  0.00  0.00    +0.000 OA
ATOM      2  C   UNL     1      -2.612   0.501  -0.228  0.00  0.00    +0.000 C 
ATOM      3  C   UNL     1      -1.843  -0.739   0.276  0.00  0.00    +0.000 C 
ATOM      4  C   UNL     1      -0.416  -0.832  -0.283  0.00  0.00    +0.000 C 
ATOM      5  C   UNL     1       0.381   0.447   0.145  0.00  0.00    +0.000 C 
ATOM      6  C   UNL     1       1.875   0.393  -0.354  0.00  0.00    +0.000 C 
ATOM      7  C   UNL     1      -4.016   0.245   0.405  0.00  0.00    +0.000 C 
ATOM      8  C   UNL     1      -1.850   1.748   0.247  0.00  0.00    +0.000 C 
ATOM      9  C   UNL     1      -0.386   1.745  -0.233  0.00  0.00    +0.000 C 
ATOM     10  C   UNL     1      -2.808  -1.890   0.007  0.00  0.00    +0.000 C 
ATOM     11  C   UNL     1       0.282  -2.116   0.186  0.00  0.00    +0.000 C 
ATOM     12  C   UNL     1       2.498  -0.928   0.201  0.00  0.00    +0.000 C 
ATOM     13  C   UNL     1      -4.206  -1.286   0.236  0.00  0.00    +0.000 C 
ATOM     14  C   UNL     1       1.741  -2.178  -0.254  0.00  0.00    +0.000 C 
ATOM     15  C   UNL     1      -2.748   0.559  -1.778  0.00  0.00    +0.000 C 
ATOM     16  C   UNL     1       1.955   0.483  -1.897  0.00  0.00    +0.000 C 
ATOM     17  C   UNL     1      -4.163   0.643   1.879  0.00  0.00    +0.000 C 
ATOM     18  C   UNL     1       2.710   1.548   0.186  0.00  0.00    +0.000 C 
ATOM     19  C   UNL     1       3.995  -1.039  -0.095  0.00  0.00    +0.000 C 
ATOM     20  C   UNL     1       3.995   1.457   0.552  0.00  0.00    +0.000 C 
ATOM     21  C   UNL     1       4.733   0.177   0.420  0.00  0.00    +0.000 C 
ENDROOT
BRANCH   7  22
ATOM     22  O   UNL     1      -5.049   0.923  -0.306  0.00  0.00    +0.000 OA
ATOM     23  H   UNL     1      -5.904   0.620   0.044  0.00  0.00    +0.000 HD
ENDBRANCH   7  22
TORSDOF 1
