REMARK  Name = 
REMARK  33 active torsions:
REMARK  status: ('A' for Active; 'I' for Inactive)
REMARK    1  A    between atoms: C_1  and  C_2
REMARK    2  A    between atoms: C_10  and  C_11
REMARK    3  A    between atoms: C_14  and  C_15
REMARK    4  A    between atoms: C_19  and  C_20
REMARK    5  A    between atoms: C_19  and  C_21
REMARK    6  A    between atoms: C_21  and  C_22
REMARK    7  A    between atoms: C_22  and  C_23
REMARK    8  A    between atoms: C_23  and  O_25
REMARK    9  A    between atoms: C_26  and  C_27
REMARK   10  A    between atoms: C_27  and  C_28
REMARK   11  A    between atoms: C_28  and  O_30
REMARK   12  A    between atoms: C_31  and  C_32
REMARK   13  A    between atoms: C_31  and  C_33
REMARK   14  A    between atoms: C_33  and  C_34
REMARK   15  A    between atoms: C_34  and  O_36
REMARK   16  A    between atoms: C_37  and  C_38
REMARK   17  A    between atoms: C_38  and  C_39
REMARK   18  A    between atoms: C_39  and  C_40
REMARK   19  A    between atoms: C_40  and  O_42
REMARK   20  A    between atoms: C_43  and  C_44
REMARK   21  A    between atoms: C_43  and  C_45
REMARK   22  A    between atoms: C_45  and  C_46
REMARK   23  A    between atoms: C_46  and  O_48
REMARK   24  A    between atoms: C_49  and  C_50
REMARK   25  A    between atoms: C_50  and  C_51
REMARK   26  A    between atoms: C_51  and  C_52
REMARK   27  A    between atoms: C_52  and  O_54
REMARK   28  A    between atoms: C_55  and  C_56
REMARK   29  A    between atoms: C_55  and  C_57
REMARK   30  A    between atoms: C_58  and  C_59
REMARK   31  A    between atoms: C_59  and  C_60
REMARK   32  A    between atoms: C_60  and  C_61
REMARK   33  A    between atoms: C_61  and  O_63
REMARK                            x       y       z     vdW  Elec       q    Type
REMARK                         _______ _______ _______ _____ _____    ______ ____
ROOT
ATOM      1  C   UNL     1      -4.105  -0.086  -1.042  0.00  0.00    +0.000 C 
ATOM      2  C   UNL     1      -3.060  -0.208  -0.345  0.00  0.00    +0.000 C 
ATOM      3  C   UNL     1      -2.615  -1.379   0.116  0.00  0.00    +0.000 C 
ATOM      4  N   UNL     1      -1.335  -1.696   0.479  0.00  0.00    +0.000 NA
ATOM      5  C   UNL     1      -1.249  -2.944   0.684  0.00  0.00    +0.000 C 
ATOM      6  C   UNL     1      -0.034  -3.400   1.379  0.00  0.00    +0.000 C 
ATOM      7  C   UNL     1       1.093  -3.036   0.845  0.00  0.00    +0.000 C 
ATOM      8  N   UNL     1       1.204  -1.738   0.306  0.00  0.00    +0.000 NA
ATOM      9  C   UNL     1       2.433  -1.601  -0.105  0.00  0.00    +0.000 C 
ATOM     10  C   UNL     1       3.151  -0.318  -0.119  0.00  0.00    +0.000 C 
ATOM     11  C   UNL     1       4.415  -0.134  -0.903  0.00  0.00    +0.000 C 
ATOM     12  C   UNL     1       2.435   0.733  -0.056  0.00  0.00    +0.000 C 
ATOM     13  N   UNL     1       1.083   0.663   0.160  0.00  0.00    +0.000 N 
ATOM     14  C   UNL     1       0.410   1.716  -0.541  0.00  0.00    +0.000 C 
ATOM     15  C   UNL     1      -0.451   1.307  -1.655  0.00  0.00    +0.000 C 
ATOM     16  C   UNL     1      -0.475   2.156   0.741  0.00  0.00    +0.000 C 
ATOM     17  N   UNL     1      -1.286   0.828   0.730  0.00  0.00    +0.000 NA
ATOM     18  C   UNL     1      -2.378   0.956   0.202  0.00  0.00    +0.000 C 
ATOM     19  C   UNL     1      -2.876   2.317   0.391  0.00  0.00    +0.000 C 
ATOM     20  C   UNL     1      -3.084   2.599   1.793  0.00  0.00    +0.000 C 
ATOM     21  C   UNL     1      -1.562   3.033  -0.217  0.00  0.00    +0.000 C 
ATOM     22  C   UNL     1       1.480   2.600  -0.925  0.00  0.00    +0.000 C 
ATOM     23  C   UNL     1       1.926   2.027  -2.266  0.00  0.00    +0.000 C 
ATOM     24  C   UNL     1       2.677   2.294   0.144  0.00  0.00    +0.000 C 
ATOM     25  C   UNL     1       3.060  -2.946  -0.281  0.00  0.00    +0.000 C 
ATOM     26  C   UNL     1       2.302  -3.619  -1.348  0.00  0.00    +0.000 C 
ATOM     27  C   UNL     1       2.583  -3.495   1.177  0.00  0.00    +0.000 C 
ATOM     28  C   UNL     1      -2.444  -3.721   0.550  0.00  0.00    +0.000 C 
ATOM     29  C   UNL     1      -2.921  -4.201   1.905  0.00  0.00    +0.000 C 
ATOM     30  C   UNL     1      -2.421  -4.887  -0.367  0.00  0.00    +0.000 C 
ATOM     31  C   UNL     1      -3.559  -2.662   0.033  0.00  0.00    +0.000 C 
ATOM     32  H   UNL     1       0.638  -0.014   0.718  0.00  0.00    +0.000 HD
ENDROOT
BRANCH  19  33
ATOM     33  C   UNL     1      -3.893   2.781  -0.586  0.00  0.00    +0.000 C 
BRANCH  33  34
ATOM     34  C   UNL     1      -5.314   2.687  -0.211  0.00  0.00    +0.000 C 
BRANCH  34  35
ATOM     35  C   UNL     1      -5.669   3.115   1.145  0.00  0.00    +0.000 C 
ATOM     36  O   UNL     1      -5.936   4.342   1.319  0.00  0.00    +0.000 OA
BRANCH  35  37
ATOM     37  O   UNL     1      -6.424   2.202   1.888  0.00  0.00    +0.000 OA
ATOM     38  H   UNL     1      -6.268   1.282   1.799  0.00  0.00    +0.000 HD
ENDBRANCH  35  37
ENDBRANCH  34  35
ENDBRANCH  33  34
ENDBRANCH  19  33
BRANCH  21  39
ATOM     39  C   UNL     1      -1.645   4.327   0.742  0.00  0.00    +0.000 C 
BRANCH  39  40
ATOM     40  C   UNL     1      -0.948   4.186   1.991  0.00  0.00    +0.000 C 
ATOM     41  O   UNL     1      -1.433   4.850   2.963  0.00  0.00    +0.000 OA
BRANCH  40  42
ATOM     42  O   UNL     1       0.432   4.025   2.172  0.00  0.00    +0.000 OA
ATOM     43  H   UNL     1       0.937   3.555   1.537  0.00  0.00    +0.000 HD
ENDBRANCH  40  42
ENDBRANCH  39  40
ENDBRANCH  21  39
BRANCH  22  44
ATOM     44  C   UNL     1       1.290   4.039  -1.081  0.00  0.00    +0.000 C 
BRANCH  44  45
ATOM     45  C   UNL     1       1.072   4.412  -2.516  0.00  0.00    +0.000 C 
ATOM     46  O   UNL     1       0.256   3.829  -3.263  0.00  0.00    +0.000 OA
BRANCH  45  47
ATOM     47  O   UNL     1       1.579   5.598  -3.062  0.00  0.00    +0.000 OA
ATOM     48  H   UNL     1       2.198   6.109  -2.580  0.00  0.00    +0.000 HD
ENDBRANCH  45  47
ENDBRANCH  44  45
ENDBRANCH  22  44
BRANCH  24  49
ATOM     49  C   UNL     1       3.914   2.339  -0.921  0.00  0.00    +0.000 C 
BRANCH  49  50
ATOM     50  C   UNL     1       4.059   3.651  -1.498  0.00  0.00    +0.000 C 
BRANCH  50  51
ATOM     51  C   UNL     1       4.492   4.779  -0.682  0.00  0.00    +0.000 C 
ATOM     52  O   UNL     1       5.353   4.692   0.246  0.00  0.00    +0.000 OA
BRANCH  51  53
ATOM     53  O   UNL     1       4.455   6.013  -1.349  0.00  0.00    +0.000 OA
ATOM     54  H   UNL     1       3.843   6.150  -2.046  0.00  0.00    +0.000 HD
ENDBRANCH  51  53
ENDBRANCH  50  51
ENDBRANCH  49  50
ENDBRANCH  24  49
BRANCH  25  55
ATOM     55  C   UNL     1       4.520  -2.948  -0.340  0.00  0.00    +0.000 C 
BRANCH  55  56
ATOM     56  C   UNL     1       5.225  -3.034   0.949  0.00  0.00    +0.000 C 
ATOM     57  O   UNL     1       6.252  -3.777   1.008  0.00  0.00    +0.000 OA
BRANCH  56  58
ATOM     58  O   UNL     1       4.980  -2.202   2.025  0.00  0.00    +0.000 OA
ATOM     59  H   UNL     1       4.232  -1.638   2.021  0.00  0.00    +0.000 HD
ENDBRANCH  56  58
ENDBRANCH  55  56
ENDBRANCH  25  55
BRANCH  27  60
ATOM     60  C   UNL     1       2.356  -5.025   0.646  0.00  0.00    +0.000 C 
BRANCH  60  61
ATOM     61  C   UNL     1       2.226  -5.902   1.842  0.00  0.00    +0.000 C 
BRANCH  61  62
ATOM     62  C   UNL     1       2.194  -5.191   3.131  0.00  0.00    +0.000 C 
ATOM     63  O   UNL     1       3.316  -4.818   3.590  0.00  0.00    +0.000 OA
BRANCH  62  64
ATOM     64  O   UNL     1       1.304  -5.678   4.094  0.00  0.00    +0.000 OA
ATOM     65  H   UNL     1       0.453  -5.975   3.839  0.00  0.00    +0.000 HD
ENDBRANCH  62  64
ENDBRANCH  61  62
ENDBRANCH  60  61
ENDBRANCH  27  60
BRANCH  31  66
ATOM     66  C   UNL     1      -3.211  -2.885  -1.554  0.00  0.00    +0.000 C 
BRANCH  66  67
ATOM     67  C   UNL     1      -4.610  -3.115  -2.128  0.00  0.00    +0.000 C 
BRANCH  67  68
ATOM     68  C   UNL     1      -4.673  -2.832  -3.574  0.00  0.00    +0.000 C 
ATOM     69  O   UNL     1      -5.233  -1.755  -3.941  0.00  0.00    +0.000 OA
BRANCH  68  70
ATOM     70  O   UNL     1      -4.686  -3.865  -4.513  0.00  0.00    +0.000 OA
ATOM     71  H   UNL     1      -4.289  -4.689  -4.307  0.00  0.00    +0.000 HD
ENDBRANCH  68  70
ENDBRANCH  67  68
ENDBRANCH  66  67
ENDBRANCH  31  66
TORSDOF 25
