REMARK  Name = 9577221
REMARK  9 active torsions:
REMARK  status: ('A' for Active; 'I' for Inactive)
REMARK    1  A    between atoms: O_1  and  C_8
REMARK    2  A    between atoms: O_1  and  C_23
REMARK    3  A    between atoms: O_2  and  C_17
REMARK    4  A    between atoms: O_2  and  C_29
REMARK    5  A    between atoms: O_4  and  N_5
REMARK    6  A    between atoms: C_6  and  C_15
REMARK    7  A    between atoms: C_8  and  C_17
REMARK    8  A    between atoms: C_13  and  C_20
REMARK    9  A    between atoms: C_32  and  C_33
REMARK                            x       y       z     vdW  Elec       q    Type
REMARK                         _______ _______ _______ _____ _____    ______ ____
ROOT
ATOM      1  O   UNL     1      -1.158   6.373   1.135  0.00  0.00    +0.000 OA
ATOM      2  C   UNL     1       1.892  -1.165  -0.379  0.00  0.00    +0.000 C 
ATOM      3  C   UNL     1       2.165   0.184  -1.072  0.00  0.00    +0.000 C 
ATOM      4  C   UNL     1       3.346  -1.734  -0.277  0.00  0.00    +0.000 C 
ATOM      5  C   UNL     1       0.888   0.955  -1.424  0.00  0.00    +0.000 C 
ATOM      6  C   UNL     1       1.182  -0.858   0.950  0.00  0.00    +0.000 C 
ATOM      7  C   UNL     1       3.119  -0.187  -2.205  0.00  0.00    +0.000 C 
ATOM      8  C   UNL     1       3.981  -1.326  -1.633  0.00  0.00    +0.000 C 
ATOM      9  C   UNL     1      -0.103   0.019   0.815  0.00  0.00    +0.000 C 
ATOM     10  C   UNL     1       0.055   1.214  -0.150  0.00  0.00    +0.000 C 
ATOM     11  C   UNL     1       1.026  -2.141  -1.221  0.00  0.00    +0.000 C 
ATOM     12  C   UNL     1       1.242   2.239  -2.196  0.00  0.00    +0.000 C 
ATOM     13  C   UNL     1      -0.515   2.427   0.081  0.00  0.00    +0.000 C 
ATOM     14  C   UNL     1       0.043   3.170  -2.269  0.00  0.00    +0.000 C 
ATOM     15  C   UNL     1      -0.383   3.535  -0.874  0.00  0.00    +0.000 C 
ATOM     16  C   UNL     1      -1.401   2.773   1.261  0.00  0.00    +0.000 C 
ATOM     17  C   UNL     1      -0.615   4.816  -0.544  0.00  0.00    +0.000 C 
ATOM     18  C   UNL     1      -1.000   4.102   1.889  0.00  0.00    +0.000 C 
ATOM     19  C   UNL     1      -0.965   5.194   0.848  0.00  0.00    +0.000 C 
ENDROOT
BRANCH   9  20
ATOM     20  C   UNL     1      -1.385  -0.797   0.634  0.00  0.00    +0.000 A 
ATOM     21  C   UNL     1      -1.658  -1.854   1.497  0.00  0.00    +0.000 A 
ATOM     22  C   UNL     1      -2.270  -0.477  -0.392  0.00  0.00    +0.000 A 
ATOM     23  C   UNL     1      -2.827  -2.597   1.334  0.00  0.00    +0.000 A 
ATOM     24  C   UNL     1      -3.439  -1.220  -0.555  0.00  0.00    +0.000 A 
ATOM     25  C   UNL     1      -3.717  -2.281   0.308  0.00  0.00    +0.000 A 
BRANCH  25  27
ATOM     26  N   UNL     1      -5.805  -2.810  -0.802  0.00  0.00    +0.000 NA
ATOM     27  C   UNL     1      -4.935  -3.057   0.136  0.00  0.00    +0.000 C 
BRANCH  26  28
ATOM     28  O   UNL     1      -6.859  -3.722  -0.705  0.00  0.00    +0.000 OA
ATOM     29  H   UNL     1      -7.429  -3.441  -1.441  0.00  0.00    +0.000 HD
ENDBRANCH  26  28
ENDBRANCH  25  27
ENDBRANCH   9  20
BRANCH   4  30
ATOM     30  O   UNL     1       3.350  -3.157  -0.171  0.00  0.00    +0.000 OA
ATOM     31  C   UNL     1       4.670  -3.675  -0.231  0.00  0.00    +0.000 C 
ENDBRANCH   4  30
BRANCH   4  32
ATOM     32  C   UNL     1       4.195  -1.208   0.887  0.00  0.00    +0.000 C 
BRANCH  32  33
ATOM     33  O   UNL     1       3.574  -1.593   2.096  0.00  0.00    +0.000 OA
ATOM     34  C   UNL     1       4.303  -1.142   3.233  0.00  0.00    +0.000 C 
ENDBRANCH  32  33
ENDBRANCH   4  32
TORSDOF 6
