REMARK  Name = 443955
REMARK  6 active torsions:
REMARK  status: ('A' for Active; 'I' for Inactive)
REMARK    1  A    between atoms: O_1  and  C_20
REMARK    2  A    between atoms: O_1  and  C_25
REMARK    3  A    between atoms: C_5  and  C_11
REMARK    4  A    between atoms: C_11  and  C_19
REMARK    5  A    between atoms: C_16  and  C_20
REMARK    6  A    between atoms: C_25  and  C_26
REMARK                            x       y       z     vdW  Elec       q    Type
REMARK                         _______ _______ _______ _____ _____    ______ ____
ROOT
ATOM      1  N   UNL     1       3.248  -0.385  -0.051  0.00  0.00    +0.000 NA
ATOM      2  N   UNL     1      -0.463  -0.238   0.317  0.00  0.00    +0.000 N 
ATOM      3  C   UNL     1       1.692   1.670  -0.043  0.00  0.00    +0.000 C 
ATOM      4  C   UNL     1       2.007   0.234   0.480  0.00  0.00    +0.000 C 
ATOM      5  C   UNL     1       1.916   1.763  -1.570  0.00  0.00    +0.000 C 
ATOM      6  C   UNL     1       0.837  -0.681   0.300  0.00  0.00    +0.000 A 
ATOM      7  C   UNL     1       3.368  -0.292  -1.510  0.00  0.00    +0.000 C 
ATOM      8  C   UNL     1       3.247   1.150  -1.996  0.00  0.00    +0.000 C 
ATOM      9  C   UNL     1       3.383  -1.789   0.419  0.00  0.00    +0.000 C 
ATOM     10  C   UNL     1       0.900  -2.039   0.154  0.00  0.00    +0.000 A 
ATOM     11  C   UNL     1       0.233   2.047   0.244  0.00  0.00    +0.000 C 
ATOM     12  C   UNL     1       2.210  -2.739   0.047  0.00  0.00    +0.000 C 
ATOM     13  C   UNL     1      -0.749   1.133   0.403  0.00  0.00    +0.000 C 
ATOM     14  C   UNL     1      -0.436  -2.500   0.103  0.00  0.00    +0.000 A 
ATOM     15  C   UNL     1      -1.278  -1.371   0.198  0.00  0.00    +0.000 A 
ATOM     16  C   UNL     1      -1.008  -3.783  -0.037  0.00  0.00    +0.000 A 
ATOM     17  C   UNL     1      -2.674  -1.519   0.115  0.00  0.00    +0.000 A 
ATOM     18  C   UNL     1      -2.396  -3.921  -0.090  0.00  0.00    +0.000 A 
ATOM     19  C   UNL     1      -3.215  -2.802  -0.020  0.00  0.00    +0.000 A 
ENDROOT
BRANCH  13  21
ATOM     20  O   UNL     1      -2.489   1.958   1.785  0.00  0.00    +0.000 OA
ATOM     21  C   UNL     1      -2.069   1.717   0.665  0.00  0.00    +0.000 C 
BRANCH  21  22
ATOM     22  O   UNL     1      -2.694   1.925  -0.520  0.00  0.00    +0.000 OA
BRANCH  22  23
ATOM     23  C   UNL     1      -4.003   2.496  -0.429  0.00  0.00    +0.000 C 
ATOM     24  C   UNL     1      -4.566   2.665  -1.825  0.00  0.00    +0.000 C 
ENDBRANCH  22  23
ENDBRANCH  21  22
ENDBRANCH  13  21
BRANCH   3  25
ATOM     25  C   UNL     1       2.608   2.678   0.683  0.00  0.00    +0.000 C 
ATOM     26  C   UNL     1       2.390   2.621   2.177  0.00  0.00    +0.000 C 
ENDBRANCH   3  25
TORSDOF 4
