REMARK  Name = 11273
REMARK  3 active torsions:
REMARK  status: ('A' for Active; 'I' for Inactive)
REMARK    1  A    between atoms: O_2  and  C_21
REMARK    2  A    between atoms: C_7  and  C_18
REMARK    3  A    between atoms: C_8  and  C_19
REMARK                            x       y       z     vdW  Elec       q    Type
REMARK                         _______ _______ _______ _____ _____    ______ ____
ROOT
ATOM      1  O   UNL     1      -5.164   0.883   0.971  0.00  0.00    +0.000 OA
ATOM      2  O   UNL     1       5.351   0.270   1.030  0.00  0.00    +0.000 OA
ATOM      3  C   UNL     1      -0.797  -0.700  -0.417  0.00  0.00    +0.000 C 
ATOM      4  C   UNL     1      -0.013   0.534   0.130  0.00  0.00    +0.000 C 
ATOM      5  C   UNL     1      -2.174  -0.733   0.252  0.00  0.00    +0.000 C 
ATOM      6  C   UNL     1      -2.997   0.529  -0.076  0.00  0.00    +0.000 C 
ATOM      7  C   UNL     1       1.450   0.641  -0.455  0.00  0.00    +0.000 C 
ATOM      8  C   UNL     1      -0.842   1.845   0.014  0.00  0.00    +0.000 C 
ATOM      9  C   UNL     1      -2.282   1.724   0.547  0.00  0.00    +0.000 C 
ATOM     10  C   UNL     1      -0.006  -1.983  -0.150  0.00  0.00    +0.000 C 
ATOM     11  C   UNL     1      -3.131  -1.886  -0.030  0.00  0.00    +0.000 C 
ATOM     12  C   UNL     1       2.177  -0.716  -0.294  0.00  0.00    +0.000 C 
ATOM     13  C   UNL     1       1.378  -1.911  -0.784  0.00  0.00    +0.000 C 
ATOM     14  C   UNL     1      -4.307   0.110   0.565  0.00  0.00    +0.000 C 
ATOM     15  C   UNL     1      -4.440  -1.403   0.612  0.00  0.00    +0.000 C 
ATOM     16  C   UNL     1       2.195   1.755   0.331  0.00  0.00    +0.000 C 
ATOM     17  C   UNL     1      -3.295   0.771  -1.567  0.00  0.00    +0.000 C 
ATOM     18  C   UNL     1       1.443   1.017  -1.956  0.00  0.00    +0.000 C 
ATOM     19  C   UNL     1       3.696   1.726   0.129  0.00  0.00    +0.000 C 
ATOM     20  C   UNL     1       3.429  -0.833   0.207  0.00  0.00    +0.000 C 
ATOM     21  C   UNL     1       4.236   0.381   0.522  0.00  0.00    +0.000 C 
ENDROOT
BRANCH  20  22
ATOM     22  O   UNL     1       4.094  -2.022   0.421  0.00  0.00    +0.000 OA
ATOM     23  H   UNL     1       4.981  -1.815   0.762  0.00  0.00    +0.000 HD
ENDBRANCH  20  22
TORSDOF 1
