REMARK  Name = 162955
REMARK  7 active torsions:
REMARK  status: ('A' for Active; 'I' for Inactive)
REMARK    1  A    between atoms: S_1  and  C_26
REMARK    2  A    between atoms: O_2  and  C_10
REMARK    3  A    between atoms: O_3  and  C_13
REMARK    4  A    between atoms: C_6  and  C_17
REMARK    5  A    between atoms: C_10  and  C_22
REMARK    6  A    between atoms: C_12  and  C_21
REMARK    7  A    between atoms: C_22  and  C_26
REMARK                            x       y       z     vdW  Elec       q    Type
REMARK                         _______ _______ _______ _____ _____    ______ ____
ROOT
ATOM      1  O   UNL     1      -6.431  -0.002  -1.359  0.00  0.00    +0.000 OA
ATOM      2  C   UNL     1       1.880   0.147   0.154  0.00  0.00    +0.000 C 
ATOM      3  C   UNL     1       0.981  -1.087  -0.074  0.00  0.00    +0.000 C 
ATOM      4  C   UNL     1      -0.422  -0.947   0.534  0.00  0.00    +0.000 C 
ATOM      5  C   UNL     1      -1.130   0.288  -0.112  0.00  0.00    +0.000 C 
ATOM      6  C   UNL     1       3.189  -0.363  -0.510  0.00  0.00    +0.000 C 
ATOM      7  C   UNL     1       1.198   1.349  -0.531  0.00  0.00    +0.000 C 
ATOM      8  C   UNL     1      -2.629   0.461   0.368  0.00  0.00    +0.000 C 
ATOM      9  C   UNL     1      -0.252   1.577  -0.051  0.00  0.00    +0.000 C 
ATOM     10  C   UNL     1       1.862  -2.254   0.366  0.00  0.00    +0.000 C 
ATOM     11  C   UNL     1       3.282  -1.844  -0.076  0.00  0.00    +0.000 C 
ATOM     12  C   UNL     1      -1.242  -2.222   0.286  0.00  0.00    +0.000 C 
ATOM     13  C   UNL     1       2.142   0.445   1.656  0.00  0.00    +0.000 C 
ATOM     14  C   UNL     1      -3.362  -0.880   0.223  0.00  0.00    +0.000 C 
ATOM     15  C   UNL     1      -2.667  -2.088   0.801  0.00  0.00    +0.000 C 
ATOM     16  C   UNL     1      -3.304   1.536  -0.533  0.00  0.00    +0.000 C 
ATOM     17  C   UNL     1      -2.760   0.892   1.847  0.00  0.00    +0.000 C 
ATOM     18  C   UNL     1      -4.822   1.527  -0.459  0.00  0.00    +0.000 C 
ATOM     19  C   UNL     1      -4.572  -1.020  -0.344  0.00  0.00    +0.000 C 
ATOM     20  C   UNL     1      -5.351   0.157  -0.794  0.00  0.00    +0.000 C 
ENDROOT
BRANCH   6  21
ATOM     21  O   UNL     1       3.107  -0.294  -1.931  0.00  0.00    +0.000 OA
ATOM     22  H   UNL     1       3.863  -0.775  -2.308  0.00  0.00    +0.000 HD
ENDBRANCH   6  21
BRANCH   9  23
ATOM     23  O   UNL     1      -0.234   2.131   1.257  0.00  0.00    +0.000 OA
ATOM     24  H   UNL     1       0.281   2.955   1.224  0.00  0.00    +0.000 HD
ENDBRANCH   9  23
BRANCH   6  26
ATOM     25  O   UNL     1       4.304   1.645   0.086  0.00  0.00    +0.000 OA
ATOM     26  C   UNL     1       4.403   0.442  -0.155  0.00  0.00    +0.000 C 
BRANCH  26  27
ATOM     27  C   UNL     1       5.710  -0.323  -0.117  0.00  0.00    +0.000 C 
BRANCH  27  28
ATOM     28  S   UNL     1       7.121   0.727  -0.533  0.00  0.00    +0.000 S 
ATOM     29  H   UNL     1       6.984   1.583   0.489  0.00  0.00    +0.000 HD
ENDBRANCH  27  28
ENDBRANCH  26  27
ENDBRANCH   6  26
TORSDOF 5
