REMARK  Name = 9906614
REMARK  6 active torsions:
REMARK  status: ('A' for Active; 'I' for Inactive)
REMARK    1  A    between atoms: O_1  and  C_9
REMARK    2  A    between atoms: C_4  and  C_14
REMARK    3  A    between atoms: C_9  and  C_20
REMARK    4  A    between atoms: C_10  and  C_19
REMARK    5  A    between atoms: C_18  and  C_25
REMARK    6  A    between atoms: C_20  and  C_26
REMARK                            x       y       z     vdW  Elec       q    Type
REMARK                         _______ _______ _______ _____ _____    ______ ____
ROOT
ATOM      1  O   UNL     1       6.380   0.486   0.844  0.00  0.00    +0.000 OA
ATOM      2  C   UNL     1      -2.099   0.506  -0.196  0.00  0.00    +0.000 C 
ATOM      3  C   UNL     1      -1.230  -0.744   0.125  0.00  0.00    +0.000 C 
ATOM      4  C   UNL     1       0.164  -0.671  -0.517  0.00  0.00    +0.000 C 
ATOM      5  C   UNL     1       0.895   0.575   0.061  0.00  0.00    +0.000 C 
ATOM      6  C   UNL     1      -1.373   1.738   0.374  0.00  0.00    +0.000 C 
ATOM      7  C   UNL     1      -3.431   0.096   0.499  0.00  0.00    +0.000 C 
ATOM      8  C   UNL     1       2.388   0.635  -0.418  0.00  0.00    +0.000 C 
ATOM      9  C   UNL     1       0.067   1.865  -0.162  0.00  0.00    +0.000 C 
ATOM     10  C   UNL     1      -2.148  -1.916  -0.229  0.00  0.00    +0.000 C 
ATOM     11  C   UNL     1      -3.506  -1.394   0.200  0.00  0.00    +0.000 C 
ATOM     12  C   UNL     1      -2.327   0.720  -1.722  0.00  0.00    +0.000 C 
ATOM     13  C   UNL     1       0.988  -1.911  -0.305  0.00  0.00    +0.000 C 
ATOM     14  C   UNL     1       3.099  -0.669   0.009  0.00  0.00    +0.000 C 
ATOM     15  C   UNL     1       3.082   1.853   0.252  0.00  0.00    +0.000 C 
ATOM     16  C   UNL     1       2.312  -1.917  -0.055  0.00  0.00    +0.000 C 
ATOM     17  C   UNL     1       2.494   0.779  -1.956  0.00  0.00    +0.000 C 
ATOM     18  C   UNL     1       4.592   1.868   0.071  0.00  0.00    +0.000 C 
ATOM     19  C   UNL     1       4.377  -0.670   0.435  0.00  0.00    +0.000 C 
ATOM     20  C   UNL     1      -4.589  -2.175   0.307  0.00  0.00    +0.000 C 
ATOM     21  C   UNL     1       5.203   0.561   0.495  0.00  0.00    +0.000 C 
ATOM     22  C   UNL     1       3.010  -3.242   0.126  0.00  0.00    +0.000 C 
ENDROOT
BRANCH   7  24
ATOM     23  O   UNL     1      -5.287   0.469  -0.963  0.00  0.00    +0.000 OA
ATOM     24  C   UNL     1      -4.646   0.843   0.017  0.00  0.00    +0.000 C 
ATOM     25  C   UNL     1      -5.040   2.069   0.796  0.00  0.00    +0.000 C 
ENDBRANCH   7  24
BRANCH   7  26
ATOM     26  O   UNL     1      -3.375   0.247   1.911  0.00  0.00    +0.000 OA
ATOM     27  H   UNL     1      -3.153   1.165   2.133  0.00  0.00    +0.000 HD
ENDBRANCH   7  26
TORSDOF 2
