REMARK  Name = 
REMARK  18 active torsions:
REMARK  status: ('A' for Active; 'I' for Inactive)
REMARK    1  A    between atoms: C_1  and  C_2
REMARK    2  A    between atoms: C_2  and  C_5
REMARK    3  A    between atoms: C_3  and  O_7
REMARK    4  A    between atoms: C_4  and  O_9
REMARK    5  A    between atoms: O_7  and  C_13
REMARK    6  A    between atoms: C_8  and  C_14
REMARK    7  A    between atoms: C_11  and  O_18
REMARK    8  A    between atoms: C_12  and  O_19
REMARK    9  A    between atoms: C_14  and  C_20
REMARK   10  A    between atoms: C_15  and  C_23
REMARK   11  A    between atoms: C_17  and  C_24
REMARK   12  A    between atoms: C_17  and  C_25
REMARK   13  A    between atoms: C_20  and  C_26
REMARK   14  A    between atoms: C_22  and  O_27
REMARK   15  A    between atoms: C_23  and  C_28
REMARK   16  A    between atoms: C_26  and  C_30
REMARK   17  A    between atoms: C_28  and  C_31
REMARK   18  A    between atoms: C_31  and  C_32
REMARK                            x       y       z     vdW  Elec       q    Type
REMARK                         _______ _______ _______ _____ _____    ______ ____
ROOT
ATOM      1  C   UNL     1      -1.047   0.961   0.000  0.00  0.00    +0.000 C 
ENDROOT
BRANCH   1   2
ATOM      2  C   UNL     1      -1.047  -0.531   0.000  0.00  0.00    +0.000 C 
ATOM      3  C   UNL     1      -1.762  -0.954   0.000  0.00  0.00    +0.000 C 
ATOM      4  C   UNL     1      -0.340  -0.954   0.000  0.00  0.00    +0.000 C 
ATOM      5  C   UNL     1      -1.762  -1.787   0.000  0.00  0.00    +0.000 C 
ATOM      6  O   UNL     1      -2.520  -0.531   0.000  0.00  0.00    +0.000 OA
ATOM      7  C   UNL     1      -0.340  -1.787   0.000  0.00  0.00    +0.000 C 
ATOM      8  C   UNL     1      -1.047  -2.200   0.000  0.00  0.00    +0.000 C 
ATOM      9  C   UNL     1       0.005  -2.474   0.000  0.00  0.00    +0.000 C 
ATOM     10  C   UNL     1       0.486  -1.774   0.000  0.00  0.00    +0.000 C 
BRANCH   4  11
ATOM     11  O   UNL     1       0.377  -0.531   0.000  0.00  0.00    +0.000 OA
ATOM     12  H   UNL     1       1.193  -0.992   0.000  0.00  0.00    +0.000 HD
ENDBRANCH   4  11
BRANCH   5  13
ATOM     13  C   UNL     1      -2.547  -2.200   0.000  0.00  0.00    +0.000 C 
ATOM     14  O   UNL     1      -2.547  -3.046   0.000  0.00  0.00    +0.000 OA
BRANCH  13  15
ATOM     15  C   UNL     1      -3.254  -1.787   0.000  0.00  0.00    +0.000 C 
BRANCH  15  16
ATOM     16  C   UNL     1      -3.972  -2.180   0.000  0.00  0.00    +0.000 C 
ATOM     17  C   UNL     1      -4.666  -1.740   0.000  0.00  0.00    +0.000 C 
ENDBRANCH  15  16
ENDBRANCH  13  15
ENDBRANCH   5  13
BRANCH   8  18
ATOM     18  O   UNL     1      -1.047  -3.046   0.000  0.00  0.00    +0.000 OA
ATOM     19  H   UNL     1      -1.859  -3.515   0.000  0.00  0.00    +0.000 HD
ENDBRANCH   8  18
ENDBRANCH   1   2
BRANCH   1  20
ATOM     20  C   UNL     1       0.347   1.774   0.000  0.00  0.00    +0.000 A 
ATOM     21  C   UNL     1       0.347   2.596   0.000  0.00  0.00    +0.000 A 
ATOM     22  C   UNL     1       1.051   1.367   0.000  0.00  0.00    +0.000 A 
ATOM     23  C   UNL     1       1.051   3.022   0.000  0.00  0.00    +0.000 A 
ATOM     24  C   UNL     1       1.762   1.774   0.000  0.00  0.00    +0.000 A 
ATOM     25  C   UNL     1       1.762   2.596   0.000  0.00  0.00    +0.000 A 
BRANCH  21  26
ATOM     26  O   UNL     1      -0.377   3.046   0.000  0.00  0.00    +0.000 OA
ATOM     27  C   UNL     1      -1.146   2.630   0.000  0.00  0.00    +0.000 C 
ENDBRANCH  21  26
BRANCH  22  28
ATOM     28  O   UNL     1       1.051   0.531   0.000  0.00  0.00    +0.000 OA
ATOM     29  H   UNL     1       0.240   0.063   0.000  0.00  0.00    +0.000 HD
ENDBRANCH  22  28
BRANCH  24  30
ATOM     30  C   UNL     1       2.520   1.367   0.000  0.00  0.00    +0.000 C 
ATOM     31  O   UNL     1       2.520   0.508   0.000  0.00  0.00    +0.000 OA
BRANCH  30  32
ATOM     32  C   UNL     1       3.244   1.774   0.000  0.00  0.00    +0.000 C 
BRANCH  32  33
ATOM     33  C   UNL     1       3.941   1.367   0.000  0.00  0.00    +0.000 C 
ATOM     34  C   UNL     1       4.666   1.760   0.000  0.00  0.00    +0.000 C 
ENDBRANCH  32  33
ENDBRANCH  30  32
ENDBRANCH  24  30
BRANCH  25  35
ATOM     35  O   UNL     1       2.520   3.046   0.000  0.00  0.00    +0.000 OA
ATOM     36  H   UNL     1       3.337   2.588   0.000  0.00  0.00    +0.000 HD
ENDBRANCH  25  35
ENDBRANCH   1  20
TORSDOF 13
