REMARK  Name = 5311101
REMARK  8 active torsions:
REMARK  status: ('A' for Active; 'I' for Inactive)
REMARK    1  A    between atoms: S_1  and  C_24
REMARK    2  A    between atoms: S_1  and  C_30
REMARK    3  A    between atoms: O_5  and  C_13
REMARK    4  A    between atoms: O_6  and  C_17
REMARK    5  A    between atoms: C_9  and  C_20
REMARK    6  A    between atoms: C_13  and  C_24
REMARK    7  A    between atoms: C_16  and  C_23
REMARK    8  A    between atoms: C_18  and  C_25
REMARK                            x       y       z     vdW  Elec       q    Type
REMARK                         _______ _______ _______ _____ _____    ______ ____
ROOT
ATOM      1  F   UNL     1      -1.399  -0.273   1.279  0.00  0.00    +0.000 F 
ATOM      2  F   UNL     1      -3.907   2.788  -0.500  0.00  0.00    +0.000 F 
ATOM      3  O   UNL     1      -6.201  -0.948   1.699  0.00  0.00    +0.000 OA
ATOM      4  C   UNL     1       1.719   0.127  -0.280  0.00  0.00    +0.000 C 
ATOM      5  C   UNL     1       0.646   1.199   0.005  0.00  0.00    +0.000 C 
ATOM      6  C   UNL     1      -0.715   0.900  -0.644  0.00  0.00    +0.000 C 
ATOM      7  C   UNL     1      -1.258  -0.461  -0.089  0.00  0.00    +0.000 C 
ATOM      8  C   UNL     1       2.921   0.771   0.476  0.00  0.00    +0.000 C 
ATOM      9  C   UNL     1       1.350   2.514  -0.325  0.00  0.00    +0.000 C 
ATOM     10  C   UNL     1       1.203  -1.212   0.289  0.00  0.00    +0.000 C 
ATOM     11  C   UNL     1       2.826   2.281   0.096  0.00  0.00    +0.000 C 
ATOM     12  C   UNL     1      -0.206  -1.605  -0.211  0.00  0.00    +0.000 C 
ATOM     13  C   UNL     1      -2.712  -0.787  -0.616  0.00  0.00    +0.000 C 
ATOM     14  C   UNL     1      -1.702   2.046  -0.363  0.00  0.00    +0.000 C 
ATOM     15  C   UNL     1       2.048  -0.024  -1.790  0.00  0.00    +0.000 C 
ATOM     16  C   UNL     1      -3.106   1.744  -0.868  0.00  0.00    +0.000 C 
ATOM     17  C   UNL     1      -3.596   0.431  -0.311  0.00  0.00    +0.000 C 
ATOM     18  C   UNL     1       3.270   3.248   1.190  0.00  0.00    +0.000 C 
ATOM     19  C   UNL     1      -2.780  -1.061  -2.136  0.00  0.00    +0.000 C 
ATOM     20  C   UNL     1      -3.244  -2.040   0.065  0.00  0.00    +0.000 C 
ATOM     21  C   UNL     1      -4.711   0.370   0.434  0.00  0.00    +0.000 C 
ATOM     22  C   UNL     1      -4.353  -2.103   0.809  0.00  0.00    +0.000 C 
ATOM     23  C   UNL     1      -5.173  -0.899   1.032  0.00  0.00    +0.000 C 
ENDROOT
BRANCH   8  24
ATOM     24  O   UNL     1       2.870   0.552   1.881  0.00  0.00    +0.000 OA
ATOM     25  H   UNL     1       2.954  -0.399   2.058  0.00  0.00    +0.000 HD
ENDBRANCH   8  24
BRANCH  12  26
ATOM     26  O   UNL     1      -0.117  -2.081  -1.546  0.00  0.00    +0.000 OA
ATOM     27  H   UNL     1      -0.582  -2.934  -1.586  0.00  0.00    +0.000 HD
ENDBRANCH  12  26
BRANCH   8  29
ATOM     28  O   UNL     1       5.148   0.835  -0.409  0.00  0.00    +0.000 OA
ATOM     29  C   UNL     1       4.253   0.186   0.119  0.00  0.00    +0.000 C 
BRANCH  29  30
ATOM     30  S   UNL     1       4.411  -1.521   0.531  0.00  0.00    +0.000 S 
BRANCH  30  32
ATOM     31  F   UNL     1       6.422  -3.135   0.221  0.00  0.00    +0.000 F 
ATOM     32  C   UNL     1       6.094  -1.841  -0.037  0.00  0.00    +0.000 C 
ENDBRANCH  30  32
ENDBRANCH  29  30
ENDBRANCH   8  29
TORSDOF 5
