REMARK  Name = 222284
REMARK  13 active torsions:
REMARK  status: ('A' for Active; 'I' for Inactive)
REMARK    1  A    between atoms: O_1  and  C_22
REMARK    2  A    between atoms: C_2  and  C_14
REMARK    3  A    between atoms: C_6  and  C_13
REMARK    4  A    between atoms: C_8  and  C_18
REMARK    5  A    between atoms: C_13  and  C_20
REMARK    6  A    between atoms: C_13  and  C_23
REMARK    7  A    between atoms: C_20  and  C_24
REMARK    8  A    between atoms: C_24  and  C_25
REMARK    9  A    between atoms: C_25  and  C_26
REMARK   10  A    between atoms: C_25  and  C_27
REMARK   11  A    between atoms: C_26  and  C_28
REMARK   12  A    between atoms: C_26  and  C_29
REMARK   13  A    between atoms: C_27  and  C_30
REMARK                            x       y       z     vdW  Elec       q    Type
REMARK                         _______ _______ _______ _____ _____    ______ ____
ROOT
ATOM      1  C   UNL     1      -0.287   0.012   0.126  0.00  0.00    +0.000 C 
ATOM      2  C   UNL     1       0.666  -1.109   0.585  0.00  0.00    +0.000 C 
ATOM      3  C   UNL     1       2.057  -1.019  -0.051  0.00  0.00    +0.000 C 
ATOM      4  C   UNL     1       2.695   0.360   0.287  0.00  0.00    +0.000 C 
ATOM      5  C   UNL     1      -1.563  -0.419   0.890  0.00  0.00    +0.000 C 
ATOM      6  C   UNL     1       0.317   1.347   0.584  0.00  0.00    +0.000 C 
ATOM      7  C   UNL     1       4.120   0.518  -0.380  0.00  0.00    +0.000 C 
ATOM      8  C   UNL     1      -0.151  -2.382   0.389  0.00  0.00    +0.000 C 
ATOM      9  C   UNL     1       1.732   1.549   0.016  0.00  0.00    +0.000 C 
ATOM     10  C   UNL     1      -1.595  -1.955   0.712  0.00  0.00    +0.000 C 
ATOM     11  C   UNL     1       2.960  -2.156   0.453  0.00  0.00    +0.000 C 
ATOM     12  C   UNL     1      -0.535   0.043  -1.403  0.00  0.00    +0.000 C 
ATOM     13  C   UNL     1       4.949  -0.762  -0.206  0.00  0.00    +0.000 C 
ATOM     14  C   UNL     1       4.856   1.701   0.316  0.00  0.00    +0.000 C 
ATOM     15  C   UNL     1       4.412  -1.933   0.179  0.00  0.00    +0.000 C 
ATOM     16  C   UNL     1       4.003   0.809  -1.896  0.00  0.00    +0.000 C 
ATOM     17  C   UNL     1       6.432  -0.666  -0.479  0.00  0.00    +0.000 C 
ATOM     18  C   UNL     1       6.341   1.809  -0.027  0.00  0.00    +0.000 C 
ATOM     19  C   UNL     1       7.072   0.503   0.265  0.00  0.00    +0.000 C 
ENDROOT
BRANCH  19  20
ATOM     20  O   UNL     1       8.428   0.644  -0.145  0.00  0.00    +0.000 OA
ATOM     21  H   UNL     1       8.882  -0.193   0.051  0.00  0.00    +0.000 HD
ENDBRANCH  19  20
BRANCH   5  22
ATOM     22  C   UNL     1      -2.864   0.252   0.475  0.00  0.00    +0.000 C 
ATOM     23  C   UNL     1      -2.741   1.773   0.617  0.00  0.00    +0.000 C 
BRANCH  22  24
ATOM     24  C   UNL     1      -4.038  -0.313   1.303  0.00  0.00    +0.000 C 
BRANCH  24  25
ATOM     25  C   UNL     1      -5.412   0.335   1.066  0.00  0.00    +0.000 C 
BRANCH  25  26
ATOM     26  C   UNL     1      -6.013   0.170  -0.354  0.00  0.00    +0.000 C 
BRANCH  26  27
ATOM     27  C   UNL     1      -7.351   0.957  -0.529  0.00  0.00    +0.000 C 
ATOM     28  C   UNL     1      -7.185   2.455  -0.241  0.00  0.00    +0.000 C 
ATOM     29  C   UNL     1      -8.512   0.401   0.300  0.00  0.00    +0.000 C 
ENDBRANCH  26  27
BRANCH  26  30
ATOM     30  C   UNL     1      -6.139  -1.329  -0.721  0.00  0.00    +0.000 C 
ATOM     31  C   UNL     1      -6.653  -1.594  -2.130  0.00  0.00    +0.000 C 
ENDBRANCH  26  30
ENDBRANCH  25  26
ENDBRANCH  24  25
ENDBRANCH  22  24
ENDBRANCH   5  22
TORSDOF 7
