REMARK  Name = 222786
REMARK  6 active torsions:
REMARK  status: ('A' for Active; 'I' for Inactive)
REMARK    1  A    between atoms: O_1  and  C_10
REMARK    2  A    between atoms: O_4  and  C_26
REMARK    3  A    between atoms: C_7  and  C_17
REMARK    4  A    between atoms: C_10  and  C_22
REMARK    5  A    between atoms: C_11  and  C_21
REMARK    6  A    between atoms: C_22  and  C_26
REMARK                            x       y       z     vdW  Elec       q    Type
REMARK                         _______ _______ _______ _____ _____    ______ ____
ROOT
ATOM      1  O   UNL     1       0.421  -2.466   0.650  0.00  0.00    +0.000 OA
ATOM      2  O   UNL     1       6.418  -0.321  -1.143  0.00  0.00    +0.000 OA
ATOM      3  C   UNL     1      -1.017   1.223  -0.239  0.00  0.00    +0.000 C 
ATOM      4  C   UNL     1      -1.946   0.054   0.169  0.00  0.00    +0.000 C 
ATOM      5  C   UNL     1       0.391   1.111   0.364  0.00  0.00    +0.000 C 
ATOM      6  C   UNL     1       1.049  -0.220  -0.110  0.00  0.00    +0.000 C 
ATOM      7  C   UNL     1      -3.265   0.531  -0.489  0.00  0.00    +0.000 C 
ATOM      8  C   UNL     1       2.516  -0.409   0.429  0.00  0.00    +0.000 C 
ATOM      9  C   UNL     1      -1.844   2.465   0.084  0.00  0.00    +0.000 C 
ATOM     10  C   UNL     1      -1.340  -1.238  -0.388  0.00  0.00    +0.000 C 
ATOM     11  C   UNL     1      -3.299   2.049  -0.213  0.00  0.00    +0.000 C 
ATOM     12  C   UNL     1       1.264   2.303  -0.044  0.00  0.00    +0.000 C 
ATOM     13  C   UNL     1       0.083  -1.403   0.133  0.00  0.00    +0.000 C 
ATOM     14  C   UNL     1      -2.121  -0.087   1.707  0.00  0.00    +0.000 C 
ATOM     15  C   UNL     1       3.322   0.872   0.158  0.00  0.00    +0.000 C 
ATOM     16  C   UNL     1       2.667   2.180   0.535  0.00  0.00    +0.000 C 
ATOM     17  C   UNL     1       3.170  -1.605  -0.326  0.00  0.00    +0.000 C 
ATOM     18  C   UNL     1       2.552  -0.672   1.952  0.00  0.00    +0.000 C 
ATOM     19  C   UNL     1       4.684  -1.663  -0.183  0.00  0.00    +0.000 C 
ATOM     20  C   UNL     1       4.562   0.887  -0.360  0.00  0.00    +0.000 C 
ATOM     21  C   UNL     1       5.301  -0.366  -0.631  0.00  0.00    +0.000 C 
ENDROOT
BRANCH   7  22
ATOM     22  O   UNL     1      -3.245   0.305  -1.895  0.00  0.00    +0.000 OA
ATOM     23  H   UNL     1      -4.010   0.759  -2.289  0.00  0.00    +0.000 HD
ENDBRANCH   7  22
BRANCH   7  25
ATOM     24  O   UNL     1      -5.413   0.432   0.535  0.00  0.00    +0.000 OA
ATOM     25  C   UNL     1      -4.497  -0.178  -0.014  0.00  0.00    +0.000 C 
BRANCH  25  26
ATOM     26  C   UNL     1      -4.542  -1.673  -0.248  0.00  0.00    +0.000 C 
BRANCH  26  27
ATOM     27  O   UNL     1      -5.872  -2.109  -0.433  0.00  0.00    +0.000 OA
ATOM     28  H   UNL     1      -6.200  -1.707  -1.256  0.00  0.00    +0.000 HD
ENDBRANCH  26  27
ENDBRANCH  25  26
ENDBRANCH   7  25
TORSDOF 4
