REMARK  Name = 6918548
REMARK  7 active torsions:
REMARK  status: ('A' for Active; 'I' for Inactive)
REMARK    1  A    between atoms: O_6  and  C_11
REMARK    2  A    between atoms: C_9  and  C_18
REMARK    3  A    between atoms: C_11  and  C_20
REMARK    4  A    between atoms: C_16  and  C_23
REMARK    5  A    between atoms: C_20  and  C_25
REMARK    6  A    between atoms: C_34  and  C_35
REMARK    7  A    between atoms: C_35  and  C_36
REMARK                            x       y       z     vdW  Elec       q    Type
REMARK                         _______ _______ _______ _____ _____    ______ ____
ROOT
ATOM      1  O   UNL     1      -3.187   5.937   0.856  0.00  0.00    +0.000 OA
ATOM      2  C   UNL     1       1.416  -0.930  -0.432  0.00  0.00    +0.000 C 
ATOM      3  C   UNL     1       1.444   0.439  -1.153  0.00  0.00    +0.000 C 
ATOM      4  C   UNL     1       2.946  -1.252  -0.378  0.00  0.00    +0.000 C 
ATOM      5  C   UNL     1       0.036   0.980  -1.434  0.00  0.00    +0.000 C 
ATOM      6  C   UNL     1       0.700  -0.741   0.921  0.00  0.00    +0.000 C 
ATOM      7  C   UNL     1       2.397   0.198  -2.320  0.00  0.00    +0.000 C 
ATOM      8  C   UNL     1       3.456  -0.771  -1.762  0.00  0.00    +0.000 C 
ATOM      9  C   UNL     1      -0.713  -0.072   0.825  0.00  0.00    +0.000 C 
ATOM     10  C   UNL     1      -0.652   1.185  -0.067  0.00  0.00    +0.000 C 
ATOM     11  C   UNL     1       0.699  -2.052  -1.237  0.00  0.00    +0.000 C 
ATOM     12  C   UNL     1       0.033   2.239  -2.318  0.00  0.00    +0.000 C 
ATOM     13  C   UNL     1      -1.093   2.405   0.334  0.00  0.00    +0.000 C 
ATOM     14  C   UNL     1       0.247   3.503  -1.504  0.00  0.00    +0.000 C 
ATOM     15  C   UNL     1      -0.836   3.610  -0.463  0.00  0.00    +0.000 C 
ATOM     16  C   UNL     1      -1.830   2.678   1.629  0.00  0.00    +0.000 C 
ATOM     17  C   UNL     1      -1.498   4.765  -0.288  0.00  0.00    +0.000 C 
ATOM     18  C   UNL     1      -3.015   3.615   1.425  0.00  0.00    +0.000 C 
ATOM     19  C   UNL     1      -2.600   4.869   0.698  0.00  0.00    +0.000 C 
ENDROOT
BRANCH   9  20
ATOM     20  C   UNL     1      -1.874  -1.025   0.541  0.00  0.00    +0.000 A 
ATOM     21  C   UNL     1      -2.035  -2.169   1.317  0.00  0.00    +0.000 A 
ATOM     22  C   UNL     1      -2.764  -0.744  -0.492  0.00  0.00    +0.000 A 
ATOM     23  C   UNL     1      -3.095  -3.039   1.059  0.00  0.00    +0.000 A 
ATOM     24  C   UNL     1      -3.824  -1.613  -0.750  0.00  0.00    +0.000 A 
ATOM     25  C   UNL     1      -3.989  -2.761   0.025  0.00  0.00    +0.000 A 
BRANCH  25  27
ATOM     26  O   UNL     1      -5.910  -3.445  -1.161  0.00  0.00    +0.000 OA
ATOM     27  C   UNL     1      -5.094  -3.667  -0.244  0.00  0.00    +0.000 C 
ATOM     28  C   UNL     1      -5.281  -4.924   0.599  0.00  0.00    +0.000 C 
ENDBRANCH  25  27
ENDBRANCH   9  20
BRANCH   4  31
ATOM     29  F   UNL     1       3.527   0.761   0.662  0.00  0.00    +0.000 F 
ATOM     30  F   UNL     1       3.230  -0.985   1.928  0.00  0.00    +0.000 F 
ATOM     31  C   UNL     1       3.735  -0.570   0.747  0.00  0.00    +0.000 C 
BRANCH  31  35
ATOM     32  F   UNL     1       5.747  -0.445  -0.476  0.00  0.00    +0.000 F 
ATOM     33  F   UNL     1       5.412  -2.195   0.783  0.00  0.00    +0.000 F 
ATOM     34  F   UNL     1       5.872  -0.268   1.696  0.00  0.00    +0.000 F 
ATOM     35  C   UNL     1       5.203  -0.864   0.686  0.00  0.00    +0.000 C 
ENDBRANCH  31  35
ENDBRANCH   4  31
BRANCH   4  36
ATOM     36  O   UNL     1       3.189  -2.651  -0.253  0.00  0.00    +0.000 OA
ATOM     37  H   UNL     1       2.821  -2.938   0.601  0.00  0.00    +0.000 HD
ENDBRANCH   4  36
TORSDOF 5
