REMARK  Name = 5289326
REMARK  8 active torsions:
REMARK  status: ('A' for Active; 'I' for Inactive)
REMARK    1  A    between atoms: N_1  and  C_2
REMARK    2  A    between atoms: N_1  and  C_5
REMARK    3  A    between atoms: N_1  and  C_7
REMARK    4  A    between atoms: C_5  and  C_10
REMARK    5  A    between atoms: C_8  and  C_11
REMARK    6  A    between atoms: C_10  and  C_12
REMARK    7  A    between atoms: C_13  and  C_14
REMARK    8  A    between atoms: C_13  and  C_15
REMARK                            x       y       z     vdW  Elec       q    Type
REMARK                         _______ _______ _______ _____ _____    ______ ____
ROOT
ATOM      1  N   UNL     1       0.073  -1.319  -0.633  0.00  0.00    +0.000 N 
ATOM      2  C   UNL     1      -0.262  -2.541   0.180  0.00  0.00    +0.000 C 
ATOM      3  H   UNL     1       0.406  -1.661  -1.545  0.00  0.00    +0.000 HD
ENDROOT
BRANCH   1   4
ATOM      4  C   UNL     1       1.160  -0.512  -0.019  0.00  0.00    +0.000 C 
ATOM      5  C   UNL     1       1.464   0.683  -0.915  0.00  0.00    +0.000 C 
ATOM      6  C   UNL     1       2.391  -1.399   0.169  0.00  0.00    +0.000 C 
ATOM      7  C   UNL     1       2.589   1.534  -0.319  0.00  0.00    +0.000 C 
ATOM      8  C   UNL     1       3.736   0.721   0.233  0.00  0.00    +0.000 C 
ATOM      9  C   UNL     1       3.638  -0.605   0.434  0.00  0.00    +0.000 C 
ATOM     10  C   UNL     1       4.991   1.480   0.546  0.00  0.00    +0.000 C 
ENDBRANCH   1   4
BRANCH   1  11
ATOM     11  C   UNL     1      -1.154  -0.496  -0.927  0.00  0.00    +0.000 C 
BRANCH  11  12
ATOM     12  C   UNL     1      -1.659   0.167   0.349  0.00  0.00    +0.000 C 
BRANCH  12  13
ATOM     13  C   UNL     1      -2.893   0.996   0.122  0.00  0.00    +0.000 C 
ATOM     14  C   UNL     1      -4.179   0.608   0.213  0.00  0.00    +0.000 C 
ATOM     15  C   UNL     1      -5.371   1.491  -0.027  0.00  0.00    +0.000 C 
ATOM     16  C   UNL     1      -4.523  -0.808   0.594  0.00  0.00    +0.000 C 
ENDBRANCH  12  13
ENDBRANCH  11  12
ENDBRANCH   1  11
TORSDOF 4
