REMARK  Name = 1549107
REMARK  12 active torsions:
REMARK  status: ('A' for Active; 'I' for Inactive)
REMARK    1  A    between atoms: O_1  and  C_14
REMARK    2  A    between atoms: C_2  and  C_4
REMARK    3  A    between atoms: C_2  and  C_6
REMARK    4  A    between atoms: C_3  and  C_5
REMARK    5  A    between atoms: C_3  and  C_7
REMARK    6  A    between atoms: C_4  and  C_9
REMARK    7  A    between atoms: C_5  and  C_8
REMARK    8  A    between atoms: C_6  and  C_10
REMARK    9  A    between atoms: C_8  and  C_12
REMARK   10  A    between atoms: C_11  and  C_15
REMARK   11  A    between atoms: C_11  and  C_16
REMARK   12  A    between atoms: C_13  and  C_14
REMARK                            x       y       z     vdW  Elec       q    Type
REMARK                         _______ _______ _______ _____ _____    ______ ____
ROOT
ATOM      1  C   UNL     1       0.809  -2.608  -0.081  0.00  0.00    +0.000 C 
ATOM      2  C   UNL     1      -0.526  -2.530   0.083  0.00  0.00    +0.000 C 
ATOM      3  C   UNL     1       1.413  -3.843  -0.702  0.00  0.00    +0.000 C 
ENDROOT
BRANCH   1   4
ATOM      4  C   UNL     1       1.807  -1.557   0.361  0.00  0.00    +0.000 C 
BRANCH   4   5
ATOM      5  C   UNL     1       2.192  -0.555  -0.736  0.00  0.00    +0.000 C 
BRANCH   5   6
ATOM      6  C   UNL     1       3.288   0.383  -0.310  0.00  0.00    +0.000 C 
ATOM      7  C   UNL     1       3.172   1.590   0.274  0.00  0.00    +0.000 C 
ATOM      8  C   UNL     1       4.315   2.478   0.675  0.00  0.00    +0.000 C 
ATOM      9  C   UNL     1       1.812   2.163   0.575  0.00  0.00    +0.000 C 
ENDBRANCH   5   6
ENDBRANCH   4   5
ENDBRANCH   1   4
BRANCH   2  10
ATOM     10  C   UNL     1      -1.338  -1.409   0.671  0.00  0.00    +0.000 C 
BRANCH  10  11
ATOM     11  C   UNL     1      -2.335  -0.849  -0.350  0.00  0.00    +0.000 C 
BRANCH  11  12
ATOM     12  C   UNL     1      -3.222   0.220   0.250  0.00  0.00    +0.000 C 
ATOM     13  C   UNL     1      -4.480  -0.286   0.907  0.00  0.00    +0.000 C 
ATOM     14  C   UNL     1      -2.962   1.540   0.206  0.00  0.00    +0.000 C 
BRANCH  14  15
ATOM     15  C   UNL     1      -1.760   2.206  -0.382  0.00  0.00    +0.000 C 
BRANCH  15  16
ATOM     16  O   UNL     1      -2.185   3.056  -1.440  0.00  0.00    +0.000 OA
ATOM     17  H   UNL     1      -2.561   2.492  -2.138  0.00  0.00    +0.000 HD
ENDBRANCH  15  16
ENDBRANCH  14  15
ENDBRANCH  11  12
ENDBRANCH  10  11
ENDBRANCH   2  10
TORSDOF 8
