REMARK  Name = 
REMARK  24 active torsions:
REMARK  status: ('A' for Active; 'I' for Inactive)
REMARK    1  A    between atoms: C_1  and  C_2
REMARK    2  A    between atoms: C_2  and  C_3
REMARK    3  A    between atoms: C_4  and  C_5
REMARK    4  A    between atoms: C_5  and  C_6
REMARK    5  A    between atoms: C_6  and  C_7
REMARK    6  A    between atoms: C_7  and  C_8
REMARK    7  A    between atoms: C_9  and  C_10
REMARK    8  A    between atoms: C_10  and  C_11
REMARK    9  A    between atoms: C_11  and  C_12
REMARK   10  A    between atoms: C_12  and  C_13
REMARK   11  A    between atoms: C_14  and  C_15
REMARK   12  A    between atoms: C_15  and  C_16
REMARK   13  A    between atoms: C_16  and  C_17
REMARK   14  A    between atoms: C_18  and  C_19
REMARK   15  A    between atoms: C_18  and  C_20
REMARK   16  A    between atoms: C_20  and  C_21
REMARK   17  A    between atoms: C_21  and  C_22
REMARK   18  A    between atoms: C_23  and  C_24
REMARK   19  A    between atoms: C_23  and  C_25
REMARK   20  A    between atoms: C_25  and  C_26
REMARK   21  A    between atoms: C_26  and  C_27
REMARK   22  A    between atoms: C_27  and  N_28
REMARK   23  A    between atoms: N_28  and  C_29
REMARK   24  A    between atoms: N_28  and  C_30
REMARK                            x       y       z     vdW  Elec       q    Type
REMARK                         _______ _______ _______ _____ _____    ______ ____
ROOT
ATOM      1  C   UNL     1       0.106   0.548  -1.498  0.00  0.00    +0.000 C 
ENDROOT
BRANCH   1   4
ATOM      2  C   UNL     1      -2.189   0.173  -2.284  0.00  0.00    +0.000 C 
ATOM      3  C   UNL     1      -2.471   1.505  -1.692  0.00  0.00    +0.000 C 
ATOM      4  C   UNL     1      -0.948  -0.302  -2.129  0.00  0.00    +0.000 C 
BRANCH   2   5
ATOM      5  C   UNL     1      -3.306  -0.826  -2.315  0.00  0.00    +0.000 C 
BRANCH   5   6
ATOM      6  C   UNL     1      -4.634  -0.108  -2.357  0.00  0.00    +0.000 C 
BRANCH   6   9
ATOM      7  C   UNL     1      -4.851  -0.081   0.110  0.00  0.00    +0.000 C 
ATOM      8  C   UNL     1      -4.702  -1.568   0.060  0.00  0.00    +0.000 C 
ATOM      9  C   UNL     1      -4.955   0.547  -1.052  0.00  0.00    +0.000 C 
BRANCH   7  10
ATOM     10  C   UNL     1      -5.611   0.474   1.269  0.00  0.00    +0.000 C 
BRANCH  10  11
ATOM     11  C   UNL     1      -6.911   1.121   0.816  0.00  0.00    +0.000 C 
BRANCH  11  15
ATOM     12  C   UNL     1      -8.381  -1.379  -1.195  0.00  0.00    +0.000 C 
ATOM     13  C   UNL     1      -8.639  -0.098  -0.465  0.00  0.00    +0.000 C 
ATOM     14  C   UNL     1     -10.004   0.492  -0.650  0.00  0.00    +0.000 C 
ATOM     15  C   UNL     1      -7.999   0.107   0.693  0.00  0.00    +0.000 C 
ENDBRANCH  11  15
ENDBRANCH  10  11
ENDBRANCH   7  10
ENDBRANCH   6   9
ENDBRANCH   5   6
ENDBRANCH   2   5
ENDBRANCH   1   4
BRANCH   1  16
ATOM     16  C   UNL     1      -0.124   0.665   0.004  0.00  0.00    +0.000 C 
BRANCH  16  17
ATOM     17  C   UNL     1       1.233   0.888   0.603  0.00  0.00    +0.000 C 
ATOM     18  C   UNL     1       1.877  -0.031   1.299  0.00  0.00    +0.000 C 
ATOM     19  C   UNL     1       1.023  -1.017   2.039  0.00  0.00    +0.000 C 
BRANCH  18  20
ATOM     20  C   UNL     1       3.279  -0.465   1.008  0.00  0.00    +0.000 C 
BRANCH  20  21
ATOM     21  C   UNL     1       4.291   0.396   1.750  0.00  0.00    +0.000 C 
BRANCH  21  22
ATOM     22  C   UNL     1       5.619  -0.282   1.593  0.00  0.00    +0.000 C 
ATOM     23  C   UNL     1       6.559  -0.223   2.533  0.00  0.00    +0.000 C 
ATOM     24  C   UNL     1       6.104  -0.062   3.936  0.00  0.00    +0.000 C 
BRANCH  23  25
ATOM     25  C   UNL     1       7.942  -0.565   2.138  0.00  0.00    +0.000 C 
BRANCH  25  26
ATOM     26  C   UNL     1       8.289   0.289   0.928  0.00  0.00    +0.000 C 
BRANCH  26  27
ATOM     27  C   UNL     1       7.794  -0.344  -0.343  0.00  0.00    +0.000 C 
BRANCH  27  28
ATOM     28  N   UNL     1       7.041   0.566  -1.172  0.00  0.00    +0.000 NA
ATOM     29  C   UNL     1       7.512   1.932  -1.078  0.00  0.00    +0.000 C 
ATOM     30  C   UNL     1       7.057   0.093  -2.550  0.00  0.00    +0.000 C 
ENDBRANCH  27  28
ENDBRANCH  26  27
ENDBRANCH  25  26
ENDBRANCH  23  25
ENDBRANCH  21  22
ENDBRANCH  20  21
ENDBRANCH  18  20
ENDBRANCH  16  17
ENDBRANCH   1  16
TORSDOF 16
