REMARK  Name = 5288795
REMARK  15 active torsions:
REMARK  status: ('A' for Active; 'I' for Inactive)
REMARK    1  A    between atoms: O_1  and  C_7
REMARK    2  A    between atoms: O_1  and  C_14
REMARK    3  A    between atoms: O_2  and  C_19
REMARK    4  A    between atoms: C_4  and  C_5
REMARK    5  A    between atoms: C_4  and  C_6
REMARK    6  A    between atoms: C_5  and  C_7
REMARK    7  A    between atoms: C_6  and  C_8
REMARK    8  A    between atoms: C_7  and  C_10
REMARK    9  A    between atoms: C_7  and  C_11
REMARK   10  A    between atoms: C_8  and  C_9
REMARK   11  A    between atoms: C_8  and  C_12
REMARK   12  A    between atoms: C_9  and  C_13
REMARK   13  A    between atoms: C_15  and  C_16
REMARK   14  A    between atoms: C_16  and  C_17
REMARK   15  A    between atoms: C_18  and  C_19
REMARK                            x       y       z     vdW  Elec       q    Type
REMARK                         _______ _______ _______ _____ _____    ______ ____
ROOT
ATOM      1  C   UNL     1      -1.158   3.224   0.200  0.00  0.00    +0.000 C 
ATOM      2  C   UNL     1      -0.600   4.364  -0.665  0.00  0.00    +0.000 C 
ENDROOT
BRANCH   1   3
ATOM      3  C   UNL     1      -1.663   2.096  -0.726  0.00  0.00    +0.000 C 
BRANCH   3   4
ATOM      4  C   UNL     1      -2.267   0.903   0.025  0.00  0.00    +0.000 C 
BRANCH   4   5
ATOM      5  C   UNL     1      -2.770  -0.168  -0.954  0.00  0.00    +0.000 C 
BRANCH   5   6
ATOM      6  C   UNL     1      -3.321  -1.441  -0.281  0.00  0.00    +0.000 C 
ATOM      7  C   UNL     1      -4.515  -1.152   0.631  0.00  0.00    +0.000 C 
ATOM      8  C   UNL     1      -3.719  -2.459  -1.356  0.00  0.00    +0.000 C 
BRANCH   6   9
ATOM      9  O   UNL     1      -2.279  -2.021   0.507  0.00  0.00    +0.000 OA
ATOM     10  C   UNL     1      -2.711  -3.219   1.130  0.00  0.00    +0.000 C 
ENDBRANCH   6   9
ENDBRANCH   5   6
ENDBRANCH   4   5
ENDBRANCH   3   4
ENDBRANCH   1   3
BRANCH   1  11
ATOM     11  C   UNL     1      -0.104   2.714   1.206  0.00  0.00    +0.000 C 
BRANCH  11  12
ATOM     12  C   UNL     1       1.123   2.146   0.542  0.00  0.00    +0.000 C 
ATOM     13  C   UNL     1       1.545   0.884   0.722  0.00  0.00    +0.000 C 
BRANCH  13  14
ATOM     14  C   UNL     1       2.724   0.259   0.119  0.00  0.00    +0.000 C 
ATOM     15  C   UNL     1       3.548   1.092  -0.831  0.00  0.00    +0.000 C 
ATOM     16  C   UNL     1       2.987  -1.028   0.421  0.00  0.00    +0.000 C 
BRANCH  16  18
ATOM     17  O   UNL     1       5.232  -1.307  -0.317  0.00  0.00    +0.000 OA
ATOM     18  C   UNL     1       4.142  -1.800  -0.071  0.00  0.00    +0.000 C 
BRANCH  18  19
ATOM     19  O   UNL     1       3.805  -3.088  -0.303  0.00  0.00    +0.000 OA
ATOM     20  H   UNL     1       4.554  -3.606  -0.667  0.00  0.00    +0.000 HD
ENDBRANCH  18  19
ENDBRANCH  16  18
ENDBRANCH  13  14
ENDBRANCH  11  12
ENDBRANCH   1  11
TORSDOF 10
