REMARK  Name = 5289278
REMARK  9 active torsions:
REMARK  status: ('A' for Active; 'I' for Inactive)
REMARK    1  A    between atoms: O_1  and  C_22
REMARK    2  A    between atoms: C_3  and  C_13
REMARK    3  A    between atoms: C_3  and  C_14
REMARK    4  A    between atoms: C_4  and  C_12
REMARK    5  A    between atoms: C_4  and  C_15
REMARK    6  A    between atoms: C_12  and  C_17
REMARK    7  A    between atoms: C_18  and  C_19
REMARK    8  A    between atoms: C_19  and  C_20
REMARK    9  A    between atoms: C_21  and  C_22
REMARK                            x       y       z     vdW  Elec       q    Type
REMARK                         _______ _______ _______ _____ _____    ______ ____
ROOT
ATOM      1  C   UNL     1      -1.527  -2.052   0.812  0.00  0.00    +0.000 C 
ATOM      2  C   UNL     1      -1.939   1.801   0.644  0.00  0.00    +0.000 C 
ATOM      3  C   UNL     1      -1.820  -0.604   0.486  0.00  0.00    +0.000 C 
ATOM      4  C   UNL     1      -1.659   0.517   1.471  0.00  0.00    +0.000 C 
ATOM      5  C   UNL     1      -2.264  -0.165  -0.700  0.00  0.00    +0.000 C 
ATOM      6  C   UNL     1      -2.125  -2.975  -0.288  0.00  0.00    +0.000 C 
ATOM      7  C   UNL     1      -2.451   1.271  -0.692  0.00  0.00    +0.000 C 
ATOM      8  C   UNL     1      -2.508  -1.046  -1.883  0.00  0.00    +0.000 C 
ATOM      9  C   UNL     1      -1.898  -2.440  -1.704  0.00  0.00    +0.000 C 
ATOM     10  C   UNL     1      -2.146  -2.458   2.162  0.00  0.00    +0.000 C 
ATOM     11  C   UNL     1      -0.001  -2.252   0.889  0.00  0.00    +0.000 C 
ATOM     12  C   UNL     1      -2.968   2.682   1.368  0.00  0.00    +0.000 C 
ATOM     13  C   UNL     1      -2.982   2.001  -1.681  0.00  0.00    +0.000 C 
ENDROOT
BRANCH   2  14
ATOM     14  C   UNL     1      -0.635   2.592   0.441  0.00  0.00    +0.000 C 
BRANCH  14  15
ATOM     15  C   UNL     1       0.399   1.746  -0.230  0.00  0.00    +0.000 C 
ATOM     16  C   UNL     1       1.595   1.475   0.319  0.00  0.00    +0.000 C 
BRANCH  16  17
ATOM     17  C   UNL     1       2.675   0.678  -0.271  0.00  0.00    +0.000 C 
ATOM     18  C   UNL     1       2.422   0.072  -1.628  0.00  0.00    +0.000 C 
ATOM     19  C   UNL     1       3.807   0.522   0.445  0.00  0.00    +0.000 C 
BRANCH  19  21
ATOM     20  O   UNL     1       5.390  -0.432  -1.116  0.00  0.00    +0.000 OA
ATOM     21  C   UNL     1       5.002  -0.242   0.023  0.00  0.00    +0.000 C 
BRANCH  21  22
ATOM     22  O   UNL     1       5.633  -0.694   1.134  0.00  0.00    +0.000 OA
ATOM     23  H   UNL     1       6.442  -1.204   0.915  0.00  0.00    +0.000 HD
ENDBRANCH  21  22
ENDBRANCH  19  21
ENDBRANCH  16  17
ENDBRANCH  14  15
ENDBRANCH   2  14
TORSDOF 5
