REMARK  Name = 638072
REMARK  23 active torsions:
REMARK  status: ('A' for Active; 'I' for Inactive)
REMARK    1  A    between atoms: C_1  and  C_5
REMARK    2  A    between atoms: C_1  and  C_7
REMARK    3  A    between atoms: C_2  and  C_6
REMARK    4  A    between atoms: C_2  and  C_8
REMARK    5  A    between atoms: C_3  and  C_4
REMARK    6  A    between atoms: C_3  and  C_9
REMARK    7  A    between atoms: C_4  and  C_10
REMARK    8  A    between atoms: C_5  and  C_15
REMARK    9  A    between atoms: C_6  and  C_16
REMARK   10  A    between atoms: C_7  and  C_19
REMARK   11  A    between atoms: C_8  and  C_20
REMARK   12  A    between atoms: C_11  and  C_13
REMARK   13  A    between atoms: C_11  and  C_21
REMARK   14  A    between atoms: C_12  and  C_14
REMARK   15  A    between atoms: C_12  and  C_22
REMARK   16  A    between atoms: C_13  and  C_17
REMARK   17  A    between atoms: C_14  and  C_18
REMARK   18  A    between atoms: C_17  and  C_23
REMARK   19  A    between atoms: C_18  and  C_24
REMARK   20  A    between atoms: C_25  and  C_27
REMARK   21  A    between atoms: C_25  and  C_28
REMARK   22  A    between atoms: C_26  and  C_29
REMARK   23  A    between atoms: C_26  and  C_30
REMARK                            x       y       z     vdW  Elec       q    Type
REMARK                         _______ _______ _______ _____ _____    ______ ____
ROOT
ATOM      1  C   UNL     1       2.769  -0.057  -2.824  0.00  0.00    +0.000 C 
ENDROOT
BRANCH   1   3
ATOM      2  C   UNL     1       0.466  -1.105  -2.405  0.00  0.00    +0.000 C 
ATOM      3  C   UNL     1       1.457  -0.241  -2.109  0.00  0.00    +0.000 C 
ATOM      4  C   UNL     1       0.604  -2.039  -3.579  0.00  0.00    +0.000 C 
BRANCH   2   5
ATOM      5  C   UNL     1      -0.818  -1.248  -1.619  0.00  0.00    +0.000 C 
BRANCH   5   6
ATOM      6  C   UNL     1      -1.023  -2.671  -1.094  0.00  0.00    +0.000 C 
BRANCH   6   8
ATOM      7  C   UNL     1      -2.522  -2.611   0.974  0.00  0.00    +0.000 C 
ATOM      8  C   UNL     1      -2.321  -2.791  -0.345  0.00  0.00    +0.000 C 
ATOM      9  C   UNL     1      -1.370  -2.247   1.875  0.00  0.00    +0.000 C 
BRANCH   7  10
ATOM     10  C   UNL     1      -3.870  -2.705   1.653  0.00  0.00    +0.000 C 
BRANCH  10  11
ATOM     11  C   UNL     1      -4.574  -1.348   1.735  0.00  0.00    +0.000 C 
BRANCH  11  12
ATOM     12  C   UNL     1      -4.830  -0.791   0.363  0.00  0.00    +0.000 C 
ATOM     13  C   UNL     1      -4.371   0.364  -0.154  0.00  0.00    +0.000 C 
ATOM     14  C   UNL     1      -3.461   1.328   0.553  0.00  0.00    +0.000 C 
ATOM     15  C   UNL     1      -4.748   0.776  -1.553  0.00  0.00    +0.000 C 
ENDBRANCH  11  12
ENDBRANCH  10  11
ENDBRANCH   7  10
ENDBRANCH   6   8
ENDBRANCH   5   6
ENDBRANCH   2   5
ENDBRANCH   1   3
BRANCH   1  16
ATOM     16  C   UNL     1       3.873  -0.950  -2.243  0.00  0.00    +0.000 C 
BRANCH  16  18
ATOM     17  C   UNL     1       3.903  -1.508   0.261  0.00  0.00    +0.000 C 
ATOM     18  C   UNL     1       4.111  -0.681  -0.783  0.00  0.00    +0.000 C 
ATOM     19  C   UNL     1       3.409  -2.923   0.144  0.00  0.00    +0.000 C 
BRANCH  17  20
ATOM     20  C   UNL     1       4.226  -1.044   1.669  0.00  0.00    +0.000 C 
BRANCH  20  21
ATOM     21  C   UNL     1       3.025  -0.997   2.621  0.00  0.00    +0.000 C 
BRANCH  21  23
ATOM     22  C   UNL     1       1.795   1.232   2.352  0.00  0.00    +0.000 C 
ATOM     23  C   UNL     1       1.925  -0.092   2.138  0.00  0.00    +0.000 C 
ATOM     24  C   UNL     1       2.831   1.969   3.161  0.00  0.00    +0.000 C 
BRANCH  22  25
ATOM     25  C   UNL     1       0.629   2.069   1.871  0.00  0.00    +0.000 C 
BRANCH  25  26
ATOM     26  C   UNL     1       1.026   3.199   0.912  0.00  0.00    +0.000 C 
BRANCH  26  27
ATOM     27  C   UNL     1      -0.156   4.002   0.444  0.00  0.00    +0.000 C 
ATOM     28  C   UNL     1      -0.532   4.271  -0.821  0.00  0.00    +0.000 C 
ATOM     29  C   UNL     1       0.277   3.753  -1.981  0.00  0.00    +0.000 C 
ATOM     30  C   UNL     1      -1.731   5.085  -1.218  0.00  0.00    +0.000 C 
ENDBRANCH  26  27
ENDBRANCH  25  26
ENDBRANCH  22  25
ENDBRANCH  21  23
ENDBRANCH  20  21
ENDBRANCH  17  20
ENDBRANCH  16  18
ENDBRANCH   1  16
TORSDOF 15
