REMARK  Name = 5469318
REMARK  15 active torsions:
REMARK  status: ('A' for Active; 'I' for Inactive)
REMARK    1  A    between atoms: S_1  and  C_16
REMARK    2  A    between atoms: S_1  and  C_19
REMARK    3  A    between atoms: O_2  and  C_25
REMARK    4  A    between atoms: C_4  and  C_6
REMARK    5  A    between atoms: C_4  and  C_8
REMARK    6  A    between atoms: C_5  and  C_7
REMARK    7  A    between atoms: C_5  and  C_9
REMARK    8  A    between atoms: C_6  and  C_10
REMARK    9  A    between atoms: C_7  and  C_11
REMARK   10  A    between atoms: C_9  and  C_12
REMARK   11  A    between atoms: C_10  and  C_14
REMARK   12  A    between atoms: C_13  and  C_16
REMARK   13  A    between atoms: C_15  and  C_17
REMARK   14  A    between atoms: C_15  and  C_18
REMARK   15  A    between atoms: C_20  and  C_25
REMARK                            x       y       z     vdW  Elec       q    Type
REMARK                         _______ _______ _______ _____ _____    ______ ____
ROOT
ATOM      1  C   UNL     1       1.178  -2.092  -0.050  0.00  0.00    +0.000 C 
ATOM      2  C   UNL     1       0.346  -1.556   0.865  0.00  0.00    +0.000 C 
ATOM      3  C   UNL     1       1.081  -1.677  -1.495  0.00  0.00    +0.000 C 
ENDROOT
BRANCH   1   4
ATOM      4  C   UNL     1       2.208  -3.157   0.258  0.00  0.00    +0.000 C 
BRANCH   4   5
ATOM      5  C   UNL     1       3.659  -2.705   0.048  0.00  0.00    +0.000 C 
BRANCH   5   7
ATOM      6  C   UNL     1       4.829  -0.465   0.478  0.00  0.00    +0.000 C 
ATOM      7  C   UNL     1       4.014  -1.476   0.838  0.00  0.00    +0.000 C 
ATOM      8  C   UNL     1       5.508  -0.487  -0.867  0.00  0.00    +0.000 C 
BRANCH   6   9
ATOM      9  C   UNL     1       5.103   0.763   1.320  0.00  0.00    +0.000 C 
BRANCH   9  10
ATOM     10  C   UNL     1       4.731   2.088   0.643  0.00  0.00    +0.000 C 
BRANCH  10  11
ATOM     11  C   UNL     1       3.269   2.188   0.305  0.00  0.00    +0.000 C 
ATOM     12  C   UNL     1       2.720   2.402  -0.906  0.00  0.00    +0.000 C 
ATOM     13  C   UNL     1       1.226   2.500  -1.060  0.00  0.00    +0.000 C 
ATOM     14  C   UNL     1       3.490   2.545  -2.187  0.00  0.00    +0.000 C 
ENDBRANCH  10  11
ENDBRANCH   9  10
ENDBRANCH   6   9
ENDBRANCH   5   7
ENDBRANCH   4   5
ENDBRANCH   1   4
BRANCH   2  15
ATOM     15  C   UNL     1      -0.731  -0.540   0.630  0.00  0.00    +0.000 C 
BRANCH  15  16
ATOM     16  S   UNL     1      -2.339  -1.206   1.141  0.00  0.00    +0.000 S 
BRANCH  16  17
ATOM     17  C   UNL     1      -3.427   0.165   0.767  0.00  0.00    +0.000 A 
ATOM     18  C   UNL     1      -4.483   0.041  -0.136  0.00  0.00    +0.000 A 
ATOM     19  C   UNL     1      -3.195   1.382   1.407  0.00  0.00    +0.000 A 
ATOM     20  C   UNL     1      -5.307   1.136  -0.399  0.00  0.00    +0.000 A 
ATOM     21  C   UNL     1      -4.020   2.476   1.144  0.00  0.00    +0.000 A 
ATOM     22  C   UNL     1      -5.075   2.353   0.241  0.00  0.00    +0.000 A 
BRANCH  18  24
ATOM     23  O   UNL     1      -3.996  -1.794  -1.591  0.00  0.00    +0.000 OA
ATOM     24  C   UNL     1      -4.771  -1.207  -0.834  0.00  0.00    +0.000 C 
BRANCH  24  25
ATOM     25  O   UNL     1      -6.017  -1.676  -0.559  0.00  0.00    +0.000 OA
ATOM     26  H   UNL     1      -6.204  -2.515  -1.031  0.00  0.00    +0.000 HD
ENDBRANCH  24  25
ENDBRANCH  18  24
ENDBRANCH  16  17
ENDBRANCH  15  16
ENDBRANCH   2  15
TORSDOF 11
