REMARK  Name = 637566
REMARK  8 active torsions:
REMARK  status: ('A' for Active; 'I' for Inactive)
REMARK    1  A    between atoms: O_1  and  C_11
REMARK    2  A    between atoms: C_2  and  C_3
REMARK    3  A    between atoms: C_2  and  C_4
REMARK    4  A    between atoms: C_3  and  C_5
REMARK    5  A    between atoms: C_4  and  C_7
REMARK    6  A    between atoms: C_6  and  C_9
REMARK    7  A    between atoms: C_6  and  C_10
REMARK    8  A    between atoms: C_8  and  C_11
REMARK                            x       y       z     vdW  Elec       q    Type
REMARK                         _______ _______ _______ _____ _____    ______ ____
ROOT
ATOM      1  C   UNL     1       0.051   0.636   0.631  0.00  0.00    +0.000 C 
ENDROOT
BRANCH   1   2
ATOM      2  C   UNL     1       1.504   0.666   0.206  0.00  0.00    +0.000 C 
ATOM      3  C   UNL     1       1.949   1.941  -0.464  0.00  0.00    +0.000 C 
ATOM      4  C   UNL     1       2.387  -0.330   0.413  0.00  0.00    +0.000 C 
BRANCH   4   5
ATOM      5  C   UNL     1       3.838  -0.362   0.053  0.00  0.00    +0.000 C 
BRANCH   5   6
ATOM      6  O   UNL     1       4.220  -1.713  -0.169  0.00  0.00    +0.000 OA
ATOM      7  H   UNL     1       4.151  -2.185   0.679  0.00  0.00    +0.000 HD
ENDBRANCH   5   6
ENDBRANCH   4   5
ENDBRANCH   1   2
BRANCH   1   8
ATOM      8  C   UNL     1      -0.938   0.757  -0.536  0.00  0.00    +0.000 C 
BRANCH   8   9
ATOM      9  C   UNL     1      -2.372   0.711  -0.086  0.00  0.00    +0.000 C 
ATOM     10  C   UNL     1      -3.197  -0.352  -0.046  0.00  0.00    +0.000 C 
ATOM     11  C   UNL     1      -4.616  -0.197   0.432  0.00  0.00    +0.000 C 
ATOM     12  C   UNL     1      -2.826  -1.755  -0.435  0.00  0.00    +0.000 C 
ENDBRANCH   8   9
ENDBRANCH   1   8
TORSDOF 5
