REMARK  Name = 5280489
REMARK  20 active torsions:
REMARK  status: ('A' for Active; 'I' for Inactive)
REMARK    1  A    between atoms: C_1  and  C_13
REMARK    2  A    between atoms: C_1  and  C_14
REMARK    3  A    between atoms: C_2  and  C_15
REMARK    4  A    between atoms: C_2  and  C_16
REMARK    5  A    between atoms: C_7  and  C_17
REMARK    6  A    between atoms: C_8  and  C_18
REMARK    7  A    between atoms: C_11  and  C_19
REMARK    8  A    between atoms: C_12  and  C_20
REMARK    9  A    between atoms: C_21  and  C_23
REMARK   10  A    between atoms: C_22  and  C_24
REMARK   11  A    between atoms: C_23  and  C_25
REMARK   12  A    between atoms: C_24  and  C_26
REMARK   13  A    between atoms: C_27  and  C_29
REMARK   14  A    between atoms: C_28  and  C_30
REMARK   15  A    between atoms: C_31  and  C_33
REMARK   16  A    between atoms: C_32  and  C_34
REMARK   17  A    between atoms: C_33  and  C_35
REMARK   18  A    between atoms: C_34  and  C_36
REMARK   19  A    between atoms: C_37  and  C_39
REMARK   20  A    between atoms: C_38  and  C_40
REMARK                            x       y       z     vdW  Elec       q    Type
REMARK                         _______ _______ _______ _____ _____    ______ ____
ROOT
ATOM      1  C   UNL     1      -0.520  -0.091   0.054  0.00  0.00    +0.000 C 
ATOM      2  C   UNL     1       0.543   0.690  -0.205  0.00  0.00    +0.000 C 
ENDROOT
BRANCH   1   5
ATOM      3  C   UNL     1      -2.999  -0.522   0.225  0.00  0.00    +0.000 C 
ATOM      4  C   UNL     1      -2.777  -1.938   0.699  0.00  0.00    +0.000 C 
ATOM      5  C   UNL     1      -1.924   0.254  -0.033  0.00  0.00    +0.000 C 
BRANCH   3   7
ATOM      6  C   UNL     1      -5.491  -0.770   0.339  0.00  0.00    +0.000 C 
ATOM      7  C   UNL     1      -4.379  -0.053   0.099  0.00  0.00    +0.000 C 
BRANCH   6  10
ATOM      8  C   UNL     1      -8.014  -0.820   0.388  0.00  0.00    +0.000 C 
ATOM      9  C   UNL     1      -8.021  -2.260   0.850  0.00  0.00    +0.000 C 
ATOM     10  C   UNL     1      -6.824  -0.216   0.183  0.00  0.00    +0.000 C 
BRANCH   8  12
ATOM     11  C   UNL     1     -10.516  -0.726   0.392  0.00  0.00    +0.000 C 
ATOM     12  C   UNL     1      -9.310  -0.167   0.200  0.00  0.00    +0.000 C 
BRANCH  11  16
ATOM     13  C   UNL     1     -12.890  -0.815  -0.508  0.00  0.00    +0.000 C 
ATOM     14  C   UNL     1     -14.256  -0.080  -0.419  0.00  0.00    +0.000 C 
ATOM     15  C   UNL     1     -14.133   1.402  -0.723  0.00  0.00    +0.000 C 
ATOM     16  C   UNL     1     -11.766  -0.011   0.187  0.00  0.00    +0.000 C 
ATOM     17  C   UNL     1     -13.194   2.063   0.275  0.00  0.00    +0.000 C 
ATOM     18  C   UNL     1     -11.925   1.284   0.560  0.00  0.00    +0.000 C 
ATOM     19  C   UNL     1     -12.529  -1.027  -1.996  0.00  0.00    +0.000 C 
ATOM     20  C   UNL     1     -13.107  -2.200   0.149  0.00  0.00    +0.000 C 
ATOM     21  C   UNL     1     -10.903   2.125   1.289  0.00  0.00    +0.000 C 
ENDBRANCH  11  16
ENDBRANCH   8  12
ENDBRANCH   6  10
ENDBRANCH   3   7
ENDBRANCH   1   5
BRANCH   2  24
ATOM     22  C   UNL     1       3.024   1.066  -0.359  0.00  0.00    +0.000 C 
ATOM     23  C   UNL     1       2.978   2.500  -0.825  0.00  0.00    +0.000 C 
ATOM     24  C   UNL     1       1.938   0.305  -0.106  0.00  0.00    +0.000 C 
BRANCH  22  26
ATOM     25  C   UNL     1       5.538   1.046  -0.396  0.00  0.00    +0.000 C 
ATOM     26  C   UNL     1       4.348   0.456  -0.194  0.00  0.00    +0.000 C 
BRANCH  25  29
ATOM     27  C   UNL     1       8.058   0.890  -0.370  0.00  0.00    +0.000 C 
ATOM     28  C   UNL     1       8.207   2.308  -0.868  0.00  0.00    +0.000 C 
ATOM     29  C   UNL     1       6.815   0.390  -0.196  0.00  0.00    +0.000 C 
BRANCH  27  31
ATOM     30  C   UNL     1      10.539   0.560  -0.288  0.00  0.00    +0.000 C 
ATOM     31  C   UNL     1       9.279   0.121  -0.133  0.00  0.00    +0.000 C 
BRANCH  30  35
ATOM     32  C   UNL     1      12.900   0.441   0.641  0.00  0.00    +0.000 C 
ATOM     33  C   UNL     1      13.969  -0.575   1.128  0.00  0.00    +0.000 C 
ATOM     34  C   UNL     1      14.258  -1.646   0.091  0.00  0.00    +0.000 C 
ATOM     35  C   UNL     1      11.705  -0.270  -0.037  0.00  0.00    +0.000 C 
ATOM     36  C   UNL     1      12.991  -2.429  -0.217  0.00  0.00    +0.000 C 
ATOM     37  C   UNL     1      11.751  -1.578  -0.397  0.00  0.00    +0.000 C 
ATOM     38  C   UNL     1      13.556   1.419  -0.361  0.00  0.00    +0.000 C 
ATOM     39  C   UNL     1      12.467   1.239   1.895  0.00  0.00    +0.000 C 
ATOM     40  C   UNL     1      10.616  -2.364  -1.012  0.00  0.00    +0.000 C 
ENDBRANCH  30  35
ENDBRANCH  27  31
ENDBRANCH  25  29
ENDBRANCH  22  26
ENDBRANCH   2  24
TORSDOF 10
