REMARK  Name = 9949848
REMARK  6 active torsions:
REMARK  status: ('A' for Active; 'I' for Inactive)
REMARK    1  A    between atoms: C_3  and  C_13
REMARK    2  A    between atoms: C_6  and  C_15
REMARK    3  A    between atoms: C_6  and  C_17
REMARK    4  A    between atoms: C_12  and  C_20
REMARK    5  A    between atoms: C_17  and  C_23
REMARK    6  A    between atoms: C_19  and  C_25
REMARK                            x       y       z     vdW  Elec       q    Type
REMARK                         _______ _______ _______ _____ _____    ______ ____
ROOT
ATOM      1  O   UNL     1       6.186   0.655   0.797  0.00  0.00    +0.000 OA
ATOM      2  C   UNL     1      -2.297   0.319  -0.137  0.00  0.00    +0.000 C 
ATOM      3  C   UNL     1      -1.375  -0.892   0.164  0.00  0.00    +0.000 C 
ATOM      4  C   UNL     1       0.009  -0.762  -0.493  0.00  0.00    +0.000 C 
ATOM      5  C   UNL     1      -3.618  -0.146   0.564  0.00  0.00    +0.000 C 
ATOM      6  C   UNL     1       0.694   0.514   0.075  0.00  0.00    +0.000 C 
ATOM      7  C   UNL     1      -1.616   1.584   0.416  0.00  0.00    +0.000 C 
ATOM      8  C   UNL     1      -2.251  -2.090  -0.187  0.00  0.00    +0.000 C 
ATOM      9  C   UNL     1      -0.190   1.768  -0.142  0.00  0.00    +0.000 C 
ATOM     10  C   UNL     1      -3.668  -1.669   0.245  0.00  0.00    +0.000 C 
ATOM     11  C   UNL     1       2.178   0.635  -0.420  0.00  0.00    +0.000 C 
ATOM     12  C   UNL     1      -2.548   0.519  -1.664  0.00  0.00    +0.000 C 
ATOM     13  C   UNL     1       0.886  -1.966  -0.287  0.00  0.00    +0.000 C 
ATOM     14  C   UNL     1      -3.662   0.075   2.085  0.00  0.00    +0.000 C 
ATOM     15  C   UNL     1       2.947  -0.637   0.002  0.00  0.00    +0.000 C 
ATOM     16  C   UNL     1       2.828   1.883   0.240  0.00  0.00    +0.000 C 
ATOM     17  C   UNL     1       2.211  -1.917  -0.051  0.00  0.00    +0.000 C 
ATOM     18  C   UNL     1       2.261   0.780  -1.959  0.00  0.00    +0.000 C 
ATOM     19  C   UNL     1       4.334   1.959   0.043  0.00  0.00    +0.000 C 
ATOM     20  C   UNL     1       4.228  -0.585   0.414  0.00  0.00    +0.000 C 
ATOM     21  C   UNL     1       5.003   0.680   0.462  0.00  0.00    +0.000 C 
ATOM     22  C   UNL     1       2.966  -3.211   0.125  0.00  0.00    +0.000 C 
ENDROOT
BRANCH   5  24
ATOM     23  O   UNL     1      -5.722  -0.071  -0.575  0.00  0.00    +0.000 OA
ATOM     24  C   UNL     1      -4.843   0.546   0.025  0.00  0.00    +0.000 C 
ATOM     25  C   UNL     1      -4.940   2.030   0.259  0.00  0.00    +0.000 C 
ENDBRANCH   5  24
TORSDOF 1
