REMARK  Name = 9904203
REMARK  7 active torsions:
REMARK  status: ('A' for Active; 'I' for Inactive)
REMARK    1  A    between atoms: O_1  and  C_22
REMARK    2  A    between atoms: C_11  and  C_14
REMARK    3  A    between atoms: C_14  and  C_15
REMARK    4  A    between atoms: C_16  and  C_17
REMARK    5  A    between atoms: C_18  and  C_19
REMARK    6  A    between atoms: C_19  and  C_20
REMARK    7  A    between atoms: C_21  and  C_22
REMARK                            x       y       z     vdW  Elec       q    Type
REMARK                         _______ _______ _______ _____ _____    ______ ____
ROOT
ATOM      1  C   UNL     1      -0.698  -2.947  -0.036  0.00  0.00    +0.000 C 
ATOM      2  C   UNL     1      -1.160  -4.369   0.190  0.00  0.00    +0.000 C 
ATOM      3  C   UNL     1       0.622  -2.675   0.055  0.00  0.00    +0.000 C 
ENDROOT
BRANCH   1  12
ATOM      4  C   UNL     1      -1.405   0.536   2.258  0.00  0.00    +0.000 C 
ATOM      5  C   UNL     1      -2.165   1.751   1.738  0.00  0.00    +0.000 C 
ATOM      6  C   UNL     1      -0.738  -0.203   1.105  0.00  0.00    +0.000 C 
ATOM      7  C   UNL     1      -3.046   1.431   0.553  0.00  0.00    +0.000 A 
ATOM      8  C   UNL     1      -1.773  -0.689   0.119  0.00  0.00    +0.000 C 
ATOM      9  C   UNL     1      -2.851   0.275  -0.236  0.00  0.00    +0.000 A 
ATOM     10  C   UNL     1      -4.050   2.354   0.212  0.00  0.00    +0.000 A 
ATOM     11  C   UNL     1      -3.684   0.087  -1.354  0.00  0.00    +0.000 A 
ATOM     12  C   UNL     1      -1.722  -1.951  -0.341  0.00  0.00    +0.000 C 
ATOM     13  C   UNL     1      -4.870   2.139  -0.892  0.00  0.00    +0.000 A 
ATOM     14  C   UNL     1      -4.685   1.007  -1.675  0.00  0.00    +0.000 A 
ENDBRANCH   1  12
BRANCH   3  15
ATOM     15  C   UNL     1       1.295  -1.400  -0.119  0.00  0.00    +0.000 C 
ATOM     16  C   UNL     1       2.628  -1.263  -0.001  0.00  0.00    +0.000 C 
BRANCH  16  17
ATOM     17  C   UNL     1       3.390  -0.026  -0.167  0.00  0.00    +0.000 C 
ATOM     18  C   UNL     1       2.618   1.219  -0.539  0.00  0.00    +0.000 C 
ATOM     19  C   UNL     1       4.729   0.072  -0.040  0.00  0.00    +0.000 C 
BRANCH  19  21
ATOM     20  O   UNL     1       5.237   2.440   0.045  0.00  0.00    +0.000 OA
ATOM     21  C   UNL     1       5.559   1.290  -0.195  0.00  0.00    +0.000 C 
BRANCH  21  22
ATOM     22  O   UNL     1       6.769   0.920  -0.680  0.00  0.00    +0.000 OA
ATOM     23  H   UNL     1       7.363   1.690  -0.810  0.00  0.00    +0.000 HD
ENDBRANCH  21  22
ENDBRANCH  19  21
ENDBRANCH  16  17
ENDBRANCH   3  15
TORSDOF 5
