REMARK  Name = 5284513
REMARK  13 active torsions:
REMARK  status: ('A' for Active; 'I' for Inactive)
REMARK    1  A    between atoms: O_1  and  C_8
REMARK    2  A    between atoms: O_1  and  C_16
REMARK    3  A    between atoms: O_2  and  C_24
REMARK    4  A    between atoms: C_4  and  C_10
REMARK    5  A    between atoms: C_5  and  C_11
REMARK    6  A    between atoms: C_6  and  C_12
REMARK    7  A    between atoms: C_7  and  C_13
REMARK    8  A    between atoms: C_14  and  C_15
REMARK    9  A    between atoms: C_15  and  C_17
REMARK   10  A    between atoms: C_18  and  C_19
REMARK   11  A    between atoms: C_20  and  C_21
REMARK   12  A    between atoms: C_21  and  C_22
REMARK   13  A    between atoms: C_23  and  C_24
REMARK                            x       y       z     vdW  Elec       q    Type
REMARK                         _______ _______ _______ _____ _____    ______ ____
ROOT
ATOM      1  C   UNL     1      -1.709   0.441   0.890  0.00  0.00    +0.000 C 
ATOM      2  C   UNL     1      -0.564   0.215   0.226  0.00  0.00    +0.000 C 
ENDROOT
BRANCH   1   4
ATOM      3  C   UNL     1      -3.712  -0.938   0.432  0.00  0.00    +0.000 A 
ATOM      4  C   UNL     1      -3.058   0.282   0.320  0.00  0.00    +0.000 A 
ATOM      5  C   UNL     1      -4.989  -1.086  -0.109  0.00  0.00    +0.000 A 
ATOM      6  C   UNL     1      -3.658   1.356  -0.322  0.00  0.00    +0.000 A 
ATOM      7  C   UNL     1      -5.601  -0.013  -0.756  0.00  0.00    +0.000 A 
ATOM      8  C   UNL     1      -4.936   1.209  -0.863  0.00  0.00    +0.000 A 
ATOM      9  C   UNL     1      -3.067  -2.099   1.125  0.00  0.00    +0.000 C 
ATOM     10  C   UNL     1      -5.711  -2.391  -0.000  0.00  0.00    +0.000 C 
ATOM     11  C   UNL     1      -2.979   2.682  -0.457  0.00  0.00    +0.000 C 
BRANCH   7  12
ATOM     12  O   UNL     1      -6.848  -0.138  -1.291  0.00  0.00    +0.000 OA
ATOM     13  C   UNL     1      -7.951   0.177  -0.443  0.00  0.00    +0.000 C 
ENDBRANCH   7  12
ENDBRANCH   1   4
BRANCH   2  14
ATOM     14  C   UNL     1       0.773   0.365   0.797  0.00  0.00    +0.000 C 
ATOM     15  C   UNL     1       0.749   0.763   2.249  0.00  0.00    +0.000 C 
ATOM     16  C   UNL     1       1.877   0.118   0.062  0.00  0.00    +0.000 C 
BRANCH  16  17
ATOM     17  C   UNL     1       3.258   0.201   0.499  0.00  0.00    +0.000 C 
ATOM     18  C   UNL     1       4.292  -0.068  -0.318  0.00  0.00    +0.000 C 
BRANCH  18  19
ATOM     19  C   UNL     1       5.718  -0.020   0.023  0.00  0.00    +0.000 C 
ATOM     20  C   UNL     1       6.079   0.396   1.427  0.00  0.00    +0.000 C 
ATOM     21  C   UNL     1       6.609  -0.326  -0.942  0.00  0.00    +0.000 C 
BRANCH  21  23
ATOM     22  O   UNL     1       8.720  -0.051   0.206  0.00  0.00    +0.000 OA
ATOM     23  C   UNL     1       8.081  -0.334  -0.791  0.00  0.00    +0.000 C 
BRANCH  23  24
ATOM     24  O   UNL     1       8.627  -0.740  -1.963  0.00  0.00    +0.000 OA
ATOM     25  H   UNL     1       9.606  -0.773  -1.920  0.00  0.00    +0.000 HD
ENDBRANCH  23  24
ENDBRANCH  21  23
ENDBRANCH  18  19
ENDBRANCH  16  17
ENDBRANCH   2  14
TORSDOF 7
