REMARK  Name = 60198
REMARK  2 active torsions:
REMARK  status: ('A' for Active; 'I' for Inactive)
REMARK    1  A    between atoms: C_5  and  C_14
REMARK    2  A    between atoms: C_9  and  C_17
REMARK                            x       y       z     vdW  Elec       q    Type
REMARK                         _______ _______ _______ _____ _____    ______ ____
ROOT
ATOM      1  O   UNL     1       5.013  -1.177   0.779  0.00  0.00    +0.000 OA
ATOM      2  O   UNL     1      -5.284  -0.523   1.351  0.00  0.00    +0.000 OA
ATOM      3  C   UNL     1       2.037   0.581   0.433  0.00  0.00    +0.000 C 
ATOM      4  C   UNL     1       0.666   0.714  -0.235  0.00  0.00    +0.000 C 
ATOM      5  C   UNL     1       2.857  -0.575  -0.174  0.00  0.00    +0.000 C 
ATOM      6  C   UNL     1      -0.132  -0.615   0.008  0.00  0.00    +0.000 C 
ATOM      7  C   UNL     1       2.132  -1.878   0.147  0.00  0.00    +0.000 C 
ATOM      8  C   UNL     1       0.696  -1.865  -0.411  0.00  0.00    +0.000 C 
ATOM      9  C   UNL     1      -1.580  -0.544  -0.610  0.00  0.00    +0.000 C 
ATOM     10  C   UNL     1       3.001   1.762   0.435  0.00  0.00    +0.000 C 
ATOM     11  C   UNL     1      -0.115   1.923   0.301  0.00  0.00    +0.000 C 
ATOM     12  C   UNL     1       4.163  -0.325   0.558  0.00  0.00    +0.000 C 
ATOM     13  C   UNL     1       4.303   1.135   0.956  0.00  0.00    +0.000 C 
ATOM     14  C   UNL     1       3.169  -0.464  -1.678  0.00  0.00    +0.000 C 
ATOM     15  C   UNL     1      -2.269   0.725  -0.089  0.00  0.00    +0.000 C 
ATOM     16  C   UNL     1      -1.515   1.965  -0.252  0.00  0.00    +0.000 C 
ATOM     17  C   UNL     1      -1.559  -0.498  -2.157  0.00  0.00    +0.000 C 
ATOM     18  C   UNL     1      -2.374  -1.790  -0.241  0.00  0.00    +0.000 C 
ATOM     19  C   UNL     1      -3.452   0.725   0.546  0.00  0.00    +0.000 C 
ATOM     20  C   UNL     1      -3.552  -1.796   0.390  0.00  0.00    +0.000 C 
ATOM     21  C   UNL     1      -2.017   3.051  -0.860  0.00  0.00    +0.000 C 
ATOM     22  C   UNL     1      -4.187  -0.531   0.802  0.00  0.00    +0.000 C 
ENDROOT
TORSDOF 0
