REMARK  Name = 5281235
REMARK  21 active torsions:
REMARK  status: ('A' for Active; 'I' for Inactive)
REMARK    1  A    between atoms: O_1  and  C_5
REMARK    2  A    between atoms: C_2  and  C_12
REMARK    3  A    between atoms: C_2  and  C_13
REMARK    4  A    between atoms: C_4  and  C_16
REMARK    5  A    between atoms: C_4  and  C_17
REMARK    6  A    between atoms: C_6  and  C_18
REMARK    7  A    between atoms: C_9  and  C_19
REMARK    8  A    between atoms: C_11  and  C_20
REMARK    9  A    between atoms: C_15  and  C_21
REMARK   10  A    between atoms: C_22  and  C_24
REMARK   11  A    between atoms: C_23  and  C_25
REMARK   12  A    between atoms: C_24  and  C_26
REMARK   13  A    between atoms: C_25  and  C_28
REMARK   14  A    between atoms: C_27  and  C_30
REMARK   15  A    between atoms: C_29  and  C_31
REMARK   16  A    between atoms: C_32  and  C_34
REMARK   17  A    between atoms: C_33  and  C_35
REMARK   18  A    between atoms: C_34  and  C_36
REMARK   19  A    between atoms: C_35  and  C_39
REMARK   20  A    between atoms: C_37  and  C_40
REMARK   21  A    between atoms: C_38  and  C_41
REMARK                            x       y       z     vdW  Elec       q    Type
REMARK                         _______ _______ _______ _____ _____    ______ ____
ROOT
ATOM      1  C   UNL     1      -2.648   0.599  -0.216  0.00  0.00    +0.000 C 
ATOM      2  C   UNL     1      -2.411   2.053  -0.545  0.00  0.00    +0.000 C 
ATOM      3  C   UNL     1      -1.581  -0.207  -0.026  0.00  0.00    +0.000 C 
ENDROOT
BRANCH   1   5
ATOM      4  C   UNL     1      -5.136   0.876  -0.330  0.00  0.00    +0.000 C 
ATOM      5  C   UNL     1      -4.032   0.130  -0.151  0.00  0.00    +0.000 C 
BRANCH   4   8
ATOM      6  C   UNL     1      -7.659   0.951  -0.399  0.00  0.00    +0.000 C 
ATOM      7  C   UNL     1      -7.651   2.429  -0.715  0.00  0.00    +0.000 C 
ATOM      8  C   UNL     1      -6.475   0.321  -0.243  0.00  0.00    +0.000 C 
BRANCH   6  10
ATOM      9  C   UNL     1     -10.161   0.877  -0.437  0.00  0.00    +0.000 C 
ATOM     10  C   UNL     1      -8.961   0.293  -0.290  0.00  0.00    +0.000 C 
BRANCH   9  14
ATOM     11  C   UNL     1     -12.543   0.896   0.442  0.00  0.00    +0.000 C 
ATOM     12  C   UNL     1     -13.909   0.157   0.321  0.00  0.00    +0.000 C 
ATOM     13  C   UNL     1     -13.806  -1.357   0.422  0.00  0.00    +0.000 C 
ATOM     14  C   UNL     1     -11.418   0.155  -0.317  0.00  0.00    +0.000 C 
ATOM     15  C   UNL     1     -12.849  -1.901  -0.631  0.00  0.00    +0.000 C 
ATOM     16  C   UNL     1     -11.578  -1.094  -0.820  0.00  0.00    +0.000 C 
ATOM     17  C   UNL     1     -12.161   1.045   1.933  0.00  0.00    +0.000 C 
ATOM     18  C   UNL     1     -12.782   2.315  -0.136  0.00  0.00    +0.000 C 
ATOM     19  C   UNL     1     -10.549  -1.855  -1.625  0.00  0.00    +0.000 C 
BRANCH  13  20
ATOM     20  O   UNL     1     -13.367  -1.765   1.712  0.00  0.00    +0.000 OA
ATOM     21  H   UNL     1     -13.996  -1.408   2.362  0.00  0.00    +0.000 HD
ENDBRANCH  13  20
ENDBRANCH   9  14
ENDBRANCH   6  10
ENDBRANCH   4   8
ENDBRANCH   1   5
BRANCH   3  22
ATOM     22  C   UNL     1      -0.174   0.134  -0.065  0.00  0.00    +0.000 C 
ATOM     23  C   UNL     1       0.881  -0.677   0.126  0.00  0.00    +0.000 C 
BRANCH  23  25
ATOM     24  C   UNL     1       3.358  -1.087   0.267  0.00  0.00    +0.000 C 
ATOM     25  C   UNL     1       2.279  -0.296   0.080  0.00  0.00    +0.000 C 
ATOM     26  C   UNL     1       3.297  -2.559   0.587  0.00  0.00    +0.000 C 
BRANCH  24  28
ATOM     27  C   UNL     1       5.871  -1.090   0.330  0.00  0.00    +0.000 C 
ATOM     28  C   UNL     1       4.687  -0.474   0.176  0.00  0.00    +0.000 C 
BRANCH  27  31
ATOM     29  C   UNL     1       8.392  -0.953   0.345  0.00  0.00    +0.000 C 
ATOM     30  C   UNL     1       8.526  -2.414   0.701  0.00  0.00    +0.000 C 
ATOM     31  C   UNL     1       7.155  -0.428   0.209  0.00  0.00    +0.000 C 
BRANCH  29  33
ATOM     32  C   UNL     1      10.876  -0.636   0.321  0.00  0.00    +0.000 C 
ATOM     33  C   UNL     1       9.621  -0.174   0.198  0.00  0.00    +0.000 C 
BRANCH  32  37
ATOM     34  C   UNL     1      13.227  -0.425  -0.616  0.00  0.00    +0.000 C 
ATOM     35  C   UNL     1      14.523   0.419  -0.477  0.00  0.00    +0.000 C 
ATOM     36  C   UNL     1      14.261   1.905  -0.642  0.00  0.00    +0.000 C 
ATOM     37  C   UNL     1      12.050   0.206   0.165  0.00  0.00    +0.000 C 
ATOM     38  C   UNL     1      13.288   2.385   0.424  0.00  0.00    +0.000 C 
ATOM     39  C   UNL     1      12.101   1.471   0.653  0.00  0.00    +0.000 C 
ATOM     40  C   UNL     1      13.581  -1.839  -0.093  0.00  0.00    +0.000 C 
ATOM     41  C   UNL     1      12.856  -0.534  -2.112  0.00  0.00    +0.000 C 
ATOM     42  C   UNL     1      11.024   2.147   1.471  0.00  0.00    +0.000 C 
ENDBRANCH  32  37
ENDBRANCH  29  33
ENDBRANCH  27  31
ENDBRANCH  24  28
ENDBRANCH  23  25
ENDBRANCH   3  22
TORSDOF 11
