REMARK  Name = [NO NAME]
REMARK  40 active torsions:
REMARK  status: ('A' for Active; 'I' for Inactive)
REMARK    1  A    between atoms: O_4  and  C_51
REMARK    2  A    between atoms: O_4  and  C_54
REMARK    3  A    between atoms: O_13  and  C_80
REMARK    4  A    between atoms: O_14  and  C_91
REMARK    5  A    between atoms: N_16  and  C_38
REMARK    6  A    between atoms: N_17  and  N_19
REMARK    7  A    between atoms: N_18  and  C_42
REMARK    8  A    between atoms: N_20  and  C_46
REMARK    9  A    between atoms: N_21  and  C_50
REMARK   10  A    between atoms: N_23  and  CA_59
REMARK   11  A    between atoms: N_25  and  C_55
REMARK   12  A    between atoms: N_26  and  CA_60
REMARK   13  A    between atoms: N_27  and  C_67
REMARK   14  A    between atoms: C_33  and  C_39
REMARK   15  A    between atoms: C_37  and  C_38
REMARK   16  A    between atoms: C_38  and  C_40
REMARK   17  A    between atoms: C_40  and  C_41
REMARK   18  A    between atoms: C_41  and  C_46
REMARK   19  A    between atoms: C_42  and  C_43
REMARK   20  A    between atoms: C_42  and  C_44
REMARK   21  A    between atoms: C_44  and  C_45
REMARK   22  A    between atoms: C_45  and  C_47
REMARK   23  A    between atoms: C_45  and  C_48
REMARK   24  A    between atoms: C_49  and  C_50
REMARK   25  A    between atoms: C_50  and  C_51
REMARK   26  A    between atoms: C_53  and  C_64
REMARK   27  A    between atoms: C_54  and  C_69
REMARK   28  A    between atoms: C_54  and  C_70
REMARK   29  A    between atoms: C_54  and  C_71
REMARK   30  A    between atoms: C_55  and  C_56
REMARK   31  A    between atoms: C_55  and  C_62
REMARK   32  A    between atoms: CA_59  and  CB_66
REMARK   33  A    between atoms: CA_59  and  C_68
REMARK   34  A    between atoms: CA_60  and  CB_63
REMARK   35  A    between atoms: CA_60  and  C_73
REMARK   36  A    between atoms: C_62  and  C_75
REMARK   37  A    between atoms: CB_63  and  CG_72
REMARK   38  A    between atoms: CB_66  and  CG_77
REMARK   39  A    between atoms: C_67  and  C_74
REMARK   40  A    between atoms: C_67  and  C_80
REMARK                            x       y       z     vdW  Elec       q    Type
REMARK                         _______ _______ _______ _____ _____    ______ ____
ROOT
ATOM      1  C   UNK A   4       8.998   1.660   0.000  0.00  0.00    +0.000 C 
ENDROOT
BRANCH   1   4
ATOM      2  O   UNK A   4      10.356   1.216   0.000  0.00  0.00    +0.000 OA
ATOM      3  N   UNK A   4       9.293   0.262   0.000  0.00  0.00    +0.000 N 
ATOM      4  C   UNK A   4       9.549   1.046   0.000  0.00  0.00    +0.000 C 
ATOM      5  H   UNK A   4       8.329   0.059   0.000  0.00  0.00    +0.000 HD
BRANCH   3   6
ATOM      6  C   UNK A   4       9.844  -0.352   0.000  0.00  0.00    +0.000 C 
BRANCH   6   9
ATOM      7  O   UNK A   4       8.780  -1.306   0.000  0.00  0.00    +0.000 OA
ATOM      8  N   UNK A   4      10.138  -1.750   0.000  0.00  0.00    +0.000 N 
ATOM      9  C   UNK A   4       9.587  -1.136   0.000  0.00  0.00    +0.000 C 
ATOM     10  H   UNK A   4      11.102  -1.547   0.000  0.00  0.00    +0.000 HD
BRANCH   8  11
ATOM     11  C   UNK A   4       9.882  -2.534   0.000  0.00  0.00    +0.000 C 
BRANCH  11  14
ATOM     12  O   UNK A   4      10.177  -3.933   0.000  0.00  0.00    +0.000 OA
ATOM     13  N   UNK A   4      11.240  -2.978   0.000  0.00  0.00    +0.000 N 
ATOM     14  C   UNK A   4      10.433  -3.149   0.000  0.00  0.00    +0.000 C 
ATOM     15  H   UNK A   4      11.546  -2.043   0.000  0.00  0.00    +0.000 HD
BRANCH  13  16
ATOM     16  C   UNK A   4      11.791  -3.592   0.000  0.00  0.00    +0.000 C 
BRANCH  16  23
ATOM     17  O   UNK A   4      12.855  -2.638   0.000  0.00  0.00    +0.000 OA
ATOM     18  N   UNK A   4      13.149  -4.036   0.000  0.00  0.00    +0.000 N 
ATOM     19  C   UNK A   4      13.970  -3.952   0.000  0.00  0.00    +0.000 C 
ATOM     20  C   UNK A   4      14.304  -4.706   0.000  0.00  0.00    +0.000 C 
ATOM     21  C   UNK A   4      13.690  -5.257   0.000  0.00  0.00    +0.000 C 
ATOM     22  C   UNK A   4      12.977  -4.843   0.000  0.00  0.00    +0.000 C 
ATOM     23  C   UNK A   4      12.598  -3.422   0.000  0.00  0.00    +0.000 C 
BRANCH  19  26
ATOM     24  O   UNK A   4      13.973  -2.523   0.000  0.00  0.00    +0.000 OA
ATOM     25  N   UNK A   4      15.209  -3.239   0.000  0.00  0.00    +0.000 N 
ATOM     26  C   UNK A   4      14.384  -3.238   0.000  0.00  0.00    +0.000 C 
ATOM     27  H   UNK A   4      15.700  -4.093   0.000  0.00  0.00    +0.000 HD
BRANCH  25  29
ATOM     28  O   UNK A   4      16.859  -3.242   0.000  0.00  0.00    +0.000 OA
ATOM     29  N   UNK A   4      15.623  -2.526   0.000  0.00  0.00    +0.000 N 
ATOM     30  N   UNK A   4      16.861  -1.813   0.000  0.00  0.00    +0.000 N 
ATOM     31  C   UNK A   4      16.448  -2.527   0.000  0.00  0.00    +0.000 C 
ATOM     32  H   UNK A   4      15.132  -1.672   0.000  0.00  0.00    +0.000 HD
ATOM     33  H   UNK A   4      17.846  -1.815   0.000  0.00  0.00    +0.000 HD
ATOM     34  H   UNK A   4      16.371  -0.960   0.000  0.00  0.00    +0.000 HD
ENDBRANCH  25  29
ENDBRANCH  19  26
ENDBRANCH  16  23
BRANCH  16  35
ATOM     35  C   UNK A   4      11.535  -4.377   0.000  0.00  0.00    +0.000 C 
BRANCH  35  36
ATOM     36  C   UNK A   4      12.086  -4.991   0.000  0.00  0.00    +0.000 C 
BRANCH  36  37
ATOM     37  C   UNK A   4      11.829  -5.775   0.000  0.00  0.00    +0.000 C 
BRANCH  37  38
ATOM     38  N   UNK A   4      12.381  -6.389   0.000  0.00  0.00    +0.000 NA
ATOM     39  N   UNK A   4      11.317  -7.343   0.000  0.00  0.00    +0.000 N 
ATOM     40  N   UNK A   4      12.675  -7.787   0.000  0.00  0.00    +0.000 N 
ATOM     41  C   UNK A   4      12.124  -7.173   0.000  0.00  0.00    +0.000 C 
ATOM     42  H   UNK A   4      10.660  -6.611   0.000  0.00  0.00    +0.000 HD
ATOM     43  H   UNK A   4      11.011  -8.279   0.000  0.00  0.00    +0.000 HD
ATOM     44  H   UNK A   4      12.370  -8.723   0.000  0.00  0.00    +0.000 HD
ATOM     45  H   UNK A   4      13.639  -7.584   0.000  0.00  0.00    +0.000 HD
ENDBRANCH  37  38
ENDBRANCH  36  37
ENDBRANCH  35  36
ENDBRANCH  16  35
ENDBRANCH  13  16
ENDBRANCH  11  14
BRANCH  11  46
ATOM     46  C   UNK A   4       9.075  -2.705   0.000  0.00  0.00    +0.000 C 
BRANCH  46  47
ATOM     47  C   UNK A   4       8.818  -3.489   0.000  0.00  0.00    +0.000 C 
ATOM     48  C   UNK A   4       8.011  -3.659   0.000  0.00  0.00    +0.000 C 
ATOM     49  C   UNK A   4       9.369  -4.103   0.000  0.00  0.00    +0.000 C 
ENDBRANCH  46  47
ENDBRANCH  11  46
ENDBRANCH   8  11
ENDBRANCH   6   9
BRANCH   6  50
ATOM     50  C   UNK A   4      10.651  -0.182   0.000  0.00  0.00    +0.000 C 
BRANCH  50  51
ATOM     51  O   UNK A   4      11.202  -0.796   0.000  0.00  0.00    +0.000 OA
BRANCH  51  52
ATOM     52  C   UNK A   4      12.009  -0.626   0.000  0.00  0.00    +0.000 C 
ATOM     53  C   UNK A   4      12.179  -1.433   0.000  0.00  0.00    +0.000 C 
ATOM     54  C   UNK A   4      12.816  -0.456   0.000  0.00  0.00    +0.000 C 
ATOM     55  C   UNK A   4      11.839   0.181   0.000  0.00  0.00    +0.000 C 
ENDBRANCH  51  52
ENDBRANCH  50  51
ENDBRANCH   6  50
ENDBRANCH   3   6
ENDBRANCH   1   4
BRANCH   1  57
ATOM     56  O   UNK A   4       7.896   2.888   0.000  0.00  0.00    +0.000 OA
ATOM     57  N   UNK A   4       8.191   1.490   0.000  0.00  0.00    +0.000 N 
ATOM     58  C   UNK A   4       7.640   2.104   0.000  0.00  0.00    +0.000 C 
ATOM     59  H   UNK A   4       7.885   0.554   0.000  0.00  0.00    +0.000 HD
BRANCH  58  60
ATOM     60  C   UNK A   4       6.832   1.934   0.000  0.00  0.00    +0.000 C 
BRANCH  60  62
ATOM     61  O   TRP A   3       5.218   1.594   0.000  0.00  0.00    +0.000 OA
ATOM     62  N   UNK A   4       6.281   2.548   0.000  0.00  0.00    +0.000 N 
ATOM     63  C   TRP A   3       5.474   2.378   0.000  0.00  0.00    +0.000 C 
ATOM     64  H   UNK A   4       6.587   3.484   0.000  0.00  0.00    +0.000 HD
BRANCH  63  65
ATOM     65  CA  TRP A   3       4.923   2.992   0.000  0.00  0.00    +0.000 C 
BRANCH  65  67
ATOM     66  O   HIS A   2       3.821   4.220   0.000  0.00  0.00    +0.000 OA
ATOM     67  N   TRP A   3       5.179   3.776   0.000  0.00  0.00    +0.000 N 
ATOM     68  C   HIS A   2       4.628   4.390   0.000  0.00  0.00    +0.000 C 
ATOM     69  H   TRP A   3       6.143   3.979   0.000  0.00  0.00    +0.000 HD
BRANCH  68  70
ATOM     70  CA  HIS A   2       4.885   5.174   0.000  0.00  0.00    +0.000 C 
BRANCH  70  72
ATOM     71  O   UNK A   1       3.270   4.834   0.000  0.00  0.00    +0.000 OA
ATOM     72  N   HIS A   2       4.334   5.788   0.000  0.00  0.00    +0.000 N 
ATOM     73  C   UNK A   1       3.527   5.618   0.000  0.00  0.00    +0.000 C 
ATOM     74  H   HIS A   2       4.640   6.724   0.000  0.00  0.00    +0.000 HD
BRANCH  73  77
ATOM     75  O   UNK A   1       2.350   8.273   0.000  0.00  0.00    +0.000 OA
ATOM     76  N   UNK A   1       3.148   7.039   0.000  0.00  0.00    +0.000 N 
ATOM     77  C   UNK A   1       2.976   6.232   0.000  0.00  0.00    +0.000 C 
ATOM     78  C   UNK A   1       2.155   6.147   0.000  0.00  0.00    +0.000 C 
ATOM     79  C   UNK A   1       1.821   6.902   0.000  0.00  0.00    +0.000 C 
ATOM     80  C   UNK A   1       2.435   7.453   0.000  0.00  0.00    +0.000 C 
ATOM     81  H   UNK A   1       4.049   7.438   0.000  0.00  0.00    +0.000 HD
ENDBRANCH  73  77
ENDBRANCH  70  72
BRANCH  70  82
ATOM     82  CB  HIS A   2       5.692   5.345   0.000  0.00  0.00    +0.000 C 
BRANCH  82  85
ATOM     83  ND1 HIS A   2       6.734   6.382   0.000  0.00  0.00    +0.000 N 
ATOM     84  NE2 HIS A   2       5.951   7.464   0.000  0.00  0.00    +0.000 NA
ATOM     85  CG  HIS A   2       5.948   6.129   0.000  0.00  0.00    +0.000 A 
ATOM     86  CD2 HIS A   2       5.465   6.797   0.000  0.00  0.00    +0.000 A 
ATOM     87  CE1 HIS A   2       6.735   7.207   0.000  0.00  0.00    +0.000 A 
ATOM     88  HD1 HIS A   2       7.529   5.802   0.000  0.00  0.00    +0.000 HD
ENDBRANCH  82  85
ENDBRANCH  70  82
ENDBRANCH  68  70
ENDBRANCH  65  67
BRANCH  65  89
ATOM     89  CB  TRP A   3       4.116   2.822   0.000  0.00  0.00    +0.000 C 
BRANCH  89  91
ATOM     90  NE1 TRP A   3       3.860   0.710   0.000  0.00  0.00    +0.000 N 
ATOM     91  CG  TRP A   3       3.860   2.038   0.000  0.00  0.00    +0.000 A 
ATOM     92  CD2 TRP A   3       3.079   1.786   0.000  0.00  0.00    +0.000 A 
ATOM     93  CD1 TRP A   3       4.341   1.374   0.000  0.00  0.00    +0.000 A 
ATOM     94  CE2 TRP A   3       3.079   0.961   0.000  0.00  0.00    +0.000 A 
ATOM     95  CE3 TRP A   3       2.365   2.199   0.000  0.00  0.00    +0.000 A 
ATOM     96  CZ2 TRP A   3       2.365   0.549   0.000  0.00  0.00    +0.000 A 
ATOM     97  CZ3 TRP A   3       1.650   1.786   0.000  0.00  0.00    +0.000 A 
ATOM     98  CH2 TRP A   3       1.650   0.961   0.000  0.00  0.00    +0.000 A 
ATOM     99  HE1 TRP A   3       4.165  -0.226   0.000  0.00  0.00    +0.000 HD
ENDBRANCH  89  91
ENDBRANCH  65  89
ENDBRANCH  63  65
ENDBRANCH  60  62
BRANCH  60 100
ATOM    100  C   UNK A   4       6.576   1.150   0.000  0.00  0.00    +0.000 C 
BRANCH 100 101
ATOM    101  O   UNK A   4       7.127   0.536   0.000  0.00  0.00    +0.000 OA
ATOM    102  H   UNK A   4       6.826  -0.386   0.000  0.00  0.00    +0.000 HD
ENDBRANCH 100 101
ENDBRANCH  60 100
ENDBRANCH  58  60
ENDBRANCH   1  57
BRANCH   1 103
ATOM    103  C   UNK A   4       9.254   2.444   0.000  0.00  0.00    +0.000 C 
BRANCH 103 104
ATOM    104  C   UNK A   4      10.062   2.615   0.000  0.00  0.00    +0.000 A 
ATOM    105  C   UNK A   4      10.318   3.399   0.000  0.00  0.00    +0.000 A 
ATOM    106  C   UNK A   4      10.613   2.001   0.000  0.00  0.00    +0.000 A 
ATOM    107  C   UNK A   4      11.125   3.569   0.000  0.00  0.00    +0.000 A 
ATOM    108  C   UNK A   4      11.420   2.171   0.000  0.00  0.00    +0.000 A 
ATOM    109  C   UNK A   4      11.676   2.955   0.000  0.00  0.00    +0.000 A 
BRANCH 109 110
ATOM    110  O   UNK A   4      12.483   3.125   0.000  0.00  0.00    +0.000 OA
ATOM    111  H   UNK A   4      13.109   2.427   0.000  0.00  0.00    +0.000 HD
ENDBRANCH 109 110
ENDBRANCH 103 104
ENDBRANCH   1 103
TORSDOF 35
