REMARK  Name = 
REMARK  24 active torsions:
REMARK  status: ('A' for Active; 'I' for Inactive)
REMARK    1  A    between atoms: C_1  and  C_2
REMARK    2  A    between atoms: C_2  and  C_3
REMARK    3  A    between atoms: C_2  and  C_4
REMARK    4  A    between atoms: C_6  and  C_7
REMARK    5  A    between atoms: C_7  and  N_8
REMARK    6  A    between atoms: N_8  and  C_9
REMARK    7  A    between atoms: N_12  and  C_13
REMARK    8  A    between atoms: C_13  and  C_14
REMARK    9  A    between atoms: C_13  and  C_46
REMARK   10  A    between atoms: N_16  and  C_17
REMARK   11  A    between atoms: C_17  and  C_18
REMARK   12  A    between atoms: C_17  and  C_25
REMARK   13  A    between atoms: C_18  and  C_19
REMARK   14  A    between atoms: C_25  and  C_26
REMARK   15  A    between atoms: C_26  and  O_27
REMARK   16  A    between atoms: C_26  and  C_28
REMARK   17  A    between atoms: C_28  and  C_29
REMARK   18  A    between atoms: C_28  and  N_36
REMARK   19  A    between atoms: C_29  and  C_30
REMARK   20  A    between atoms: C_37  and  O_39
REMARK   21  A    between atoms: O_39  and  C_40
REMARK   22  A    between atoms: C_40  and  C_41
REMARK   23  A    between atoms: C_46  and  C_47
REMARK   24  A    between atoms: C_46  and  C_48
REMARK                            x       y       z     vdW  Elec       q    Type
REMARK                         _______ _______ _______ _____ _____    ______ ____
ROOT
ATOM      1  C   UNL     1       0.301   0.428   0.610  0.00  0.00    +0.000 C 
ENDROOT
BRANCH   1   4
ATOM      2  C   UNL     1       2.633   1.154   0.739  0.00  0.00    +0.000 C 
ATOM      3  O   UNL     1       2.403   1.430   1.958  0.00  0.00    +0.000 OA
ATOM      4  N   UNL     1       1.637   0.838  -0.127  0.00  0.00    +0.000 N 
ATOM      5  H   UNL     1       1.736   0.863  -1.106  0.00  0.00    +0.000 HD
BRANCH   2   6
ATOM      6  C   UNL     1       4.127   0.561   0.728  0.00  0.00    +0.000 C 
BRANCH   6  11
ATOM      7  N   UNL     1       4.533  -3.196   0.999  0.00  0.00    +0.000 N 
ATOM      8  C   UNL     1       4.429  -4.247   1.999  0.00  0.00    +0.000 C 
ATOM      9  C   UNL     1       4.237  -1.838   1.325  0.00  0.00    +0.000 C 
ATOM     10  O   UNL     1       4.774  -1.446   2.405  0.00  0.00    +0.000 OA
ATOM     11  N   UNL     1       3.720  -0.918   0.361  0.00  0.00    +0.000 N 
ATOM     12  H   UNL     1       3.184  -1.172  -0.424  0.00  0.00    +0.000 HD
BRANCH   7  13
ATOM     13  C   UNL     1       4.966  -3.474  -0.340  0.00  0.00    +0.000 C 
BRANCH  13  16
ATOM     14  C   UNL     1       7.905  -1.338  -0.327  0.00  0.00    +0.000 A 
ATOM     15  N   UNL     1       7.099  -2.267   0.242  0.00  0.00    +0.000 NA
ATOM     16  C   UNL     1       6.305  -2.867  -0.640  0.00  0.00    +0.000 A 
ATOM     17  C   UNL     1       7.016  -3.322  -1.748  0.00  0.00    +0.000 A 
ATOM     18  S   UNL     1       8.204  -2.082  -1.846  0.00  0.00    +0.000 S 
BRANCH  14  20
ATOM     19  C   UNL     1       8.498   0.895   0.640  0.00  0.00    +0.000 C 
ATOM     20  C   UNL     1       8.876  -0.492   0.362  0.00  0.00    +0.000 C 
ATOM     21  C   UNL     1      10.298  -0.817   0.184  0.00  0.00    +0.000 C 
ENDBRANCH  14  20
ENDBRANCH  13  16
ENDBRANCH   7  13
ENDBRANCH   6  11
BRANCH   6  22
ATOM     22  C   UNL     1       4.432   0.983  -0.826  0.00  0.00    +0.000 C 
ATOM     23  C   UNL     1       3.613   0.255  -1.760  0.00  0.00    +0.000 C 
ATOM     24  C   UNL     1       4.351   2.459  -0.784  0.00  0.00    +0.000 C 
ENDBRANCH   6  22
ENDBRANCH   2   6
ENDBRANCH   1   4
BRANCH   1  25
ATOM     25  C   UNL     1       0.119   1.872   1.330  0.00  0.00    +0.000 C 
BRANCH  25  26
ATOM     26  C   UNL     1      -0.137   2.961   0.410  0.00  0.00    +0.000 A 
ATOM     27  C   UNL     1      -1.360   3.295  -0.137  0.00  0.00    +0.000 A 
ATOM     28  C   UNL     1      -2.097   4.403   0.121  0.00  0.00    +0.000 A 
ATOM     29  C   UNL     1      -1.481   5.435   0.804  0.00  0.00    +0.000 A 
ATOM     30  C   UNL     1      -0.100   5.350   0.939  0.00  0.00    +0.000 A 
ATOM     31  C   UNL     1       0.546   4.156   0.661  0.00  0.00    +0.000 A 
ENDBRANCH  25  26
ENDBRANCH   1  25
BRANCH   1  32
ATOM     32  C   UNL     1      -0.704   0.715  -0.665  0.00  0.00    +0.000 C 
BRANCH  32  33
ATOM     33  C   UNL     1      -1.988   0.093   0.154  0.00  0.00    +0.000 C 
BRANCH  33  34
ATOM     34  O   UNL     1      -1.359  -1.275   0.274  0.00  0.00    +0.000 OA
ATOM     35  H   UNL     1      -1.027  -1.555  -0.593  0.00  0.00    +0.000 HD
ENDBRANCH  33  34
BRANCH  33  36
ATOM     36  C   UNL     1      -2.868  -0.458  -1.217  0.00  0.00    +0.000 C 
BRANCH  36  37
ATOM     37  N   UNL     1      -4.050  -0.871  -0.283  0.00  0.00    +0.000 N 
ATOM     38  C   UNL     1      -5.285  -1.165  -0.930  0.00  0.00    +0.000 C 
ATOM     39  O   UNL     1      -5.128  -2.144  -1.726  0.00  0.00    +0.000 OA
ATOM     40  H   UNL     1      -3.948  -0.926   0.695  0.00  0.00    +0.000 HD
BRANCH  38  41
ATOM     41  O   UNL     1      -6.471  -1.031  -0.198  0.00  0.00    +0.000 OA
BRANCH  41  42
ATOM     42  C   UNL     1      -7.668  -1.399  -0.825  0.00  0.00    +0.000 C 
BRANCH  42  43
ATOM     43  C   UNL     1      -8.268  -2.421   0.055  0.00  0.00    +0.000 A 
ATOM     44  C   UNL     1      -8.339  -3.781  -0.228  0.00  0.00    +0.000 A 
ATOM     45  N   UNL     1      -9.320  -4.361   0.461  0.00  0.00    +0.000 NA
ATOM     46  C   UNL     1      -9.254  -4.071   1.784  0.00  0.00    +0.000 A 
ATOM     47  S   UNL     1      -8.562  -2.498   1.744  0.00  0.00    +0.000 S 
ENDBRANCH  42  43
ENDBRANCH  41  42
ENDBRANCH  38  41
ENDBRANCH  36  37
BRANCH  36  48
ATOM     48  C   UNL     1      -3.553   0.955  -1.606  0.00  0.00    +0.000 C 
BRANCH  48  49
ATOM     49  C   UNL     1      -3.866   1.736  -0.447  0.00  0.00    +0.000 A 
ATOM     50  C   UNL     1      -4.061   1.427   0.862  0.00  0.00    +0.000 A 
ATOM     51  C   UNL     1      -4.533   2.235   1.848  0.00  0.00    +0.000 A 
ATOM     52  C   UNL     1      -5.318   3.295   1.407  0.00  0.00    +0.000 A 
ATOM     53  C   UNL     1      -4.965   3.815   0.167  0.00  0.00    +0.000 A 
ATOM     54  C   UNL     1      -4.284   3.030  -0.757  0.00  0.00    +0.000 A 
ENDBRANCH  48  49
ENDBRANCH  36  48
ENDBRANCH  33  36
ENDBRANCH  32  33
ENDBRANCH   1  32
TORSDOF 19
