REMARK  Name = 
REMARK  20 active torsions:
REMARK  status: ('A' for Active; 'I' for Inactive)
REMARK    1  A    between atoms: C_1  and  N_2
REMARK    2  A    between atoms: N_2  and  C_3
REMARK    3  A    between atoms: C_3  and  C_4
REMARK    4  A    between atoms: C_4  and  C_5
REMARK    5  A    between atoms: C_5  and  C_6
REMARK    6  A    between atoms: C_12  and  C_14
REMARK    7  A    between atoms: C_14  and  C_15
REMARK    8  A    between atoms: C_14  and  N_20
REMARK    9  A    between atoms: C_15  and  C_16
REMARK   10  A    between atoms: C_16  and  C_17
REMARK   11  A    between atoms: C_17  and  O_19
REMARK   12  A    between atoms: N_23  and  C_24
REMARK   13  A    between atoms: N_23  and  C_28
REMARK   14  A    between atoms: C_24  and  C_25
REMARK   15  A    between atoms: C_25  and  O_27
REMARK   16  A    between atoms: C_28  and  C_29
REMARK   17  A    between atoms: C_32  and  O_33
REMARK   18  A    between atoms: O_33  and  P_34
REMARK   19  A    between atoms: P_34  and  O_36
REMARK   20  A    between atoms: P_34  and  O_37
REMARK                            x       y       z     vdW  Elec       q    Type
REMARK                         _______ _______ _______ _____ _____    ______ ____
ROOT
ATOM      1  N   UNL     1       0.163   1.301  -0.770  0.00  0.00    +0.000 N 
ATOM      2  C   UNL     1      -0.601   0.626   0.139  0.00  0.00    +0.000 C 
ATOM      3  O   UNL     1      -0.884  -0.562  -0.084  0.00  0.00    +0.000 OA
ATOM      4  N   UNL     1      -1.629   1.425   0.746  0.00  0.00    +0.000 N 
ATOM      5  H   UNL     1       0.075   2.279  -0.830  0.00  0.00    +0.000 HD
ENDROOT
BRANCH   1   6
ATOM      6  C   UNL     1       1.183   0.566  -1.730  0.00  0.00    +0.000 C 
BRANCH   6   9
ATOM      7  C   UNL     1       2.530  -1.161   1.083  0.00  0.00    +0.000 C 
ATOM      8  N   UNL     1       2.460  -1.239  -0.369  0.00  0.00    +0.000 N 
ATOM      9  C   UNL     1       1.200  -0.868  -0.945  0.00  0.00    +0.000 C 
ATOM     10  O   UNL     1       0.903  -1.706  -1.867  0.00  0.00    +0.000 OA
BRANCH   8  11
ATOM     11  C   UNL     1       3.485  -1.996  -1.005  0.00  0.00    +0.000 C 
BRANCH  11  12
ATOM     12  C   UNL     1       4.284  -1.318  -2.043  0.00  0.00    +0.000 C 
BRANCH  12  13
ATOM     13  C   UNL     1       5.646  -0.871  -1.688  0.00  0.00    +0.000 C 
BRANCH  13  14
ATOM     14  C   UNL     1       6.342  -1.536  -0.595  0.00  0.00    +0.000 C 
ATOM     15  C   UNL     1       6.583  -0.781   0.656  0.00  0.00    +0.000 C 
ATOM     16  C   UNL     1       7.679  -1.525   1.413  0.00  0.00    +0.000 C 
ATOM     17  C   UNL     1       8.457  -2.407   0.453  0.00  0.00    +0.000 C 
ATOM     18  C   UNL     1       7.587  -3.549  -0.053  0.00  0.00    +0.000 C 
ATOM     19  C   UNL     1       6.226  -3.007  -0.475  0.00  0.00    +0.000 C 
ENDBRANCH  13  14
ENDBRANCH  12  13
ENDBRANCH  11  12
ENDBRANCH   8  11
ENDBRANCH   6   9
BRANCH   6  20
ATOM     20  C   UNL     1       2.476   1.202  -0.904  0.00  0.00    +0.000 C 
BRANCH  20  21
ATOM     21  C   UNL     1       2.178   2.636  -0.645  0.00  0.00    +0.000 C 
BRANCH  21  22
ATOM     22  C   UNL     1       2.580   2.908   0.774  0.00  0.00    +0.000 C 
ATOM     23  O   UNL     1       3.424   2.168   1.363  0.00  0.00    +0.000 OA
BRANCH  22  24
ATOM     24  O   UNL     1       1.704   3.541   1.664  0.00  0.00    +0.000 OA
ATOM     25  H   UNL     1       1.037   4.113   1.338  0.00  0.00    +0.000 HD
ENDBRANCH  22  24
ENDBRANCH  21  22
ENDBRANCH  20  21
ENDBRANCH   6  20
ENDBRANCH   1   6
BRANCH   4  26
ATOM     26  C   UNL     1      -1.265   2.756   1.229  0.00  0.00    +0.000 C 
BRANCH  26  27
ATOM     27  C   UNL     1      -1.719   3.827   0.328  0.00  0.00    +0.000 C 
ATOM     28  O   UNL     1      -0.856   4.314  -0.464  0.00  0.00    +0.000 OA
BRANCH  27  29
ATOM     29  O   UNL     1      -2.809   4.601   0.651  0.00  0.00    +0.000 OA
ATOM     30  H   UNL     1      -3.464   4.269   1.233  0.00  0.00    +0.000 HD
ENDBRANCH  27  29
ENDBRANCH  26  27
ENDBRANCH   4  26
BRANCH   4  31
ATOM     31  C   UNL     1      -2.744   0.821   1.452  0.00  0.00    +0.000 C 
BRANCH  31  32
ATOM     32  C   UNL     1      -4.040   1.130   0.764  0.00  0.00    +0.000 A 
ATOM     33  C   UNL     1      -4.352   0.586  -0.479  0.00  0.00    +0.000 A 
ATOM     34  C   UNL     1      -5.572  -0.055  -0.674  0.00  0.00    +0.000 A 
ATOM     35  C   UNL     1      -6.532  -0.117   0.331  0.00  0.00    +0.000 A 
ATOM     36  C   UNL     1      -6.404   0.892   1.279  0.00  0.00    +0.000 A 
ATOM     37  C   UNL     1      -5.161   1.474   1.514  0.00  0.00    +0.000 A 
BRANCH  35  38
ATOM     38  O   UNL     1      -7.251  -1.290   0.587  0.00  0.00    +0.000 OA
BRANCH  38  39
ATOM     39  P   UNL     1      -6.541  -2.842   0.478  0.00  0.00    +0.000 P 
ATOM     40  O   UNL     1      -7.019  -3.487  -0.784  0.00  0.00    +0.000 OA
BRANCH  39  41
ATOM     41  O   UNL     1      -4.861  -2.654   0.340  0.00  0.00    +0.000 OA
ATOM     42  H   UNL     1      -4.660  -2.099  -0.429  0.00  0.00    +0.000 HD
ENDBRANCH  39  41
BRANCH  39  43
ATOM     43  O   UNL     1      -6.848  -3.803   1.813  0.00  0.00    +0.000 OA
ATOM     44  H   UNL     1      -7.805  -3.924   1.912  0.00  0.00    +0.000 HD
ENDBRANCH  39  43
ENDBRANCH  38  39
ENDBRANCH  35  38
ENDBRANCH  31  32
ENDBRANCH   4  31
TORSDOF 19
