REMARK  Name = 5287515
REMARK  16 active torsions:
REMARK  status: ('A' for Active; 'I' for Inactive)
REMARK    1  A    between atoms: P_1  and  O_6
REMARK    2  A    between atoms: P_1  and  O_7
REMARK    3  A    between atoms: P_1  and  C_33
REMARK    4  A    between atoms: O_4  and  C_35
REMARK    5  A    between atoms: O_4  and  C_41
REMARK    6  A    between atoms: O_9  and  C_45
REMARK    7  A    between atoms: N_11  and  C_20
REMARK    8  A    between atoms: N_12  and  C_14
REMARK    9  A    between atoms: N_13  and  C_21
REMARK   10  A    between atoms: C_20  and  C_23
REMARK   11  A    between atoms: C_21  and  C_22
REMARK   12  A    between atoms: C_21  and  C_24
REMARK   13  A    between atoms: C_24  and  C_25
REMARK   14  A    between atoms: C_31  and  C_37
REMARK   15  A    between atoms: C_34  and  C_38
REMARK   16  A    between atoms: C_41  and  C_45
REMARK                            x       y       z     vdW  Elec       q    Type
REMARK                         _______ _______ _______ _____ _____    ______ ____
ROOT
ATOM      1  C   UNL     1       4.304  -2.137   0.752  0.00  0.00    +0.000 C 
ENDROOT
BRANCH   1   3
ATOM      2  O   UNL     1       5.165  -3.835   2.944  0.00  0.00    +0.000 OA
ATOM      3  N   UNL     1       5.158  -3.296   0.678  0.00  0.00    +0.000 N 
ATOM      4  C   UNL     1       5.517  -4.048   1.786  0.00  0.00    +0.000 C 
ATOM      5  C   UNL     1       6.395  -5.216   1.426  0.00  0.00    +0.000 C 
ATOM      6  H   UNL     1       5.529  -3.560  -0.230  0.00  0.00    +0.000 HD
ENDBRANCH   1   3
BRANCH   1   9
ATOM      7  O   UNL     1       3.945  -2.448  -1.625  0.00  0.00    +0.000 OA
ATOM      8  N   UNL     1       2.194  -1.654  -0.322  0.00  0.00    +0.000 N 
ATOM      9  C   UNL     1       3.494  -2.092  -0.539  0.00  0.00    +0.000 C 
ATOM     10  H   UNL     1       1.908  -1.410   0.622  0.00  0.00    +0.000 HD
BRANCH   8  13
ATOM     11  O   UNL     1       0.377   0.196   0.056  0.00  0.00    +0.000 OA
ATOM     12  N   UNL     1      -0.630  -0.029  -2.017  0.00  0.00    +0.000 N 
ATOM     13  C   UNL     1       1.202  -1.565  -1.368  0.00  0.00    +0.000 C 
ATOM     14  C   UNL     1       0.414  -2.873  -1.458  0.00  0.00    +0.000 C 
ATOM     15  C   UNL     1      -0.202  -3.118  -2.834  0.00  0.00    +0.000 C 
ATOM     16  C   UNL     1      -1.248  -2.088  -3.256  0.00  0.00    +0.000 C 
ATOM     17  C   UNL     1      -0.699  -0.668  -3.333  0.00  0.00    +0.000 C 
ATOM     18  C   UNL     1       0.295  -0.381  -1.032  0.00  0.00    +0.000 C 
BRANCH  12  19
ATOM     19  C   UNL     1      -1.601   1.027  -1.759  0.00  0.00    +0.000 C 
BRANCH  19  20
ATOM     20  C   UNL     1      -2.849   0.497  -1.114  0.00  0.00    +0.000 A 
ATOM     21  C   UNL     1      -3.916   0.070  -1.905  0.00  0.00    +0.000 A 
ATOM     22  C   UNL     1      -2.942   0.432   0.277  0.00  0.00    +0.000 A 
ATOM     23  C   UNL     1      -5.075  -0.422  -1.305  0.00  0.00    +0.000 A 
ATOM     24  C   UNL     1      -4.101  -0.059   0.876  0.00  0.00    +0.000 A 
ATOM     25  C   UNL     1      -5.168  -0.486   0.086  0.00  0.00    +0.000 A 
BRANCH  25  26
ATOM     26  C   UNL     1      -6.370  -0.997   0.708  0.00  0.00    +0.000 A 
ATOM     27  C   UNL     1      -6.487  -2.358   0.987  0.00  0.00    +0.000 A 
ATOM     28  C   UNL     1      -7.412  -0.127   1.028  0.00  0.00    +0.000 A 
ATOM     29  C   UNL     1      -7.646  -2.850   1.587  0.00  0.00    +0.000 A 
ATOM     30  C   UNL     1      -8.571  -0.619   1.629  0.00  0.00    +0.000 A 
ATOM     31  C   UNL     1      -8.688  -1.980   1.908  0.00  0.00    +0.000 A 
ENDBRANCH  25  26
ENDBRANCH  19  20
ENDBRANCH  12  19
ENDBRANCH   8  13
ENDBRANCH   1   9
BRANCH   1  32
ATOM     32  C   UNL     1       5.102  -0.839   0.925  0.00  0.00    +0.000 C 
BRANCH  32  33
ATOM     33  C   UNL     1       4.218   0.381   1.021  0.00  0.00    +0.000 A 
ATOM     34  C   UNL     1       3.860   1.075  -0.135  0.00  0.00    +0.000 A 
ATOM     35  C   UNL     1       3.760   0.814   2.265  0.00  0.00    +0.000 A 
ATOM     36  C   UNL     1       3.043   2.202  -0.046  0.00  0.00    +0.000 A 
ATOM     37  C   UNL     1       2.585   2.635   1.198  0.00  0.00    +0.000 A 
ATOM     38  C   UNL     1       2.944   1.941   2.354  0.00  0.00    +0.000 A 
BRANCH  36  39
ATOM     39  P   UNL     1       2.601   3.067  -1.524  0.00  0.00    +0.000 P 
ATOM     40  O   UNL     1       3.132   2.542  -2.825  0.00  0.00    +0.000 OA
BRANCH  39  41
ATOM     41  O   UNL     1       3.019   4.609  -1.248  0.00  0.00    +0.000 OA
ATOM     42  H   UNL     1       2.897   5.267  -1.966  0.00  0.00    +0.000 HD
ENDBRANCH  39  41
BRANCH  39  43
ATOM     43  O   UNL     1       0.983   3.154  -1.492  0.00  0.00    +0.000 OA
ATOM     44  H   UNL     1       0.517   3.564  -2.251  0.00  0.00    +0.000 HD
ENDBRANCH  39  43
ENDBRANCH  36  39
BRANCH  37  45
ATOM     45  O   UNL     1       1.789   3.735   1.296  0.00  0.00    +0.000 OA
BRANCH  45  46
ATOM     46  C   UNL     1       0.495   3.551   1.868  0.00  0.00    +0.000 C 
BRANCH  46  48
ATOM     47  O   UNL     1      -0.201   5.383   0.432  0.00  0.00    +0.000 OA
ATOM     48  C   UNL     1      -0.472   4.532   1.266  0.00  0.00    +0.000 C 
BRANCH  48  49
ATOM     49  O   UNL     1      -1.713   4.344   1.782  0.00  0.00    +0.000 OA
ATOM     50  H   UNL     1      -2.366   4.971   1.405  0.00  0.00    +0.000 HD
ENDBRANCH  48  49
ENDBRANCH  46  48
ENDBRANCH  45  46
ENDBRANCH  37  45
ENDBRANCH  32  33
ENDBRANCH   1  32
TORSDOF 15
