REMARK  Name = 
REMARK  19 active torsions:
REMARK  status: ('A' for Active; 'I' for Inactive)
REMARK    1  A    between atoms: C_1  and  C_2
REMARK    2  A    between atoms: C_2  and  N_3
REMARK    3  A    between atoms: N_7  and  C_8
REMARK    4  A    between atoms: C_8  and  C_9
REMARK    5  A    between atoms: C_8  and  C_10
REMARK    6  A    between atoms: C_12  and  S_13
REMARK    7  A    between atoms: S_13  and  C_14
REMARK    8  A    between atoms: C_14  and  C_15
REMARK    9  A    between atoms: C_15  and  N_16
REMARK   10  A    between atoms: C_15  and  C_26
REMARK   11  A    between atoms: C_17  and  C_19
REMARK   12  A    between atoms: C_19  and  C_20
REMARK   13  A    between atoms: C_20  and  C_21
REMARK   14  A    between atoms: C_21  and  N_22
REMARK   15  A    between atoms: C_21  and  C_23
REMARK   16  A    between atoms: C_23  and  O_25
REMARK   17  A    between atoms: N_28  and  CA_29
REMARK   18  A    between atoms: CA_29  and  C_30
REMARK   19  A    between atoms: C_30  and  OXT_32
REMARK                            x       y       z     vdW  Elec       q    Type
REMARK                         _______ _______ _______ _____ _____    ______ ____
ROOT
ATOM      1  C   UNK A   1       1.084  -0.324   1.094  0.00  0.00    +0.000 C 
ENDROOT
BRANCH   1   2
ATOM      2  N   UNK A   1       2.563   0.167   0.726  0.00  0.00    +0.000 N 
ATOM      3  C   UNK A   1       2.869   0.375  -0.614  0.00  0.00    +0.000 C 
ATOM      4  O   UNK A   1       2.010   1.114  -1.196  0.00  0.00    +0.000 OA
ATOM      5  H   UNK A   1       3.237   0.316   1.429  0.00  0.00    +0.000 HD
BRANCH   3   6
ATOM      6  C   UNK A   1       4.269   0.877  -0.848  0.00  0.00    +0.000 C 
BRANCH   6   7
ATOM      7  C   UNK A   1       5.259  -0.125  -0.346  0.00  0.00    +0.000 C 
BRANCH   7   8
ATOM      8  C   UNK A   1       6.465   0.779   0.383  0.00  0.00    +0.000 C 
BRANCH   8   9
ATOM      9  N   UNK A   1       6.669  -0.354   1.501  0.00  0.00    +0.000 NA
ATOM     10  H   UNK A   1       5.759  -0.650   1.856  0.00  0.00    +0.000 HD
ATOM     11  H   UNK A   1       7.227   0.021   2.267  0.00  0.00    +0.000 HD
ENDBRANCH   8   9
BRANCH   8  12
ATOM     12  C   UNK A   1       5.388   1.588   1.328  0.00  0.00    +0.000 C 
ATOM     13  O   UNK A   1       5.881   1.859   2.471  0.00  0.00    +0.000 OA
BRANCH  12  14
ATOM     14  O   UNK A   1       5.094   2.781   0.645  0.00  0.00    +0.000 OA
ATOM     15  H   UNK A   1       4.723   2.750  -0.214  0.00  0.00    +0.000 HD
ENDBRANCH  12  14
ENDBRANCH   8  12
ENDBRANCH   7   8
ENDBRANCH   6   7
ENDBRANCH   3   6
ENDBRANCH   1   2
BRANCH   1  16
ATOM     16  C   UNK A   1       1.127  -1.594   0.046  0.00  0.00    +0.000 C 
ATOM     17  O   UNK A   1       0.068  -2.257   0.306  0.00  0.00    +0.000 OA
ATOM     18  N   GLY A   2       2.299  -2.410   0.218  0.00  0.00    +0.000 N 
ATOM     19  H   GLY A   2       3.022  -2.171   0.841  0.00  0.00    +0.000 HD
BRANCH  18  20
ATOM     20  CA  GLY A   2       2.337  -3.618  -0.601  0.00  0.00    +0.000 C 
BRANCH  20  21
ATOM     21  C   GLY A   2       1.909  -3.369  -1.989  0.00  0.00    +0.000 C 
ATOM     22  O   GLY A   2       1.060  -2.502  -2.336  0.00  0.00    +0.000 OA
BRANCH  21  23
ATOM     23  OXT GLY A   2       2.366  -4.157  -3.050  0.00  0.00    +0.000 OA
ATOM     24  HXT GLY A   2       3.000  -4.830  -2.896  0.00  0.00    +0.000 HD
ENDBRANCH  21  23
ENDBRANCH  20  21
ENDBRANCH  18  20
ENDBRANCH   1  16
BRANCH   1  25
ATOM     25  C   UNK A   1       0.328   0.646  -0.049  0.00  0.00    +0.000 C 
BRANCH  25  26
ATOM     26  S   UNK A   1      -1.003   1.437   0.874  0.00  0.00    +0.000 S 
BRANCH  26  33
ATOM     27  N   UNK A   1      -4.412  -2.172  -0.365  0.00  0.00    +0.000 N 
ATOM     28  C   UNK A   1      -4.175  -0.791  -0.063  0.00  0.00    +0.000 A 
ATOM     29  N   UNK A   1      -5.134   0.151  -0.233  0.00  0.00    +0.000 NA
ATOM     30  C   UNK A   1      -4.814   1.444  -0.034  0.00  0.00    +0.000 A 
ATOM     31  N   UNK A   1      -5.772   2.468  -0.307  0.00  0.00    +0.000 N 
ATOM     32  N   UNK A   1      -3.651   1.696   0.573  0.00  0.00    +0.000 NA
ATOM     33  C   UNK A   1      -2.600   0.909   0.281  0.00  0.00    +0.000 A 
ATOM     34  N   UNK A   1      -2.888  -0.368  -0.028  0.00  0.00    +0.000 NA
ATOM     35  H   UNK A   1      -4.274  -2.491  -1.286  0.00  0.00    +0.000 HD
ATOM     36  H   UNK A   1      -6.707   2.210  -0.477  0.00  0.00    +0.000 HD
BRANCH  31  37
ATOM     37  C   UNK A   1      -5.423   3.861  -0.343  0.00  0.00    +0.000 C 
ATOM     38  C   UNK A   1      -5.025   4.327  -1.733  0.00  0.00    +0.000 C 
ATOM     39  C   UNK A   1      -4.352   4.234   0.657  0.00  0.00    +0.000 C 
ENDBRANCH  31  37
BRANCH  27  41
ATOM     40  C   UNK A   1      -4.941  -3.552   0.859  0.00  0.00    +0.000 C 
ATOM     41  C   UNK A   1      -4.855  -3.118   0.656  0.00  0.00    +0.000 C 
ENDBRANCH  27  41
ENDBRANCH  26  33
ENDBRANCH  25  26
ENDBRANCH   1  25
TORSDOF 16
