REMARK  Name = 
REMARK  22 active torsions:
REMARK  status: ('A' for Active; 'I' for Inactive)
REMARK    1  A    between atoms: C_1  and  C_2
REMARK    2  A    between atoms: C_2  and  C_3
REMARK    3  A    between atoms: C_2  and  C_4
REMARK    4  A    between atoms: C_4  and  C_5
REMARK    5  A    between atoms: C_5  and  N_6
REMARK    6  A    between atoms: C_5  and  C_31
REMARK    7  A    between atoms: C_7  and  C_9
REMARK    8  A    between atoms: C_24  and  C_25
REMARK    9  A    between atoms: C_25  and  C_26
REMARK   10  A    between atoms: C_25  and  C_27
REMARK   11  A    between atoms: C_31  and  O_32
REMARK   12  A    between atoms: C_31  and  C_33
REMARK   13  A    between atoms: C_33  and  C_34
REMARK   14  A    between atoms: C_34  and  C_35
REMARK   15  A    between atoms: C_34  and  C_36
REMARK   16  A    between atoms: N_38  and  C_39
REMARK   17  A    between atoms: C_39  and  C_40
REMARK   18  A    between atoms: C_39  and  C_50
REMARK   19  A    between atoms: N_42  and  C_43
REMARK   20  A    between atoms: C_43  and  C_44
REMARK   21  A    between atoms: C_50  and  C_51
REMARK   22  A    between atoms: C_50  and  C_52
REMARK                            x       y       z     vdW  Elec       q    Type
REMARK                         _______ _______ _______ _____ _____    ______ ____
ROOT
ATOM      1  C   UNL     1      -0.615  -0.448  -1.082  0.00  0.00    +0.000 C 
ENDROOT
BRANCH   1   2
ATOM      2  N   UNL     1      -1.202  -0.608   0.373  0.00  0.00    +0.000 N 
ATOM      3  C   UNL     1      -2.443  -1.182   0.554  0.00  0.00    +0.000 C 
ATOM      4  O   UNL     1      -2.660  -2.208  -0.145  0.00  0.00    +0.000 OA
ATOM      5  H   UNL     1      -0.683  -0.299   1.151  0.00  0.00    +0.000 HD
BRANCH   3   6
ATOM      6  C   UNL     1      -3.746  -0.177   0.617  0.00  0.00    +0.000 C 
ATOM      7  C   UNL     1      -3.006   0.843   1.727  0.00  0.00    +0.000 C 
ATOM      8  C   UNL     1      -3.850   2.055   1.742  0.00  0.00    +0.000 C 
ATOM      9  O   UNL     1      -4.352   2.382   2.857  0.00  0.00    +0.000 OA
ATOM     10  N   UNL     1      -3.435   3.105   0.856  0.00  0.00    +0.000 N 
ATOM     11  C   UNL     1      -3.389   2.703  -0.548  0.00  0.00    +0.000 C 
ATOM     12  C   UNL     1      -4.519   3.466  -1.234  0.00  0.00    +0.000 C 
ATOM     13  C   UNL     1      -5.560   3.889  -0.218  0.00  0.00    +0.000 C 
ATOM     14  C   UNL     1      -6.963   3.601  -0.652  0.00  0.00    +0.000 C 
ATOM     15  C   UNL     1      -7.032   2.554  -1.748  0.00  0.00    +0.000 C 
ATOM     16  C   UNL     1      -6.809   1.191  -1.109  0.00  0.00    +0.000 C 
ATOM     17  O   UNL     1      -6.235   0.387  -2.094  0.00  0.00    +0.000 OA
ATOM     18  C   UNL     1      -6.086  -0.965  -1.897  0.00  0.00    +0.000 C 
ATOM     19  O   UNL     1      -5.507  -1.595  -2.836  0.00  0.00    +0.000 OA
ATOM     20  N   UNL     1      -6.004  -1.546  -0.619  0.00  0.00    +0.000 N 
ATOM     21  C   UNL     1      -6.679  -0.708   0.565  0.00  0.00    +0.000 C 
ATOM     22  C   UNL     1      -5.719  -1.375   1.724  0.00  0.00    +0.000 C 
ATOM     23  O   UNL     1      -6.343  -1.339   2.835  0.00  0.00    +0.000 OA
ATOM     24  N   UNL     1      -4.399  -1.037   1.793  0.00  0.00    +0.000 N 
ATOM     25  H   UNL     1      -3.203   4.011   1.166  0.00  0.00    +0.000 HD
ATOM     26  H   UNL     1      -5.559  -2.411  -0.463  0.00  0.00    +0.000 HD
ATOM     27  H   UNL     1      -3.853  -1.321   2.562  0.00  0.00    +0.000 HD
BRANCH  21  28
ATOM     28  C   UNL     1      -7.841  -1.898   0.806  0.00  0.00    +0.000 C 
ATOM     29  C   UNL     1      -8.775  -1.821  -0.346  0.00  0.00    +0.000 C 
ATOM     30  C   UNL     1      -7.087  -3.190   0.820  0.00  0.00    +0.000 C 
ENDBRANCH  21  28
ENDBRANCH   3   6
ENDBRANCH   1   2
BRANCH   1  31
ATOM     31  C   UNL     1       0.108   0.976  -0.667  0.00  0.00    +0.000 C 
BRANCH  31  33
ATOM     32  C   UNL     1      -0.044   3.071  -1.462  0.00  0.00    +0.000 C 
ATOM     33  C   UNL     1      -0.379   1.965  -1.691  0.00  0.00    +0.000 C 
ATOM     34  C   UNL     1      -0.228   1.477  -3.104  0.00  0.00    +0.000 C 
ENDBRANCH  31  33
ENDBRANCH   1  31
BRANCH   1  35
ATOM     35  C   UNL     1       0.817  -1.427  -0.783  0.00  0.00    +0.000 C 
BRANCH  35  36
ATOM     36  O   UNL     1       1.683  -0.474  -1.626  0.00  0.00    +0.000 OA
ATOM     37  H   UNL     1       1.500   0.443  -1.368  0.00  0.00    +0.000 HD
ENDBRANCH  35  36
BRANCH  35  38
ATOM     38  C   UNL     1       1.136  -0.753   0.701  0.00  0.00    +0.000 C 
BRANCH  38  39
ATOM     39  C   UNL     1       2.515   0.107   0.434  0.00  0.00    +0.000 C 
ATOM     40  C   UNL     1       2.516   0.606   2.020  0.00  0.00    +0.000 C 
BRANCH  39  41
ATOM     41  C   UNL     1       3.508  -1.164   0.729  0.00  0.00    +0.000 C 
ATOM     42  O   UNL     1       3.788  -1.772  -0.354  0.00  0.00    +0.000 OA
ATOM     43  N   UNL     1       4.516  -1.022   1.636  0.00  0.00    +0.000 N 
ATOM     44  H   UNL     1       4.297  -0.706   2.542  0.00  0.00    +0.000 HD
BRANCH  43  45
ATOM     45  C   UNL     1       6.043  -1.350   1.283  0.00  0.00    +0.000 C 
BRANCH  45  46
ATOM     46  C   UNL     1       6.075  -0.260   0.053  0.00  0.00    +0.000 C 
ATOM     47  O   UNL     1       5.784   0.901   0.481  0.00  0.00    +0.000 OA
ATOM     48  N   UNL     1       7.002  -0.455  -0.948  0.00  0.00    +0.000 N 
ATOM     49  H   UNL     1       7.239  -1.355  -1.269  0.00  0.00    +0.000 HD
BRANCH  48  50
ATOM     50  C   UNL     1       7.613   0.750  -1.507  0.00  0.00    +0.000 C 
BRANCH  50  51
ATOM     51  C   UNL     1       8.866   0.941  -0.705  0.00  0.00    +0.000 A 
ATOM     52  C   UNL     1      10.040   0.554  -1.340  0.00  0.00    +0.000 A 
ATOM     53  C   UNL     1      11.025  -0.174  -0.681  0.00  0.00    +0.000 A 
ATOM     54  C   UNL     1      10.892  -0.434   0.678  0.00  0.00    +0.000 A 
ATOM     55  C   UNL     1      10.045   0.442   1.346  0.00  0.00    +0.000 A 
ATOM     56  C   UNL     1       8.873   0.779   0.678  0.00  0.00    +0.000 A 
ENDBRANCH  50  51
ENDBRANCH  48  50
ENDBRANCH  45  46
BRANCH  45  57
ATOM     57  C   UNL     1       5.646  -2.623   0.264  0.00  0.00    +0.000 C 
ATOM     58  C   UNL     1       6.988  -2.999  -0.366  0.00  0.00    +0.000 C 
ATOM     59  C   UNL     1       5.426  -3.744   1.282  0.00  0.00    +0.000 C 
ENDBRANCH  45  57
ENDBRANCH  43  45
ENDBRANCH  39  41
ENDBRANCH  38  39
ENDBRANCH  35  38
ENDBRANCH   1  35
TORSDOF 15
