REMARK  Name = 
REMARK  20 active torsions:
REMARK  status: ('A' for Active; 'I' for Inactive)
REMARK    1  A    between atoms: C_1  and  C_2
REMARK    2  A    between atoms: C_2  and  C_3
REMARK    3  A    between atoms: C_3  and  C_4
REMARK    4  A    between atoms: C_4  and  C_5
REMARK    5  A    between atoms: C_5  and  N_6
REMARK    6  A    between atoms: C_7  and  C_9
REMARK    7  A    between atoms: C_9  and  C_10
REMARK    8  A    between atoms: C_9  and  N_25
REMARK    9  A    between atoms: C_10  and  C_11
REMARK   10  A    between atoms: C_14  and  O_15
REMARK   11  A    between atoms: O_15  and  C_16
REMARK   12  A    between atoms: C_16  and  C_17
REMARK   13  A    between atoms: C_16  and  C_20
REMARK   14  A    between atoms: C_17  and  O_19
REMARK   15  A    between atoms: C_20  and  O_22
REMARK   16  A    between atoms: N_28  and  CA_29
REMARK   17  A    between atoms: CA_29  and  CB_30
REMARK   18  A    between atoms: CA_29  and  C_37
REMARK   19  A    between atoms: CB_30  and  CG_31
REMARK   20  A    between atoms: C_37  and  OXT_39
REMARK                            x       y       z     vdW  Elec       q    Type
REMARK                         _______ _______ _______ _____ _____    ______ ____
ROOT
ATOM      1  C   UNK A   0      -0.102  -1.569   1.020  0.00  0.00    +0.000 C 
ENDROOT
BRANCH   1   2
ATOM      2  N   UNK A   0       0.389  -0.189   0.409  0.00  0.00    +0.000 N 
ATOM      3  C   UNK A   0       1.809  -0.140   0.605  0.00  0.00    +0.000 C 
ATOM      4  O   UNK A   0       2.521  -1.181   0.466  0.00  0.00    +0.000 OA
ATOM      5  N   PHE A   1       2.548   1.087   0.635  0.00  0.00    +0.000 N 
ATOM      6  H   UNK A   0      -0.170   0.499  -0.020  0.00  0.00    +0.000 HD
ATOM      7  H   PHE A   1       2.215   1.933   0.257  0.00  0.00    +0.000 HD
BRANCH   5   8
ATOM      8  CA  PHE A   1       3.954   0.936   1.343  0.00  0.00    +0.000 C 
BRANCH   8   9
ATOM      9  C   PHE A   1       4.290   2.517   1.375  0.00  0.00    +0.000 C 
ATOM     10  O   PHE A   1       5.053   2.699   2.376  0.00  0.00    +0.000 OA
BRANCH   9  11
ATOM     11  OXT PHE A   1       3.291   3.407   1.188  0.00  0.00    +0.000 OA
ATOM     12  HXT PHE A   1       2.706   3.309   0.463  0.00  0.00    +0.000 HD
ENDBRANCH   9  11
ENDBRANCH   8   9
BRANCH   8  13
ATOM     13  CB  PHE A   1       4.701   0.631  -0.090  0.00  0.00    +0.000 C 
BRANCH  13  14
ATOM     14  CG  PHE A   1       5.557   1.744  -0.433  0.00  0.00    +0.000 A 
ATOM     15  CD1 PHE A   1       6.931   1.640  -0.351  0.00  0.00    +0.000 A 
ATOM     16  CE1 PHE A   1       7.685   2.659  -0.921  0.00  0.00    +0.000 A 
ATOM     17  CZ  PHE A   1       7.106   3.724  -1.557  0.00  0.00    +0.000 A 
ATOM     18  CE2 PHE A   1       5.780   3.622  -1.957  0.00  0.00    +0.000 A 
ATOM     19  CD2 PHE A   1       5.061   2.607  -1.403  0.00  0.00    +0.000 A 
ENDBRANCH  13  14
ENDBRANCH   8  13
ENDBRANCH   5   8
ENDBRANCH   1   2
BRANCH   1  21
ATOM     20  N   UNK A   0       0.504  -3.664  -0.202  0.00  0.00    +0.000 N 
ATOM     21  C   UNK A   0      -0.075  -2.382  -0.378  0.00  0.00    +0.000 C 
ATOM     22  O   UNK A   0      -0.057  -1.749  -1.422  0.00  0.00    +0.000 OA
ATOM     23  H   UNK A   0       0.309  -4.188   0.608  0.00  0.00    +0.000 HD
BRANCH  20  24
ATOM     24  C   UNK A   0       1.375  -4.197  -1.211  0.00  0.00    +0.000 C 
BRANCH  24  25
ATOM     25  C   UNK A   0       2.323  -5.165  -0.514  0.00  0.00    +0.000 C 
BRANCH  25  26
ATOM     26  C   UNK A   0       1.603  -5.976   0.551  0.00  0.00    +0.000 C 
BRANCH  26  28
ATOM     27  C   UNK A   0       1.331  -8.059  -0.476  0.00  0.00    +0.000 C 
ATOM     28  C   UNK A   0       1.021  -7.243   0.034  0.00  0.00    +0.000 C 
ENDBRANCH  26  28
ENDBRANCH  25  26
ENDBRANCH  24  25
ENDBRANCH  20  24
ENDBRANCH   1  21
BRANCH   1  29
ATOM     29  C   UNK A   0      -1.713  -1.264   0.908  0.00  0.00    +0.000 C 
BRANCH  29  30
ATOM     30  C   UNK A   0      -1.946  -0.232  -0.109  0.00  0.00    +0.000 A 
ATOM     31  C   UNK A   0      -1.812   1.140   0.092  0.00  0.00    +0.000 A 
ATOM     32  C   UNK A   0      -2.903   2.003  -0.010  0.00  0.00    +0.000 A 
ATOM     33  C   UNK A   0      -4.167   1.519  -0.353  0.00  0.00    +0.000 A 
ATOM     34  C   UNK A   0      -4.090   0.352  -1.107  0.00  0.00    +0.000 A 
ATOM     35  C   UNK A   0      -2.961  -0.466  -1.033  0.00  0.00    +0.000 A 
BRANCH  33  36
ATOM     36  O   UNK A   0      -5.231   1.837   0.460  0.00  0.00    +0.000 OA
BRANCH  36  37
ATOM     37  C   UNK A   0      -6.527   1.517   0.442  0.00  0.00    +0.000 C 
BRANCH  37  38
ATOM     38  C   UNK A   0      -7.346   2.514  -0.251  0.00  0.00    +0.000 C 
ATOM     39  O   UNK A   0      -7.409   2.410  -1.514  0.00  0.00    +0.000 OA
BRANCH  38  40
ATOM     40  O   UNK A   0      -7.184   3.828   0.209  0.00  0.00    +0.000 OA
ATOM     41  H   UNK A   0      -7.127   3.999   1.129  0.00  0.00    +0.000 HD
ENDBRANCH  38  40
ENDBRANCH  37  38
BRANCH  37  42
ATOM     42  C   UNK A   0      -6.973   0.150   0.416  0.00  0.00    +0.000 C 
ATOM     43  O   UNK A   0      -6.720  -0.629   1.385  0.00  0.00    +0.000 OA
BRANCH  42  44
ATOM     44  O   UNK A   0      -7.615  -0.441  -0.653  0.00  0.00    +0.000 OA
ATOM     45  H   UNK A   0      -7.837   0.070  -1.407  0.00  0.00    +0.000 HD
ENDBRANCH  42  44
ENDBRANCH  37  42
ENDBRANCH  36  37
ENDBRANCH  33  36
ENDBRANCH  29  30
ENDBRANCH   1  29
TORSDOF 19
