REMARK  Name = 
REMARK  22 active torsions:
REMARK  status: ('A' for Active; 'I' for Inactive)
REMARK    1  A    between atoms: C_1  and  C_2
REMARK    2  A    between atoms: N_6  and  C_7
REMARK    3  A    between atoms: C_7  and  C_8
REMARK    4  A    between atoms: C_8  and  C_9
REMARK    5  A    between atoms: C_9  and  C_10
REMARK    6  A    between atoms: C_10  and  C_11
REMARK    7  A    between atoms: C_14  and  C_15
REMARK    8  A    between atoms: C_15  and  C_16
REMARK    9  A    between atoms: N_18  and  CA_19
REMARK   10  A    between atoms: CA_19  and  C_20
REMARK   11  A    between atoms: CA_19  and  C_22
REMARK   12  A    between atoms: C_20  and  O_21
REMARK   13  A    between atoms: N_24  and  C_25
REMARK   14  A    between atoms: C_25  and  C_26
REMARK   15  A    between atoms: C_25  and  C_31
REMARK   16  A    between atoms: C_26  and  C_27
REMARK   17  A    between atoms: C_27  and  C_28
REMARK   18  A    between atoms: C_28  and  C_29
REMARK   19  A    between atoms: C_29  and  N_30
REMARK   20  A    between atoms: N_33  and  C_34
REMARK   21  A    between atoms: C_34  and  C_35
REMARK   22  A    between atoms: C_35  and  C_36
REMARK                            x       y       z     vdW  Elec       q    Type
REMARK                         _______ _______ _______ _____ _____    ______ ____
ROOT
ATOM      1  CA  UNL     1      -0.299  -2.297  -0.608  0.00  0.00    +0.000 C 
ENDROOT
BRANCH   1   4
ATOM      2  C   UNL     1       0.453  -0.286   0.677  0.00  0.00    +0.000 C 
ATOM      3  O   UNL     1       1.072  -0.991   1.525  0.00  0.00    +0.000 OA
ATOM      4  N   UNL     1      -0.686  -0.939   0.106  0.00  0.00    +0.000 N 
ATOM      5  H   UNL     1      -1.603  -0.584   0.153  0.00  0.00    +0.000 HD
BRANCH   2   6
ATOM      6  C   UNL     1       1.141   0.903   0.147  0.00  0.00    +0.000 C 
BRANCH   6  10
ATOM      7  C   UNL     1       5.264  -0.365   0.151  0.00  0.00    +0.000 A 
ATOM      8  C   UNL     1       4.564  -0.257  -1.044  0.00  0.00    +0.000 A 
ATOM      9  C   UNL     1       3.258   0.218  -1.045  0.00  0.00    +0.000 A 
ATOM     10  C   UNL     1       2.608   0.591   0.125  0.00  0.00    +0.000 A 
ATOM     11  C   UNL     1       3.272   0.250   1.298  0.00  0.00    +0.000 A 
ATOM     12  C   UNL     1       4.513  -0.343   1.309  0.00  0.00    +0.000 A 
BRANCH   7  13
ATOM     13  C   UNL     1       6.746  -0.152   0.155  0.00  0.00    +0.000 C 
BRANCH  13  14
ATOM     14  C   UNL     1       7.024   1.328   0.391  0.00  0.00    +0.000 C 
BRANCH  14  15
ATOM     15  C   UNL     1       6.250   2.196  -0.576  0.00  0.00    +0.000 C 
BRANCH  15  16
ATOM     16  C   UNL     1       7.035   3.482  -0.757  0.00  0.00    +0.000 C 
BRANCH  16  22
ATOM     17  C   UNL     1       8.104   4.235   1.877  0.00  0.00    +0.000 C 
ATOM     18  C   UNL     1       8.822   3.601   0.952  0.00  0.00    +0.000 A 
ATOM     19  N   UNL     1       9.878   2.789   1.205  0.00  0.00    +0.000 NA
ATOM     20  C   UNL     1      10.262   2.187   0.057  0.00  0.00    +0.000 A 
ATOM     21  C   UNL     1       9.230   2.397  -0.849  0.00  0.00    +0.000 A 
ATOM     22  N   UNL     1       8.405   3.326  -0.307  0.00  0.00    +0.000 N 
ENDBRANCH  16  22
ENDBRANCH  15  16
ENDBRANCH  14  15
ENDBRANCH  13  14
ENDBRANCH   7  13
ENDBRANCH   6  10
ENDBRANCH   2   6
ENDBRANCH   1   4
BRANCH   1  23
ATOM     23  C   UNL     1      -1.763  -2.960  -0.549  0.00  0.00    +0.000 C 
ATOM     24  O   UNL     1      -2.040  -3.291  -1.744  0.00  0.00    +0.000 OA
ATOM     25  N   UNL     1      -2.787  -2.477   0.244  0.00  0.00    +0.000 N 
ATOM     26  H   UNL     1      -2.784  -1.645   0.769  0.00  0.00    +0.000 HD
BRANCH  25  27
ATOM     27  C   UNL     1      -3.964  -3.530   0.139  0.00  0.00    +0.000 C 
BRANCH  27  28
ATOM     28  C   UNL     1      -5.070  -2.415  -0.243  0.00  0.00    +0.000 C 
ATOM     29  O   UNL     1      -6.207  -2.892   0.067  0.00  0.00    +0.000 OA
ATOM     30  N   UNL     1      -4.997  -1.922  -1.574  0.00  0.00    +0.000 N 
ATOM     31  H   UNL     1      -4.206  -2.072  -2.140  0.00  0.00    +0.000 HD
BRANCH  30  32
ATOM     32  C   UNL     1      -6.161  -1.182  -2.055  0.00  0.00    +0.000 C 
BRANCH  32  33
ATOM     33  C   UNL     1      -7.147  -0.889  -0.956  0.00  0.00    +0.000 C 
BRANCH  33  34
ATOM     34  C   UNL     1      -7.293   0.599  -0.759  0.00  0.00    +0.000 C 
ATOM     35  C   UNL     1      -6.036   1.235  -0.207  0.00  0.00    +0.000 C 
ATOM     36  C   UNL     1      -6.235   2.742  -0.242  0.00  0.00    +0.000 C 
ATOM     37  C   UNL     1      -7.461   3.160   0.553  0.00  0.00    +0.000 C 
ATOM     38  C   UNL     1      -8.706   2.421   0.084  0.00  0.00    +0.000 C 
ATOM     39  C   UNL     1      -8.429   0.925   0.170  0.00  0.00    +0.000 C 
ENDBRANCH  33  34
ENDBRANCH  32  33
ENDBRANCH  30  32
ENDBRANCH  27  28
BRANCH  27  40
ATOM     40  C   UNL     1      -4.294  -3.472   1.747  0.00  0.00    +0.000 C 
BRANCH  40  41
ATOM     41  C   UNL     1      -4.815  -2.167   2.127  0.00  0.00    +0.000 C 
BRANCH  41  42
ATOM     42  C   UNL     1      -3.863  -1.023   2.178  0.00  0.00    +0.000 C 
BRANCH  42  43
ATOM     43  C   UNL     1      -4.702   0.250   2.139  0.00  0.00    +0.000 C 
BRANCH  43  44
ATOM     44  N   UNL     1      -4.356   1.095   1.023  0.00  0.00    +0.000 NA
ATOM     45  H   UNL     1      -3.381   1.381   1.103  0.00  0.00    +0.000 HD
ATOM     46  H   UNL     1      -4.955   1.921   1.024  0.00  0.00    +0.000 HD
ENDBRANCH  43  44
ENDBRANCH  42  43
ENDBRANCH  41  42
ENDBRANCH  40  41
ENDBRANCH  27  40
ENDBRANCH  25  27
ENDBRANCH   1  23
BRANCH   1  47
ATOM     47  C   UNL     1       0.221  -2.981   0.794  0.00  0.00    +0.000 C 
BRANCH  47  48
ATOM     48  O   UNL     1      -0.813  -3.100   1.648  0.00  0.00    +0.000 OA
ATOM     49  H   UNL     1      -1.181  -2.222   1.834  0.00  0.00    +0.000 HD
ENDBRANCH  47  48
ENDBRANCH   1  47
TORSDOF 21
