REMARK  Name = 446306
REMARK  17 active torsions:
REMARK  status: ('A' for Active; 'I' for Inactive)
REMARK    1  A    between atoms: O_2  and  C_19
REMARK    2  A    between atoms: O_6  and  C_26
REMARK    3  A    between atoms: N_8  and  C_15
REMARK    4  A    between atoms: N_9  and  CA_18
REMARK    5  A    between atoms: N_10  and  C_23
REMARK    6  A    between atoms: N_11  and  CA_24
REMARK    7  A    between atoms: C_12  and  C_13
REMARK    8  A    between atoms: C_12  and  C_14
REMARK    9  A    between atoms: C_13  and  C_15
REMARK   10  A    between atoms: C_14  and  C_16
REMARK   11  A    between atoms: C_15  and  C_19
REMARK   12  A    between atoms: C_16  and  C_17
REMARK   13  A    between atoms: CA_18  and  C_20
REMARK   14  A    between atoms: CA_18  and  CB_21
REMARK   15  A    between atoms: C_22  and  CA_24
REMARK   16  A    between atoms: C_23  and  C_25
REMARK   17  A    between atoms: C_23  and  C_26
REMARK                            x       y       z     vdW  Elec       q    Type
REMARK                         _______ _______ _______ _____ _____    ______ ____
ROOT
ATOM      1  C   UNK A   2      -0.044   0.716   0.004  0.00  0.00    +0.000 C 
ENDROOT
BRANCH   1   4
ATOM      2  O   UNK A   2       1.669  -0.426   1.276  0.00  0.00    +0.000 OA
ATOM      3  N   GLY A   1       2.212   1.533   0.151  0.00  0.00    +0.000 N 
ATOM      4  C   UNK A   2       1.356   0.520   0.557  0.00  0.00    +0.000 C 
ATOM      5  H   GLY A   1       1.869   2.235  -0.499  0.00  0.00    +0.000 HD
BRANCH   3   6
ATOM      6  CA  GLY A   1       3.602   1.588   0.540  0.00  0.00    +0.000 C 
ATOM      7  CB  GLY A   1       4.100   3.023   0.614  0.00  0.00    +0.000 C 
BRANCH   6  10
ATOM      8  O   GLY A   1       4.114   0.726  -1.666  0.00  0.00    +0.000 OA
ATOM      9  N   UNK A   2       5.463   0.107   0.118  0.00  0.00    +0.000 N 
ATOM     10  C   GLY A   1       4.406   0.784  -0.474  0.00  0.00    +0.000 C 
ATOM     11  H   UNK A   2       5.622   0.205   1.116  0.00  0.00    +0.000 HD
BRANCH   9  12
ATOM     12  C   UNK A   2       6.349  -0.758  -0.627  0.00  0.00    +0.000 C 
ATOM     13  C   UNK A   2       5.809  -2.180  -0.641  0.00  0.00    +0.000 C 
BRANCH  12  15
ATOM     14  O   UNK A   2       8.694  -1.344  -0.586  0.00  0.00    +0.000 OA
ATOM     15  C   UNK A   2       7.763  -0.735  -0.071  0.00  0.00    +0.000 C 
BRANCH  15  16
ATOM     16  O   UNK A   2       7.917   0.007   1.052  0.00  0.00    +0.000 OA
ATOM     17  H   UNK A   2       8.842  -0.010   1.379  0.00  0.00    +0.000 HD
ENDBRANCH  15  16
ENDBRANCH  12  15
ENDBRANCH   9  12
ENDBRANCH   6  10
ENDBRANCH   3   6
ENDBRANCH   1   4
BRANCH   1  18
ATOM     18  C   UNK A   2      -1.005  -0.389   0.439  0.00  0.00    +0.000 C 
BRANCH  18  19
ATOM     19  C   UNK A   2      -2.415  -0.141  -0.098  0.00  0.00    +0.000 C 
BRANCH  19  20
ATOM     20  C   UNK A   2      -3.441  -1.177   0.379  0.00  0.00    +0.000 C 
BRANCH  20  21
ATOM     21  C   UNK A   2      -4.850  -0.991  -0.183  0.00  0.00    +0.000 C 
BRANCH  21  23
ATOM     22  O   GLY A   1      -6.875   0.527  -1.586  0.00  0.00    +0.000 OA
ATOM     23  N   UNK A   2      -5.439   0.261   0.220  0.00  0.00    +0.000 N 
ATOM     24  C   GLY A   1      -6.411   0.924  -0.520  0.00  0.00    +0.000 C 
ATOM     25  H   UNK A   2      -5.158   0.647   1.117  0.00  0.00    +0.000 HD
BRANCH  24  26
ATOM     26  CA  GLY A   1      -6.825   2.230   0.126  0.00  0.00    +0.000 C 
BRANCH  26  27
ATOM     27  N   GLY A   1      -8.213   2.503  -0.218  0.00  0.00    +0.000 NA
ATOM     28  H1  GLY A   1      -8.497   3.386   0.204  0.00  0.00    +0.000 HD
ATOM     29  H2  GLY A   1      -8.297   2.633  -1.225  0.00  0.00    +0.000 HD
ENDBRANCH  26  27
ENDBRANCH  24  26
ENDBRANCH  21  23
BRANCH  21  31
ATOM     30  O   UNK A   2      -6.383  -2.061   1.381  0.00  0.00    +0.000 OA
ATOM     31  C   UNK A   2      -5.765  -2.089   0.325  0.00  0.00    +0.000 C 
BRANCH  31  32
ATOM     32  O   UNK A   2      -5.789  -3.158  -0.515  0.00  0.00    +0.000 OA
ATOM     33  H   UNK A   2      -6.364  -3.876  -0.174  0.00  0.00    +0.000 HD
ENDBRANCH  31  32
ENDBRANCH  21  31
ENDBRANCH  20  21
ENDBRANCH  19  20
ENDBRANCH  18  19
ENDBRANCH   1  18
TORSDOF 15
