REMARK  Name = 656966
REMARK  8 active torsions:
REMARK  status: ('A' for Active; 'I' for Inactive)
REMARK    1  A    between atoms: O_1  and  C_12
REMARK    2  A    between atoms: O_1  and  C_18
REMARK    3  A    between atoms: N_3  and  C_9
REMARK    4  A    between atoms: N_5  and  C_17
REMARK    5  A    between atoms: C_6  and  C_10
REMARK    6  A    between atoms: C_7  and  C_12
REMARK    7  A    between atoms: C_8  and  C_11
REMARK    8  A    between atoms: C_18  and  C_19
REMARK                            x       y       z     vdW  Elec       q    Type
REMARK                         _______ _______ _______ _____ _____    ______ ____
ROOT
ATOM      1  N   UNL     1       0.572  -0.312  -0.137  0.00  0.00    +0.000 N 
ATOM      2  N   UNL     1       0.027  -1.524  -0.375  0.00  0.00    +0.000 NA
ATOM      3  C   UNL     1      -0.366   0.683  -0.024  0.00  0.00    +0.000 A 
ATOM      4  C   UNL     1      -1.588   0.081  -0.199  0.00  0.00    +0.000 A 
ATOM      5  C   UNL     1      -1.285  -1.277  -0.411  0.00  0.00    +0.000 A 
ATOM      6  C   UNL     1      -0.009   2.093   0.237  0.00  0.00    +0.000 C 
ATOM      7  C   UNL     1      -2.224  -2.386  -0.654  0.00  0.00    +0.000 C 
ENDROOT
BRANCH   1   8
ATOM      8  C   UNL     1       1.944  -0.175  -0.030  0.00  0.00    +0.000 A 
ATOM      9  C   UNL     1       2.555   1.022  -0.404  0.00  0.00    +0.000 A 
ATOM     10  C   UNL     1       2.716  -1.232   0.450  0.00  0.00    +0.000 A 
ATOM     11  C   UNL     1       3.939   1.161  -0.296  0.00  0.00    +0.000 A 
ATOM     12  C   UNL     1       4.099  -1.093   0.557  0.00  0.00    +0.000 A 
ATOM     13  C   UNL     1       4.711   0.103   0.184  0.00  0.00    +0.000 A 
BRANCH  13  14
ATOM     14  N   UNL     1       6.111   0.245   0.293  0.00  0.00    +0.000 N 
ATOM     15  H   UNL     1       6.671  -0.521   0.642  0.00  0.00    +0.000 HD
ATOM     16  H   UNL     1       6.554   1.113   0.023  0.00  0.00    +0.000 HD
ENDBRANCH  13  14
ENDBRANCH   1   8
BRANCH   4  18
ATOM     17  O   UNL     1      -3.052   1.919  -0.497  0.00  0.00    +0.000 OA
ATOM     18  C   UNL     1      -2.862   0.735  -0.163  0.00  0.00    +0.000 C 
BRANCH  18  19
ATOM     19  O   UNL     1      -3.899  -0.064   0.280  0.00  0.00    +0.000 OA
BRANCH  19  20
ATOM     20  C   UNL     1      -5.202   0.527   0.341  0.00  0.00    +0.000 C 
ATOM     21  C   UNL     1      -6.188  -0.504   0.847  0.00  0.00    +0.000 C 
ENDBRANCH  19  20
ENDBRANCH  18  19
ENDBRANCH   4  18
TORSDOF 5
