REMARK  Name = 
REMARK  26 active torsions:
REMARK  status: ('A' for Active; 'I' for Inactive)
REMARK    1  A    between atoms: C_1  and  O_2
REMARK    2  A    between atoms: O_2  and  C_3
REMARK    3  A    between atoms: C_3  and  C_5
REMARK    4  A    between atoms: C_5  and  N_6
REMARK    5  A    between atoms: C_5  and  C_39
REMARK    6  A    between atoms: C_7  and  C_9
REMARK    7  A    between atoms: C_9  and  N_10
REMARK    8  A    between atoms: C_9  and  C_36
REMARK    9  A    between atoms: C_11  and  C_13
REMARK   10  A    between atoms: C_13  and  C_14
REMARK   11  A    between atoms: C_14  and  C_15
REMARK   12  A    between atoms: C_15  and  O_16
REMARK   13  A    between atoms: C_15  and  C_17
REMARK   14  A    between atoms: C_17  and  C_18
REMARK   15  A    between atoms: C_17  and  N_25
REMARK   16  A    between atoms: C_18  and  C_19
REMARK   17  A    between atoms: C_26  and  C_28
REMARK   18  A    between atoms: C_28  and  C_29
REMARK   19  A    between atoms: C_28  and  N_30
REMARK   20  A    between atoms: C_31  and  C_33
REMARK   21  A    between atoms: C_33  and  C_34
REMARK   22  A    between atoms: C_33  and  N_35
REMARK   23  A    between atoms: C_36  and  C_37
REMARK   24  A    between atoms: C_36  and  C_38
REMARK   25  A    between atoms: C_39  and  C_40
REMARK   26  A    between atoms: C_39  and  C_41
REMARK                            x       y       z     vdW  Elec       q    Type
REMARK                         _______ _______ _______ _____ _____    ______ ____
ROOT
ATOM      1  C   UNL     1      -1.479   0.387   1.667  0.00  0.00    +0.000 C 
ENDROOT
BRANCH   1   2
ATOM      2  O   UNL     1      -1.197  -0.737   2.672  0.00  0.00    +0.000 OA
ATOM      3  H   UNL     1      -1.541  -1.575   2.325  0.00  0.00    +0.000 HD
ENDBRANCH   1   2
BRANCH   1   4
ATOM      4  C   UNL     1      -0.914  -0.515   0.387  0.00  0.00    +0.000 C 
BRANCH   4   5
ATOM      5  C   UNL     1      -0.147   0.438  -0.476  0.00  0.00    +0.000 C 
BRANCH   5   7
ATOM      6  N   UNL     1       2.328  -0.014  -1.035  0.00  0.00    +0.000 N 
ATOM      7  C   UNL     1       1.292   0.280  -0.105  0.00  0.00    +0.000 C 
ATOM      8  O   UNL     1       1.545   0.536   1.111  0.00  0.00    +0.000 OA
ATOM      9  H   UNL     1       2.388   0.303  -1.965  0.00  0.00    +0.000 HD
BRANCH   6  10
ATOM     10  C   UNL     1       3.382  -0.963  -0.277  0.00  0.00    +0.000 C 
BRANCH  10  12
ATOM     11  N   UNL     1       5.649  -0.468   0.398  0.00  0.00    +0.000 N 
ATOM     12  C   UNL     1       4.563   0.190  -0.277  0.00  0.00    +0.000 C 
ATOM     13  O   UNL     1       4.182   1.260   0.229  0.00  0.00    +0.000 OA
ATOM     14  H   UNL     1       5.732  -1.447   0.458  0.00  0.00    +0.000 HD
BRANCH  11  15
ATOM     15  C   UNL     1       6.713   0.543   1.043  0.00  0.00    +0.000 C 
BRANCH  15  16
ATOM     16  C   UNL     1       7.682  -0.740   1.523  0.00  0.00    +0.000 C 
ATOM     17  C   UNL     1       8.645  -0.074   2.503  0.00  0.00    +0.000 C 
ATOM     18  C   UNL     1       6.726  -1.572   2.372  0.00  0.00    +0.000 C 
ENDBRANCH  15  16
BRANCH  15  19
ATOM     19  C   UNL     1       7.471   0.697  -0.409  0.00  0.00    +0.000 C 
ATOM     20  O   UNL     1       6.970   1.746  -0.928  0.00  0.00    +0.000 OA
BRANCH  19  22
ATOM     21  C   UNL     1       9.604   1.658  -1.054  0.00  0.00    +0.000 C 
ATOM     22  O   UNL     1       8.845   0.679  -0.344  0.00  0.00    +0.000 OA
ENDBRANCH  19  22
ENDBRANCH  15  19
ENDBRANCH  11  15
ENDBRANCH  10  12
BRANCH  10  23
ATOM     23  C   UNL     1       3.971  -1.617  -1.698  0.00  0.00    +0.000 C 
ATOM     24  C   UNL     1       3.165  -2.835  -1.955  0.00  0.00    +0.000 C 
ATOM     25  C   UNL     1       3.964  -0.557  -2.707  0.00  0.00    +0.000 C 
ENDBRANCH  10  23
ENDBRANCH   6  10
ENDBRANCH   5   7
ENDBRANCH   4   5
ENDBRANCH   1   4
BRANCH   1  26
ATOM     26  C   UNL     1      -3.149  -0.128   1.479  0.00  0.00    +0.000 C 
BRANCH  26  27
ATOM     27  N   UNL     1      -3.185   0.406  -0.008  0.00  0.00    +0.000 N 
ATOM     28  C   UNL     1      -4.279   0.075  -0.821  0.00  0.00    +0.000 C 
ATOM     29  O   UNL     1      -4.476  -1.149  -0.851  0.00  0.00    +0.000 OA
ATOM     30  H   UNL     1      -2.452   0.962  -0.358  0.00  0.00    +0.000 HD
BRANCH  28  31
ATOM     31  C   UNL     1      -5.641   0.982  -0.679  0.00  0.00    +0.000 C 
ATOM     32  C   UNL     1      -6.526   0.014  -1.727  0.00  0.00    +0.000 C 
BRANCH  31  33
ATOM     33  N   UNL     1      -5.228   1.952  -1.893  0.00  0.00    +0.000 N 
ATOM     34  C   UNL     1      -5.887   3.187  -1.560  0.00  0.00    +0.000 C 
ATOM     35  O   UNL     1      -7.155   3.214  -1.514  0.00  0.00    +0.000 OA
ATOM     36  H   UNL     1      -4.663   1.750  -2.674  0.00  0.00    +0.000 HD
BRANCH  34  37
ATOM     37  C   UNL     1      -5.406   4.433  -2.518  0.00  0.00    +0.000 C 
ATOM     38  C   UNL     1      -3.838   4.331  -1.934  0.00  0.00    +0.000 C 
BRANCH  37  39
ATOM     39  N   UNL     1      -5.782   5.513  -1.389  0.00  0.00    +0.000 NA
ATOM     40  H   UNL     1      -5.426   5.199  -0.486  0.00  0.00    +0.000 HD
ATOM     41  H   UNL     1      -6.796   5.613  -1.339  0.00  0.00    +0.000 HD
ENDBRANCH  37  39
ENDBRANCH  34  37
ENDBRANCH  31  33
ENDBRANCH  28  31
ENDBRANCH  26  27
BRANCH  26  42
ATOM     42  C   UNL     1      -2.781  -1.676   1.065  0.00  0.00    +0.000 C 
BRANCH  42  43
ATOM     43  C   UNL     1      -3.706  -2.547   1.826  0.00  0.00    +0.000 A 
ATOM     44  C   UNL     1      -3.815  -3.858   1.385  0.00  0.00    +0.000 A 
ATOM     45  C   UNL     1      -5.043  -4.511   1.297  0.00  0.00    +0.000 A 
ATOM     46  C   UNL     1      -6.217  -3.786   1.492  0.00  0.00    +0.000 A 
ATOM     47  C   UNL     1      -6.052  -2.647   2.258  0.00  0.00    +0.000 A 
ATOM     48  C   UNL     1      -4.793  -2.128   2.557  0.00  0.00    +0.000 A 
ENDBRANCH  42  43
ENDBRANCH  26  42
ENDBRANCH   1  26
TORSDOF 19
