REMARK  Name = 449342
REMARK  15 active torsions:
REMARK  status: ('A' for Active; 'I' for Inactive)
REMARK    1  A    between atoms: SG_2  and  CB_15
REMARK    2  A    between atoms: SG_2  and  C_19
REMARK    3  A    between atoms: O_5  and  C_20
REMARK    4  A    between atoms: O_7  and  C_27
REMARK    5  A    between atoms: N_9  and  CA_12
REMARK    6  A    between atoms: N_10  and  CA_22
REMARK    7  A    between atoms: N_11  and  CA_16
REMARK    8  A    between atoms: CA_12  and  CB_15
REMARK    9  A    between atoms: CA_12  and  C_18
REMARK   10  A    between atoms: C_13  and  C_14
REMARK   11  A    between atoms: C_13  and  CA_16
REMARK   12  A    between atoms: C_14  and  C_17
REMARK   13  A    between atoms: CA_16  and  C_20
REMARK   14  A    between atoms: C_19  and  C_21
REMARK   15  A    between atoms: CA_22  and  C_27
REMARK                            x       y       z     vdW  Elec       q    Type
REMARK                         _______ _______ _______ _____ _____    ______ ____
ROOT
ATOM      1  CA  UNL     1       1.749   0.528   0.955  0.00  0.00    +0.000 C 
ENDROOT
BRANCH   1   3
ATOM      2  O   UNL     1       1.175  -1.548  -0.966  0.00  0.00    +0.000 OA
ATOM      3  N   UNL     1       1.248  -0.799   1.231  0.00  0.00    +0.000 N 
ATOM      4  C   UNL     1       1.002  -1.732   0.235  0.00  0.00    +0.000 C 
ATOM      5  H   UNL     1       1.169  -1.077   2.205  0.00  0.00    +0.000 HD
BRANCH   4   6
ATOM      6  C   UNL     1       0.472  -3.035   0.810  0.00  0.00    +0.000 C 
BRANCH   6   7
ATOM      7  C   UNL     1      -0.840  -2.846   1.574  0.00  0.00    +0.000 C 
BRANCH   7   8
ATOM      8  CA  UNL     1      -1.941  -2.212   0.717  0.00  0.00    +0.000 C 
BRANCH   8   9
ATOM      9  N   UNL     1      -3.160  -2.065   1.516  0.00  0.00    +0.000 NA
ATOM     10  H1  UNL     1      -2.967  -1.478   2.327  0.00  0.00    +0.000 HD
ATOM     11  H2  UNL     1      -3.867  -1.571   0.972  0.00  0.00    +0.000 HD
ENDBRANCH   8   9
BRANCH   8  13
ATOM     12  OXT UNL     1      -3.115  -4.010  -0.437  0.00  0.00    +0.000 OA
ATOM     13  C   UNL     1      -2.299  -3.097  -0.464  0.00  0.00    +0.000 C 
BRANCH  13  14
ATOM     14  O   UNL     1      -1.586  -2.784  -1.577  0.00  0.00    +0.000 OA
ATOM     15  H   UNL     1      -1.813  -3.368  -2.332  0.00  0.00    +0.000 HD
ENDBRANCH  13  14
ENDBRANCH   8  13
ENDBRANCH   7   8
ENDBRANCH   6   7
ENDBRANCH   4   6
ENDBRANCH   1   3
BRANCH   1  18
ATOM     16  O   UNL     1       3.959  -0.262   1.571  0.00  0.00    +0.000 OA
ATOM     17  N   UNL     1       3.774   1.356  -0.081  0.00  0.00    +0.000 N 
ATOM     18  C   ACE A   1       3.272   0.472   0.864  0.00  0.00    +0.000 C 
ATOM     19  H   UNL     1       3.134   1.926  -0.626  0.00  0.00    +0.000 HD
BRANCH  17  20
ATOM     20  CA  UNL     1       5.188   1.505  -0.334  0.00  0.00    +0.000 C 
BRANCH  20  22
ATOM     21  OXT UNL     1       6.865   0.533  -1.762  0.00  0.00    +0.000 OA
ATOM     22  C   UNL     1       5.694   0.572  -1.404  0.00  0.00    +0.000 C 
BRANCH  22  23
ATOM     23  O   UNL     1       4.731  -0.219  -1.932  0.00  0.00    +0.000 OA
ATOM     24  H   UNL     1       5.086  -0.816  -2.625  0.00  0.00    +0.000 HD
ENDBRANCH  22  23
ENDBRANCH  20  22
ENDBRANCH  17  20
ENDBRANCH   1  18
BRANCH   1  25
ATOM     25  CB  UNL     1       1.238   1.564   1.958  0.00  0.00    +0.000 C 
BRANCH  25  26
ATOM     26  SG  UNL     1      -0.580   1.659   2.056  0.00  0.00    +0.000 S 
BRANCH  26  27
ATOM     27  C   UNL     1      -0.868   2.603   0.544  0.00  0.00    +0.000 C 
BRANCH  27  29
ATOM     28  I   UNL     1      -4.420  -0.207  -2.622  0.00  0.00    +0.000 I 
ATOM     29  C   UNL     1      -2.282   2.465   0.049  0.00  0.00    +0.000 A 
ATOM     30  C   UNL     1      -2.614   1.443  -0.841  0.00  0.00    +0.000 A 
ATOM     31  C   UNL     1      -3.261   3.359   0.481  0.00  0.00    +0.000 A 
ATOM     32  C   UNL     1      -3.925   1.315  -1.298  0.00  0.00    +0.000 A 
ATOM     33  C   UNL     1      -4.572   3.232   0.023  0.00  0.00    +0.000 A 
ATOM     34  C   UNL     1      -4.904   2.210  -0.867  0.00  0.00    +0.000 A 
ENDBRANCH  27  29
ENDBRANCH  26  27
ENDBRANCH  25  26
ENDBRANCH   1  25
TORSDOF 15
