REMARK  Name = 446912
REMARK  19 active torsions:
REMARK  status: ('A' for Active; 'I' for Inactive)
REMARK    1  A    between atoms: O_1  and  C_10
REMARK    2  A    between atoms: O_4  and  C_23
REMARK    3  A    between atoms: O_4  and  C_31
REMARK    4  A    between atoms: N_5  and  C_8
REMARK    5  A    between atoms: N_6  and  C_12
REMARK    6  A    between atoms: N_7  and  C_29
REMARK    7  A    between atoms: C_8  and  C_9
REMARK    8  A    between atoms: C_8  and  C_11
REMARK    9  A    between atoms: C_9  and  C_10
REMARK   10  A    between atoms: C_10  and  C_12
REMARK   11  A    between atoms: C_11  and  C_13
REMARK   12  A    between atoms: C_12  and  C_14
REMARK   13  A    between atoms: C_13  and  C_15
REMARK   14  A    between atoms: C_13  and  C_16
REMARK   15  A    between atoms: C_14  and  C_17
REMARK   16  A    between atoms: C_18  and  C_22
REMARK   17  A    between atoms: C_19  and  C_23
REMARK   18  A    between atoms: C_33  and  C_37
REMARK   19  A    between atoms: C_34  and  C_38
REMARK                            x       y       z     vdW  Elec       q    Type
REMARK                         _______ _______ _______ _____ _____    ______ ____
ROOT
ATOM      1  C   UNL     1       0.746  -0.941  -2.077  0.00  0.00    +0.000 C 
ENDROOT
BRANCH   1   2
ATOM      2  O   UNL     1       0.480  -1.827  -3.167  0.00  0.00    +0.000 OA
ATOM      3  H   UNL     1      -0.473  -1.801  -3.351  0.00  0.00    +0.000 HD
ENDBRANCH   1   2
BRANCH   1   4
ATOM      4  C   UNL     1       0.254   0.475  -2.438  0.00  0.00    +0.000 C 
BRANCH   4   5
ATOM      5  C   UNL     1       0.476   1.564  -1.365  0.00  0.00    +0.000 C 
BRANCH   5   7
ATOM      6  O   UNL     1       1.675   0.961   1.173  0.00  0.00    +0.000 OA
ATOM      7  N   UNL     1       1.882   1.655  -1.029  0.00  0.00    +0.000 N 
ATOM      8  C   UNL     1       2.364   1.340   0.230  0.00  0.00    +0.000 C 
ATOM      9  H   UNL     1       2.514   1.915  -1.779  0.00  0.00    +0.000 HD
BRANCH   8  10
ATOM     10  C   UNL     1       3.827   1.511   0.422  0.00  0.00    +0.000 A 
ATOM     11  C   UNL     1       4.500   0.742   1.371  0.00  0.00    +0.000 A 
ATOM     12  C   UNL     1       4.527   2.440  -0.347  0.00  0.00    +0.000 A 
ATOM     13  C   UNL     1       5.874   0.902   1.551  0.00  0.00    +0.000 A 
ATOM     14  C   UNL     1       5.901   2.600  -0.168  0.00  0.00    +0.000 A 
ATOM     15  C   UNL     1       6.575   1.831   0.781  0.00  0.00    +0.000 A 
BRANCH  13  16
ATOM     16  N   UNL     1       6.556   0.124   2.510  0.00  0.00    +0.000 N 
ATOM     17  H   UNL     1       6.049  -0.554   3.064  0.00  0.00    +0.000 HD
ATOM     18  H   UNL     1       7.552   0.238   2.639  0.00  0.00    +0.000 HD
ENDBRANCH  13  16
ENDBRANCH   8  10
ENDBRANCH   5   7
BRANCH   5  19
ATOM     19  C   UNL     1      -0.067   2.961  -1.710  0.00  0.00    +0.000 C 
BRANCH  19  20
ATOM     20  C   UNL     1       0.080   4.024  -0.605  0.00  0.00    +0.000 C 
ATOM     21  C   UNL     1      -0.441   5.372  -1.108  0.00  0.00    +0.000 C 
ATOM     22  C   UNL     1      -0.649   3.634   0.681  0.00  0.00    +0.000 C 
ENDBRANCH  19  20
ENDBRANCH   5  19
ENDBRANCH   4   5
ENDBRANCH   1   4
BRANCH   1  23
ATOM     23  C   UNL     1       0.107  -1.532  -0.798  0.00  0.00    +0.000 C 
BRANCH  23  25
ATOM     24  O   UNL     1      -1.772  -1.099   1.365  0.00  0.00    +0.000 OA
ATOM     25  N   UNL     1      -1.340  -1.476  -0.889  0.00  0.00    +0.000 N 
ATOM     26  C   UNL     1      -2.154  -1.263   0.209  0.00  0.00    +0.000 C 
ATOM     27  H   UNL     1      -1.773  -1.673  -1.786  0.00  0.00    +0.000 HD
BRANCH  26  28
ATOM     28  C   UNL     1      -3.617  -1.252  -0.179  0.00  0.00    +0.000 C 
BRANCH  28  29
ATOM     29  O   UNL     1      -4.431  -1.021   0.951  0.00  0.00    +0.000 OA
BRANCH  29  30
ATOM     30  C   UNL     1      -5.624  -0.370   0.743  0.00  0.00    +0.000 A 
ATOM     31  C   UNL     1      -6.777  -1.102   0.460  0.00  0.00    +0.000 A 
ATOM     32  C   UNL     1      -5.681   1.021   0.815  0.00  0.00    +0.000 A 
ATOM     33  C   UNL     1      -7.988  -0.443   0.250  0.00  0.00    +0.000 A 
ATOM     34  C   UNL     1      -6.892   1.681   0.604  0.00  0.00    +0.000 A 
ATOM     35  C   UNL     1      -6.736  -2.593   0.377  0.00  0.00    +0.000 C 
ATOM     36  C   UNL     1      -4.458   1.823   1.115  0.00  0.00    +0.000 C 
ATOM     37  C   UNL     1      -8.046   0.949   0.322  0.00  0.00    +0.000 A 
ENDBRANCH  29  30
ENDBRANCH  28  29
ENDBRANCH  26  28
ENDBRANCH  23  25
BRANCH  23  38
ATOM     38  C   UNL     1       0.545  -2.968  -0.457  0.00  0.00    +0.000 C 
BRANCH  38  39
ATOM     39  C   UNL     1       2.020  -3.134  -0.184  0.00  0.00    +0.000 A 
ATOM     40  C   UNL     1       2.510  -2.991   1.114  0.00  0.00    +0.000 A 
ATOM     41  C   UNL     1       2.894  -3.431  -1.231  0.00  0.00    +0.000 A 
ATOM     42  C   UNL     1       3.874  -3.144   1.365  0.00  0.00    +0.000 A 
ATOM     43  C   UNL     1       4.257  -3.584  -0.979  0.00  0.00    +0.000 A 
ATOM     44  C   UNL     1       4.747  -3.441   0.319  0.00  0.00    +0.000 A 
ENDBRANCH  38  39
ENDBRANCH  23  38
ENDBRANCH   1  23
TORSDOF 15
