REMARK  Name = 
REMARK  24 active torsions:
REMARK  status: ('A' for Active; 'I' for Inactive)
REMARK    1  A    between atoms: C_1  and  C_2
REMARK    2  A    between atoms: C_4  and  C_5
REMARK    3  A    between atoms: N_7  and  C_8
REMARK    4  A    between atoms: C_8  and  C_9
REMARK    5  A    between atoms: C_8  and  C_10
REMARK    6  A    between atoms: N_12  and  C_13
REMARK    7  A    between atoms: C_13  and  C_14
REMARK    8  A    between atoms: C_13  and  C_45
REMARK    9  A    between atoms: N_16  and  C_17
REMARK   10  A    between atoms: C_17  and  C_18
REMARK   11  A    between atoms: C_17  and  C_22
REMARK   12  A    between atoms: C_18  and  C_19
REMARK   13  A    between atoms: C_19  and  C_20
REMARK   14  A    between atoms: C_19  and  C_21
REMARK   15  A    between atoms: N_24  and  C_25
REMARK   16  A    between atoms: C_25  and  C_26
REMARK   17  A    between atoms: C_25  and  C_38
REMARK   18  A    between atoms: C_27  and  C_28
REMARK   19  A    between atoms: C_28  and  O_30
REMARK   20  A    between atoms: O_30  and  C_31
REMARK   21  A    between atoms: C_31  and  C_32
REMARK   22  A    between atoms: C_38  and  C_39
REMARK   23  A    between atoms: C_45  and  C_46
REMARK   24  A    between atoms: C_45  and  C_47
REMARK                            x       y       z     vdW  Elec       q    Type
REMARK                         _______ _______ _______ _____ _____    ______ ____
ROOT
ATOM      1  C   UNL     1       0.134  -0.662  -0.578  0.00  0.00    +0.000 C 
ENDROOT
BRANCH   1   4
ATOM      2  C   UNL     1       2.528   0.146  -0.184  0.00  0.00    +0.000 C 
ATOM      3  O   UNL     1       2.555   0.220  -1.427  0.00  0.00    +0.000 OA
ATOM      4  N   UNL     1       1.201   0.034   0.352  0.00  0.00    +0.000 N 
ATOM      5  H   UNL     1       0.971   0.372   1.248  0.00  0.00    +0.000 HD
BRANCH   2   6
ATOM      6  C   UNL     1       3.610  -0.825   0.519  0.00  0.00    +0.000 C 
BRANCH   6   9
ATOM      7  C   UNL     1       5.630  -1.662  -0.672  0.00  0.00    +0.000 C 
ATOM      8  O   UNL     1       5.352  -2.806  -0.246  0.00  0.00    +0.000 OA
ATOM      9  N   UNL     1       4.756  -0.537  -0.524  0.00  0.00    +0.000 N 
ATOM     10  H   UNL     1       4.858   0.311  -1.013  0.00  0.00    +0.000 HD
BRANCH   7  11
ATOM     11  C   UNL     1       6.357  -1.613  -2.111  0.00  0.00    +0.000 C 
ATOM     12  C   UNL     1       7.593  -2.578  -1.611  0.00  0.00    +0.000 C 
BRANCH  11  15
ATOM     13  C   UNL     1       7.741  -0.152  -0.524  0.00  0.00    +0.000 C 
ATOM     14  O   UNL     1       7.616  -1.056   0.336  0.00  0.00    +0.000 OA
ATOM     15  N   UNL     1       7.139  -0.290  -1.774  0.00  0.00    +0.000 N 
ATOM     16  H   UNL     1       7.202   0.433  -2.439  0.00  0.00    +0.000 HD
BRANCH  13  20
ATOM     17  C   UNL     1      11.667   2.228   1.293  0.00  0.00    +0.000 C 
ATOM     18  C   UNL     1      10.450   1.972   0.497  0.00  0.00    +0.000 A 
ATOM     19  C   UNL     1       9.299   1.293   0.840  0.00  0.00    +0.000 A 
ATOM     20  C   UNL     1       8.586   1.036  -0.322  0.00  0.00    +0.000 A 
ATOM     21  N   UNL     1       9.302   1.664  -1.284  0.00  0.00    +0.000 NA
ATOM     22  O   UNL     1      10.328   2.263  -0.768  0.00  0.00    +0.000 OA
ENDBRANCH  13  20
ENDBRANCH  11  15
ENDBRANCH   7  11
ENDBRANCH   6   9
BRANCH   6  23
ATOM     23  C   UNL     1       4.174   0.358   1.510  0.00  0.00    +0.000 C 
ATOM     24  C   UNL     1       2.995   1.034   2.117  0.00  0.00    +0.000 C 
ATOM     25  C   UNL     1       4.964  -0.496   2.496  0.00  0.00    +0.000 C 
ENDBRANCH   6  23
ENDBRANCH   2   6
ENDBRANCH   1   4
BRANCH   1  26
ATOM     26  C   UNL     1      -1.025   0.382  -0.155  0.00  0.00    +0.000 C 
ATOM     27  O   UNL     1      -0.985   1.338  -0.993  0.00  0.00    +0.000 OA
ATOM     28  N   UNL     1      -2.248  -0.084   0.270  0.00  0.00    +0.000 N 
ATOM     29  H   UNL     1      -2.306  -0.625   1.090  0.00  0.00    +0.000 HD
BRANCH  28  30
ATOM     30  C   UNL     1      -3.555   0.239  -0.543  0.00  0.00    +0.000 C 
BRANCH  30  31
ATOM     31  C   UNL     1      -4.409   0.420   0.817  0.00  0.00    +0.000 C 
ATOM     32  C   UNL     1      -5.538   1.051   0.742  0.00  0.00    +0.000 C 
BRANCH  32  33
ATOM     33  C   UNL     1      -6.866   0.520   1.083  0.00  0.00    +0.000 C 
ATOM     34  O   UNL     1      -7.340   0.505   2.226  0.00  0.00    +0.000 OA
BRANCH  33  35
ATOM     35  O   UNL     1      -7.701  -0.032   0.099  0.00  0.00    +0.000 OA
BRANCH  35  36
ATOM     36  C   UNL     1      -9.053   0.407   0.018  0.00  0.00    +0.000 C 
BRANCH  36  37
ATOM     37  C   UNL     1      -9.141   1.742  -0.656  0.00  0.00    +0.000 A 
ATOM     38  C   UNL     1      -7.980   2.244  -1.226  0.00  0.00    +0.000 A 
ATOM     39  C   UNL     1      -7.735   3.602  -1.369  0.00  0.00    +0.000 A 
ATOM     40  C   UNL     1      -8.449   4.475  -0.576  0.00  0.00    +0.000 A 
ATOM     41  C   UNL     1      -9.706   4.034  -0.167  0.00  0.00    +0.000 A 
ATOM     42  C   UNL     1     -10.067   2.695  -0.246  0.00  0.00    +0.000 A 
ENDBRANCH  36  37
ENDBRANCH  35  36
ENDBRANCH  33  35
ENDBRANCH  32  33
ENDBRANCH  30  31
BRANCH  30  43
ATOM     43  C   UNL     1      -3.949  -1.352  -0.638  0.00  0.00    +0.000 C 
BRANCH  43  44
ATOM     44  C   UNL     1      -3.725  -1.655  -2.226  0.00  0.00    +0.000 C 
ATOM     45  C   UNL     1      -5.205  -1.125  -2.659  0.00  0.00    +0.000 C 
ATOM     46  C   UNL     1      -6.149  -2.039  -2.014  0.00  0.00    +0.000 C 
ATOM     47  N   UNL     1      -5.435  -3.086  -1.327  0.00  0.00    +0.000 N 
ATOM     48  C   UNL     1      -4.217  -3.175  -2.076  0.00  0.00    +0.000 C 
ATOM     49  O   UNL     1      -3.293  -3.935  -1.648  0.00  0.00    +0.000 OA
ATOM     50  H   UNL     1      -5.714  -3.609  -0.541  0.00  0.00    +0.000 HD
ENDBRANCH  43  44
ENDBRANCH  30  43
ENDBRANCH  28  30
ENDBRANCH   1  26
BRANCH   1  51
ATOM     51  C   UNL     1      -0.312  -1.807   0.502  0.00  0.00    +0.000 C 
BRANCH  51  52
ATOM     52  C   UNL     1       0.320  -1.661   1.776  0.00  0.00    +0.000 C 
ATOM     53  C   UNL     1      -0.196  -2.834   2.602  0.00  0.00    +0.000 C 
ATOM     54  C   UNL     1      -0.021  -0.443   2.600  0.00  0.00    +0.000 C 
ENDBRANCH  51  52
ENDBRANCH   1  51
TORSDOF 18
