REMARK  Name = 
REMARK  19 active torsions:
REMARK  status: ('A' for Active; 'I' for Inactive)
REMARK    1  A    between atoms: C_1  and  C_2
REMARK    2  A    between atoms: C_2  and  C_3
REMARK    3  A    between atoms: C_3  and  O_4
REMARK    4  A    between atoms: O_4  and  C_5
REMARK    5  A    between atoms: C_11  and  C_12
REMARK    6  A    between atoms: C_12  and  C_13
REMARK    7  A    between atoms: C_13  and  N_14
REMARK    8  A    between atoms: C_13  and  C_20
REMARK    9  A    between atoms: N_14  and  S_15
REMARK   10  A    between atoms: S_15  and  C_18
REMARK   11  A    between atoms: C_18  and  C_19
REMARK   12  A    between atoms: N_22  and  C_23
REMARK   13  A    between atoms: C_23  and  C_24
REMARK   14  A    between atoms: C_23  and  C_29
REMARK   15  A    between atoms: C_24  and  C_25
REMARK   16  A    between atoms: C_25  and  C_26
REMARK   17  A    between atoms: N_31  and  C_32
REMARK   18  A    between atoms: C_32  and  C_33
REMARK   19  A    between atoms: C_36  and  C_37
REMARK                            x       y       z     vdW  Elec       q    Type
REMARK                         _______ _______ _______ _____ _____    ______ ____
ROOT
ATOM      1  C   UNL     1      -1.044  -0.972   0.651  0.00  0.00    +0.000 C 
ATOM      2  O   UNL     1      -0.958  -1.866   1.458  0.00  0.00    +0.000 OA
ATOM      3  N   UNL     1       0.205  -0.440   0.219  0.00  0.00    +0.000 N 
ATOM      4  H   UNL     1       0.420  -0.342  -0.737  0.00  0.00    +0.000 HD
ENDROOT
BRANCH   1   5
ATOM      5  C   UNL     1      -2.355  -0.060   0.487  0.00  0.00    +0.000 C 
BRANCH   5   6
ATOM      6  N   UNL     1      -2.765  -0.159   1.989  0.00  0.00    +0.000 NA
ATOM      7  H   UNL     1      -3.404   0.619   2.156  0.00  0.00    +0.000 HD
BRANCH   6   8
ATOM      8  S   UNL     1      -3.463  -1.438   2.615  0.00  0.00    +0.000 S 
ATOM      9  O   UNL     1      -4.913  -1.173   2.991  0.00  0.00    +0.000 OA
ATOM     10  O   UNL     1      -3.499  -2.804   2.079  0.00  0.00    +0.000 OA
BRANCH   8  11
ATOM     11  C   UNL     1      -2.643  -1.543   4.221  0.00  0.00    +0.000 C 
ATOM     12  C   UNL     1      -2.581  -2.921   4.751  0.00  0.00    +0.000 C 
ENDBRANCH   8  11
ENDBRANCH   6   8
ENDBRANCH   5   6
BRANCH   5  13
ATOM     13  C   UNL     1      -3.287  -1.321  -0.019  0.00  0.00    +0.000 C 
BRANCH  13  20
ATOM     14  C   UNL     1      -5.821   1.304  -2.837  0.00  0.00    +0.000 A 
ATOM     15  C   UNL     1      -5.247   1.604  -4.058  0.00  0.00    +0.000 A 
ATOM     16  C   UNL     1      -3.958   1.142  -4.258  0.00  0.00    +0.000 A 
ATOM     17  C   UNL     1      -3.440   0.172  -3.422  0.00  0.00    +0.000 A 
ATOM     18  N   UNL     1      -2.302  -0.527  -3.497  0.00  0.00    +0.000 N 
ATOM     19  C   UNL     1      -2.032  -1.001  -2.255  0.00  0.00    +0.000 A 
ATOM     20  C   UNL     1      -3.200  -1.013  -1.495  0.00  0.00    +0.000 A 
ATOM     21  C   UNL     1      -4.051  -0.182  -2.222  0.00  0.00    +0.000 A 
ATOM     22  C   UNL     1      -5.254   0.410  -1.936  0.00  0.00    +0.000 A 
ATOM     23  H   UNL     1      -1.760  -0.672  -4.306  0.00  0.00    +0.000 HD
BRANCH  14  24
ATOM     24  O   UNL     1      -6.874   2.140  -2.447  0.00  0.00    +0.000 OA
BRANCH  24  25
ATOM     25  C   UNL     1      -6.824   2.911  -1.260  0.00  0.00    +0.000 C 
BRANCH  25  27
ATOM     26  C   UNL     1      -5.581   4.728  -0.140  0.00  0.00    +0.000 C 
ATOM     27  C   UNL     1      -5.827   4.029  -1.402  0.00  0.00    +0.000 C 
ENDBRANCH  25  27
ENDBRANCH  24  25
ENDBRANCH  14  24
ENDBRANCH  13  20
ENDBRANCH   5  13
ENDBRANCH   1   5
BRANCH   3  28
ATOM     28  C   UNL     1       1.227  -0.018   1.339  0.00  0.00    +0.000 C 
BRANCH  28  29
ATOM     29  C   UNL     1       2.489  -0.737   0.641  0.00  0.00    +0.000 C 
ATOM     30  O   UNL     1       2.497  -0.976  -0.551  0.00  0.00    +0.000 OA
ATOM     31  N   UNL     1       3.655  -0.069   1.143  0.00  0.00    +0.000 N 
ATOM     32  H   UNL     1       3.537   0.675   1.778  0.00  0.00    +0.000 HD
BRANCH  31  33
ATOM     33  C   UNL     1       4.974  -0.436   0.761  0.00  0.00    +0.000 C 
BRANCH  33  34
ATOM     34  C   UNL     1       5.426   0.097  -0.529  0.00  0.00    +0.000 A 
ATOM     35  C   UNL     1       5.081   1.327  -1.067  0.00  0.00    +0.000 A 
ATOM     36  C   UNL     1       6.054   2.126  -1.661  0.00  0.00    +0.000 A 
ATOM     37  C   UNL     1       7.388   1.737  -1.719  0.00  0.00    +0.000 A 
ATOM     38  C   UNL     1       7.558   0.357  -1.660  0.00  0.00    +0.000 A 
ATOM     39  C   UNL     1       6.589  -0.447  -1.064  0.00  0.00    +0.000 A 
BRANCH  37  40
ATOM     40  C   UNL     1       8.482   2.666  -1.400  0.00  0.00    +0.000 C 
ATOM     41  N   UNL     1       9.679   2.161  -1.470  0.00  0.00    +0.000 NA
ATOM     42  N   UNL     1       8.347   3.672  -0.387  0.00  0.00    +0.000 N 
ATOM     43  H   UNL     1       9.881   1.461  -2.132  0.00  0.00    +0.000 HD
ATOM     44  H   UNL     1       7.481   4.120  -0.250  0.00  0.00    +0.000 HD
ATOM     45  H   UNL     1       9.121   3.916   0.171  0.00  0.00    +0.000 HD
ENDBRANCH  37  40
ENDBRANCH  33  34
ENDBRANCH  31  33
ENDBRANCH  28  29
BRANCH  28  46
ATOM     46  C   UNL     1       0.936  -1.337   2.273  0.00  0.00    +0.000 C 
BRANCH  46  47
ATOM     47  C   UNL     1       2.282  -1.718   2.881  0.00  0.00    +0.000 C 
BRANCH  47  48
ATOM     48  C   UNL     1       1.883  -2.756   3.888  0.00  0.00    +0.000 C 
ATOM     49  N   UNL     1       2.365  -4.081   3.829  0.00  0.00    +0.000 N 
ATOM     50  O   UNL     1       0.804  -2.588   4.539  0.00  0.00    +0.000 OA
ATOM     51  H   UNL     1       3.197  -4.280   3.341  0.00  0.00    +0.000 HD
ATOM     52  H   UNL     1       1.871  -4.805   4.277  0.00  0.00    +0.000 HD
ENDBRANCH  47  48
ENDBRANCH  46  47
ENDBRANCH  28  46
ENDBRANCH   3  28
TORSDOF 17
