REMARK  Name = 
REMARK  26 active torsions:
REMARK  status: ('A' for Active; 'I' for Inactive)
REMARK    1  A    between atoms: C_1  and  C_2
REMARK    2  A    between atoms: C_2  and  N_3
REMARK    3  A    between atoms: C_2  and  B_39
REMARK    4  A    between atoms: C_4  and  C_6
REMARK    5  A    between atoms: C_6  and  C_7
REMARK    6  A    between atoms: C_6  and  N_22
REMARK    7  A    between atoms: C_7  and  C_8
REMARK    8  A    between atoms: C_8  and  C_9
REMARK    9  A    between atoms: C_9  and  C_10
REMARK   10  A    between atoms: C_10  and  N_11
REMARK   11  A    between atoms: C_12  and  O_14
REMARK   12  A    between atoms: O_14  and  C_15
REMARK   13  A    between atoms: C_15  and  C_16
REMARK   14  A    between atoms: C_23  and  C_25
REMARK   15  A    between atoms: C_25  and  C_26
REMARK   16  A    between atoms: C_26  and  C_27
REMARK   17  A    between atoms: C_27  and  N_28
REMARK   18  A    between atoms: C_27  and  C_36
REMARK   19  A    between atoms: C_29  and  O_31
REMARK   20  A    between atoms: O_31  and  C_32
REMARK   21  A    between atoms: C_32  and  C_33
REMARK   22  A    between atoms: C_32  and  C_34
REMARK   23  A    between atoms: C_32  and  C_35
REMARK   24  A    between atoms: C_36  and  O_38
REMARK   25  A    between atoms: B_39  and  O_40
REMARK   26  A    between atoms: B_39  and  O_41
REMARK                            x       y       z     vdW  Elec       q    Type
REMARK                         _______ _______ _______ _____ _____    ______ ____
ROOT
ATOM      1  C   UNK A   1      -1.137  -0.354  -0.341  0.00  0.00    +0.000 C 
ENDROOT
BRANCH   1   3
ATOM      2  N   UNK A   1       0.400  -0.067  -2.409  0.00  0.00    +0.000 N 
ATOM      3  C   UNK A   1      -0.435  -0.898  -1.682  0.00  0.00    +0.000 C 
ATOM      4  O   UNK A   1      -0.326  -2.149  -1.612  0.00  0.00    +0.000 OA
ATOM      5  H   UNK A   1       0.391   0.916  -2.358  0.00  0.00    +0.000 HD
BRANCH   2   7
ATOM      6  C   UNK A   1       2.611  -0.735  -2.294  0.00  0.00    +0.000 C 
ATOM      7  C   UNK A   1       1.359  -0.898  -3.322  0.00  0.00    +0.000 C 
BRANCH   7   8
ATOM      8  B   UNK A   1       1.806   0.453  -4.259  0.00  0.00    +0.000 B 
BRANCH   8   9
ATOM      9  O   UNK A   1       2.444  -0.056  -5.482  0.00  0.00    +0.000 OA
ATOM     10  H   UNK A   1       2.010  -0.879  -5.755  0.00  0.00    +0.000 HD
ENDBRANCH   8   9
BRANCH   8  11
ATOM     11  O   UNK A   1       2.208   1.655  -3.593  0.00  0.00    +0.000 OA
ATOM     12  H   UNK A   1       1.650   1.795  -2.812  0.00  0.00    +0.000 HD
ENDBRANCH   8  11
ENDBRANCH   7   8
ENDBRANCH   2   7
ENDBRANCH   1   3
BRANCH   1  13
ATOM     13  N   UNK A   1       0.200   0.253   0.231  0.00  0.00    +0.000 N 
ATOM     14  C   UNK A   1       0.779  -0.567   1.255  0.00  0.00    +0.000 C 
ATOM     15  O   UNK A   1       0.245  -1.661   1.613  0.00  0.00    +0.000 OA
ATOM     16  H   UNK A   1       0.594   1.100  -0.081  0.00  0.00    +0.000 HD
BRANCH  14  17
ATOM     17  C   UNK A   1       2.245  -0.491   1.555  0.00  0.00    +0.000 C 
BRANCH  17  18
ATOM     18  C   UNK A   1       2.923   0.033   0.371  0.00  0.00    +0.000 C 
BRANCH  18  19
ATOM     19  C   UNK A   1       4.111   1.089   0.785  0.00  0.00    +0.000 C 
BRANCH  19  20
ATOM     20  N   UNK A   1       5.042  -0.082   1.288  0.00  0.00    +0.000 N 
ATOM     21  C   UNK A   0       6.336   0.037   0.687  0.00  0.00    +0.000 C 
ATOM     22  O   UNK A   0       6.531   0.702  -0.374  0.00  0.00    +0.000 OA
ATOM     23  H   UNK A   1       4.773  -0.789   1.918  0.00  0.00    +0.000 HD
BRANCH  21  24
ATOM     24  O   UNK A   0       7.384  -0.628   1.329  0.00  0.00    +0.000 OA
BRANCH  24  25
ATOM     25  C   UNK A   0       8.710  -0.500   0.877  0.00  0.00    +0.000 C 
ATOM     26  C   UNK A   0       9.393  -1.852   0.904  0.00  0.00    +0.000 C 
ATOM     27  C   UNK A   0       9.511   0.422   1.757  0.00  0.00    +0.000 C 
ATOM     28  C   UNK A   0       8.684   0.032  -0.530  0.00  0.00    +0.000 C 
ENDBRANCH  24  25
ENDBRANCH  21  24
ENDBRANCH  19  20
BRANCH  19  29
ATOM     29  C   UNK A   1       3.497   1.423   2.237  0.00  0.00    +0.000 C 
ATOM     30  O   UNK A   1       3.009   2.598   2.248  0.00  0.00    +0.000 OA
BRANCH  29  31
ATOM     31  O   UNK A   1       4.131   1.038   3.360  0.00  0.00    +0.000 OA
ATOM     32  H   UNK A   1       4.511   0.183   3.414  0.00  0.00    +0.000 HD
ENDBRANCH  29  31
ENDBRANCH  19  29
ENDBRANCH  18  19
ENDBRANCH  17  18
ENDBRANCH  14  17
ENDBRANCH   1  13
BRANCH   1  33
ATOM     33  C   UNK A   1      -1.571   1.072  -1.039  0.00  0.00    +0.000 C 
BRANCH  33  34
ATOM     34  C   UNK A   1      -3.004   0.722  -1.427  0.00  0.00    +0.000 C 
BRANCH  34  35
ATOM     35  C   UNK A   1      -3.133  -0.675  -1.942  0.00  0.00    +0.000 C 
BRANCH  35  36
ATOM     36  C   UNK A   1      -3.844  -1.622  -1.027  0.00  0.00    +0.000 C 
BRANCH  36  37
ATOM     37  N   UNK A   1      -4.268  -1.043   0.217  0.00  0.00    +0.000 N 
ATOM     38  C   UNK A   1      -5.272  -0.038   0.166  0.00  0.00    +0.000 C 
ATOM     39  O   UNK A   1      -5.997   0.026  -0.856  0.00  0.00    +0.000 OA
ATOM     40  H   UNK A   1      -3.877  -1.331   1.074  0.00  0.00    +0.000 HD
BRANCH  38  41
ATOM     41  O   UNK A   1      -5.322   0.915   1.177  0.00  0.00    +0.000 OA
BRANCH  41  42
ATOM     42  C   UNK A   1      -6.498   1.719   1.221  0.00  0.00    +0.000 C 
BRANCH  42  43
ATOM     43  C   UNK A   1      -7.641   0.754   1.256  0.00  0.00    +0.000 A 
ATOM     44  C   UNK A   1      -8.709   0.855   0.403  0.00  0.00    +0.000 A 
ATOM     45  C   UNK A   1      -9.903   0.200   0.663  0.00  0.00    +0.000 A 
ATOM     46  C   UNK A   1      -9.981  -0.479   1.865  0.00  0.00    +0.000 A 
ATOM     47  C   UNK A   1      -8.854  -0.884   2.538  0.00  0.00    +0.000 A 
ATOM     48  C   UNK A   1      -7.662  -0.265   2.189  0.00  0.00    +0.000 A 
ENDBRANCH  42  43
ENDBRANCH  41  42
ENDBRANCH  38  41
ENDBRANCH  36  37
ENDBRANCH  35  36
ENDBRANCH  34  35
ENDBRANCH  33  34
ENDBRANCH   1  33
TORSDOF 22
