REMARK  Name = 
REMARK  41 active torsions:
REMARK  status: ('A' for Active; 'I' for Inactive)
REMARK    1  A    between atoms: C_1  and  C_6
REMARK    2  A    between atoms: N_7  and  C_74
REMARK    3  A    between atoms: C_15  and  C_60
REMARK    4  A    between atoms: C_18  and  C_33
REMARK    5  A    between atoms: C_18  and  C_84
REMARK    6  A    between atoms: C_19  and  C_53
REMARK    7  A    between atoms: N_20  and  C_21
REMARK    8  A    between atoms: C_21  and  C_22
REMARK    9  A    between atoms: C_21  and  C_69
REMARK   10  A    between atoms: N_23  and  C_24
REMARK   11  A    between atoms: C_24  and  C_25
REMARK   12  A    between atoms: C_24  and  C_36
REMARK   13  A    between atoms: N_26  and  C_27
REMARK   14  A    between atoms: C_27  and  C_28
REMARK   15  A    between atoms: C_27  and  C_45
REMARK   16  A    between atoms: N_29  and  C_30
REMARK   17  A    between atoms: C_30  and  C_31
REMARK   18  A    between atoms: C_30  and  C_47
REMARK   19  A    between atoms: N_32  and  C_33
REMARK   20  A    between atoms: C_33  and  C_34
REMARK   21  A    between atoms: C_36  and  C_37
REMARK   22  A    between atoms: C_40  and  O_43
REMARK   23  A    between atoms: C_45  and  O_71
REMARK   24  A    between atoms: C_47  and  C_48
REMARK   25  A    between atoms: C_48  and  C_49
REMARK   26  A    between atoms: C_48  and  C_50
REMARK   27  A    between atoms: C_53  and  N_54
REMARK   28  A    between atoms: C_53  and  C_60
REMARK   29  A    between atoms: C_55  and  C_56
REMARK   30  A    between atoms: C_56  and  N_57
REMARK   31  A    between atoms: C_56  and  C_62
REMARK   32  A    between atoms: C_58  and  C_76
REMARK   33  A    between atoms: C_62  and  C_63
REMARK   34  A    between atoms: C_69  and  O_70
REMARK   35  A    between atoms: O_71  and  C_72
REMARK   36  A    between atoms: C_72  and  C_73
REMARK   37  A    between atoms: C_72  and  C_82
REMARK   38  A    between atoms: C_72  and  C_83
REMARK   39  A    between atoms: C_74  and  C_75
REMARK   40  A    between atoms: C_84  and  C_85
REMARK   41  A    between atoms: C_85  and  N_86
REMARK                            x       y       z     vdW  Elec       q    Type
REMARK                         _______ _______ _______ _____ _____    ______ ____
ROOT
ATOM      1  C   UNK     1      -0.732  -0.209   0.000  0.00  0.00    +0.000 C 
ENDROOT
BRANCH   1   3
ATOM      2  C   UNK     1      -2.154  -0.209   0.000  0.00  0.00    +0.000 C 
ATOM      3  N   UNK     1      -1.443  -0.627   0.000  0.00  0.00    +0.000 N 
ATOM      4  O   UNK     1      -2.154   0.586   0.000  0.00  0.00    +0.000 OA
ATOM      5  H   UNK     1      -1.443  -1.612   0.000  0.00  0.00    +0.000 HD
BRANCH   2   6
ATOM      6  C   UNK     1      -2.865  -0.627   0.000  0.00  0.00    +0.000 C 
BRANCH   6   8
ATOM      7  C   UNK     1      -4.287  -0.627   0.000  0.00  0.00    +0.000 C 
ATOM      8  N   UNK     1      -3.576  -0.209   0.000  0.00  0.00    +0.000 N 
ATOM      9  O   UNK     1      -4.287  -1.464   0.000  0.00  0.00    +0.000 OA
ATOM     10  H   UNK     1      -3.576   0.775   0.000  0.00  0.00    +0.000 HD
BRANCH   7  11
ATOM     11  C   UNK     1      -4.998  -0.209   0.000  0.00  0.00    +0.000 C 
BRANCH  11  12
ATOM     12  N   UNK     1      -5.710  -0.627   0.000  0.00  0.00    +0.000 N 
ATOM     13  C   UNK     1      -6.421  -0.209   0.000  0.00  0.00    +0.000 C 
ATOM     14  O   UNK     1      -6.421   0.586   0.000  0.00  0.00    +0.000 OA
ATOM     15  H   UNK     1      -5.710  -1.612   0.000  0.00  0.00    +0.000 HD
BRANCH  13  16
ATOM     16  C   UNK     1      -7.132  -0.627   0.000  0.00  0.00    +0.000 C 
BRANCH  16  17
ATOM     17  N   UNK     1      -7.843  -0.209   0.000  0.00  0.00    +0.000 N 
ATOM     18  C   UNK     1      -8.554  -0.627   0.000  0.00  0.00    +0.000 C 
ATOM     19  O   UNK     1      -8.554  -1.464   0.000  0.00  0.00    +0.000 OA
ATOM     20  H   UNK     1      -7.843   0.775   0.000  0.00  0.00    +0.000 HD
BRANCH  18  21
ATOM     21  C   UNK     1      -9.265  -0.209   0.000  0.00  0.00    +0.000 C 
ATOM     22  N   UNK     1      -9.265   0.586   0.000  0.00  0.00    +0.000 N 
ATOM     23  C   UNK     1     -10.060   0.837   0.000  0.00  0.00    +0.000 C 
ATOM     24  C   UNK     1     -10.562   0.167   0.000  0.00  0.00    +0.000 C 
ATOM     25  C   UNK     1     -10.060  -0.502   0.000  0.00  0.00    +0.000 C 
ATOM     26  O   UNK     1     -10.311   1.631   0.000  0.00  0.00    +0.000 OA
ATOM     27  H   UNK     1      -8.471   1.167   0.000  0.00  0.00    +0.000 HD
ENDBRANCH  18  21
ENDBRANCH  16  17
BRANCH  16  28
ATOM     28  C   UNK     1      -7.132  -1.464   0.000  0.00  0.00    +0.000 C 
BRANCH  28  29
ATOM     29  C   UNK     1      -6.421  -1.882   0.000  0.00  0.00    +0.000 A 
ATOM     30  N   UNK     1      -6.421  -2.719   0.000  0.00  0.00    +0.000 N 
ATOM     31  C   UNK     1      -5.668  -2.970   0.000  0.00  0.00    +0.000 A 
ATOM     32  N   UNK     1      -5.166  -2.342   0.000  0.00  0.00    +0.000 NA
ATOM     33  C   UNK     1      -5.626  -1.631   0.000  0.00  0.00    +0.000 A 
ATOM     34  H   UNK     1      -7.219  -3.295   0.000  0.00  0.00    +0.000 HD
ENDBRANCH  28  29
ENDBRANCH  16  28
ENDBRANCH  13  16
ENDBRANCH  11  12
BRANCH  11  35
ATOM     35  C   UNK     1      -4.998   0.837   0.000  0.00  0.00    +0.000 C 
BRANCH  35  42
ATOM     36  C   UNK     1      -2.782   2.803   0.000  0.00  0.00    +0.000 A 
ATOM     37  C   UNK     1      -3.200   3.514   0.000  0.00  0.00    +0.000 A 
ATOM     38  C   UNK     1      -4.036   3.514   0.000  0.00  0.00    +0.000 A 
ATOM     39  C   UNK     1      -4.455   2.803   0.000  0.00  0.00    +0.000 A 
ATOM     40  C   UNK     1      -3.200   2.091   0.000  0.00  0.00    +0.000 A 
ATOM     41  C   UNK     1      -4.036   2.091   0.000  0.00  0.00    +0.000 A 
ATOM     42  C   UNK     1      -4.287   1.297   0.000  0.00  0.00    +0.000 A 
ATOM     43  C   UNK     1      -3.618   0.837   0.000  0.00  0.00    +0.000 A 
ATOM     44  N   UNK     1      -2.949   1.297   0.000  0.00  0.00    +0.000 N 
ATOM     45  H   UNK     1      -2.018   0.976   0.000  0.00  0.00    +0.000 HD
ENDBRANCH  35  42
ENDBRANCH  11  35
ENDBRANCH   7  11
ENDBRANCH   6   8
BRANCH   6  46
ATOM     46  C   UNK     1      -2.865  -1.464   0.000  0.00  0.00    +0.000 C 
BRANCH  46  47
ATOM     47  O   UNK     1      -2.154  -1.882   0.000  0.00  0.00    +0.000 OA
ATOM     48  H   UNK     1      -2.162  -2.852   0.000  0.00  0.00    +0.000 HD
ENDBRANCH  46  47
ENDBRANCH   6  46
ENDBRANCH   2   6
ENDBRANCH   1   3
BRANCH   1  49
ATOM     49  C   UNK     1      -0.021  -0.627   0.000  0.00  0.00    +0.000 C 
ATOM     50  N   UNK     1       0.690  -0.209   0.000  0.00  0.00    +0.000 N 
ATOM     51  O   UNK     1      -0.021  -1.464   0.000  0.00  0.00    +0.000 OA
ATOM     52  H   UNK     1       0.690   0.775   0.000  0.00  0.00    +0.000 HD
BRANCH  50  53
ATOM     53  C   UNK     1       1.401  -0.627   0.000  0.00  0.00    +0.000 C 
BRANCH  53  54
ATOM     54  C   UNK     1       2.112  -0.209   0.000  0.00  0.00    +0.000 C 
ATOM     55  N   UNK     1       2.865  -0.627   0.000  0.00  0.00    +0.000 N 
ATOM     56  O   UNK     1       2.112   0.627   0.000  0.00  0.00    +0.000 OA
ATOM     57  H   UNK     1       2.877  -1.612   0.000  0.00  0.00    +0.000 HD
BRANCH  55  58
ATOM     58  C   UNK     1       3.576  -0.209   0.000  0.00  0.00    +0.000 C 
BRANCH  58  59
ATOM     59  C   UNK     1       4.287  -0.627   0.000  0.00  0.00    +0.000 C 
ATOM     60  N   UNK     1       4.999  -0.209   0.000  0.00  0.00    +0.000 N 
ATOM     61  O   UNK     1       4.287  -1.422   0.000  0.00  0.00    +0.000 OA
ATOM     62  H   UNK     1       4.999   0.775   0.000  0.00  0.00    +0.000 HD
BRANCH  60  63
ATOM     63  C   UNK     1       5.710  -0.627   0.000  0.00  0.00    +0.000 C 
BRANCH  63  69
ATOM     64  C   UNK     1       7.968  -0.586   0.000  0.00  0.00    +0.000 C 
ATOM     65  N   UNK     1       7.132  -0.586   0.000  0.00  0.00    +0.000 N 
ATOM     66  C   UNK     1       6.881  -1.380   0.000  0.00  0.00    +0.000 C 
ATOM     67  C   UNK     1       7.550  -1.882   0.000  0.00  0.00    +0.000 C 
ATOM     68  C   UNK     1       8.219  -1.380   0.000  0.00  0.00    +0.000 C 
ATOM     69  C   UNK     1       6.421  -0.209   0.000  0.00  0.00    +0.000 C 
ATOM     70  O   UNK     1       6.421   0.627   0.000  0.00  0.00    +0.000 OA
BRANCH  64  71
ATOM     71  C   UNK     1       8.429   0.084   0.000  0.00  0.00    +0.000 C 
ATOM     72  N   UNK     1       9.265   0.084   0.000  0.00  0.00    +0.000 N 
ATOM     73  O   UNK     1       8.094   0.837   0.000  0.00  0.00    +0.000 OA
ATOM     74  H   UNK     1       9.723  -0.788   0.000  0.00  0.00    +0.000 HD
BRANCH  72  75
ATOM     75  C   UNK     1       9.725   0.753   0.000  0.00  0.00    +0.000 C 
ATOM     76  C   UNK     1      10.562   0.753   0.000  0.00  0.00    +0.000 C 
ENDBRANCH  72  75
ENDBRANCH  64  71
ENDBRANCH  63  69
BRANCH  63  77
ATOM     77  C   UNK     1       5.710  -1.715   0.000  0.00  0.00    +0.000 C 
BRANCH  77  78
ATOM     78  C   UNK     1       6.421  -2.133   0.000  0.00  0.00    +0.000 C 
BRANCH  78  79
ATOM     79  C   UNK     1       6.421  -2.970   0.000  0.00  0.00    +0.000 C 
BRANCH  79  80
ATOM     80  N   UNK     1       5.710  -3.346   0.000  0.00  0.00    +0.000 N 
ATOM     81  C   UNK     1       4.999  -2.886   0.000  0.00  0.00    +0.000 C 
ATOM     82  N   UNK     1       4.287  -3.263   0.000  0.00  0.00    +0.000 N 
ATOM     83  N   UNK     1       4.999  -2.050   0.000  0.00  0.00    +0.000 NA
ATOM     84  H   UNK     1       5.667  -4.330   0.000  0.00  0.00    +0.000 HD
ATOM     85  H   UNK     1       3.454  -2.740   0.000  0.00  0.00    +0.000 HD
ATOM     86  H   UNK     1       4.251  -4.247   0.000  0.00  0.00    +0.000 HD
ATOM     87  H   UNK     1       5.851  -1.557   0.000  0.00  0.00    +0.000 HD
ENDBRANCH  79  80
ENDBRANCH  78  79
ENDBRANCH  77  78
ENDBRANCH  63  77
ENDBRANCH  60  63
ENDBRANCH  58  59
BRANCH  58  88
ATOM     88  C   UNK     1       3.667   0.646   0.000  0.00  0.00    +0.000 C 
BRANCH  88  89
ATOM     89  C   UNK     1       4.378   1.065   0.000  0.00  0.00    +0.000 C 
ATOM     90  C   UNK     1       4.378   1.859   0.000  0.00  0.00    +0.000 C 
ATOM     91  C   UNK     1       5.089   0.646   0.000  0.00  0.00    +0.000 C 
ENDBRANCH  88  89
ENDBRANCH  58  88
ENDBRANCH  55  58
ENDBRANCH  53  54
BRANCH  53  92
ATOM     92  C   UNK     1       1.401  -1.464   0.000  0.00  0.00    +0.000 C 
BRANCH  92  93
ATOM     93  O   UNK     1       0.690  -1.841   0.000  0.00  0.00    +0.000 OA
BRANCH  93  94
ATOM     94  C   UNK     1       0.690  -2.677   0.000  0.00  0.00    +0.000 C 
ATOM     95  C   UNK     1       0.690  -3.514   0.000  0.00  0.00    +0.000 C 
ATOM     96  C   UNK     1      -0.104  -2.677   0.000  0.00  0.00    +0.000 C 
ATOM     97  C   UNK     1       1.527  -2.635   0.000  0.00  0.00    +0.000 C 
ENDBRANCH  93  94
ENDBRANCH  92  93
ENDBRANCH  53  92
ENDBRANCH  50  53
ENDBRANCH   1  49
BRANCH   1  98
ATOM     98  C   UNK     1      -0.732   0.795   0.000  0.00  0.00    +0.000 C 
BRANCH  98  99
ATOM     99  C   UNK     1      -0.021   1.213   0.000  0.00  0.00    +0.000 A 
ATOM    100  C   UNK     1       0.690   0.837   0.000  0.00  0.00    +0.000 A 
ATOM    101  C   UNK     1       1.401   1.213   0.000  0.00  0.00    +0.000 A 
ATOM    102  C   UNK     1       1.401   2.050   0.000  0.00  0.00    +0.000 A 
ATOM    103  C   UNK     1       0.690   2.468   0.000  0.00  0.00    +0.000 A 
ATOM    104  C   UNK     1      -0.021   2.050   0.000  0.00  0.00    +0.000 A 
BRANCH 102 105
ATOM    105  O   UNK     1       2.112   2.468   0.000  0.00  0.00    +0.000 OA
ATOM    106  H   UNK     1       2.928   2.006   0.000  0.00  0.00    +0.000 HD
ENDBRANCH 102 105
ENDBRANCH  98  99
ENDBRANCH   1  98
TORSDOF 35
