REMARK  Name = 
REMARK  20 active torsions:
REMARK  status: ('A' for Active; 'I' for Inactive)
REMARK    1  A    between atoms: C_1  and  C_2
REMARK    2  A    between atoms: C_2  and  C_3
REMARK    3  A    between atoms: C_2  and  C_4
REMARK    4  A    between atoms: C_4  and  C_5
REMARK    5  A    between atoms: C_5  and  C_6
REMARK    6  A    between atoms: N_8  and  C_9
REMARK    7  A    between atoms: C_9  and  C_10
REMARK    8  A    between atoms: C_9  and  C_28
REMARK    9  A    between atoms: N_12  and  C_13
REMARK   10  A    between atoms: C_13  and  C_14
REMARK   11  A    between atoms: C_13  and  C_21
REMARK   12  A    between atoms: C_14  and  C_15
REMARK   13  A    between atoms: C_15  and  C_16
REMARK   14  A    between atoms: C_16  and  N_17
REMARK   15  A    between atoms: N_17  and  C_18
REMARK   16  A    between atoms: C_18  and  N_19
REMARK   17  A    between atoms: C_18  and  N_20
REMARK   18  A    between atoms: C_21  and  C_23
REMARK   19  A    between atoms: C_28  and  C_29
REMARK   20  A    between atoms: C_28  and  C_30
REMARK                            x       y       z     vdW  Elec       q    Type
REMARK                         _______ _______ _______ _____ _____    ______ ____
ROOT
ATOM      1  C   UNL     1       1.182  -0.823  -1.469  0.00  0.00    +0.000 C 
ENDROOT
BRANCH   1   4
ATOM      2  C   UNL     1      -0.264   0.561   0.065  0.00  0.00    +0.000 C 
ATOM      3  O   UNL     1       0.749   1.017   0.683  0.00  0.00    +0.000 OA
ATOM      4  N   UNL     1       0.051   0.274  -1.266  0.00  0.00    +0.000 N 
ATOM      5  H   UNL     1      -0.395   0.718  -2.022  0.00  0.00    +0.000 HD
BRANCH   2   6
ATOM      6  C   UNL     1      -1.615   1.417   0.347  0.00  0.00    +0.000 C 
BRANCH   6   9
ATOM      7  C   UNL     1      -3.574   0.009  -0.496  0.00  0.00    +0.000 C 
ATOM      8  O   UNL     1      -3.173  -0.995   0.175  0.00  0.00    +0.000 OA
ATOM      9  N   UNL     1      -2.429   0.746  -0.846  0.00  0.00    +0.000 N 
ATOM     10  H   UNL     1      -2.145   0.842  -1.783  0.00  0.00    +0.000 HD
BRANCH   7  11
ATOM     11  C   UNL     1      -4.804   0.006  -1.317  0.00  0.00    +0.000 C 
BRANCH  11  12
ATOM     12  C   UNL     1      -5.962   0.702  -0.664  0.00  0.00    +0.000 C 
BRANCH  12  14
ATOM     13  C   UNL     1      -5.061   2.324  -0.194  0.00  0.00    +0.000 C 
ATOM     14  C   UNL     1      -5.659   2.183  -0.478  0.00  0.00    +0.000 C 
ATOM     15  C   UNL     1      -6.902   2.897   0.014  0.00  0.00    +0.000 C 
ENDBRANCH  12  14
ENDBRANCH  11  12
ENDBRANCH   7  11
ENDBRANCH   6   9
BRANCH   6  16
ATOM     16  C   UNL     1      -2.097   0.337   1.525  0.00  0.00    +0.000 C 
ATOM     17  C   UNL     1      -3.140   1.142   2.303  0.00  0.00    +0.000 C 
ATOM     18  C   UNL     1      -0.909   0.288   2.479  0.00  0.00    +0.000 C 
ENDBRANCH   6  16
ENDBRANCH   2   6
ENDBRANCH   1   4
BRANCH   1  19
ATOM     19  C   UNL     1       0.518  -1.847  -0.383  0.00  0.00    +0.000 C 
ATOM     20  O   UNL     1      -0.551  -2.270  -0.923  0.00  0.00    +0.000 OA
BRANCH  19  21
ATOM     21  C   UNL     1       1.493  -2.781   0.203  0.00  0.00    +0.000 A 
ATOM     22  N   UNL     1       1.427  -4.123   0.015  0.00  0.00    +0.000 NA
ATOM     23  C   UNL     1       2.455  -4.755   0.577  0.00  0.00    +0.000 A 
ATOM     24  C   UNL     1       2.597  -4.401   1.915  0.00  0.00    +0.000 A 
ATOM     25  S   UNL     1       2.114  -2.754   1.806  0.00  0.00    +0.000 S 
ENDBRANCH  19  21
ENDBRANCH   1  19
BRANCH   1  26
ATOM     26  C   UNL     1       2.199  -0.147  -0.339  0.00  0.00    +0.000 C 
BRANCH  26  27
ATOM     27  C   UNL     1       3.191   0.596  -1.229  0.00  0.00    +0.000 C 
BRANCH  27  28
ATOM     28  C   UNL     1       4.442   0.843  -0.423  0.00  0.00    +0.000 C 
BRANCH  28  29
ATOM     29  N   UNL     1       4.570   2.271  -0.184  0.00  0.00    +0.000 NA
ATOM     30  H   UNL     1       4.096   2.505   0.688  0.00  0.00    +0.000 HD
BRANCH  29  31
ATOM     31  C   UNL     1       5.969   2.679  -0.087  0.00  0.00    +0.000 C 
BRANCH  31  32
ATOM     32  N   UNL     1       6.731   1.557   0.437  0.00  0.00    +0.000 NA
ATOM     33  H   UNL     1       6.628   0.756  -0.185  0.00  0.00    +0.000 HD
ATOM     34  H   UNL     1       6.385   1.315   1.365  0.00  0.00    +0.000 HD
ENDBRANCH  31  32
BRANCH  31  35
ATOM     35  N   UNL     1       6.449   3.045  -1.393  0.00  0.00    +0.000 NA
ATOM     36  H   UNL     1       6.354   2.250  -2.025  0.00  0.00    +0.000 HD
ATOM     37  H   UNL     1       7.430   3.315  -1.332  0.00  0.00    +0.000 HD
ENDBRANCH  31  35
ENDBRANCH  29  31
ENDBRANCH  28  29
ENDBRANCH  27  28
ENDBRANCH  26  27
ENDBRANCH   1  26
TORSDOF 16
