REMARK  Name = 
REMARK  24 active torsions:
REMARK  status: ('A' for Active; 'I' for Inactive)
REMARK    1  A    between atoms: C_1  and  C_2
REMARK    2  A    between atoms: C_2  and  O_3
REMARK    3  A    between atoms: O_3  and  C_4
REMARK    4  A    between atoms: C_7  and  C_8
REMARK    5  A    between atoms: C_8  and  C_9
REMARK    6  A    between atoms: C_18  and  C_19
REMARK    7  A    between atoms: C_25  and  C_26
REMARK    8  A    between atoms: N_28  and  C_29
REMARK    9  A    between atoms: C_29  and  C_30
REMARK   10  A    between atoms: C_29  and  C_34
REMARK   11  A    between atoms: C_30  and  C_31
REMARK   12  A    between atoms: C_31  and  C_32
REMARK   13  A    between atoms: C_32  and  N_33
REMARK   14  A    between atoms: N_36  and  C_37
REMARK   15  A    between atoms: C_37  and  C_38
REMARK   16  A    between atoms: C_44  and  C_45
REMARK   17  A    between atoms: C_45  and  C_46
REMARK   18  A    between atoms: C_52  and  C_53
REMARK   19  A    between atoms: C_53  and  C_54
REMARK   20  A    between atoms: C_53  and  O_55
REMARK   21  A    between atoms: C_59  and  C_60
REMARK   22  A    between atoms: C_60  and  C_61
REMARK   23  A    between atoms: C_60  and  C_62
REMARK   24  A    between atoms: C_62  and  C_63
REMARK                            x       y       z     vdW  Elec       q    Type
REMARK                         _______ _______ _______ _____ _____    ______ ____
ROOT
ATOM      1  C   UNL     1      -5.299  -1.193  -1.692  0.00  0.00    +0.000 C 
ATOM      2  N   UNL     1      -3.931  -1.171  -0.908  0.00  0.00    +0.000 N 
ATOM      3  C   UNL     1      -2.864  -0.931  -1.802  0.00  0.00    +0.000 C 
ATOM      4  O   UNL     1      -1.739  -1.498  -1.722  0.00  0.00    +0.000 OA
ATOM      5  C   UNL     1      -2.872   0.472  -2.316  0.00  0.00    +0.000 C 
ATOM      6  C   UNL     1      -1.654   1.115  -1.654  0.00  0.00    +0.000 C 
ATOM      7  S   UNL     1      -0.312   1.490  -2.693  0.00  0.00    +0.000 S 
ATOM      8  S   UNL     1       1.453   0.570  -2.693  0.00  0.00    +0.000 S 
ATOM      9  C   UNL     1       2.427   0.253  -1.261  0.00  0.00    +0.000 C 
ATOM     10  C   UNL     1       2.437  -1.396  -1.191  0.00  0.00    +0.000 C 
ATOM     11  N   UNL     1       2.362  -1.431   0.388  0.00  0.00    +0.000 N 
ATOM     12  C   UNL     1       1.184  -1.986   0.972  0.00  0.00    +0.000 C 
ATOM     13  O   UNL     1       0.951  -3.191   1.140  0.00  0.00    +0.000 OA
ATOM     14  C   UNL     1      -0.004  -1.069   0.384  0.00  0.00    +0.000 C 
ATOM     15  N   UNL     1      -1.088  -1.442   1.462  0.00  0.00    +0.000 N 
ATOM     16  C   UNL     1      -2.260  -1.906   0.746  0.00  0.00    +0.000 C 
ATOM     17  O   UNL     1      -2.462  -1.715  -0.481  0.00  0.00    +0.000 OA
ATOM     18  C   UNL     1      -1.947  -3.456   0.984  0.00  0.00    +0.000 C 
ATOM     19  N   UNL     1      -3.047  -3.576   2.098  0.00  0.00    +0.000 N 
ATOM     20  C   UNL     1      -4.314  -3.099   1.887  0.00  0.00    +0.000 C 
ATOM     21  O   UNL     1      -5.201  -3.382   2.739  0.00  0.00    +0.000 OA
ATOM     22  C   UNL     1      -4.427  -1.646   1.212  0.00  0.00    +0.000 C 
ATOM     23  N   UNL     1      -5.886  -1.905   0.723  0.00  0.00    +0.000 N 
ATOM     24  C   UNL     1      -6.188  -1.032  -0.350  0.00  0.00    +0.000 C 
ATOM     25  O   UNL     1      -7.384  -1.228  -0.745  0.00  0.00    +0.000 OA
ATOM     26  H   UNL     1      -3.835  -1.306   0.063  0.00  0.00    +0.000 HD
ATOM     27  H   UNL     1       3.096  -1.084   0.944  0.00  0.00    +0.000 HD
ATOM     28  H   UNL     1      -0.989  -1.374   2.439  0.00  0.00    +0.000 HD
ATOM     29  H   UNL     1      -2.823  -3.997   2.959  0.00  0.00    +0.000 HD
ATOM     30  H   UNL     1      -6.502  -2.573   1.103  0.00  0.00    +0.000 HD
ENDROOT
BRANCH  10  31
ATOM     31  C   UNL     1       4.037  -1.545  -1.132  0.00  0.00    +0.000 C 
ATOM     32  O   UNL     1       4.277  -2.733  -0.764  0.00  0.00    +0.000 OA
ATOM     33  N   UNL     1       4.883  -0.481  -0.982  0.00  0.00    +0.000 N 
ATOM     34  C   UNL     1       6.312  -0.784  -1.034  0.00  0.00    +0.000 C 
ATOM     35  C   UNL     1       6.458  -1.182   0.415  0.00  0.00    +0.000 C 
ATOM     36  C   UNL     1       5.538  -0.398   1.238  0.00  0.00    +0.000 C 
ATOM     37  C   UNL     1       4.757   0.583   0.178  0.00  0.00    +0.000 C 
BRANCH  37  38
ATOM     38  C   UNL     1       6.103   1.369  -0.235  0.00  0.00    +0.000 C 
ATOM     39  O   UNL     1       5.909   1.898  -1.357  0.00  0.00    +0.000 OA
ATOM     40  N   UNL     1       6.821   2.013   0.787  0.00  0.00    +0.000 N 
ATOM     41  H   UNL     1       6.630   1.976   1.753  0.00  0.00    +0.000 HD
BRANCH  40  42
ATOM     42  C   UNL     1       7.996   2.807   0.086  0.00  0.00    +0.000 C 
BRANCH  42  43
ATOM     43  C   UNL     1       9.089   1.675   0.442  0.00  0.00    +0.000 C 
ATOM     44  O   UNL     1       9.142   1.234   1.578  0.00  0.00    +0.000 OA
ATOM     45  N   UNL     1       9.580   0.958  -0.683  0.00  0.00    +0.000 N 
ATOM     46  H   UNL     1       9.278   1.186  -1.592  0.00  0.00    +0.000 HD
BRANCH  45  47
ATOM     47  C   UNL     1      10.526  -0.107  -0.472  0.00  0.00    +0.000 C 
BRANCH  47  48
ATOM     48  C   UNL     1       9.925  -1.305   0.160  0.00  0.00    +0.000 C 
ATOM     49  N   UNL     1       8.737  -1.865  -0.373  0.00  0.00    +0.000 N 
ATOM     50  O   UNL     1      10.455  -1.769   1.199  0.00  0.00    +0.000 OA
ATOM     51  H   UNL     1       8.338  -1.486  -1.189  0.00  0.00    +0.000 HD
ATOM     52  H   UNL     1       8.312  -2.634   0.072  0.00  0.00    +0.000 HD
ENDBRANCH  47  48
ENDBRANCH  45  47
ENDBRANCH  42  43
BRANCH  42  53
ATOM     53  C   UNL     1       8.335   3.684   1.440  0.00  0.00    +0.000 C 
BRANCH  53  54
ATOM     54  C   UNL     1       8.673   5.052   0.863  0.00  0.00    +0.000 C 
BRANCH  54  55
ATOM     55  C   UNL     1       7.486   5.453   0.024  0.00  0.00    +0.000 C 
BRANCH  55  56
ATOM     56  N   UNL     1       7.256   6.871  -0.012  0.00  0.00    +0.000 NA
ATOM     57  H   UNL     1       7.053   7.207   0.930  0.00  0.00    +0.000 HD
ATOM     58  H   UNL     1       6.464   7.072  -0.622  0.00  0.00    +0.000 HD
ENDBRANCH  55  56
ENDBRANCH  54  55
ENDBRANCH  53  54
ENDBRANCH  42  53
ENDBRANCH  40  42
ENDBRANCH  37  38
ENDBRANCH  10  31
BRANCH  18  59
ATOM     59  C   UNL     1      -3.011  -4.108  -0.216  0.00  0.00    +0.000 C 
ATOM     60  C   UNL     1      -1.993  -3.752  -1.456  0.00  0.00    +0.000 C 
BRANCH  59  61
ATOM     61  O   UNL     1      -2.358  -5.468  -0.089  0.00  0.00    +0.000 OA
ATOM     62  H   UNL     1      -1.393  -5.366  -0.103  0.00  0.00    +0.000 HD
ENDBRANCH  59  61
ENDBRANCH  18  59
BRANCH  22  63
ATOM     63  C   UNL     1      -4.778  -0.882   2.711  0.00  0.00    +0.000 C 
ATOM     64  C   UNL     1      -4.850   0.609   2.073  0.00  0.00    +0.000 C 
BRANCH  63  65
ATOM     65  C   UNL     1      -6.379  -1.074   2.745  0.00  0.00    +0.000 C 
ATOM     66  C   UNL     1      -7.029   0.184   3.195  0.00  0.00    +0.000 C 
ENDBRANCH  63  65
ENDBRANCH  22  63
BRANCH   1  67
ATOM     67  C   UNL     1      -5.208   0.423  -1.980  0.00  0.00    +0.000 C 
BRANCH  67  71
ATOM     68  C   UNL     1      -8.394   2.692  -0.500  0.00  0.00    +0.000 A 
ATOM     69  C   UNL     1      -8.593   1.991  -1.668  0.00  0.00    +0.000 A 
ATOM     70  C   UNL     1      -7.465   1.501  -2.315  0.00  0.00    +0.000 A 
ATOM     71  C   UNL     1      -6.431   1.054  -1.527  0.00  0.00    +0.000 A 
ATOM     72  C   UNL     1      -6.281   1.704  -0.304  0.00  0.00    +0.000 A 
ATOM     73  C   UNL     1      -7.346   2.286   0.327  0.00  0.00    +0.000 A 
BRANCH  68  74
ATOM     74  O   UNL     1      -9.297   3.500   0.083  0.00  0.00    +0.000 OA
BRANCH  74  76
ATOM     75  C   UNL     1      -9.721   4.742  -0.184  0.00  0.00    +0.000 C 
ATOM     76  C   UNL     1      -9.782   4.743  -0.324  0.00  0.00    +0.000 C 
ENDBRANCH  74  76
ENDBRANCH  68  74
ENDBRANCH  67  71
ENDBRANCH   1  67
BRANCH  14  77
ATOM     77  C   UNL     1       0.500   0.253   1.229  0.00  0.00    +0.000 C 
BRANCH  77  78
ATOM     78  C   UNL     1      -0.374   0.632   2.263  0.00  0.00    +0.000 C 
ATOM     79  N   UNL     1      -1.028   1.906   2.285  0.00  0.00    +0.000 N 
ATOM     80  O   UNL     1      -0.413  -0.011   3.350  0.00  0.00    +0.000 OA
ATOM     81  H   UNL     1      -1.042   2.467   1.476  0.00  0.00    +0.000 HD
ATOM     82  H   UNL     1      -1.465   2.221   3.109  0.00  0.00    +0.000 HD
ENDBRANCH  77  78
ENDBRANCH  14  77
TORSDOF 20
