REMARK  Name = 
REMARK  20 active torsions:
REMARK  status: ('A' for Active; 'I' for Inactive)
REMARK    1  A    between atoms: N_19  and  C_52
REMARK    2  A    between atoms: N_20  and  C_47
REMARK    3  A    between atoms: N_22  and  C_56
REMARK    4  A    between atoms: N_25  and  C_72
REMARK    5  A    between atoms: C_30  and  C_32
REMARK    6  A    between atoms: C_31  and  C_33
REMARK    7  A    between atoms: C_32  and  C_37
REMARK    8  A    between atoms: C_33  and  C_36
REMARK    9  A    between atoms: C_34  and  C_39
REMARK   10  A    between atoms: C_37  and  C_47
REMARK   11  A    between atoms: C_39  and  C_48
REMARK   12  A    between atoms: C_40  and  C_46
REMARK   13  A    between atoms: C_46  and  C_55
REMARK   14  A    between atoms: C_49  and  C_67
REMARK   15  A    between atoms: C_51  and  C_68
REMARK   16  A    between atoms: C_56  and  C_58
REMARK   17  A    between atoms: C_56  and  C_65
REMARK   18  A    between atoms: C_58  and  C_66
REMARK   19  A    between atoms: C_66  and  C_72
REMARK   20  A    between atoms: C_76  and  C_77
REMARK                            x       y       z     vdW  Elec       q    Type
REMARK                         _______ _______ _______ _____ _____    ______ ____
ROOT
ATOM      1  S   UNL     1      -2.910  -0.520   0.000  0.00  0.00    +0.000 S 
ATOM      2  S   UNL     1      -2.739   0.287   0.000  0.00  0.00    +0.000 S 
ATOM      3  O   UNL     1       1.156  -4.446   0.000  0.00  0.00    +0.000 OA
ATOM      4  O   UNL     1       3.546  -2.506   0.000  0.00  0.00    +0.000 OA
ATOM      5  O   UNL     1      -1.886  -4.027   0.000  0.00  0.00    +0.000 OA
ATOM      6  O   UNL     1       3.764   0.567   0.000  0.00  0.00    +0.000 OA
ATOM      7  O   UNL     1       1.653   2.817   0.000  0.00  0.00    +0.000 OA
ATOM      8  O   UNL     1      -1.420   2.817   0.000  0.00  0.00    +0.000 OA
ATOM      9  N   UNL     1       0.116  -3.034   0.000  0.00  0.00    +0.000 N 
ATOM     10  N   UNL     1       1.808  -2.475   0.000  0.00  0.00    +0.000 N 
ATOM     11  N   UNL     1       2.662  -0.520   0.000  0.00  0.00    +0.000 N 
ATOM     12  N   UNL     1      -1.699  -2.196   0.000  0.00  0.00    +0.000 N 
ATOM     13  N   UNL     1       1.467   1.218   0.000  0.00  0.00    +0.000 N 
ATOM     14  N   UNL     1      -0.380   1.792   0.000  0.00  0.00    +0.000 N 
ATOM     15  C   UNL     1       1.699  -3.329   0.000  0.00  0.00    +0.000 C 
ATOM     16  C   UNL     1      -0.706  -3.655   0.000  0.00  0.00    +0.000 C 
ATOM     17  C   UNL     1       3.096  -1.342   0.000  0.00  0.00    +0.000 C 
ATOM     18  C   UNL     1       0.939  -3.655   0.000  0.00  0.00    +0.000 C 
ATOM     19  C   UNL     1       2.817  -2.118   0.000  0.00  0.00    +0.000 C 
ATOM     20  C   UNL     1       2.600   1.016   0.000  0.00  0.00    +0.000 C 
ATOM     21  C   UNL     1      -1.467  -3.329   0.000  0.00  0.00    +0.000 C 
ATOM     22  C   UNL     1       2.972   0.287   0.000  0.00  0.00    +0.000 C 
ATOM     23  C   UNL     1      -2.584  -2.118   0.000  0.00  0.00    +0.000 C 
ATOM     24  C   UNL     1       0.535   2.289   0.000  0.00  0.00    +0.000 C 
ATOM     25  C   UNL     1      -1.808   1.622   0.000  0.00  0.00    +0.000 C 
ATOM     26  C   UNL     1       1.327   2.056   0.000  0.00  0.00    +0.000 C 
ATOM     27  C   UNL     1      -2.367  -1.218   0.000  0.00  0.00    +0.000 C 
ATOM     28  C   UNL     1      -1.094   2.056   0.000  0.00  0.00    +0.000 C 
ATOM     29  C   UNL     1      -1.886   0.784   0.000  0.00  0.00    +0.000 C 
ATOM     30  C   UNL     1       0.644   3.096   0.000  0.00  0.00    +0.000 C 
ATOM     31  H   UNL     1       0.116  -2.050   0.000  0.00  0.00    +0.000 HD
ATOM     32  H   UNL     1       1.042  -1.857   0.000  0.00  0.00    +0.000 HD
ATOM     33  H   UNL     1       1.679  -0.578   0.000  0.00  0.00    +0.000 HD
ATOM     34  H   UNL     1      -1.044  -1.461   0.000  0.00  0.00    +0.000 HD
ATOM     35  H   UNL     1       0.767   0.526   0.000  0.00  0.00    +0.000 HD
ATOM     36  H   UNL     1      -0.310   0.811   0.000  0.00  0.00    +0.000 HD
ENDROOT
BRANCH  23  39
ATOM     37  O   UNL     1      -3.360  -3.329   0.000  0.00  0.00    +0.000 OA
ATOM     38  N   UNL     1      -4.012  -2.056   0.000  0.00  0.00    +0.000 N 
ATOM     39  C   UNL     1      -3.313  -2.506   0.000  0.00  0.00    +0.000 C 
ATOM     40  H   UNL     1      -3.996  -1.544   0.000  0.00  0.00    +0.000 HD
ATOM     41  H   UNL     1      -4.462  -2.289   0.000  0.00  0.00    +0.000 HD
ENDBRANCH  23  39
BRANCH  25  43
ATOM     42  O   UNL     1      -3.438   1.373   0.000  0.00  0.00    +0.000 OA
ATOM     43  N   UNL     1      -2.320   2.274   0.000  0.00  0.00    +0.000 N 
ATOM     44  C   UNL     1      -3.143   2.134   0.000  0.00  0.00    +0.000 C 
ATOM     45  H   UNL     1      -2.134   2.755   0.000  0.00  0.00    +0.000 HD
BRANCH  44  46
ATOM     46  C   UNL     1      -3.655   2.786   0.000  0.00  0.00    +0.000 C 
BRANCH  46  48
ATOM     47  O   UNL     1      -4.710   4.058   0.000  0.00  0.00    +0.000 OA
ATOM     48  N   UNL     1      -4.477   2.646   0.000  0.00  0.00    +0.000 N 
ATOM     49  C   UNL     1      -5.005   3.298   0.000  0.00  0.00    +0.000 C 
ATOM     50  C   UNL     1      -5.812   3.158   0.000  0.00  0.00    +0.000 C 
ATOM     51  H   UNL     1      -4.664   2.165   0.000  0.00  0.00    +0.000 HD
ENDBRANCH  46  48
BRANCH  46  52
ATOM     52  C   UNL     1      -3.376   3.546   0.000  0.00  0.00    +0.000 C 
BRANCH  52  53
ATOM     53  C   UNL     1      -3.888   4.198   0.000  0.00  0.00    +0.000 C 
BRANCH  53  54
ATOM     54  C   UNL     1      -3.593   4.974   0.000  0.00  0.00    +0.000 C 
BRANCH  54  55
ATOM     55  N   UNL     1      -4.120   5.610   0.000  0.00  0.00    +0.000 NA
ATOM     56  N   UNL     1      -4.338   7.023   0.000  0.00  0.00    +0.000 N 
ATOM     57  N   UNL     1      -3.003   6.511   0.000  0.00  0.00    +0.000 N 
ATOM     58  C   UNL     1      -3.826   6.386   0.000  0.00  0.00    +0.000 C 
ATOM     59  H   UNL     1      -4.167   7.504   0.000  0.00  0.00    +0.000 HD
ATOM     60  H   UNL     1      -4.850   6.945   0.000  0.00  0.00    +0.000 HD
ATOM     61  H   UNL     1      -2.817   6.992   0.000  0.00  0.00    +0.000 HD
ATOM     62  H   UNL     1      -2.677   6.123   0.000  0.00  0.00    +0.000 HD
ENDBRANCH  54  55
ENDBRANCH  53  54
ENDBRANCH  52  53
ENDBRANCH  46  52
ENDBRANCH  44  46
ENDBRANCH  25  43
BRANCH  15  63
ATOM     63  C   UNL     1       2.118  -4.027   0.000  0.00  0.00    +0.000 C 
BRANCH  63  64
ATOM     64  C   UNL     1       2.956  -4.012   0.000  0.00  0.00    +0.000 C 
BRANCH  64  65
ATOM     65  C   UNL     1       3.376  -4.710   0.000  0.00  0.00    +0.000 C 
BRANCH  65  66
ATOM     66  N   UNL     1       4.214  -4.695   0.000  0.00  0.00    +0.000 NA
ATOM     67  N   UNL     1       4.245  -6.138   0.000  0.00  0.00    +0.000 N 
ATOM     68  N   UNL     1       5.471  -5.393   0.000  0.00  0.00    +0.000 N 
ATOM     69  C   UNL     1       4.633  -5.409   0.000  0.00  0.00    +0.000 C 
ATOM     70  H   UNL     1       3.261  -6.172   0.000  0.00  0.00    +0.000 HD
ATOM     71  H   UNL     1       4.766  -6.973   0.000  0.00  0.00    +0.000 HD
ATOM     72  H   UNL     1       5.979  -6.236   0.000  0.00  0.00    +0.000 HD
ATOM     73  H   UNL     1       5.947  -4.532   0.000  0.00  0.00    +0.000 HD
ENDBRANCH  65  66
ENDBRANCH  64  65
ENDBRANCH  63  64
ENDBRANCH  15  63
BRANCH  16  74
ATOM     74  C   UNL     1      -0.923  -4.446   0.000  0.00  0.00    +0.000 C 
BRANCH  74  76
ATOM     75  N   UNL     1       0.830  -5.657   0.000  0.00  0.00    +0.000 N 
ATOM     76  C   UNL     1      -0.349  -5.036   0.000  0.00  0.00    +0.000 A 
ATOM     77  C   UNL     1      -0.489  -5.843   0.000  0.00  0.00    +0.000 A 
ATOM     78  C   UNL     1       0.241  -6.231   0.000  0.00  0.00    +0.000 A 
ATOM     79  C   UNL     1       0.458  -4.928   0.000  0.00  0.00    +0.000 A 
ATOM     80  C   UNL     1      -1.187  -6.293   0.000  0.00  0.00    +0.000 A 
ATOM     81  C   UNL     1       0.287  -7.054   0.000  0.00  0.00    +0.000 A 
ATOM     82  C   UNL     1      -1.156  -7.116   0.000  0.00  0.00    +0.000 A 
ATOM     83  C   UNL     1      -0.411  -7.504   0.000  0.00  0.00    +0.000 A 
ATOM     84  H   UNL     1       1.343  -5.734   0.000  0.00  0.00    +0.000 HD
ENDBRANCH  74  76
ENDBRANCH  16  74
BRANCH  17  85
ATOM     85  C   UNL     1       3.903  -1.513   0.000  0.00  0.00    +0.000 C 
BRANCH  85  86
ATOM     86  C   UNL     1       4.446  -0.892   0.000  0.00  0.00    +0.000 A 
ATOM     87  C   UNL     1       4.183  -0.116   0.000  0.00  0.00    +0.000 A 
ATOM     88  C   UNL     1       5.253  -1.063   0.000  0.00  0.00    +0.000 A 
ATOM     89  C   UNL     1       4.741   0.504   0.000  0.00  0.00    +0.000 A 
ATOM     90  C   UNL     1       5.812  -0.442   0.000  0.00  0.00    +0.000 A 
ATOM     91  C   UNL     1       5.548   0.334   0.000  0.00  0.00    +0.000 A 
ENDBRANCH  85  86
ENDBRANCH  17  85
BRANCH  20  92
ATOM     92  C   UNL     1       3.267   1.498   0.000  0.00  0.00    +0.000 C 
BRANCH  92  95
ATOM     93  N   UNL     1       3.826   2.863   0.000  0.00  0.00    +0.000 N 
ATOM     94  N   UNL     1       2.677   3.562   0.000  0.00  0.00    +0.000 NA
ATOM     95  C   UNL     1       3.205   2.320   0.000  0.00  0.00    +0.000 A 
ATOM     96  C   UNL     1       2.491   2.755   0.000  0.00  0.00    +0.000 A 
ATOM     97  C   UNL     1       3.500   3.624   0.000  0.00  0.00    +0.000 A 
ATOM     98  H   UNL     1       4.322   2.755   0.000  0.00  0.00    +0.000 HD
ENDBRANCH  92  95
ENDBRANCH  20  92
TORSDOF 18
