REMARK  Name = 
REMARK  21 active torsions:
REMARK  status: ('A' for Active; 'I' for Inactive)
REMARK    1  A    between atoms: C_1  and  C_2
REMARK    2  A    between atoms: C_2  and  O_3
REMARK    3  A    between atoms: C_2  and  C_4
REMARK    4  A    between atoms: C_4  and  N_5
REMARK    5  A    between atoms: C_4  and  C_64
REMARK    6  A    between atoms: C_6  and  C_8
REMARK    7  A    between atoms: C_13  and  N_14
REMARK    8  A    between atoms: C_15  and  C_17
REMARK    9  A    between atoms: C_17  and  N_18
REMARK   10  A    between atoms: C_17  and  C_19
REMARK   11  A    between atoms: C_19  and  C_20
REMARK   12  A    between atoms: C_29  and  C_30
REMARK   13  A    between atoms: C_30  and  C_31
REMARK   14  A    between atoms: C_34  and  O_35
REMARK   15  A    between atoms: C_41  and  C_42
REMARK   16  A    between atoms: C_42  and  C_43
REMARK   17  A    between atoms: C_55  and  C_56
REMARK   18  A    between atoms: C_56  and  C_57
REMARK   19  A    between atoms: C_57  and  C_58
REMARK   20  A    between atoms: C_58  and  C_59
REMARK   21  A    between atoms: C_59  and  N_60
REMARK                            x       y       z     vdW  Elec       q    Type
REMARK                         _______ _______ _______ _____ _____    ______ ____
ROOT
ATOM      1  C   UNL     1       2.764  -2.585  -0.045  0.00  0.00    +0.000 C 
ATOM      2  C   UNL     1       2.570  -1.858  -1.517  0.00  0.00    +0.000 C 
ATOM      3  S   UNL     1       0.950  -2.631  -1.903  0.00  0.00    +0.000 S 
ATOM      4  S   UNL     1       0.042  -2.718  -0.250  0.00  0.00    +0.000 S 
ATOM      5  C   UNL     1      -0.990  -3.241   0.875  0.00  0.00    +0.000 C 
ATOM      6  C   UNL     1      -1.851  -1.856   1.159  0.00  0.00    +0.000 C 
ATOM      7  C   UNL     1      -2.320  -1.690  -0.367  0.00  0.00    +0.000 C 
ATOM      8  O   UNL     1      -2.045  -2.300  -1.317  0.00  0.00    +0.000 OA
ATOM      9  N   UNL     1      -3.239  -0.662  -0.228  0.00  0.00    +0.000 N 
ATOM     10  C   UNL     1      -2.413   0.660  -0.396  0.00  0.00    +0.000 C 
ATOM     11  C   UNL     1      -1.903   0.686   1.138  0.00  0.00    +0.000 C 
ATOM     12  O   UNL     1      -2.685   0.904   2.030  0.00  0.00    +0.000 OA
ATOM     13  N   UNL     1      -1.069   1.718   0.649  0.00  0.00    +0.000 N 
ATOM     14  C   UNL     1       0.456   1.394   0.486  0.00  0.00    +0.000 C 
ATOM     15  C   UNL     1       0.648   1.648  -1.104  0.00  0.00    +0.000 C 
ATOM     16  O   UNL     1      -0.144   1.197  -1.905  0.00  0.00    +0.000 OA
ATOM     17  N   UNL     1       2.080   1.648  -1.174  0.00  0.00    +0.000 N 
ATOM     18  C   UNL     1       2.752   0.215  -1.177  0.00  0.00    +0.000 C 
ATOM     19  C   UNL     1       2.691  -0.021   0.399  0.00  0.00    +0.000 C 
ATOM     20  O   UNL     1       3.062   0.745   1.253  0.00  0.00    +0.000 OA
ATOM     21  N   UNL     1       2.511  -1.296   0.808  0.00  0.00    +0.000 N 
ATOM     22  H   UNL     1      -4.206  -0.744  -0.059  0.00  0.00    +0.000 HD
ATOM     23  H   UNL     1      -1.431   2.605   0.419  0.00  0.00    +0.000 HD
ATOM     24  H   UNL     1       2.607   2.478  -1.217  0.00  0.00    +0.000 HD
ATOM     25  H   UNL     1       2.189  -1.427   1.730  0.00  0.00    +0.000 HD
ENDROOT
BRANCH   1  27
ATOM     26  N   UNL     1       5.098  -3.280  -0.850  0.00  0.00    +0.000 N 
ATOM     27  C   UNL     1       4.374  -2.437  -0.072  0.00  0.00    +0.000 C 
ATOM     28  O   UNL     1       4.858  -2.239   1.043  0.00  0.00    +0.000 OA
ATOM     29  H   UNL     1       5.281  -3.014  -1.780  0.00  0.00    +0.000 HD
BRANCH  26  30
ATOM     30  C   UNL     1       5.656  -4.651  -0.348  0.00  0.00    +0.000 C 
BRANCH  30  31
ATOM     31  C   UNL     1       6.755  -4.075   0.662  0.00  0.00    +0.000 C 
ATOM     32  N   UNL     1       6.303  -4.429   1.995  0.00  0.00    +0.000 N 
ATOM     33  O   UNL     1       7.910  -4.560   0.655  0.00  0.00    +0.000 OA
ATOM     34  H   UNL     1       5.402  -4.171   2.294  0.00  0.00    +0.000 HD
ATOM     35  H   UNL     1       6.899  -4.928   2.600  0.00  0.00    +0.000 HD
ENDBRANCH  30  31
BRANCH  30  37
ATOM     36  C   UNL     1       7.487  -3.312  -1.444  0.00  0.00    +0.000 C 
ATOM     37  C   UNL     1       6.608  -4.652  -1.797  0.00  0.00    +0.000 C 
BRANCH  37  38
ATOM     38  O   UNL     1       7.644  -5.619  -1.281  0.00  0.00    +0.000 OA
ATOM     39  H   UNL     1       7.940  -5.337  -0.401  0.00  0.00    +0.000 HD
ENDBRANCH  37  38
ENDBRANCH  30  37
ENDBRANCH  26  30
ENDBRANCH   1  27
BRANCH   6  40
ATOM     40  N   UNL     1      -3.154  -2.644   1.593  0.00  0.00    +0.000 N 
ATOM     41  C   UNL     1      -3.534  -3.725   0.780  0.00  0.00    +0.000 C 
ATOM     42  O   UNL     1      -2.705  -4.395   0.228  0.00  0.00    +0.000 OA
ATOM     43  H   UNL     1      -3.671  -2.390   2.391  0.00  0.00    +0.000 HD
BRANCH  41  44
ATOM     44  C   UNL     1      -5.095  -4.097   0.719  0.00  0.00    +0.000 C 
BRANCH  44  45
ATOM     45  N   UNL     1      -4.858  -5.538   0.114  0.00  0.00    +0.000 NA
ATOM     46  H   UNL     1      -4.192  -5.478  -0.656  0.00  0.00    +0.000 HD
ATOM     47  H   UNL     1      -5.742  -5.912  -0.231  0.00  0.00    +0.000 HD
ENDBRANCH  44  45
BRANCH  44  48
ATOM     48  C   UNL     1      -5.270  -3.452  -0.786  0.00  0.00    +0.000 C 
BRANCH  48  49
ATOM     49  C   UNL     1      -6.652  -3.667  -1.192  0.00  0.00    +0.000 A 
ATOM     50  C   UNL     1      -7.036  -4.960  -1.488  0.00  0.00    +0.000 A 
ATOM     51  C   UNL     1      -8.292  -5.446  -1.135  0.00  0.00    +0.000 A 
ATOM     52  C   UNL     1      -9.204  -4.501  -0.696  0.00  0.00    +0.000 A 
ATOM     53  C   UNL     1      -8.911  -3.153  -0.734  0.00  0.00    +0.000 A 
ATOM     54  C   UNL     1      -7.643  -2.729  -1.046  0.00  0.00    +0.000 A 
ENDBRANCH  48  49
ENDBRANCH  44  48
ENDBRANCH  41  44
ENDBRANCH   6  40
BRANCH  10  55
ATOM     55  C   UNL     1      -3.795   1.515  -0.148  0.00  0.00    +0.000 C 
BRANCH  55  56
ATOM     56  C   UNL     1      -3.404   2.895  -0.314  0.00  0.00    +0.000 A 
ATOM     57  C   UNL     1      -2.794   3.382  -1.446  0.00  0.00    +0.000 A 
ATOM     58  C   UNL     1      -2.474   4.719  -1.438  0.00  0.00    +0.000 A 
ATOM     59  C   UNL     1      -2.495   5.434  -0.247  0.00  0.00    +0.000 A 
ATOM     60  C   UNL     1      -3.245   4.956   0.803  0.00  0.00    +0.000 A 
ATOM     61  C   UNL     1      -3.917   3.770   0.616  0.00  0.00    +0.000 A 
BRANCH  59  62
ATOM     62  O   UNL     1      -1.939   6.699  -0.295  0.00  0.00    +0.000 OA
ATOM     63  H   UNL     1      -1.438   6.963  -1.042  0.00  0.00    +0.000 HD
ENDBRANCH  59  62
ENDBRANCH  55  56
ENDBRANCH  10  55
BRANCH  14  64
ATOM     64  C   UNL     1       0.698   2.971   0.946  0.00  0.00    +0.000 C 
BRANCH  64  65
ATOM     65  C   UNL     1       0.409   3.870  -0.091  0.00  0.00    +0.000 A 
ATOM     66  C   UNL     1      -0.322   4.048  -1.254  0.00  0.00    +0.000 A 
ATOM     67  N   UNL     1       0.355   5.018  -1.928  0.00  0.00    +0.000 N 
ATOM     68  C   UNL     1       0.860   5.855  -0.988  0.00  0.00    +0.000 A 
ATOM     69  C   UNL     1       1.257   7.183  -0.951  0.00  0.00    +0.000 A 
ATOM     70  C   UNL     1       1.525   7.741   0.293  0.00  0.00    +0.000 A 
ATOM     71  C   UNL     1       0.674   7.372   1.327  0.00  0.00    +0.000 A 
ATOM     72  C   UNL     1       0.365   6.014   1.332  0.00  0.00    +0.000 A 
ATOM     73  C   UNL     1       0.672   5.201   0.239  0.00  0.00    +0.000 A 
ATOM     74  H   UNL     1       0.457   5.097  -2.904  0.00  0.00    +0.000 HD
ENDBRANCH  64  65
ENDBRANCH  14  64
BRANCH  18  75
ATOM     75  C   UNL     1       4.281   0.853  -1.179  0.00  0.00    +0.000 C 
BRANCH  75  76
ATOM     76  C   UNL     1       4.365   1.946  -0.257  0.00  0.00    +0.000 C 
BRANCH  76  77
ATOM     77  C   UNL     1       5.517   2.388   0.408  0.00  0.00    +0.000 C 
BRANCH  77  78
ATOM     78  C   UNL     1       6.056   2.045   1.694  0.00  0.00    +0.000 C 
BRANCH  78  79
ATOM     79  N   UNL     1       5.146   1.726   2.769  0.00  0.00    +0.000 NA
ATOM     80  H   UNL     1       4.598   2.553   3.006  0.00  0.00    +0.000 HD
ATOM     81  H   UNL     1       5.677   1.424   3.586  0.00  0.00    +0.000 HD
ENDBRANCH  78  79
ENDBRANCH  77  78
ENDBRANCH  76  77
ENDBRANCH  75  76
ENDBRANCH  18  75
TORSDOF 20
