REMARK  Name = 
REMARK  21 active torsions:
REMARK  status: ('A' for Active; 'I' for Inactive)
REMARK    1  A    between atoms: CD1_1  and  CG1_2
REMARK    2  A    between atoms: CG1_2  and  CB_3
REMARK    3  A    between atoms: CB_3  and  CG2_4
REMARK    4  A    between atoms: CB_3  and  CA_5
REMARK    5  A    between atoms: CA_9  and  CB_10
REMARK    6  A    between atoms: CB_10  and  CG2_11
REMARK    7  A    between atoms: CB_10  and  CG1_12
REMARK    8  A    between atoms: CG1_12  and  CD1_13
REMARK    9  A    between atoms: CA_17  and  CB_18
REMARK   10  A    between atoms: CB_18  and  CG_19
REMARK   11  A    between atoms: C_36  and  C_37
REMARK   12  A    between atoms: N_39  and  C_40
REMARK   13  A    between atoms: N_39  and  C_41
REMARK   14  A    between atoms: C_41  and  C_42
REMARK   15  A    between atoms: C_41  and  C_44
REMARK   16  A    between atoms: C_42  and  O_43
REMARK   17  A    between atoms: C_44  and  C_45
REMARK   18  A    between atoms: C_45  and  C_46
REMARK   19  A    between atoms: C_46  and  N_47
REMARK   20  A    between atoms: CA_51  and  CB_52
REMARK   21  A    between atoms: CB_52  and  CG_53
REMARK                            x       y       z     vdW  Elec       q    Type
REMARK                         _______ _______ _______ _____ _____    ______ ____
ROOT
ATOM      1  CA  TRP A   1       0.011   2.330   0.705  0.00  0.00    +0.000 C 
ATOM      2  N   TRP A   1       1.123   2.169  -0.378  0.00  0.00    +0.000 N 
ATOM      3  C   TRP A   1       2.100   1.146  -0.075  0.00  0.00    +0.000 C 
ATOM      4  O   TRP A   1       2.026   0.364  -0.933  0.00  0.00    +0.000 OA
ATOM      5  CA  TRP A   1       3.079   2.264   0.446  0.00  0.00    +0.000 C 
ATOM      6  N   TRP A   1       4.124   1.364   1.204  0.00  0.00    +0.000 N 
ATOM      7  C   TRP A   1       3.544   0.559   2.246  0.00  0.00    +0.000 C 
ATOM      8  O   TRP A   1       4.129   0.344   3.302  0.00  0.00    +0.000 OA
ATOM      9  CA  TRP A   1       3.189  -0.690   1.292  0.00  0.00    +0.000 C 
ATOM     10  N   TRP A   1       2.769  -1.641   2.477  0.00  0.00    +0.000 N 
ATOM     11  C   UNK A   0       1.726  -2.555   2.151  0.00  0.00    +0.000 C 
ATOM     12  O   UNK A   0       1.500  -3.467   2.994  0.00  0.00    +0.000 OA
ATOM     13  C   UNK A   3       0.649  -2.195   1.221  0.00  0.00    +0.000 C 
ATOM     14  C   UNK A   3       0.955  -2.513  -0.215  0.00  0.00    +0.000 C 
ATOM     15  S   UNK A   3      -0.262  -1.610  -1.229  0.00  0.00    +0.000 S 
ATOM     16  C   UNK A   3      -1.921  -2.074  -0.638  0.00  0.00    +0.000 C 
ATOM     17  C   UNK A   3      -2.487  -1.003   0.289  0.00  0.00    +0.000 C 
ATOM     18  C   UNK A   3      -2.890   0.145  -0.822  0.00  0.00    +0.000 C 
ATOM     19  N   UNK A   3      -3.963   0.794   0.131  0.00  0.00    +0.000 N 
ATOM     20  C   ASN A   2      -4.073   2.167  -0.297  0.00  0.00    +0.000 C 
ATOM     21  O   ASN A   2      -5.233   2.600  -0.083  0.00  0.00    +0.000 OA
ATOM     22  CA  ASN A   2      -2.891   2.816   0.589  0.00  0.00    +0.000 C 
ATOM     23  N   ASN A   2      -1.886   2.883  -0.623  0.00  0.00    +0.000 N 
ATOM     24  C   TRP A   1      -0.697   3.528  -0.098  0.00  0.00    +0.000 C 
ATOM     25  O   TRP A   1      -0.099   4.105  -1.036  0.00  0.00    +0.000 OA
ATOM     26  H   TRP A   1       1.156   2.716  -1.195  0.00  0.00    +0.000 HD
ATOM     27  H   TRP A   1       5.084   1.352   0.985  0.00  0.00    +0.000 HD
ATOM     28  H   TRP A   1       3.191  -1.606   3.366  0.00  0.00    +0.000 HD
ATOM     29  H   UNK A   3      -4.453   0.356   0.863  0.00  0.00    +0.000 HD
ATOM     30  H   ASN A   2      -2.033   2.558  -1.541  0.00  0.00    +0.000 HD
ENDROOT
BRANCH  18  31
ATOM     31  C   UNK A   3      -3.965  -0.837  -1.515  0.00  0.00    +0.000 C 
ATOM     32  O   UNK A   3      -3.509  -1.388  -2.544  0.00  0.00    +0.000 OA
ATOM     33  N   UNK A   4      -5.199  -1.104  -0.967  0.00  0.00    +0.000 N 
ATOM     34  C   UNK A   4      -6.374  -0.530  -1.498  0.00  0.00    +0.000 C 
BRANCH  33  35
ATOM     35  C   UNK A   4      -5.256  -2.226   0.129  0.00  0.00    +0.000 C 
BRANCH  35  36
ATOM     36  C   UNK A   4      -5.559  -3.406  -0.970  0.00  0.00    +0.000 C 
BRANCH  36  37
ATOM     37  O   UNK A   4      -6.627  -3.026  -1.723  0.00  0.00    +0.000 OA
ATOM     38  H   UNK A   4      -7.397  -2.891  -1.148  0.00  0.00    +0.000 HD
ENDBRANCH  36  37
ENDBRANCH  35  36
BRANCH  35  39
ATOM     39  C   UNK A   4      -6.847  -2.043   0.508  0.00  0.00    +0.000 C 
BRANCH  39  40
ATOM     40  C   UNK A   4      -6.965  -3.021   1.672  0.00  0.00    +0.000 C 
BRANCH  40  41
ATOM     41  C   UNK A   4      -7.495  -4.347   1.153  0.00  0.00    +0.000 C 
BRANCH  41  42
ATOM     42  N   UNK A   4      -7.192  -5.334   2.186  0.00  0.00    +0.000 NA
ATOM     43  H   UNK A   4      -6.186  -5.355   2.352  0.00  0.00    +0.000 HD
ATOM     44  H   UNK A   4      -7.505  -6.255   1.879  0.00  0.00    +0.000 HD
ENDBRANCH  41  42
ENDBRANCH  40  41
ENDBRANCH  39  40
ENDBRANCH  35  39
ENDBRANCH  33  35
ENDBRANCH  18  31
BRANCH   1  45
ATOM     45  CB  TRP A   1       0.940   3.227   1.830  0.00  0.00    +0.000 C 
ATOM     46  CG2 TRP A   1      -0.404   3.480   2.709  0.00  0.00    +0.000 C 
BRANCH  45  48
ATOM     47  CD1 TRP A   1       0.550   5.642   2.100  0.00  0.00    +0.000 C 
ATOM     48  CG1 TRP A   1       0.915   4.683   1.142  0.00  0.00    +0.000 C 
ENDBRANCH  45  48
ENDBRANCH   1  45
BRANCH   5  49
ATOM     49  CB  TRP A   1       4.177   2.438  -0.876  0.00  0.00    +0.000 C 
ATOM     50  CG2 TRP A   1       3.910   1.099  -1.718  0.00  0.00    +0.000 C 
BRANCH  49  51
ATOM     51  CG1 TRP A   1       3.132   3.324  -1.738  0.00  0.00    +0.000 C 
ATOM     52  CD1 TRP A   1       3.178   2.963  -3.166  0.00  0.00    +0.000 C 
ENDBRANCH  49  51
ENDBRANCH   5  49
BRANCH   9  53
ATOM     53  CB  TRP A   1       4.747  -1.219   1.325  0.00  0.00    +0.000 C 
BRANCH  53  54
ATOM     54  CG  TRP A   1       4.772  -2.513   0.646  0.00  0.00    +0.000 A 
ATOM     55  CD1 TRP A   1       4.802  -3.725   1.310  0.00  0.00    +0.000 A 
ATOM     56  NE1 TRP A   1       5.613  -4.574   0.634  0.00  0.00    +0.000 N 
ATOM     57  CE2 TRP A   1       6.062  -3.983  -0.496  0.00  0.00    +0.000 A 
ATOM     58  CZ2 TRP A   1       7.005  -4.329  -1.450  0.00  0.00    +0.000 A 
ATOM     59  CH2 TRP A   1       7.298  -3.362  -2.386  0.00  0.00    +0.000 A 
ATOM     60  CZ3 TRP A   1       6.356  -2.400  -2.715  0.00  0.00    +0.000 A 
ATOM     61  CE3 TRP A   1       5.504  -1.991  -1.696  0.00  0.00    +0.000 A 
ATOM     62  CD2 TRP A   1       5.434  -2.757  -0.542  0.00  0.00    +0.000 A 
ATOM     63  HE1 TRP A   1       5.842  -5.486   0.923  0.00  0.00    +0.000 HD
ENDBRANCH  53  54
ENDBRANCH   9  53
BRANCH  22  64
ATOM     64  CB  ASN A   2      -3.438   4.352   0.367  0.00  0.00    +0.000 C 
BRANCH  64  65
ATOM     65  CG  ASN A   2      -3.299   4.751  -1.018  0.00  0.00    +0.000 C 
ATOM     66  ND2 ASN A   2      -2.893   6.102  -1.299  0.00  0.00    +0.000 N 
ATOM     67  OD1 ASN A   2      -3.891   4.223  -2.010  0.00  0.00    +0.000 OA
ATOM     68 HD21 ASN A   2      -2.423   6.628  -0.612  0.00  0.00    +0.000 HD
ATOM     69 HD22 ASN A   2      -3.087   6.501  -2.178  0.00  0.00    +0.000 HD
ENDBRANCH  64  65
ENDBRANCH  22  64
TORSDOF 16
