REMARK  Name = 9808372
REMARK  14 active torsions:
REMARK  status: ('A' for Active; 'I' for Inactive)
REMARK    1  A    between atoms: OE1_6  and  CD_35
REMARK    2  A    between atoms: O_8  and  C_41
REMARK    3  A    between atoms: N_15  and  CA_38
REMARK    4  A    between atoms: NZ_16  and  CE_29
REMARK    5  A    between atoms: N_17  and  C_39
REMARK    6  A    between atoms: CA_18  and  CB_19
REMARK    7  A    between atoms: CB_19  and  CG_20
REMARK    8  A    between atoms: CG_20  and  CD_24
REMARK    9  A    between atoms: CA_21  and  CB_27
REMARK   10  A    between atoms: C_22  and  C_30
REMARK   11  A    between atoms: CD_24  and  CE_29
REMARK   12  A    between atoms: CB_27  and  CG_31
REMARK   13  A    between atoms: CG_31  and  CD_35
REMARK   14  A    between atoms: CA_38  and  C_41
REMARK                            x       y       z     vdW  Elec       q    Type
REMARK                         _______ _______ _______ _____ _____    ______ ____
ROOT
ATOM      1  O   UNK A   0       1.493  -0.567   0.663  0.00  0.00    +0.000 OA
ATOM      2  O   GLU A   1      -0.616   4.241   0.510  0.00  0.00    +0.000 OA
ATOM      3  O   GLU A   1      -2.738   1.156   1.531  0.00  0.00    +0.000 OA
ATOM      4  O   UNK A   0      -1.077  -1.918  -1.923  0.00  0.00    +0.000 OA
ATOM      5  N   GLU A   1      -1.891   1.109  -0.633  0.00  0.00    +0.000 N 
ATOM      6  N   UNK A   2       0.415   2.172   0.352  0.00  0.00    +0.000 N 
ATOM      7  N   GLU A   1      -1.145  -1.496   0.362  0.00  0.00    +0.000 N 
ATOM      8  CA  GLU A   1      -1.691   2.539  -0.826  0.00  0.00    +0.000 C 
ATOM      9  CA  GLU A   1      -2.508  -0.982   0.421  0.00  0.00    +0.000 C 
ATOM     10  C   UNK A   2       1.556   2.470   1.194  0.00  0.00    +0.000 C 
ATOM     11  C   GLU A   1      -0.613   3.075   0.117  0.00  0.00    +0.000 C 
ATOM     12  C   GLU A   1      -2.401   0.536   0.525  0.00  0.00    +0.000 C 
ATOM     13  C   UNK A   2       1.923   1.320   2.137  0.00  0.00    +0.000 C 
ATOM     14  C   UNK A   2       2.484   0.054   1.482  0.00  0.00    +0.000 C 
ATOM     15  C   UNK A   0      -0.546  -1.908  -0.816  0.00  0.00    +0.000 C 
ATOM     16  C   UNK A   0       0.841  -2.415  -0.681  0.00  0.00    +0.000 A 
ATOM     17  C   UNK A   0       1.835  -1.756   0.066  0.00  0.00    +0.000 A 
ATOM     18  C   UNK A   0       1.136  -3.605  -1.363  0.00  0.00    +0.000 A 
ATOM     19  C   UNK A   0       3.113  -2.330   0.128  0.00  0.00    +0.000 A 
ATOM     20  C   UNK A   0       2.411  -4.158  -1.290  0.00  0.00    +0.000 A 
ATOM     21  C   UNK A   0       3.397  -3.522  -0.543  0.00  0.00    +0.000 A 
ATOM     22  H   GLU A   1      -1.670   0.504  -1.418  0.00  0.00    +0.000 HD
ATOM     23  H   UNK A   2       0.390   1.270  -0.115  0.00  0.00    +0.000 HD
ATOM     24  H   GLU A   1      -0.607  -1.504   1.224  0.00  0.00    +0.000 HD
ENDROOT
BRANCH  10  27
ATOM     25  O   UNK A   2       2.815   2.319  -0.826  0.00  0.00    +0.000 OA
ATOM     26  N   GLY A   3       3.504   3.810   0.824  0.00  0.00    +0.000 N 
ATOM     27  C   UNK A   2       2.675   2.847   0.275  0.00  0.00    +0.000 C 
ATOM     28  H   GLY A   3       3.315   4.155   1.761  0.00  0.00    +0.000 HD
BRANCH  26  29
ATOM     29  CA  GLY A   3       4.671   4.329   0.148  0.00  0.00    +0.000 C 
BRANCH  29  31
ATOM     30  OXT GLY A   3       7.019   3.823  -0.018  0.00  0.00    +0.000 OA
ATOM     31  C   GLY A   3       5.921   3.543   0.449  0.00  0.00    +0.000 C 
BRANCH  31  32
ATOM     32  O   GLY A   3       5.715   2.497   1.283  0.00  0.00    +0.000 OA
ATOM     33  H   GLY A   3       6.543   2.001   1.462  0.00  0.00    +0.000 HD
ENDBRANCH  31  32
ENDBRANCH  29  31
ENDBRANCH  26  29
ENDBRANCH  10  27
BRANCH  20  36
ATOM     34  O   UNK A   0       3.862  -5.841  -1.902  0.00  0.00    +0.000 OA
ATOM     35  O   UNK A   0       1.799  -5.919  -2.647  0.00  0.00    +0.000 OA
ATOM     36  N   UNK A   0       2.705  -5.363  -1.980  0.00  0.00    +0.000 N 
ENDBRANCH  20  36
BRANCH   8  37
ATOM     37  CB  GLU A   1      -2.990   3.331  -0.744  0.00  0.00    +0.000 C 
BRANCH  37  38
ATOM     38  CG  GLU A   1      -4.057   2.749  -1.669  0.00  0.00    +0.000 C 
BRANCH  38  39
ATOM     39  CD  GLU A   1      -5.349   3.566  -1.608  0.00  0.00    +0.000 C 
BRANCH  39  40
ATOM     40  CE  GLU A   1      -6.427   2.962  -2.507  0.00  0.00    +0.000 C 
BRANCH  40  41
ATOM     41  NZ  GLU A   1      -7.642   3.766  -2.450  0.00  0.00    +0.000 NA
ATOM     42  HZ1 GLU A   1      -8.367   3.322  -3.013  0.00  0.00    +0.000 HD
ATOM     43  HZ2 GLU A   1      -7.996   3.787  -1.495  0.00  0.00    +0.000 HD
ENDBRANCH  40  41
ENDBRANCH  39  40
ENDBRANCH  38  39
ENDBRANCH  37  38
ENDBRANCH   8  37
BRANCH   9  44
ATOM     44  CB  GLU A   1      -3.253  -1.591   1.600  0.00  0.00    +0.000 C 
BRANCH  44  45
ATOM     45  CG  GLU A   1      -3.378  -3.106   1.498  0.00  0.00    +0.000 C 
BRANCH  45  47
ATOM     46  OE2 GLU A   1      -4.657  -3.011   3.545  0.00  0.00    +0.000 OA
ATOM     47  CD  GLU A   1      -4.129  -3.687   2.671  0.00  0.00    +0.000 C 
BRANCH  47  48
ATOM     48  OE1 GLU A   1      -4.182  -5.042   2.644  0.00  0.00    +0.000 OA
ATOM     49  HE1 GLU A   1      -4.683  -5.404   3.405  0.00  0.00    +0.000 HD
ENDBRANCH  47  48
ENDBRANCH  45  47
ENDBRANCH  44  45
ENDBRANCH   9  44
TORSDOF 14
