REMARK  Name = 
REMARK  20 active torsions:
REMARK  status: ('A' for Active; 'I' for Inactive)
REMARK    1  A    between atoms: CE_1  and  SD_2
REMARK    2  A    between atoms: SD_2  and  CG_3
REMARK    3  A    between atoms: CG_3  and  CB_4
REMARK    4  A    between atoms: CB_4  and  CA_5
REMARK    5  A    between atoms: CA_5  and  N_6
REMARK    6  A    between atoms: CA_5  and  C_38
REMARK    7  A    between atoms: C_7  and  CA_9
REMARK    8  A    between atoms: CA_9  and  CB_10
REMARK    9  A    between atoms: CA_9  and  N_17
REMARK   10  A    between atoms: CB_10  and  CG_11
REMARK   11  A    between atoms: C_18  and  CA_20
REMARK   12  A    between atoms: CA_20  and  N_21
REMARK   13  A    between atoms: C_22  and  CA_24
REMARK   14  A    between atoms: CA_24  and  N_25
REMARK   15  A    between atoms: C_26  and  CA_28
REMARK   16  A    between atoms: CA_28  and  N_29
REMARK   17  A    between atoms: CA_28  and  CB_30
REMARK   18  A    between atoms: CB_30  and  CG_31
REMARK   19  A    between atoms: CZ_34  and  OH_35
REMARK   20  A    between atoms: C_38  and  OXT_40
REMARK                            x       y       z     vdW  Elec       q    Type
REMARK                         _______ _______ _______ _____ _____    ______ ____
ROOT
ATOM      1  N   PHE A   4      -1.472  -0.814   0.229  0.00  0.00    +0.000 N 
ATOM      2  C   GLY A   3      -0.888  -0.106  -0.873  0.00  0.00    +0.000 C 
ATOM      3  O   GLY A   3      -1.187  -0.424  -2.058  0.00  0.00    +0.000 OA
ATOM      4  H   PHE A   4      -1.018  -1.108   1.052  0.00  0.00    +0.000 HD
ENDROOT
BRANCH   1   5
ATOM      5  CA  PHE A   4      -3.015  -1.030  -0.150  0.00  0.00    +0.000 C 
BRANCH   5   7
ATOM      6  N   MET A   5      -4.823   0.482   0.658  0.00  0.00    +0.000 N 
ATOM      7  C   PHE A   4      -3.416   0.440   0.473  0.00  0.00    +0.000 C 
ATOM      8  O   PHE A   4      -2.916   1.319  -0.294  0.00  0.00    +0.000 OA
ATOM      9  H   MET A   5      -5.373  -0.312   0.848  0.00  0.00    +0.000 HD
BRANCH   6  10
ATOM     10  CA  MET A   5      -5.416   1.966   0.524  0.00  0.00    +0.000 C 
BRANCH  10  11
ATOM     11  C   MET A   5      -6.928   1.433   0.888  0.00  0.00    +0.000 C 
ATOM     12  O   MET A   5      -7.819   2.153   0.342  0.00  0.00    +0.000 OA
BRANCH  11  13
ATOM     13  OXT MET A   5      -6.999   1.313   2.273  0.00  0.00    +0.000 OA
ATOM     14  HXT MET A   5      -6.368   0.794   2.731  0.00  0.00    +0.000 HD
ENDBRANCH  11  13
ENDBRANCH  10  11
BRANCH  10  15
ATOM     15  CB  MET A   5      -5.682   1.758  -1.117  0.00  0.00    +0.000 C 
BRANCH  15  16
ATOM     16  CG  MET A   5      -6.040   3.148  -1.596  0.00  0.00    +0.000 C 
BRANCH  16  18
ATOM     17  CE  MET A   5      -5.284   5.277   0.159  0.00  0.00    +0.000 C 
ATOM     18  SD  MET A   5      -4.781   4.370  -1.180  0.00  0.00    +0.000 S 
ENDBRANCH  16  18
ENDBRANCH  15  16
ENDBRANCH  10  15
ENDBRANCH   6  10
ENDBRANCH   5   7
BRANCH   5  19
ATOM     19  CB  PHE A   4      -3.316  -1.782   1.315  0.00  0.00    +0.000 C 
BRANCH  19  20
ATOM     20  CG  PHE A   4      -4.073  -2.979   0.828  0.00  0.00    +0.000 A 
ATOM     21  CD1 PHE A   4      -5.455  -3.023   0.847  0.00  0.00    +0.000 A 
ATOM     22  CE1 PHE A   4      -6.151  -3.720  -0.112  0.00  0.00    +0.000 A 
ATOM     23  CZ  PHE A   4      -5.511  -4.588  -0.973  0.00  0.00    +0.000 A 
ATOM     24  CE2 PHE A   4      -4.179  -4.855  -0.684  0.00  0.00    +0.000 A 
ATOM     25  CD2 PHE A   4      -3.461  -3.909   0.007  0.00  0.00    +0.000 A 
ENDBRANCH  19  20
ENDBRANCH   5  19
ENDBRANCH   1   5
BRANCH   2  26
ATOM     26  CA  GLY A   3       0.445   0.504  -0.651  0.00  0.00    +0.000 C 
BRANCH  26  27
ATOM     27  N   GLY A   3       1.242  -0.591  -0.102  0.00  0.00    +0.000 N 
ATOM     28  C   GLY A   2       2.504  -0.200   0.443  0.00  0.00    +0.000 C 
ATOM     29  O   GLY A   2       3.140   0.629  -0.277  0.00  0.00    +0.000 OA
ATOM     30  H   GLY A   3       0.934  -1.526  -0.107  0.00  0.00    +0.000 HD
BRANCH  28  31
ATOM     31  CA  GLY A   2       3.224  -1.111   1.385  0.00  0.00    +0.000 C 
BRANCH  31  32
ATOM     32  N   GLY A   2       4.370  -1.588   0.627  0.00  0.00    +0.000 N 
ATOM     33  C   TYR A   1       5.620  -1.597   1.243  0.00  0.00    +0.000 C 
ATOM     34  O   TYR A   1       5.936  -0.824   2.186  0.00  0.00    +0.000 OA
ATOM     35  H   GLY A   2       4.265  -1.898  -0.302  0.00  0.00    +0.000 HD
BRANCH  33  36
ATOM     36  CA  TYR A   1       6.902  -1.935   0.271  0.00  0.00    +0.000 C 
BRANCH  36  37
ATOM     37  N   TYR A   1       6.140  -3.143  -0.465  0.00  0.00    +0.000 NA
ATOM     38  H1  TYR A   1       5.200  -2.844  -0.725  0.00  0.00    +0.000 HD
ATOM     39  H2  TYR A   1       6.080  -3.942   0.166  0.00  0.00    +0.000 HD
ENDBRANCH  36  37
BRANCH  36  40
ATOM     40  CB  TYR A   1       6.414  -0.842  -0.903  0.00  0.00    +0.000 C 
BRANCH  40  41
ATOM     41  CG  TYR A   1       6.748   0.457  -0.233  0.00  0.00    +0.000 A 
ATOM     42  CD1 TYR A   1       6.054   1.617  -0.563  0.00  0.00    +0.000 A 
ATOM     43  CE1 TYR A   1       6.668   2.856  -0.645  0.00  0.00    +0.000 A 
ATOM     44  CZ  TYR A   1       8.020   2.964  -0.383  0.00  0.00    +0.000 A 
ATOM     45  CE2 TYR A   1       8.595   1.890   0.284  0.00  0.00    +0.000 A 
ATOM     46  CD2 TYR A   1       7.965   0.663   0.385  0.00  0.00    +0.000 A 
BRANCH  44  47
ATOM     47  OH  TYR A   1       8.824   3.820  -1.125  0.00  0.00    +0.000 OA
ATOM     48  HH  TYR A   1       8.442   4.546  -1.577  0.00  0.00    +0.000 HD
ENDBRANCH  44  47
ENDBRANCH  40  41
ENDBRANCH  36  40
ENDBRANCH  33  36
ENDBRANCH  31  32
ENDBRANCH  28  31
ENDBRANCH  26  27
ENDBRANCH   2  26
TORSDOF 19
