REMARK  Name = 
REMARK  32 active torsions:
REMARK  status: ('A' for Active; 'I' for Inactive)
REMARK    1  A    between atoms: C_1  and  C_2
REMARK    2  A    between atoms: C_2  and  C_3
REMARK    3  A    between atoms: C_3  and  C_4
REMARK    4  A    between atoms: C_3  and  C_5
REMARK    5  A    between atoms: C_5  and  C_6
REMARK    6  A    between atoms: C_5  and  N_33
REMARK    7  A    between atoms: C_6  and  C_7
REMARK    8  A    between atoms: C_6  and  O_31
REMARK    9  A    between atoms: C_7  and  C_8
REMARK   10  A    between atoms: C_14  and  C_15
REMARK   11  A    between atoms: C_15  and  O_16
REMARK   12  A    between atoms: C_15  and  C_18
REMARK   13  A    between atoms: O_16  and  C_17
REMARK   14  A    between atoms: C_18  and  C_19
REMARK   15  A    between atoms: C_18  and  C_20
REMARK   16  A    between atoms: N_22  and  C_23
REMARK   17  A    between atoms: C_23  and  C_24
REMARK   18  A    between atoms: C_24  and  C_25
REMARK   19  A    between atoms: O_31  and  C_32
REMARK   20  A    between atoms: N_33  and  C_34
REMARK   21  A    between atoms: C_35  and  C_37
REMARK   22  A    between atoms: C_37  and  N_38
REMARK   23  A    between atoms: C_37  and  C_48
REMARK   24  A    between atoms: C_39  and  C_41
REMARK   25  A    between atoms: C_41  and  C_42
REMARK   26  A    between atoms: C_41  and  N_45
REMARK   27  A    between atoms: C_42  and  C_43
REMARK   28  A    between atoms: C_42  and  C_44
REMARK   29  A    between atoms: N_45  and  C_46
REMARK   30  A    between atoms: N_45  and  C_47
REMARK   31  A    between atoms: C_48  and  C_49
REMARK   32  A    between atoms: C_48  and  C_50
REMARK                            x       y       z     vdW  Elec       q    Type
REMARK                         _______ _______ _______ _____ _____    ______ ____
ROOT
ATOM      1  C   UNL     1      -0.896   0.750   0.280  0.00  0.00    +0.000 C 
ENDROOT
BRANCH   1   2
ATOM      2  O   UNL     1       0.218   1.033  -0.743  0.00  0.00    +0.000 OA
ATOM      3  C   UNL     1       0.260  -0.121  -1.546  0.00  0.00    +0.000 C 
ENDBRANCH   1   2
BRANCH   1   4
ATOM      4  C   UNL     1      -1.973   0.328  -1.012  0.00  0.00    +0.000 C 
BRANCH   4   5
ATOM      5  N   UNL     1      -3.162  -0.130  -0.112  0.00  0.00    +0.000 N 
ATOM      6  C   UNL     1      -2.977  -1.072   0.920  0.00  0.00    +0.000 C 
ATOM      7  C   UNL     1      -4.332  -0.121  -0.944  0.00  0.00    +0.000 C 
ATOM      8  O   UNL     1      -5.082   0.851  -1.040  0.00  0.00    +0.000 OA
BRANCH   7   9
ATOM      9  C   UNL     1      -5.044  -1.592  -1.125  0.00  0.00    +0.000 C 
BRANCH   9  10
ATOM     10  N   UNL     1      -6.185  -1.254  -0.052  0.00  0.00    +0.000 N 
ATOM     11  C   UNL     1      -7.301  -0.567  -0.368  0.00  0.00    +0.000 C 
ATOM     12  O   UNL     1      -7.601  -0.350  -1.545  0.00  0.00    +0.000 OA
ATOM     13  H   UNL     1      -6.066  -1.561   0.876  0.00  0.00    +0.000 HD
BRANCH  11  14
ATOM     14  C   UNL     1      -7.767   0.622   0.671  0.00  0.00    +0.000 C 
BRANCH  14  15
ATOM     15  C   UNL     1      -8.043  -0.494   1.894  0.00  0.00    +0.000 C 
ATOM     16  C   UNL     1      -8.723   0.438   2.894  0.00  0.00    +0.000 C 
ATOM     17  C   UNL     1      -6.642  -0.700   2.469  0.00  0.00    +0.000 C 
ENDBRANCH  14  15
BRANCH  14  18
ATOM     18  N   UNL     1      -9.298   0.548   0.196  0.00  0.00    +0.000 NA
ATOM     19  C   UNL     1      -9.376   1.355  -0.975  0.00  0.00    +0.000 C 
ATOM     20  C   UNL     1      -9.611  -0.819   0.071  0.00  0.00    +0.000 C 
ENDBRANCH  14  18
ENDBRANCH  11  14
ENDBRANCH   9  10
BRANCH   9  21
ATOM     21  C   UNL     1      -5.916  -1.104  -2.482  0.00  0.00    +0.000 C 
ATOM     22  C   UNL     1      -4.854  -0.424  -3.342  0.00  0.00    +0.000 C 
ATOM     23  C   UNL     1      -6.080  -2.471  -3.150  0.00  0.00    +0.000 C 
ENDBRANCH   9  21
ENDBRANCH   7   9
ENDBRANCH   4   5
BRANCH   4  24
ATOM     24  C   UNL     1      -2.673   1.893  -1.159  0.00  0.00    +0.000 C 
ATOM     25  C   UNL     1      -2.021   2.589   0.174  0.00  0.00    +0.000 C 
BRANCH  24  27
ATOM     26  C   UNL     1      -2.119   2.397  -3.418  0.00  0.00    +0.000 C 
ATOM     27  C   UNL     1      -1.474   2.449  -2.140  0.00  0.00    +0.000 C 
ENDBRANCH  24  27
ENDBRANCH   4  24
ENDBRANCH   1   4
BRANCH   1  28
ATOM     28  C   UNL     1      -0.373  -0.817   0.497  0.00  0.00    +0.000 C 
BRANCH  28  29
ATOM     29  C   UNL     1       0.605  -0.554   1.599  0.00  0.00    +0.000 C 
ATOM     30  O   UNL     1       0.061  -0.151   2.673  0.00  0.00    +0.000 OA
ATOM     31  N   UNL     1       2.039  -0.579   1.440  0.00  0.00    +0.000 N 
ATOM     32  C   UNL     1       2.671  -1.265   2.570  0.00  0.00    +0.000 C 
ATOM     33  C   UNL     1       3.111  -0.144   3.510  0.00  0.00    +0.000 C 
ATOM     34  C   UNL     1       3.921   0.526   2.428  0.00  0.00    +0.000 C 
ATOM     35  C   UNL     1       2.622   0.893   1.475  0.00  0.00    +0.000 C 
BRANCH  35  36
ATOM     36  C   UNL     1       3.598   0.747   0.036  0.00  0.00    +0.000 C 
BRANCH  36  37
ATOM     37  O   UNL     1       2.431   0.244  -0.790  0.00  0.00    +0.000 OA
ATOM     38  C   UNL     1       2.438   1.030  -1.954  0.00  0.00    +0.000 C 
ENDBRANCH  36  37
BRANCH  36  39
ATOM     39  C   UNL     1       4.145  -0.850   0.411  0.00  0.00    +0.000 C 
ATOM     40  C   UNL     1       4.287  -1.274  -1.172  0.00  0.00    +0.000 C 
BRANCH  39  41
ATOM     41  C   UNL     1       5.680  -0.376   0.500  0.00  0.00    +0.000 C 
ATOM     42  O   UNL     1       6.128   0.345  -0.386  0.00  0.00    +0.000 OA
ATOM     43  N   UNL     1       6.518  -1.160   1.324  0.00  0.00    +0.000 N 
ATOM     44  H   UNL     1       6.317  -2.102   1.529  0.00  0.00    +0.000 HD
BRANCH  43  45
ATOM     45  C   UNL     1       7.690  -0.492   1.848  0.00  0.00    +0.000 C 
BRANCH  45  46
ATOM     46  C   UNL     1       8.047   0.753   1.076  0.00  0.00    +0.000 C 
BRANCH  46  47
ATOM     47  C   UNL     1       9.367   0.557   0.422  0.00  0.00    +0.000 A 
ATOM     48  C   UNL     1      10.393   1.452   0.513  0.00  0.00    +0.000 A 
ATOM     49  C   UNL     1      11.566   1.230  -0.173  0.00  0.00    +0.000 A 
ATOM     50  C   UNL     1      11.538   0.209  -1.111  0.00  0.00    +0.000 A 
ATOM     51  C   UNL     1      10.599  -0.805  -1.053  0.00  0.00    +0.000 A 
ATOM     52  C   UNL     1       9.593  -0.709  -0.104  0.00  0.00    +0.000 A 
ENDBRANCH  46  47
ENDBRANCH  45  46
ENDBRANCH  43  45
ENDBRANCH  39  41
ENDBRANCH  36  39
ENDBRANCH  35  36
ENDBRANCH  28  29
ENDBRANCH   1  28
TORSDOF 20
