REMARK  Name = 
REMARK  31 active torsions:
REMARK  status: ('A' for Active; 'I' for Inactive)
REMARK    1  A    between atoms: C_1  and  C_10
REMARK    2  A    between atoms: C_3  and  C_54
REMARK    3  A    between atoms: C_7  and  C_18
REMARK    4  A    between atoms: C_8  and  C_14
REMARK    5  A    between atoms: C_10  and  C_11
REMARK    6  A    between atoms: C_10  and  C_12
REMARK    7  A    between atoms: C_10  and  C_13
REMARK    8  A    between atoms: C_14  and  C_15
REMARK    9  A    between atoms: C_14  and  C_16
REMARK   10  A    between atoms: C_14  and  C_17
REMARK   11  A    between atoms: C_18  and  C_19
REMARK   12  A    between atoms: C_19  and  C_20
REMARK   13  A    between atoms: C_19  and  N_42
REMARK   14  A    between atoms: N_22  and  C_23
REMARK   15  A    between atoms: C_23  and  C_24
REMARK   16  A    between atoms: C_23  and  C_25
REMARK   17  A    between atoms: C_25  and  C_36
REMARK   18  A    between atoms: N_26  and  C_28
REMARK   19  A    between atoms: C_28  and  C_29
REMARK   20  A    between atoms: C_29  and  C_30
REMARK   21  A    between atoms: C_36  and  C_37
REMARK   22  A    between atoms: C_37  and  N_38
REMARK   23  A    between atoms: C_43  and  C_44
REMARK   24  A    between atoms: C_44  and  C_45
REMARK   25  A    between atoms: C_44  and  N_53
REMARK   26  A    between atoms: C_45  and  C_46
REMARK   27  A    between atoms: C_46  and  C_47
REMARK   28  A    between atoms: C_47  and  N_48
REMARK   29  A    between atoms: C_54  and  C_55
REMARK   30  A    between atoms: C_54  and  C_56
REMARK   31  A    between atoms: C_54  and  C_57
REMARK                            x       y       z     vdW  Elec       q    Type
REMARK                         _______ _______ _______ _____ _____    ______ ____
ROOT
ATOM      1  C   UNL     1       0.000  -1.551   0.000  0.00  0.00    +0.000 C 
ENDROOT
BRANCH   1   2
ATOM      2  C   UNL     1       0.715  -1.964   0.000  0.00  0.00    +0.000 C 
ATOM      3  O   UNL     1       0.715  -2.788   0.000  0.00  0.00    +0.000 OA
ATOM      4  N   UNL     1       1.429  -1.551   0.000  0.00  0.00    +0.000 N 
ATOM      5  H   UNL     1       1.429  -0.567   0.000  0.00  0.00    +0.000 HD
BRANCH   4   6
ATOM      6  C   UNL     1       2.143  -1.964   0.000  0.00  0.00    +0.000 C 
BRANCH   6   7
ATOM      7  C   UNL     1       2.143  -2.788   0.000  0.00  0.00    +0.000 C 
ATOM      8  N   UNL     1       2.858  -3.201   0.000  0.00  0.00    +0.000 N 
ATOM      9  O   UNL     1       1.429  -3.201   0.000  0.00  0.00    +0.000 OA
ATOM     10  H   UNL     1       2.858  -4.186   0.000  0.00  0.00    +0.000 HD
BRANCH   8  11
ATOM     11  C   UNL     1       3.572  -2.788   0.000  0.00  0.00    +0.000 C 
BRANCH  11  12
ATOM     12  C   UNL     1       4.287  -3.201   0.000  0.00  0.00    +0.000 C 
BRANCH  12  13
ATOM     13  C   UNL     1       5.001  -2.788   0.000  0.00  0.00    +0.000 A 
ATOM     14  C   UNL     1       5.716  -1.551   0.000  0.00  0.00    +0.000 A 
ATOM     15  C   UNL     1       5.001  -1.964   0.000  0.00  0.00    +0.000 A 
ATOM     16  C   UNL     1       5.716  -3.201   0.000  0.00  0.00    +0.000 A 
ATOM     17  C   UNL     1       6.430  -2.788   0.000  0.00  0.00    +0.000 A 
ATOM     18  C   UNL     1       6.430  -1.964   0.000  0.00  0.00    +0.000 A 
ENDBRANCH  12  13
ENDBRANCH  11  12
ENDBRANCH   8  11
ENDBRANCH   6   7
BRANCH   6  19
ATOM     19  C   UNL     1       2.858  -1.551   0.000  0.00  0.00    +0.000 C 
BRANCH  19  20
ATOM     20  C   UNL     1       2.858  -0.726   0.000  0.00  0.00    +0.000 C 
BRANCH  20  21
ATOM     21  C   UNL     1       3.572  -0.314   0.000  0.00  0.00    +0.000 C 
BRANCH  21  22
ATOM     22  N   UNL     1       3.572   0.511   0.000  0.00  0.00    +0.000 N 
ATOM     23  C   UNL     1       4.287   0.924   0.000  0.00  0.00    +0.000 C 
ATOM     24  N   UNL     1       4.287   1.749   0.000  0.00  0.00    +0.000 NA
ATOM     25  N   UNL     1       5.001   0.511   0.000  0.00  0.00    +0.000 N 
ATOM     26  H   UNL     1       2.720   1.004   0.000  0.00  0.00    +0.000 HD
ATOM     27  H   UNL     1       5.139   2.241   0.000  0.00  0.00    +0.000 HD
ATOM     28  H   UNL     1       5.001  -0.473   0.000  0.00  0.00    +0.000 HD
ATOM     29  H   UNL     1       5.854   1.004   0.000  0.00  0.00    +0.000 HD
ENDBRANCH  21  22
ENDBRANCH  20  21
ENDBRANCH  19  20
ENDBRANCH   6  19
ENDBRANCH   4   6
ENDBRANCH   1   2
BRANCH   1  30
ATOM     30  N   UNL     1      -0.714  -1.964   0.000  0.00  0.00    +0.000 N 
ATOM     31  C   UNL     1      -1.429  -1.551   0.000  0.00  0.00    +0.000 C 
ATOM     32  O   UNL     1      -1.429  -0.726   0.000  0.00  0.00    +0.000 OA
ATOM     33  H   UNL     1      -0.714  -2.948   0.000  0.00  0.00    +0.000 HD
BRANCH  31  34
ATOM     34  C   UNL     1      -2.143  -1.964   0.000  0.00  0.00    +0.000 C 
BRANCH  34  35
ATOM     35  N   UNL     1      -2.143  -2.788   0.000  0.00  0.00    +0.000 NA
ATOM     36  H   UNL     1      -3.027  -3.299   0.000  0.00  0.00    +0.000 HD
ATOM     37  H   UNL     1      -1.260  -3.298   0.000  0.00  0.00    +0.000 HD
ENDBRANCH  34  35
BRANCH  34  38
ATOM     38  C   UNL     1      -2.858  -1.551   0.000  0.00  0.00    +0.000 C 
BRANCH  38  39
ATOM     39  C   UNL     1      -3.572  -1.964   0.000  0.00  0.00    +0.000 C 
BRANCH  39  40
ATOM     40  C   UNL     1      -4.287  -1.551   0.000  0.00  0.00    +0.000 C 
BRANCH  40  41
ATOM     41  N   UNL     1      -5.001  -1.964   0.000  0.00  0.00    +0.000 N 
ATOM     42  C   UNL     1      -5.716  -1.551   0.000  0.00  0.00    +0.000 C 
ATOM     43  N   UNL     1      -6.430  -1.964   0.000  0.00  0.00    +0.000 N 
ATOM     44  N   UNL     1      -5.716  -0.726   0.000  0.00  0.00    +0.000 NA
ATOM     45  H   UNL     1      -5.001  -2.948   0.000  0.00  0.00    +0.000 HD
ATOM     46  H   UNL     1      -7.283  -1.471   0.000  0.00  0.00    +0.000 HD
ATOM     47  H   UNL     1      -6.430  -2.948   0.000  0.00  0.00    +0.000 HD
ATOM     48  H   UNL     1      -4.863  -0.234   0.000  0.00  0.00    +0.000 HD
ENDBRANCH  40  41
ENDBRANCH  39  40
ENDBRANCH  38  39
ENDBRANCH  34  38
ENDBRANCH  31  34
ENDBRANCH   1  30
BRANCH   1  49
ATOM     49  C   UNL     1       0.000  -0.726   0.000  0.00  0.00    +0.000 C 
BRANCH  49  56
ATOM     50  C   UNL     1      -1.754   1.551   0.000  0.00  0.00    +0.000 A 
ATOM     51  C   UNL     1      -2.468   1.138   0.000  0.00  0.00    +0.000 A 
ATOM     52  C   UNL     1      -2.468   0.313   0.000  0.00  0.00    +0.000 A 
ATOM     53  C   UNL     1      -1.754  -0.099   0.000  0.00  0.00    +0.000 A 
ATOM     54  C   UNL     1      -1.039   0.313   0.000  0.00  0.00    +0.000 A 
ATOM     55  C   UNL     1      -1.039   1.138   0.000  0.00  0.00    +0.000 A 
ATOM     56  C   UNL     1      -0.255   0.059   0.000  0.00  0.00    +0.000 A 
ATOM     57  C   UNL     1       0.230   0.726   0.000  0.00  0.00    +0.000 A 
ATOM     58  N   UNL     1      -0.255   1.393   0.000  0.00  0.00    +0.000 N 
ATOM     59  H   UNL     1       0.049   2.330   0.000  0.00  0.00    +0.000 HD
BRANCH  50  60
ATOM     60  C   UNL     1      -1.754   2.376   0.000  0.00  0.00    +0.000 C 
ATOM     61  C   UNL     1      -0.929   2.376   0.000  0.00  0.00    +0.000 C 
ATOM     62  C   UNL     1      -1.754   3.201   0.000  0.00  0.00    +0.000 C 
ATOM     63  C   UNL     1      -2.579   2.376   0.000  0.00  0.00    +0.000 C 
ENDBRANCH  50  60
BRANCH  57  64
ATOM     64  C   UNL     1       1.055   0.726   0.000  0.00  0.00    +0.000 C 
ATOM     65  C   UNL     1       1.055   1.551   0.000  0.00  0.00    +0.000 C 
ATOM     66  C   UNL     1       1.880   0.726   0.000  0.00  0.00    +0.000 C 
ATOM     67  C   UNL     1       1.055  -0.099   0.000  0.00  0.00    +0.000 C 
ENDBRANCH  57  64
BRANCH  52  68
ATOM     68  C   UNL     1      -3.183  -0.099   0.000  0.00  0.00    +0.000 C 
ATOM     69  C   UNL     1      -3.595   0.615   0.000  0.00  0.00    +0.000 C 
ATOM     70  C   UNL     1      -3.897  -0.511   0.000  0.00  0.00    +0.000 C 
ATOM     71  C   UNL     1      -2.770  -0.813   0.000  0.00  0.00    +0.000 C 
ENDBRANCH  52  68
ENDBRANCH  49  56
ENDBRANCH   1  49
TORSDOF 22
