REMARK  Name = 
REMARK  22 active torsions:
REMARK  status: ('A' for Active; 'I' for Inactive)
REMARK    1  A    between atoms: C_1  and  C_2
REMARK    2  A    between atoms: C_2  and  C_3
REMARK    3  A    between atoms: C_3  and  C_4
REMARK    4  A    between atoms: C_3  and  C_5
REMARK    5  A    between atoms: C_9  and  C_64
REMARK    6  A    between atoms: C_13  and  C_60
REMARK    7  A    between atoms: C_17  and  C_38
REMARK    8  A    between atoms: C_26  and  C_30
REMARK    9  A    between atoms: C_30  and  C_31
REMARK   10  A    between atoms: C_34  and  O_37
REMARK   11  A    between atoms: C_44  and  C_45
REMARK   12  A    between atoms: N_47  and  C_48
REMARK   13  A    between atoms: C_48  and  C_49
REMARK   14  A    between atoms: C_48  and  C_53
REMARK   15  A    between atoms: C_49  and  C_50
REMARK   16  A    between atoms: C_50  and  C_51
REMARK   17  A    between atoms: C_50  and  C_52
REMARK   18  A    between atoms: N_55  and  C_56
REMARK   19  A    between atoms: C_56  and  C_57
REMARK   20  A    between atoms: C_60  and  C_61
REMARK   21  A    between atoms: C_64  and  C_65
REMARK   22  A    between atoms: C_65  and  C_66
REMARK                            x       y       z     vdW  Elec       q    Type
REMARK                         _______ _______ _______ _____ _____    ______ ____
ROOT
ATOM      1  C   UNL     1      -2.985   6.851   0.000  0.00  0.00    +0.000 C 
ATOM      2  C   UNL     1      -2.730   7.636   0.000  0.00  0.00    +0.000 C 
ATOM      3  O   UNL     1      -2.816   8.456   0.000  0.00  0.00    +0.000 OA
ATOM      4  N   UNL     1      -1.923   7.807   0.000  0.00  0.00    +0.000 N 
ATOM      5  C   UNL     1      -1.371   7.194   0.000  0.00  0.00    +0.000 C 
ATOM      6  C   UNL     1      -1.626   6.410   0.000  0.00  0.00    +0.000 C 
ATOM      7  O   UNL     1      -2.433   6.238   0.000  0.00  0.00    +0.000 OA
ATOM      8  N   UNL     1      -1.074   5.796   0.000  0.00  0.00    +0.000 N 
ATOM      9  C   UNL     1      -1.329   5.012   0.000  0.00  0.00    +0.000 C 
ATOM     10  C   UNL     1      -0.777   4.399   0.000  0.00  0.00    +0.000 C 
ATOM     11  O   UNL     1       0.030   4.570   0.000  0.00  0.00    +0.000 OA
ATOM     12  N   UNL     1      -1.032   3.614   0.000  0.00  0.00    +0.000 N 
ATOM     13  C   UNL     1      -0.480   3.001   0.000  0.00  0.00    +0.000 C 
ATOM     14  C   UNL     1      -0.735   2.216   0.000  0.00  0.00    +0.000 C 
ATOM     15  S   UNL     1      -1.542   2.045   0.000  0.00  0.00    +0.000 S 
ATOM     16  S   UNL     1      -2.094   2.658   0.000  0.00  0.00    +0.000 S 
ATOM     17  C   UNL     1      -2.901   2.486   0.000  0.00  0.00    +0.000 C 
ATOM     18  C   UNL     1      -3.453   3.100   0.000  0.00  0.00    +0.000 C 
ATOM     19  C   UNL     1      -3.198   3.884   0.000  0.00  0.00    +0.000 C 
ATOM     20  O   UNL     1      -2.391   4.056   0.000  0.00  0.00    +0.000 OA
ATOM     21  N   UNL     1      -3.750   4.497   0.000  0.00  0.00    +0.000 N 
ATOM     22  C   UNL     1      -3.495   5.282   0.000  0.00  0.00    +0.000 C 
ATOM     23  C   UNL     1      -4.047   5.895   0.000  0.00  0.00    +0.000 C 
ATOM     24  O   UNL     1      -4.854   5.723   0.000  0.00  0.00    +0.000 OA
ATOM     25  N   UNL     1      -3.792   6.680   0.000  0.00  0.00    +0.000 N 
ATOM     26  H   UNL     1      -1.619   8.744   0.000  0.00  0.00    +0.000 HD
ATOM     27  H   UNL     1      -0.111   6.001   0.000  0.00  0.00    +0.000 HD
ATOM     28  H   UNL     1      -1.995   3.410   0.000  0.00  0.00    +0.000 HD
ATOM     29  H   UNL     1      -4.713   4.293   0.000  0.00  0.00    +0.000 HD
ATOM     30  H   UNL     1      -4.451   7.411   0.000  0.00  0.00    +0.000 HD
ENDROOT
BRANCH  13  31
ATOM     31  C   UNL     1       0.327   3.173   0.000  0.00  0.00    +0.000 C 
ATOM     32  O   UNL     1       0.582   3.957   0.000  0.00  0.00    +0.000 OA
ATOM     33  N   UNL     1       0.879   2.559   0.000  0.00  0.00    +0.000 N 
ATOM     34  C   UNL     1       0.708   1.752   0.000  0.00  0.00    +0.000 C 
ATOM     35  C   UNL     1       1.422   1.340   0.000  0.00  0.00    +0.000 C 
ATOM     36  C   UNL     1       2.035   1.892   0.000  0.00  0.00    +0.000 C 
ATOM     37  C   UNL     1       1.700   2.646   0.000  0.00  0.00    +0.000 C 
BRANCH  37  38
ATOM     38  C   UNL     1       2.112   3.360   0.000  0.00  0.00    +0.000 C 
ATOM     39  O   UNL     1       1.700   4.075   0.000  0.00  0.00    +0.000 OA
ATOM     40  N   UNL     1       2.937   3.360   0.000  0.00  0.00    +0.000 N 
ATOM     41  H   UNL     1       3.429   2.508   0.000  0.00  0.00    +0.000 HD
BRANCH  40  42
ATOM     42  C   UNL     1       3.350   4.075   0.000  0.00  0.00    +0.000 C 
BRANCH  42  43
ATOM     43  C   UNL     1       4.175   4.075   0.000  0.00  0.00    +0.000 C 
ATOM     44  O   UNL     1       4.587   3.360   0.000  0.00  0.00    +0.000 OA
ATOM     45  N   UNL     1       4.587   4.789   0.000  0.00  0.00    +0.000 N 
ATOM     46  H   UNL     1       4.095   5.642   0.000  0.00  0.00    +0.000 HD
BRANCH  45  47
ATOM     47  C   UNL     1       5.412   4.789   0.000  0.00  0.00    +0.000 C 
BRANCH  47  48
ATOM     48  C   UNL     1       5.825   5.504   0.000  0.00  0.00    +0.000 C 
ATOM     49  O   UNL     1       6.650   5.504   0.000  0.00  0.00    +0.000 OA
ATOM     50  N   UNL     1       5.412   6.218   0.000  0.00  0.00    +0.000 N 
ATOM     51  H   UNL     1       5.904   7.071   0.000  0.00  0.00    +0.000 HD
ATOM     52  H   UNL     1       4.428   6.218   0.000  0.00  0.00    +0.000 HD
ENDBRANCH  47  48
ENDBRANCH  45  47
ENDBRANCH  42  43
BRANCH  42  53
ATOM     53  C   UNL     1       2.937   4.789   0.000  0.00  0.00    +0.000 C 
BRANCH  53  54
ATOM     54  C   UNL     1       3.350   5.504   0.000  0.00  0.00    +0.000 C 
ATOM     55  C   UNL     1       4.175   5.504   0.000  0.00  0.00    +0.000 C 
ATOM     56  C   UNL     1       2.937   6.218   0.000  0.00  0.00    +0.000 C 
ENDBRANCH  53  54
ENDBRANCH  42  53
ENDBRANCH  40  42
ENDBRANCH  37  38
ENDBRANCH  13  31
BRANCH   1  57
ATOM     57  C   UNL     1      -3.537   7.464   0.000  0.00  0.00    +0.000 C 
ATOM     58  C   UNL     1      -3.282   8.249   0.000  0.00  0.00    +0.000 C 
BRANCH  57  60
ATOM     59  C   UNL     1      -4.599   6.508   0.000  0.00  0.00    +0.000 C 
ATOM     60  C   UNL     1      -4.344   7.293   0.000  0.00  0.00    +0.000 C 
ENDBRANCH  57  60
ENDBRANCH   1  57
BRANCH  22  61
ATOM     61  C   UNL     1      -4.302   5.110   0.000  0.00  0.00    +0.000 C 
BRANCH  61  62
ATOM     62  C   UNL     1      -4.557   4.326   0.000  0.00  0.00    +0.000 A 
ATOM     63  C   UNL     1      -4.005   3.713   0.000  0.00  0.00    +0.000 A 
ATOM     64  C   UNL     1      -4.260   2.928   0.000  0.00  0.00    +0.000 A 
ATOM     65  C   UNL     1      -5.067   2.756   0.000  0.00  0.00    +0.000 A 
ATOM     66  C   UNL     1      -5.619   3.370   0.000  0.00  0.00    +0.000 A 
ATOM     67  C   UNL     1      -5.364   4.154   0.000  0.00  0.00    +0.000 A 
BRANCH  65  68
ATOM     68  O   UNL     1      -5.322   1.972   0.000  0.00  0.00    +0.000 OA
ATOM     69  H   UNL     1      -6.238   1.777   0.000  0.00  0.00    +0.000 HD
ENDBRANCH  65  68
ENDBRANCH  61  62
ENDBRANCH  22  61
BRANCH   9  70
ATOM     70  C   UNL     1      -0.522   5.183   0.000  0.00  0.00    +0.000 C 
BRANCH  70  71
ATOM     71  C   UNL     1      -0.267   5.968   0.000  0.00  0.00    +0.000 C 
ATOM     72  O   UNL     1      -0.819   6.581   0.000  0.00  0.00    +0.000 OA
ATOM     73  N   UNL     1       0.540   6.139   0.000  0.00  0.00    +0.000 N 
ATOM     74  H   UNL     1       1.199   5.408   0.000  0.00  0.00    +0.000 HD
ATOM     75  H   UNL     1       0.844   7.076   0.000  0.00  0.00    +0.000 HD
ENDBRANCH  70  71
ENDBRANCH   9  70
BRANCH   5  76
ATOM     76  C   UNL     1      -0.564   7.366   0.000  0.00  0.00    +0.000 C 
BRANCH  76  77
ATOM     77  C   UNL     1      -0.309   8.150   0.000  0.00  0.00    +0.000 C 
BRANCH  77  78
ATOM     78  C   UNL     1      -0.861   8.764   0.000  0.00  0.00    +0.000 C 
ATOM     79  O   UNL     1      -1.668   8.592   0.000  0.00  0.00    +0.000 OA
ATOM     80  N   UNL     1      -0.606   9.548   0.000  0.00  0.00    +0.000 N 
ATOM     81  H   UNL     1       0.357   9.753   0.000  0.00  0.00    +0.000 HD
ATOM     82  H   UNL     1      -1.265  10.280   0.000  0.00  0.00    +0.000 HD
ENDBRANCH  77  78
ENDBRANCH  76  77
ENDBRANCH   5  76
TORSDOF 18
