REMARK  Name = 
REMARK  27 active torsions:
REMARK  status: ('A' for Active; 'I' for Inactive)
REMARK    1  A    between atoms: C_1  and  C_2
REMARK    2  A    between atoms: C_2  and  C_3
REMARK    3  A    between atoms: C_2  and  C_4
REMARK    4  A    between atoms: C_2  and  O_5
REMARK    5  A    between atoms: O_5  and  C_6
REMARK    6  A    between atoms: N_8  and  C_9
REMARK    7  A    between atoms: C_9  and  C_10
REMARK    8  A    between atoms: C_9  and  C_21
REMARK    9  A    between atoms: C_10  and  C_11
REMARK   10  A    between atoms: C_11  and  O_13
REMARK   11  A    between atoms: O_13  and  C_14
REMARK   12  A    between atoms: C_14  and  C_15
REMARK   13  A    between atoms: N_23  and  C_24
REMARK   14  A    between atoms: C_24  and  C_25
REMARK   15  A    between atoms: C_24  and  C_40
REMARK   16  A    between atoms: C_25  and  C_26
REMARK   17  A    between atoms: C_26  and  C_27
REMARK   18  A    between atoms: C_27  and  C_28
REMARK   19  A    between atoms: C_28  and  N_29
REMARK   20  A    between atoms: C_30  and  O_32
REMARK   21  A    between atoms: O_32  and  C_33
REMARK   22  A    between atoms: C_33  and  C_34
REMARK   23  A    between atoms: C_40  and  O_42
REMARK   24  A    between atoms: O_42  and  C_43
REMARK   25  A    between atoms: C_43  and  C_44
REMARK   26  A    between atoms: C_43  and  C_45
REMARK   27  A    between atoms: C_43  and  C_46
REMARK                            x       y       z     vdW  Elec       q    Type
REMARK                         _______ _______ _______ _____ _____    ______ ____
ROOT
ATOM      1  C   UNL     1      -2.009   0.840  -1.039  0.00  0.00    +0.000 C 
ATOM      2  O   UNL     1      -1.852   1.447  -2.144  0.00  0.00    +0.000 OA
ATOM      3  N   UNL     1      -0.884   0.886  -0.199  0.00  0.00    +0.000 N 
ATOM      4  H   UNL     1      -0.966   1.124   0.753  0.00  0.00    +0.000 HD
ENDROOT
BRANCH   1   5
ATOM      5  C   UNL     1      -2.761  -0.579  -1.243  0.00  0.00    +0.000 C 
BRANCH   5   8
ATOM      6  C   UNL     1      -3.274  -2.106   0.709  0.00  0.00    +0.000 C 
ATOM      7  O   UNL     1      -2.404  -2.919   0.367  0.00  0.00    +0.000 OA
ATOM      8  N   UNL     1      -3.090  -0.747   0.295  0.00  0.00    +0.000 N 
ATOM      9  H   UNL     1      -3.162   0.016   0.914  0.00  0.00    +0.000 HD
BRANCH   6  10
ATOM     10  O   UNL     1      -4.386  -2.610   1.348  0.00  0.00    +0.000 OA
BRANCH  10  12
ATOM     11  C   UNL     1      -5.281  -3.767   0.638  0.00  0.00    +0.000 C 
ATOM     12  C   UNL     1      -4.921  -3.884   1.062  0.00  0.00    +0.000 C 
ATOM     13  C   UNL     1      -3.953  -4.801   0.385  0.00  0.00    +0.000 C 
ATOM     14  C   UNL     1      -5.810  -4.461   2.051  0.00  0.00    +0.000 C 
ENDBRANCH  10  12
ENDBRANCH   6  10
ENDBRANCH   5   8
BRANCH   5  15
ATOM     15  C   UNL     1      -4.176   0.154  -1.658  0.00  0.00    +0.000 C 
BRANCH  15  16
ATOM     16  C   UNL     1      -5.116   0.032  -0.564  0.00  0.00    +0.000 C 
ATOM     17  O   UNL     1      -6.233  -0.531  -0.740  0.00  0.00    +0.000 OA
BRANCH  16  18
ATOM     18  O   UNL     1      -4.954   0.887   0.531  0.00  0.00    +0.000 OA
BRANCH  18  19
ATOM     19  C   UNL     1      -6.099   1.463   1.158  0.00  0.00    +0.000 C 
BRANCH  19  20
ATOM     20  C   UNL     1      -6.523   2.670   0.399  0.00  0.00    +0.000 A 
ATOM     21  C   UNL     1      -7.714   2.563  -0.308  0.00  0.00    +0.000 A 
ATOM     22  C   UNL     1      -8.025   3.598  -1.141  0.00  0.00    +0.000 A 
ATOM     23  C   UNL     1      -7.182   4.676  -1.268  0.00  0.00    +0.000 A 
ATOM     24  C   UNL     1      -5.840   4.448  -1.057  0.00  0.00    +0.000 A 
ATOM     25  C   UNL     1      -5.511   3.386  -0.228  0.00  0.00    +0.000 A 
ENDBRANCH  19  20
ENDBRANCH  18  19
ENDBRANCH  16  18
ENDBRANCH  15  16
ENDBRANCH   5  15
ENDBRANCH   1   5
BRANCH   3  26
ATOM     26  C   UNL     1       0.520   0.541  -0.841  0.00  0.00    +0.000 C 
BRANCH  26  27
ATOM     27  C   UNL     1       0.969  -0.385   0.410  0.00  0.00    +0.000 C 
ATOM     28  O   UNL     1       0.684   0.074   1.537  0.00  0.00    +0.000 OA
BRANCH  27  29
ATOM     29  O   UNL     1       0.574  -1.695   0.093  0.00  0.00    +0.000 OA
BRANCH  29  30
ATOM     30  C   UNL     1       0.696  -2.631   1.135  0.00  0.00    +0.000 C 
ATOM     31  C   UNL     1       0.379  -2.038   2.469  0.00  0.00    +0.000 C 
ATOM     32  C   UNL     1      -0.299  -3.752   0.859  0.00  0.00    +0.000 C 
ATOM     33  C   UNL     1       2.093  -3.229   1.125  0.00  0.00    +0.000 C 
ENDBRANCH  29  30
ENDBRANCH  27  29
ENDBRANCH  26  27
BRANCH  26  34
ATOM     34  C   UNL     1       1.281   1.875  -0.248  0.00  0.00    +0.000 C 
BRANCH  34  35
ATOM     35  C   UNL     1       2.686   1.743  -0.843  0.00  0.00    +0.000 C 
BRANCH  35  36
ATOM     36  C   UNL     1       3.426   0.557  -0.280  0.00  0.00    +0.000 C 
BRANCH  36  37
ATOM     37  C   UNL     1       4.117   0.980   0.993  0.00  0.00    +0.000 C 
BRANCH  37  38
ATOM     38  N   UNL     1       5.219   1.878   0.655  0.00  0.00    +0.000 N 
ATOM     39  C   UNL     1       6.066   1.423  -0.381  0.00  0.00    +0.000 C 
ATOM     40  O   UNL     1       6.078   0.191  -0.679  0.00  0.00    +0.000 OA
ATOM     41  H   UNL     1       5.362   2.736   1.115  0.00  0.00    +0.000 HD
BRANCH  39  42
ATOM     42  O   UNL     1       6.989   2.317  -0.909  0.00  0.00    +0.000 OA
BRANCH  42  43
ATOM     43  C   UNL     1       8.105   1.843  -1.628  0.00  0.00    +0.000 C 
BRANCH  43  44
ATOM     44  C   UNL     1       8.792   0.786  -0.869  0.00  0.00    +0.000 A 
ATOM     45  C   UNL     1       9.221  -0.347  -1.496  0.00  0.00    +0.000 A 
ATOM     46  C   UNL     1      10.166  -1.216  -0.969  0.00  0.00    +0.000 A 
ATOM     47  C   UNL     1      10.671  -0.865   0.258  0.00  0.00    +0.000 A 
ATOM     48  C   UNL     1      10.213   0.208   0.979  0.00  0.00    +0.000 A 
ATOM     49  C   UNL     1       9.350   1.098   0.364  0.00  0.00    +0.000 A 
ENDBRANCH  43  44
ENDBRANCH  42  43
ENDBRANCH  39  42
ENDBRANCH  37  38
ENDBRANCH  36  37
ENDBRANCH  35  36
ENDBRANCH  34  35
ENDBRANCH  26  34
ENDBRANCH   3  26
TORSDOF 21
