REMARK  Name = 
REMARK  22 active torsions:
REMARK  status: ('A' for Active; 'I' for Inactive)
REMARK    1  A    between atoms: O_14  and  C_73
REMARK    2  A    between atoms: N_16  and  C_35
REMARK    3  A    between atoms: N_18  and  C_47
REMARK    4  A    between atoms: N_21  and  C_44
REMARK    5  A    between atoms: N_25  and  C_52
REMARK    6  A    between atoms: C_28  and  C_32
REMARK    7  A    between atoms: C_33  and  C_34
REMARK    8  A    between atoms: C_35  and  C_37
REMARK    9  A    between atoms: C_35  and  C_39
REMARK   10  A    between atoms: C_37  and  C_38
REMARK   11  A    between atoms: C_38  and  C_42
REMARK   12  A    between atoms: C_41  and  C_43
REMARK   13  A    between atoms: C_42  and  C_44
REMARK   14  A    between atoms: C_43  and  C_50
REMARK   15  A    between atoms: C_45  and  C_48
REMARK   16  A    between atoms: C_47  and  C_57
REMARK   17  A    between atoms: C_48  and  C_55
REMARK   18  A    between atoms: C_51  and  C_56
REMARK   19  A    between atoms: C_54  and  C_60
REMARK   20  A    between atoms: C_55  and  C_62
REMARK   21  A    between atoms: C_56  and  C_61
REMARK   22  A    between atoms: C_60  and  C_63
REMARK                            x       y       z     vdW  Elec       q    Type
REMARK                         _______ _______ _______ _____ _____    ______ ____
ROOT
ATOM      1  S   UNL     1      -1.441  -0.114   0.000  0.00  0.00    +0.000 S 
ATOM      2  S   UNL     1      -1.431   0.755   0.000  0.00  0.00    +0.000 S 
ATOM      3  O   UNL     1      -0.670  -3.144   0.000  0.00  0.00    +0.000 OA
ATOM      4  O   UNL     1       2.272  -2.291   0.000  0.00  0.00    +0.000 OA
ATOM      5  O   UNL     1       3.725  -0.584   0.000  0.00  0.00    +0.000 OA
ATOM      6  O   UNL     1       2.985   2.385   0.000  0.00  0.00    +0.000 OA
ATOM      7  O   UNL     1       0.051   3.261   0.000  0.00  0.00    +0.000 OA
ATOM      8  N   UNL     1       0.055  -1.870   0.000  0.00  0.00    +0.000 N 
ATOM      9  N   UNL     1       1.554  -2.742   0.000  0.00  0.00    +0.000 N 
ATOM     10  N   UNL     1       2.264  -0.602   0.000  0.00  0.00    +0.000 N 
ATOM     11  N   UNL     1       2.262   1.124   0.000  0.00  0.00    +0.000 N 
ATOM     12  N   UNL     1       0.787   2.001   0.000  0.00  0.00    +0.000 N 
ATOM     13  C   UNL     1      -0.694  -1.431   0.000  0.00  0.00    +0.000 C 
ATOM     14  C   UNL     1      -0.684  -0.553   0.000  0.00  0.00    +0.000 C 
ATOM     15  C   UNL     1       0.045  -2.734   0.000  0.00  0.00    +0.000 C 
ATOM     16  C   UNL     1       0.808  -3.168   0.000  0.00  0.00    +0.000 C 
ATOM     17  C   UNL     1       2.264  -1.461   0.000  0.00  0.00    +0.000 C 
ATOM     18  C   UNL     1       1.556  -1.883   0.000  0.00  0.00    +0.000 C 
ATOM     19  C   UNL     1      -0.672   1.186   0.000  0.00  0.00    +0.000 C 
ATOM     20  C   UNL     1       3.003   0.685   0.000  0.00  0.00    +0.000 C 
ATOM     21  C   UNL     1      -0.700   2.016   0.000  0.00  0.00    +0.000 C 
ATOM     22  C   UNL     1       3.010  -0.174   0.000  0.00  0.00    +0.000 C 
ATOM     23  C   UNL     1       1.538   2.418   0.000  0.00  0.00    +0.000 C 
ATOM     24  C   UNL     1       2.266   1.981   0.000  0.00  0.00    +0.000 C 
ATOM     25  C   UNL     1       0.044   2.437   0.000  0.00  0.00    +0.000 C 
ATOM     26  H   UNL     1       0.912  -1.385   0.000  0.00  0.00    +0.000 HD
ATOM     27  H   UNL     1       2.405  -3.237   0.000  0.00  0.00    +0.000 HD
ATOM     28  H   UNL     1       1.412  -0.108   0.000  0.00  0.00    +0.000 HD
ATOM     29  H   UNL     1       1.406   0.639   0.000  0.00  0.00    +0.000 HD
ATOM     30  H   UNL     1       0.776   1.017   0.000  0.00  0.00    +0.000 HD
ENDROOT
BRANCH  13  37
ATOM     31  O   UNL     1      -1.419  -2.662   0.000  0.00  0.00    +0.000 OA
ATOM     32  N   UNL     1      -2.122  -1.419   0.000  0.00  0.00    +0.000 N 
ATOM     33  C   UNL     1      -2.883  -1.748   0.000  0.00  0.00    +0.000 C 
ATOM     34  C   UNL     1      -3.428  -1.127   0.000  0.00  0.00    +0.000 C 
ATOM     35  C   UNL     1      -3.007  -0.415   0.000  0.00  0.00    +0.000 C 
ATOM     36  C   UNL     1      -2.203  -0.598   0.000  0.00  0.00    +0.000 C 
ATOM     37  C   UNL     1      -1.412  -1.837   0.000  0.00  0.00    +0.000 C 
BRANCH  33  40
ATOM     38  O   UNL     1      -2.457  -3.111   0.000  0.00  0.00    +0.000 OA
ATOM     39  N   UNL     1      -3.851  -2.798   0.000  0.00  0.00    +0.000 N 
ATOM     40  C   UNL     1      -3.064  -2.552   0.000  0.00  0.00    +0.000 C 
ATOM     41  H   UNL     1      -4.575  -2.130   0.000  0.00  0.00    +0.000 HD
BRANCH  39  42
ATOM     42  C   UNL     1      -4.032  -3.603   0.000  0.00  0.00    +0.000 C 
BRANCH  42  45
ATOM     43  O   UNL     1      -5.396  -4.028   0.000  0.00  0.00    +0.000 OA
ATOM     44  N   UNL     1      -5.083  -2.634   0.000  0.00  0.00    +0.000 N 
ATOM     45  C   UNL     1      -4.837  -3.422   0.000  0.00  0.00    +0.000 C 
ATOM     46  H   UNL     1      -4.415  -1.911   0.000  0.00  0.00    +0.000 HD
BRANCH  44  47
ATOM     47  C   UNL     1      -5.887  -2.453   0.000  0.00  0.00    +0.000 C 
BRANCH  47  50
ATOM     48  O   UNL     1      -5.574  -1.060   0.000  0.00  0.00    +0.000 OA
ATOM     49  N   UNL     1      -6.938  -1.485   0.000  0.00  0.00    +0.000 N 
ATOM     50  C   UNL     1      -6.133  -1.666   0.000  0.00  0.00    +0.000 C 
ATOM     51  H   UNL     1      -7.231  -0.545   0.000  0.00  0.00    +0.000 HD
ATOM     52  H   UNL     1      -7.605  -2.209   0.000  0.00  0.00    +0.000 HD
ENDBRANCH  47  50
ENDBRANCH  44  47
ENDBRANCH  42  45
BRANCH  42  53
ATOM     53  C   UNL     1      -3.228  -3.784   0.000  0.00  0.00    +0.000 C 
BRANCH  53  54
ATOM     54  C   UNL     1      -2.982  -4.571   0.000  0.00  0.00    +0.000 C 
BRANCH  54  55
ATOM     55  C   UNL     1      -2.177  -4.752   0.000  0.00  0.00    +0.000 C 
BRANCH  55  56
ATOM     56  C   UNL     1      -1.932  -5.540   0.000  0.00  0.00    +0.000 C 
BRANCH  56  57
ATOM     57  N   UNL     1      -1.127  -5.721   0.000  0.00  0.00    +0.000 NA
ATOM     58  H   UNL     1      -0.823  -6.694   0.000  0.00  0.00    +0.000 HD
ATOM     59  H   UNL     1      -0.435  -4.971   0.000  0.00  0.00    +0.000 HD
ENDBRANCH  56  57
ENDBRANCH  55  56
ENDBRANCH  54  55
ENDBRANCH  53  54
ENDBRANCH  42  53
ENDBRANCH  39  42
ENDBRANCH  33  40
ENDBRANCH  13  37
BRANCH  21  60
ATOM     60  N   UNL     1      -1.420   2.419   0.000  0.00  0.00    +0.000 NA
ATOM     61  H   UNL     1      -1.432   3.439   0.000  0.00  0.00    +0.000 HD
ATOM     62  H   UNL     1      -2.297   1.898   0.000  0.00  0.00    +0.000 HD
ENDBRANCH  21  60
BRANCH  16  63
ATOM     63  C   UNL     1       1.338  -3.800   0.000  0.00  0.00    +0.000 C 
BRANCH  63  66
ATOM     64  O   UNL     1       0.243  -4.718   0.000  0.00  0.00    +0.000 OA
ATOM     65  N   UNL     1       1.585  -5.207   0.000  0.00  0.00    +0.000 N 
ATOM     66  C   UNL     1       1.055  -4.575   0.000  0.00  0.00    +0.000 C 
ATOM     67  H   UNL     1       1.373  -5.789   0.000  0.00  0.00    +0.000 HD
ATOM     68  H   UNL     1       2.194  -5.101   0.000  0.00  0.00    +0.000 HD
ENDBRANCH  63  66
ENDBRANCH  16  63
BRANCH  17  69
ATOM     69  C   UNL     1       2.981  -1.868   0.000  0.00  0.00    +0.000 C 
BRANCH  69  70
ATOM     70  C   UNL     1       2.987  -2.693   0.000  0.00  0.00    +0.000 C 
BRANCH  70  73
ATOM     71  O   UNL     1       4.416  -2.683   0.000  0.00  0.00    +0.000 OA
ATOM     72  N   UNL     1       3.710  -3.926   0.000  0.00  0.00    +0.000 N 
ATOM     73  C   UNL     1       3.704  -3.101   0.000  0.00  0.00    +0.000 C 
ATOM     74  H   UNL     1       2.860  -4.424   0.000  0.00  0.00    +0.000 HD
ATOM     75  H   UNL     1       4.566  -4.412   0.000  0.00  0.00    +0.000 HD
ENDBRANCH  70  73
ENDBRANCH  69  70
ENDBRANCH  17  69
BRANCH  20  76
ATOM     76  C   UNL     1       4.255   1.404   0.000  0.00  0.00    +0.000 C 
BRANCH  76  77
ATOM     77  C   UNL     1       5.503   0.680   0.000  0.00  0.00    +0.000 A 
ATOM     78  C   UNL     1       5.499  -0.145   0.000  0.00  0.00    +0.000 A 
ATOM     79  C   UNL     1       6.217   1.093   0.000  0.00  0.00    +0.000 A 
ATOM     80  C   UNL     1       6.216  -0.561   0.000  0.00  0.00    +0.000 A 
ATOM     81  C   UNL     1       6.935   0.677   0.000  0.00  0.00    +0.000 A 
ATOM     82  C   UNL     1       6.938  -0.152   0.000  0.00  0.00    +0.000 A 
ENDBRANCH  76  77
ENDBRANCH  20  76
BRANCH  23  83
ATOM     83  C   UNL     1       1.562   3.861   0.000  0.00  0.00    +0.000 C 
BRANCH  83  84
ATOM     84  C   UNL     1       2.824   4.561   0.000  0.00  0.00    +0.000 A 
ATOM     85  C   UNL     1       3.530   4.135   0.000  0.00  0.00    +0.000 A 
ATOM     86  C   UNL     1       2.836   5.386   0.000  0.00  0.00    +0.000 A 
ATOM     87  C   UNL     1       4.255   4.537   0.000  0.00  0.00    +0.000 A 
ATOM     88  C   UNL     1       3.561   5.789   0.000  0.00  0.00    +0.000 A 
ATOM     89  C   UNL     1       4.274   5.366   0.000  0.00  0.00    +0.000 A 
BRANCH  89  90
ATOM     90  O   UNL     1       4.995   5.766   0.000  0.00  0.00    +0.000 OA
ATOM     91  H   UNL     1       5.799   5.284   0.000  0.00  0.00    +0.000 HD
ENDBRANCH  89  90
ENDBRANCH  83  84
ENDBRANCH  23  83
TORSDOF 22
