REMARK  Name = 
REMARK  34 active torsions:
REMARK  status: ('A' for Active; 'I' for Inactive)
REMARK    1  A    between atoms: CG_4  and  CB_6
REMARK    2  A    between atoms: CB_6  and  CA_7
REMARK    3  A    between atoms: CA_11  and  CB_12
REMARK    4  A    between atoms: CB_12  and  CG_13
REMARK    5  A    between atoms: CG_13  and  CD_14
REMARK    6  A    between atoms: CD_14  and  CE_15
REMARK    7  A    between atoms: CE_15  and  NZ_16
REMARK    8  A    between atoms: CA_20  and  CB_21
REMARK    9  A    between atoms: CB_21  and  CG2_22
REMARK   10  A    between atoms: CB_21  and  OG1_23
REMARK   11  A    between atoms: CA_27  and  C_28
REMARK   12  A    between atoms: N_30  and  CA_31
REMARK   13  A    between atoms: CA_31  and  C_32
REMARK   14  A    between atoms: CA_31  and  CB_35
REMARK   15  A    between atoms: C_32  and  OXT_34
REMARK   16  A    between atoms: CB_35  and  CG2_36
REMARK   17  A    between atoms: CB_35  and  OG1_37
REMARK   18  A    between atoms: CA_42  and  N_43
REMARK   19  A    between atoms: C_44  and  CA_46
REMARK   20  A    between atoms: CA_46  and  CB_47
REMARK   21  A    between atoms: CA_46  and  N_54
REMARK   22  A    between atoms: CB_47  and  CG_48
REMARK   23  A    between atoms: C_55  and  C_56
REMARK   24  A    between atoms: C_56  and  N_57
REMARK   25  A    between atoms: N_60  and  C_61
REMARK   26  A    between atoms: C_61  and  C_62
REMARK   27  A    between atoms: C_62  and  O_64
REMARK   28  A    between atoms: N_67  and  C_68
REMARK   29  A    between atoms: C_68  and  C_69
REMARK   30  A    between atoms: N_74  and  C_75
REMARK   31  A    between atoms: C_75  and  C_76
REMARK   32  A    between atoms: CA_85  and  CB_86
REMARK   33  A    between atoms: CB_86  and  CG_87
REMARK   34  A    between atoms: CZ_90  and  OH_93
REMARK                            x       y       z     vdW  Elec       q    Type
REMARK                         _______ _______ _______ _____ _____    ______ ____
ROOT
ATOM      1  CA  CYS A   3      -5.333  -0.142   0.000  0.00  0.00    +0.000 C 
ATOM      2  C   CYS A   3      -5.562   0.652   0.000  0.00  0.00    +0.000 C 
ATOM      3  O   CYS A   3      -6.381   0.555   0.000  0.00  0.00    +0.000 OA
ATOM      4  N   PHE A   1      -5.562   1.476   0.000  0.00  0.00    +0.000 N 
ATOM      5  CA  PHE A   1      -5.253   2.255   0.000  0.00  0.00    +0.000 C 
ATOM      6  C   PHE A   1      -4.743   2.904   0.000  0.00  0.00    +0.000 C 
ATOM      7  O   PHE A   1      -5.304   3.511   0.000  0.00  0.00    +0.000 OA
ATOM      8  N   TYR A   2      -4.056   3.366   0.000  0.00  0.00    +0.000 N 
ATOM      9  CA  TYR A   2      -3.262   3.595   0.000  0.00  0.00    +0.000 C 
ATOM     10  C   TYR A   2      -2.437   3.595   0.000  0.00  0.00    +0.000 C 
ATOM     11  O   TYR A   2      -2.280   4.375   0.000  0.00  0.00    +0.000 OA
ATOM     12  N   CYS A   3      -1.663   3.281   0.000  0.00  0.00    +0.000 N 
ATOM     13  CA  CYS A   3      -1.015   2.771   0.000  0.00  0.00    +0.000 C 
ATOM     14  CB  CYS A   3      -0.553   2.089   0.000  0.00  0.00    +0.000 C 
ATOM     15  SG  CYS A   3      -0.323   1.294   0.000  0.00  0.00    +0.000 S 
ATOM     16  SG  PHE A   1      -0.323   0.470   0.000  0.00  0.00    +0.000 S 
ATOM     17  CB  PHE A   1      -0.638  -0.309   0.000  0.00  0.00    +0.000 C 
ATOM     18  CA  PHE A   1      -1.143  -0.957   0.000  0.00  0.00    +0.000 C 
ATOM     19  C   PHE A   1      -1.830  -1.419   0.000  0.00  0.00    +0.000 C 
ATOM     20  O   PHE A   1      -1.480  -2.168   0.000  0.00  0.00    +0.000 OA
ATOM     21  N   TYR A   2      -2.624  -1.616   0.000  0.00  0.00    +0.000 N 
ATOM     22  CA  TYR A   2      -3.449  -1.616   0.000  0.00  0.00    +0.000 C 
ATOM     23  C   TYR A   2      -4.223  -1.334   0.000  0.00  0.00    +0.000 C 
ATOM     24  O   TYR A   2      -4.626  -2.053   0.000  0.00  0.00    +0.000 OA
ATOM     25  N   CYS A   3      -4.876  -0.824   0.000  0.00  0.00    +0.000 N 
ATOM     26  H   PHE A   1      -6.529   1.662   0.000  0.00  0.00    +0.000 HD
ATOM     27  H   TYR A   2      -4.472   4.258   0.000  0.00  0.00    +0.000 HD
ATOM     28  H   CYS A   3      -1.169   4.132   0.000  0.00  0.00    +0.000 HD
ATOM     29  H   TYR A   2      -2.505  -2.593   0.000  0.00  0.00    +0.000 HD
ATOM     30  H   CYS A   3      -5.597  -1.495   0.000  0.00  0.00    +0.000 HD
ENDROOT
BRANCH  18  31
ATOM     31  N   PHE A   1      -0.582  -1.559   0.000  0.00  0.00    +0.000 N 
ATOM     32  C   PHE A   1       0.179  -1.238   0.000  0.00  0.00    +0.000 C 
ATOM     33  O   PHE A   1       0.278  -0.420   0.000  0.00  0.00    +0.000 OA
ATOM     34  H   PHE A   1      -0.788  -2.522   0.000  0.00  0.00    +0.000 HD
BRANCH  32  35
ATOM     35  CA  PHE A   1       0.838  -1.735   0.000  0.00  0.00    +0.000 C 
BRANCH  35  36
ATOM     36  N   PHE A   1       1.529  -1.287   0.000  0.00  0.00    +0.000 N 
ATOM     37  C   UNK A   0       2.263  -1.662   0.000  0.00  0.00    +0.000 C 
ATOM     38  O   UNK A   0       2.296  -2.239   0.000  0.00  0.00    +0.000 OA
ATOM     39  H   PHE A   1       1.478  -0.304   0.000  0.00  0.00    +0.000 HD
BRANCH  37  40
ATOM     40  C   UNK A   0       2.959  -1.214   0.000  0.00  0.00    +0.000 C 
BRANCH  40  41
ATOM     41  N   UNK A   0       3.692  -1.589   0.000  0.00  0.00    +0.000 NA
ATOM     42  C   UNK A   0       4.247  -0.972   0.000  0.00  0.00    +0.000 C 
ATOM     43  C   UNK A   0       5.032  -0.722   0.000  0.00  0.00    +0.000 C 
ATOM     44  N   UNK A   0       5.837  -0.890   0.000  0.00  0.00    +0.000 NA
ATOM     45  C   UNK A   0       6.453  -1.444   0.000  0.00  0.00    +0.000 C 
ATOM     46  C   UNK A   0       6.704  -2.229   0.000  0.00  0.00    +0.000 C 
ATOM     47  N   UNK A   0       6.536  -3.038   0.000  0.00  0.00    +0.000 NA
ATOM     48  C   UNK A   0       5.982  -3.651   0.000  0.00  0.00    +0.000 C 
ATOM     49  C   UNK A   0       5.197  -3.906   0.000  0.00  0.00    +0.000 C 
ATOM     50  N   UNK A   0       4.387  -3.733   0.000  0.00  0.00    +0.000 NA
ATOM     51  C   UNK A   0       3.775  -3.179   0.000  0.00  0.00    +0.000 C 
ATOM     52  C   UNK A   0       3.520  -2.394   0.000  0.00  0.00    +0.000 C 
BRANCH  44  53
ATOM     53  C   UNK A   0       6.212  -0.156   0.000  0.00  0.00    +0.000 C 
BRANCH  53  54
ATOM     54  C   UNK A   0       5.651   0.446   0.000  0.00  0.00    +0.000 C 
ATOM     55  O   UNK A   0       5.892   1.236   0.000  0.00  0.00    +0.000 OA
BRANCH  54  56
ATOM     56  O   UNK A   0       4.845   0.263   0.000  0.00  0.00    +0.000 OA
ATOM     57  H   UNK A   0       4.209   0.951   0.000  0.00  0.00    +0.000 HD
ENDBRANCH  54  56
ENDBRANCH  53  54
ENDBRANCH  44  53
BRANCH  47  58
ATOM     58  C   UNK A   0       7.270  -3.414   0.000  0.00  0.00    +0.000 C 
BRANCH  58  59
ATOM     59  C   UNK A   0       7.872  -2.848   0.000  0.00  0.00    +0.000 C 
ATOM     60  O   UNK A   0       8.661  -3.089   0.000  0.00  0.00    +0.000 OA
ATOM     61  O   UNK A   0       7.689  -2.047   0.000  0.00  0.00    +0.000 OA
ENDBRANCH  58  59
ENDBRANCH  47  58
BRANCH  50  62
ATOM     62  C   UNK A   0       4.012  -4.467   0.000  0.00  0.00    +0.000 C 
BRANCH  62  63
ATOM     63  C   UNK A   0       4.577  -5.074   0.000  0.00  0.00    +0.000 C 
ATOM     64  O   UNK A   0       4.336  -5.863   0.000  0.00  0.00    +0.000 OA
ATOM     65  O   UNK A   0       5.379  -4.886   0.000  0.00  0.00    +0.000 OA
ENDBRANCH  62  63
ENDBRANCH  50  62
ENDBRANCH  40  41
ENDBRANCH  37  40
ENDBRANCH  35  36
BRANCH  35  66
ATOM     66  CB  PHE A   1       0.735  -2.554   0.000  0.00  0.00    +0.000 C 
BRANCH  66  67
ATOM     67  CG  PHE A   1       1.393  -3.051   0.000  0.00  0.00    +0.000 A 
ATOM     68  CD1 PHE A   1       1.294  -3.873   0.000  0.00  0.00    +0.000 A 
ATOM     69  CE1 PHE A   1       1.953  -4.370   0.000  0.00  0.00    +0.000 A 
ATOM     70  CZ  PHE A   1       2.715  -4.045   0.000  0.00  0.00    +0.000 A 
ATOM     71  CE2 PHE A   1       2.813  -3.227   0.000  0.00  0.00    +0.000 A 
ATOM     72  CD2 PHE A   1       2.155  -2.729   0.000  0.00  0.00    +0.000 A 
ENDBRANCH  66  67
ENDBRANCH  35  66
ENDBRANCH  32  35
ENDBRANCH  18  31
BRANCH  13  73
ATOM     73  C   CYS A   3      -0.408   3.336   0.000  0.00  0.00    +0.000 C 
ATOM     74  O   CYS A   3       0.381   3.095   0.000  0.00  0.00    +0.000 OA
ATOM     75  N   THR A   4      -0.595   4.138   0.000  0.00  0.00    +0.000 N 
ATOM     76  H   THR A   4      -1.509   4.505   0.000  0.00  0.00    +0.000 HD
BRANCH  75  77
ATOM     77  CA  THR A   4       0.100   4.591   0.000  0.00  0.00    +0.000 C 
BRANCH  77  78
ATOM     78  C   THR A   4       0.834   4.215   0.000  0.00  0.00    +0.000 C 
ATOM     79  O   THR A   4       0.834   3.387   0.000  0.00  0.00    +0.000 OA
BRANCH  78  80
ATOM     80  OXT THR A   4       1.525   4.664   0.000  0.00  0.00    +0.000 OA
ATOM     81  HXT THR A   4       2.360   4.238   0.000  0.00  0.00    +0.000 HD
ENDBRANCH  78  80
ENDBRANCH  77  78
BRANCH  77  82
ATOM     82  CB  THR A   4       0.100   5.415   0.000  0.00  0.00    +0.000 C 
ATOM     83  CG2 THR A   4       0.749   5.863   0.000  0.00  0.00    +0.000 C 
BRANCH  82  84
ATOM     84  OG1 THR A   4      -0.681   5.790   0.000  0.00  0.00    +0.000 OA
ATOM     85  HG1 THR A   4      -0.755   6.757   0.000  0.00  0.00    +0.000 HD
ENDBRANCH  82  84
ENDBRANCH  77  82
ENDBRANCH  75  77
ENDBRANCH  13  73
BRANCH   9  86
ATOM     86  CB  TYR A   2      -3.364   4.413   0.000  0.00  0.00    +0.000 C 
ATOM     87  CG2 TYR A   2      -2.705   4.910   0.000  0.00  0.00    +0.000 C 
BRANCH  86  88
ATOM     88  OG1 TYR A   2      -4.125   4.735   0.000  0.00  0.00    +0.000 OA
ATOM     89  HG1 TYR A   2      -4.244   5.698   0.000  0.00  0.00    +0.000 HD
ENDBRANCH  86  88
ENDBRANCH   9  86
BRANCH   1  90
ATOM     90  CB  CYS A   3      -6.082  -0.488   0.000  0.00  0.00    +0.000 C 
BRANCH  90  94
ATOM     91  NE1 CYS A   3      -5.492  -2.542   0.000  0.00  0.00    +0.000 N 
ATOM     92  CE2 CYS A   3      -6.314  -2.612   0.000  0.00  0.00    +0.000 A 
ATOM     93  CD2 CYS A   3      -6.635  -1.851   0.000  0.00  0.00    +0.000 A 
ATOM     94  CG  CYS A   3      -6.011  -1.309   0.000  0.00  0.00    +0.000 A 
ATOM     95  CD1 CYS A   3      -5.304  -1.736   0.000  0.00  0.00    +0.000 A 
ATOM     96  CE3 CYS A   3      -7.453  -1.752   0.000  0.00  0.00    +0.000 A 
ATOM     97  CZ3 CYS A   3      -7.950  -2.411   0.000  0.00  0.00    +0.000 A 
ATOM     98  CH2 CYS A   3      -7.629  -3.172   0.000  0.00  0.00    +0.000 A 
ATOM     99  CZ2 CYS A   3      -6.811  -3.271   0.000  0.00  0.00    +0.000 A 
ATOM    100  HE1 CYS A   3      -4.848  -3.287   0.000  0.00  0.00    +0.000 HD
ENDBRANCH  90  94
ENDBRANCH   1  90
BRANCH   5 101
ATOM    101  CB  PHE A   1      -5.972   2.654   0.000  0.00  0.00    +0.000 C 
BRANCH 101 102
ATOM    102  CG  PHE A   1      -6.595   2.113   0.000  0.00  0.00    +0.000 C 
BRANCH 102 103
ATOM    103  CD  PHE A   1      -7.319   2.516   0.000  0.00  0.00    +0.000 C 
BRANCH 103 104
ATOM    104  CE  PHE A   1      -7.942   1.970   0.000  0.00  0.00    +0.000 C 
BRANCH 104 105
ATOM    105  NZ  PHE A   1      -8.661   2.374   0.000  0.00  0.00    +0.000 NA
ATOM    106  HZ1 PHE A   1      -8.673   3.394   0.000  0.00  0.00    +0.000 HD
ATOM    107  HZ2 PHE A   1      -9.538   1.854   0.000  0.00  0.00    +0.000 HD
ENDBRANCH 104 105
ENDBRANCH 103 104
ENDBRANCH 102 103
ENDBRANCH 101 102
ENDBRANCH   5 101
BRANCH  22 108
ATOM    108  CB  TYR A   2      -3.606  -2.429   0.000  0.00  0.00    +0.000 C 
BRANCH 108 109
ATOM    109  CG  TYR A   2      -2.898  -2.851   0.000  0.00  0.00    +0.000 A 
ATOM    110  CD1 TYR A   2      -2.898  -3.676   0.000  0.00  0.00    +0.000 A 
ATOM    111  CE1 TYR A   2      -2.207  -4.102   0.000  0.00  0.00    +0.000 A 
ATOM    112  CZ  TYR A   2      -1.483  -3.704   0.000  0.00  0.00    +0.000 A 
ATOM    113  CE2 TYR A   2      -1.483  -2.879   0.000  0.00  0.00    +0.000 A 
ATOM    114  CD2 TYR A   2      -2.179  -2.453   0.000  0.00  0.00    +0.000 A 
BRANCH 112 115
ATOM    115  OH  TYR A   2      -0.775  -4.126   0.000  0.00  0.00    +0.000 OA
ATOM    116  HH  TYR A   2      -0.789  -5.063   0.000  0.00  0.00    +0.000 HD
ENDBRANCH 112 115
ENDBRANCH 108 109
ENDBRANCH  22 108
TORSDOF 32
REMARK  Name = 
REMARK  34 active torsions:
REMARK  status: ('A' for Active; 'I' for Inactive)
REMARK    1  A    between atoms: CG_4  and  CB_6
REMARK    2  A    between atoms: CB_6  and  CA_7
REMARK    3  A    between atoms: CA_11  and  CB_12
REMARK    4  A    between atoms: CB_12  and  CG_13
REMARK    5  A    between atoms: CG_13  and  CD_14
REMARK    6  A    between atoms: CD_14  and  CE_15
REMARK    7  A    between atoms: CE_15  and  NZ_16
REMARK    8  A    between atoms: CA_20  and  CB_21
REMARK    9  A    between atoms: CB_21  and  CG2_22
REMARK   10  A    between atoms: CB_21  and  OG1_23
REMARK   11  A    between atoms: CA_27  and  C_28
REMARK   12  A    between atoms: N_30  and  CA_31
REMARK   13  A    between atoms: CA_31  and  C_32
REMARK   14  A    between atoms: CA_31  and  CB_35
REMARK   15  A    between atoms: C_32  and  OXT_34
REMARK   16  A    between atoms: CB_35  and  CG2_36
REMARK   17  A    between atoms: CB_35  and  OG1_37
REMARK   18  A    between atoms: CA_42  and  N_43
REMARK   19  A    between atoms: C_44  and  CA_46
REMARK   20  A    between atoms: CA_46  and  CB_47
REMARK   21  A    between atoms: CA_46  and  N_54
REMARK   22  A    between atoms: CB_47  and  CG_48
REMARK   23  A    between atoms: C_55  and  C_56
REMARK   24  A    between atoms: C_56  and  N_57
REMARK   25  A    between atoms: N_60  and  C_61
REMARK   26  A    between atoms: C_61  and  C_62
REMARK   27  A    between atoms: C_62  and  O_64
REMARK   28  A    between atoms: N_67  and  C_68
REMARK   29  A    between atoms: C_68  and  C_69
REMARK   30  A    between atoms: N_74  and  C_75
REMARK   31  A    between atoms: C_75  and  C_76
REMARK   32  A    between atoms: CA_85  and  CB_86
REMARK   33  A    between atoms: CB_86  and  CG_87
REMARK   34  A    between atoms: CZ_90  and  OH_93
REMARK                            x       y       z     vdW  Elec       q    Type
REMARK                         _______ _______ _______ _____ _____    ______ ____
ROOT
ATOM      1 CU   UNL     1       5.042  -2.324   0.000  0.00  0.00    +0.000 Cu
ENDROOT
TORSDOF 0
