REMARK  Name = 
REMARK  40 active torsions:
REMARK  status: ('A' for Active; 'I' for Inactive)
REMARK    1  A    between atoms: O_2  and  C_45
REMARK    2  A    between atoms: O_3  and  C_49
REMARK    3  A    between atoms: O_5  and  C_57
REMARK    4  A    between atoms: O_13  and  C_66
REMARK    5  A    between atoms: O_17  and  C_68
REMARK    6  A    between atoms: N_19  and  C_25
REMARK    7  A    between atoms: N_19  and  C_27
REMARK    8  A    between atoms: N_19  and  C_33
REMARK    9  A    between atoms: N_20  and  C_26
REMARK   10  A    between atoms: N_20  and  C_28
REMARK   11  A    between atoms: N_20  and  C_34
REMARK   12  A    between atoms: N_21  and  C_38
REMARK   13  A    between atoms: N_22  and  C_35
REMARK   14  A    between atoms: N_23  and  C_46
REMARK   15  A    between atoms: N_24  and  C_62
REMARK   16  A    between atoms: C_25  and  C_26
REMARK   17  A    between atoms: C_27  and  C_30
REMARK   18  A    between atoms: C_28  and  C_36
REMARK   19  A    between atoms: C_29  and  C_31
REMARK   20  A    between atoms: C_29  and  C_32
REMARK   21  A    between atoms: C_31  and  C_35
REMARK   22  A    between atoms: C_32  and  C_38
REMARK   23  A    between atoms: C_33  and  C_55
REMARK   24  A    between atoms: C_34  and  C_58
REMARK   25  A    between atoms: C_35  and  C_57
REMARK   26  A    between atoms: C_37  and  C_39
REMARK   27  A    between atoms: C_37  and  C_41
REMARK   28  A    between atoms: C_39  and  C_44
REMARK   29  A    between atoms: C_40  and  C_43
REMARK   30  A    between atoms: C_41  and  C_46
REMARK   31  A    between atoms: C_43  and  C_47
REMARK   32  A    between atoms: C_44  and  C_52
REMARK   33  A    between atoms: C_47  and  C_54
REMARK   34  A    between atoms: C_50  and  C_56
REMARK   35  A    between atoms: C_56  and  C_63
REMARK   36  A    between atoms: C_62  and  C_64
REMARK   37  A    between atoms: C_62  and  C_66
REMARK   38  A    between atoms: C_63  and  C_67
REMARK   39  A    between atoms: C_64  and  C_65
REMARK   40  A    between atoms: C_65  and  C_68
REMARK                            x       y       z     vdW  Elec       q    Type
REMARK                         _______ _______ _______ _____ _____    ______ ____
ROOT
ATOM      1 GA   UNL     1      -5.137   7.347   0.000  0.00  0.00    +0.000 Ga
ENDROOT
TORSDOF 0
REMARK  Name = 
REMARK  40 active torsions:
REMARK  status: ('A' for Active; 'I' for Inactive)
REMARK    1  A    between atoms: O_2  and  C_45
REMARK    2  A    between atoms: O_3  and  C_49
REMARK    3  A    between atoms: O_5  and  C_57
REMARK    4  A    between atoms: O_13  and  C_66
REMARK    5  A    between atoms: O_17  and  C_68
REMARK    6  A    between atoms: N_19  and  C_25
REMARK    7  A    between atoms: N_19  and  C_27
REMARK    8  A    between atoms: N_19  and  C_33
REMARK    9  A    between atoms: N_20  and  C_26
REMARK   10  A    between atoms: N_20  and  C_28
REMARK   11  A    between atoms: N_20  and  C_34
REMARK   12  A    between atoms: N_21  and  C_38
REMARK   13  A    between atoms: N_22  and  C_35
REMARK   14  A    between atoms: N_23  and  C_46
REMARK   15  A    between atoms: N_24  and  C_62
REMARK   16  A    between atoms: C_25  and  C_26
REMARK   17  A    between atoms: C_27  and  C_30
REMARK   18  A    between atoms: C_28  and  C_36
REMARK   19  A    between atoms: C_29  and  C_31
REMARK   20  A    between atoms: C_29  and  C_32
REMARK   21  A    between atoms: C_31  and  C_35
REMARK   22  A    between atoms: C_32  and  C_38
REMARK   23  A    between atoms: C_33  and  C_55
REMARK   24  A    between atoms: C_34  and  C_58
REMARK   25  A    between atoms: C_35  and  C_57
REMARK   26  A    between atoms: C_37  and  C_39
REMARK   27  A    between atoms: C_37  and  C_41
REMARK   28  A    between atoms: C_39  and  C_44
REMARK   29  A    between atoms: C_40  and  C_43
REMARK   30  A    between atoms: C_41  and  C_46
REMARK   31  A    between atoms: C_43  and  C_47
REMARK   32  A    between atoms: C_44  and  C_52
REMARK   33  A    between atoms: C_47  and  C_54
REMARK   34  A    between atoms: C_50  and  C_56
REMARK   35  A    between atoms: C_56  and  C_63
REMARK   36  A    between atoms: C_62  and  C_64
REMARK   37  A    between atoms: C_62  and  C_66
REMARK   38  A    between atoms: C_63  and  C_67
REMARK   39  A    between atoms: C_64  and  C_65
REMARK   40  A    between atoms: C_65  and  C_68
REMARK                            x       y       z     vdW  Elec       q    Type
REMARK                         _______ _______ _______ _____ _____    ______ ____
ROOT
ATOM      1  O   UNK A   1      -0.850   1.572   0.000  0.00  0.00    +0.000 OA
ATOM      2  N   UNK A   1      -1.565   0.334   0.000  0.00  0.00    +0.000 N 
ATOM      3  C   UNK A   1      -1.565   1.159   0.000  0.00  0.00    +0.000 C 
ATOM      4  H   UNK A   1      -2.417  -0.158   0.000  0.00  0.00    +0.000 HD
ENDROOT
BRANCH   2   5
ATOM      5  C   UNK A   1      -0.850  -0.078   0.000  0.00  0.00    +0.000 C 
BRANCH   5   6
ATOM      6  C   UNK A   1      -0.850  -0.903   0.000  0.00  0.00    +0.000 C 
BRANCH   6   7
ATOM      7  C   UNK A   1      -0.136  -1.316   0.000  0.00  0.00    +0.000 C 
BRANCH   7   8
ATOM      8  C   UNK A   1      -0.136  -2.141   0.000  0.00  0.00    +0.000 C 
BRANCH   8   9
ATOM      9  C   UNK A   1       0.579  -2.553   0.000  0.00  0.00    +0.000 C 
BRANCH   9  12
ATOM     10  O   UNK A   1      -0.136  -3.791   0.000  0.00  0.00    +0.000 OA
ATOM     11  N   UNK A   1       1.293  -3.791   0.000  0.00  0.00    +0.000 N 
ATOM     12  C   UNK A   1       0.579  -3.378   0.000  0.00  0.00    +0.000 C 
ATOM     13  H   UNK A   1       2.146  -3.299   0.000  0.00  0.00    +0.000 HD
BRANCH  11  14
ATOM     14  C   UNK A   1       1.293  -4.616   0.000  0.00  0.00    +0.000 C 
BRANCH  14  15
ATOM     15  C   UNK A   1       2.008  -5.028   0.000  0.00  0.00    +0.000 C 
BRANCH  15  16
ATOM     16  C   UNK A   1       2.008  -5.853   0.000  0.00  0.00    +0.000 C 
BRANCH  16  17
ATOM     17  C   UNK A   1       2.722  -6.266   0.000  0.00  0.00    +0.000 C 
BRANCH  17  18
ATOM     18  C   UNK A   1       2.722  -7.091   0.000  0.00  0.00    +0.000 C 
BRANCH  18  20
ATOM     19  O   UNK A   0       2.722  -8.741   0.000  0.00  0.00    +0.000 OA
ATOM     20  N   UNK A   1       3.437  -7.503   0.000  0.00  0.00    +0.000 N 
ATOM     21  N   UNK A   1       4.151  -8.741   0.000  0.00  0.00    +0.000 N 
ATOM     22  C   UNK A   0       3.437  -8.328   0.000  0.00  0.00    +0.000 C 
ATOM     23  H   UNK A   1       4.289  -7.011   0.000  0.00  0.00    +0.000 HD
ATOM     24  H   UNK A   1       5.004  -8.249   0.000  0.00  0.00    +0.000 HD
BRANCH  21  25
ATOM     25  C   UNK A   1       4.151  -9.566   0.000  0.00  0.00    +0.000 C 
BRANCH  25  27
ATOM     26  O   UNK A   1       5.580  -9.566   0.000  0.00  0.00    +0.000 OA
ATOM     27  C   UNK A   1       4.866  -9.978   0.000  0.00  0.00    +0.000 C 
BRANCH  27  28
ATOM     28  O   UNK A   1       4.866 -10.803   0.000  0.00  0.00    +0.000 OA
ATOM     29  H   UNK A   1       4.054 -11.272   0.000  0.00  0.00    +0.000 HD
ENDBRANCH  27  28
ENDBRANCH  25  27
BRANCH  25  30
ATOM     30  C   UNK A   1       3.437  -9.978   0.000  0.00  0.00    +0.000 C 
BRANCH  30  31
ATOM     31  C   UNK A   1       3.437 -10.803   0.000  0.00  0.00    +0.000 C 
BRANCH  31  33
ATOM     32  O   UNK A   1       2.008 -10.803   0.000  0.00  0.00    +0.000 OA
ATOM     33  C   UNK A   1       2.722 -11.216   0.000  0.00  0.00    +0.000 C 
BRANCH  33  34
ATOM     34  O   UNK A   1       2.722 -12.041   0.000  0.00  0.00    +0.000 OA
ATOM     35  H   UNK A   1       1.911 -12.509   0.000  0.00  0.00    +0.000 HD
ENDBRANCH  33  34
ENDBRANCH  31  33
ENDBRANCH  30  31
ENDBRANCH  25  30
ENDBRANCH  21  25
ENDBRANCH  18  20
BRANCH  18  37
ATOM     36  O   UNK A   1       1.293  -7.091   0.000  0.00  0.00    +0.000 OA
ATOM     37  C   UNK A   1       2.008  -7.503   0.000  0.00  0.00    +0.000 C 
BRANCH  37  38
ATOM     38  O   UNK A   1       2.008  -8.328   0.000  0.00  0.00    +0.000 OA
ATOM     39  H   UNK A   1       1.196  -8.797   0.000  0.00  0.00    +0.000 HD
ENDBRANCH  37  38
ENDBRANCH  18  37
ENDBRANCH  17  18
ENDBRANCH  16  17
ENDBRANCH  15  16
ENDBRANCH  14  15
ENDBRANCH  11  14
ENDBRANCH   9  12
ENDBRANCH   8   9
ENDBRANCH   7   8
ENDBRANCH   6   7
ENDBRANCH   5   6
ENDBRANCH   2   5
BRANCH   3  40
ATOM     40  C   UNK A   1      -2.279   1.572   0.000  0.00  0.00    +0.000 C 
BRANCH  40  41
ATOM     41  C   UNK A   1      -2.279   2.397   0.000  0.00  0.00    +0.000 C 
BRANCH  41  43
ATOM     42  C   UNK A   1      -3.708   4.047   0.000  0.00  0.00    +0.000 A 
ATOM     43  C   UNK A   1      -2.994   2.809   0.000  0.00  0.00    +0.000 A 
ATOM     44  C   UNK A   1      -2.994   3.634   0.000  0.00  0.00    +0.000 A 
ATOM     45  C   UNK A   1      -4.423   3.634   0.000  0.00  0.00    +0.000 A 
ATOM     46  C   UNK A   1      -3.708   2.397   0.000  0.00  0.00    +0.000 A 
ATOM     47  C   UNK A   1      -4.423   2.809   0.000  0.00  0.00    +0.000 A 
BRANCH  45  48
ATOM     48  O   UNK A   1      -5.137   4.047   0.000  0.00  0.00    +0.000 OA
ATOM     49  H   UNK A   1      -5.137   4.984   0.000  0.00  0.00    +0.000 HD
ENDBRANCH  45  48
BRANCH  42  50
ATOM     50  C   UNK A   1      -3.708   4.872   0.000  0.00  0.00    +0.000 C 
BRANCH  50  51
ATOM     51  N   UNK A   1      -2.994   5.284   0.000  0.00  0.00    +0.000 NA
BRANCH  51  52
ATOM     52  C   UNK A   1      -2.994   6.109   0.000  0.00  0.00    +0.000 C 
BRANCH  52  53
ATOM     53  C   UNK A   1      -2.279   6.522   0.000  0.00  0.00    +0.000 C 
BRANCH  53  54
ATOM     54  N   UNK A   1      -2.279   7.347   0.000  0.00  0.00    +0.000 NA
BRANCH  54  55
ATOM     55  C   UNK A   1      -1.565   7.759   0.000  0.00  0.00    +0.000 C 
BRANCH  55  56
ATOM     56  C   UNK A   1      -1.565   8.584   0.000  0.00  0.00    +0.000 A 
ATOM     57  C   UNK A   1      -2.279   8.997   0.000  0.00  0.00    +0.000 A 
ATOM     58  C   UNK A   1      -0.850   8.997   0.000  0.00  0.00    +0.000 A 
ATOM     59  C   UNK A   1      -2.279   9.822   0.000  0.00  0.00    +0.000 A 
ATOM     60  C   UNK A   1      -0.850   9.822   0.000  0.00  0.00    +0.000 A 
ATOM     61  C   UNK A   1      -1.565  10.234   0.000  0.00  0.00    +0.000 A 
BRANCH  58  62
ATOM     62  O   UNK A   1      -0.136   8.584   0.000  0.00  0.00    +0.000 OA
ATOM     63  H   UNK A   1      -0.136   7.647   0.000  0.00  0.00    +0.000 HD
ENDBRANCH  58  62
BRANCH  59  64
ATOM     64  C   UNK A   1      -2.994  10.234   0.000  0.00  0.00    +0.000 C 
BRANCH  64  65
ATOM     65  C   UNK A   1      -2.994  11.059   0.000  0.00  0.00    +0.000 C 
BRANCH  65  68
ATOM     66  O   UNK A   1      -3.708  12.297   0.000  0.00  0.00    +0.000 OA
ATOM     67  O   UNK A   1      -4.423  11.059   0.000  0.00  0.00    +0.000 OA
ATOM     68  C   UNK A   1      -3.708  11.472   0.000  0.00  0.00    +0.000 C 
ENDBRANCH  65  68
ENDBRANCH  64  65
ENDBRANCH  59  64
ENDBRANCH  55  56
ENDBRANCH  54  55
BRANCH  54  69
ATOM     69  C   UNK A   1      -2.994   7.759   0.000  0.00  0.00    +0.000 C 
BRANCH  69  72
ATOM     70  O   UNK A   1      -4.423   7.759   0.000  0.00  0.00    +0.000 OA
ATOM     71  O   UNK A   1      -3.708   6.522   0.000  0.00  0.00    +0.000 OA
ATOM     72  C   UNK A   1      -3.708   7.347   0.000  0.00  0.00    +0.000 C 
ENDBRANCH  69  72
ENDBRANCH  54  69
ENDBRANCH  53  54
ENDBRANCH  52  53
ENDBRANCH  51  52
BRANCH  51  73
ATOM     73  C   UNK A   1      -2.279   4.872   0.000  0.00  0.00    +0.000 C 
BRANCH  73  76
ATOM     74  O   UNK A   1      -0.850   4.872   0.000  0.00  0.00    +0.000 OA
ATOM     75  O   UNK A   1      -1.565   6.109   0.000  0.00  0.00    +0.000 OA
ATOM     76  C   UNK A   1      -1.565   5.284   0.000  0.00  0.00    +0.000 C 
ENDBRANCH  73  76
ENDBRANCH  51  73
ENDBRANCH  50  51
ENDBRANCH  42  50
ENDBRANCH  41  43
ENDBRANCH  40  41
ENDBRANCH   3  40
TORSDOF 40
