REMARK  Name = 5362129
REMARK  13 active torsions:
REMARK  status: ('A' for Active; 'I' for Inactive)
REMARK    1  A    between atoms: O_2  and  C_16
REMARK    2  A    between atoms: O_4  and  C_21
REMARK    3  A    between atoms: O_4  and  C_26
REMARK    4  A    between atoms: N_7  and  CA_17
REMARK    5  A    between atoms: N_7  and  C_19
REMARK    6  A    between atoms: CA_13  and  C_16
REMARK    7  A    between atoms: C_15  and  CA_17
REMARK    8  A    between atoms: CA_17  and  CB_18
REMARK    9  A    between atoms: C_19  and  C_20
REMARK   10  A    between atoms: C_19  and  C_21
REMARK   11  A    between atoms: C_20  and  C_22
REMARK   12  A    between atoms: C_22  and  C_23
REMARK   13  A    between atoms: C_26  and  C_29
REMARK                            x       y       z     vdW  Elec       q    Type
REMARK                         _______ _______ _______ _____ _____    ______ ____
ROOT
ATOM      1  N   ALA A   1      -0.574   2.025  -0.039  0.00  0.00    +0.000 NA
ATOM      2  H   ALA A   1      -0.446   3.034   0.045  0.00  0.00    +0.000 HD
ENDROOT
BRANCH   1   3
ATOM      3  CA  ALA A   1       0.479   1.464  -0.868  0.00  0.00    +0.000 C 
ATOM      4  CB  ALA A   1       0.458   2.067  -2.259  0.00  0.00    +0.000 C 
BRANCH   3  14
ATOM      5  O   ALA A   1       1.904   2.817   0.471  0.00  0.00    +0.000 OA
ATOM      6  N   ALA A   1       2.808   0.858  -0.364  0.00  0.00    +0.000 N 
ATOM      7  C   ALA A   1       5.039  -0.005  -0.442  0.00  0.00    +0.000 C 
ATOM      8  C   ALA A   1       4.160   1.123   0.118  0.00  0.00    +0.000 C 
ATOM      9  C   ALA A   1       4.186  -0.704  -1.498  0.00  0.00    +0.000 C 
ATOM     10  C   ALA A   1       5.424  -0.862   0.761  0.00  0.00    +0.000 C 
ATOM     11  C   ALA A   1       4.288   1.044   1.644  0.00  0.00    +0.000 C 
ATOM     12  CA  ALA A   1       2.742  -0.382  -1.128  0.00  0.00    +0.000 C 
ATOM     13  C   ALA A   1       5.493   0.148   1.894  0.00  0.00    +0.000 C 
ATOM     14  C   ALA A   1       1.787   1.782  -0.189  0.00  0.00    +0.000 C 
BRANCH  12  16
ATOM     15  OXT ALA A   1       1.766  -1.295   0.887  0.00  0.00    +0.000 OA
ATOM     16  C   ALA A   1       2.144  -1.452  -0.265  0.00  0.00    +0.000 C 
BRANCH  16  17
ATOM     17  O   ALA A   1       2.079  -2.628  -0.936  0.00  0.00    +0.000 OA
ATOM     18  H   ALA A   1       1.717  -3.350  -0.381  0.00  0.00    +0.000 HD
ENDBRANCH  16  17
ENDBRANCH  12  16
ENDBRANCH   3  14
ENDBRANCH   1   3
BRANCH   1  19
ATOM     19  C   UNK A   0      -1.889   1.758  -0.609  0.00  0.00    +0.000 C 
BRANCH  19  21
ATOM     20  O   UNK A   0      -2.681   2.910   1.393  0.00  0.00    +0.000 OA
ATOM     21  C   UNK A   0      -2.924   2.362   0.325  0.00  0.00    +0.000 C 
BRANCH  21  22
ATOM     22  O   UNK A   0      -4.168   2.201  -0.220  0.00  0.00    +0.000 OA
BRANCH  22  23
ATOM     23  C   UNK A   0      -5.253   2.731   0.549  0.00  0.00    +0.000 C 
ATOM     24  C   UNK A   0      -6.550   2.473  -0.186  0.00  0.00    +0.000 C 
ENDBRANCH  22  23
ENDBRANCH  21  22
ENDBRANCH  19  21
BRANCH  19  25
ATOM     25  C   UNK A   0      -2.147   0.251  -0.762  0.00  0.00    +0.000 C 
BRANCH  25  26
ATOM     26  C   UNK A   0      -2.130  -0.553   0.545  0.00  0.00    +0.000 C 
BRANCH  26  27
ATOM     27  C   UNK A   0      -2.449  -2.016   0.363  0.00  0.00    +0.000 A 
ATOM     28  C   UNK A   0      -3.766  -2.441   0.441  0.00  0.00    +0.000 A 
ATOM     29  C   UNK A   0      -1.419  -2.912   0.121  0.00  0.00    +0.000 A 
ATOM     30  C   UNK A   0      -4.061  -3.794   0.273  0.00  0.00    +0.000 A 
ATOM     31  C   UNK A   0      -1.713  -4.265  -0.048  0.00  0.00    +0.000 A 
ATOM     32  C   UNK A   0      -3.034  -4.706   0.028  0.00  0.00    +0.000 A 
ENDBRANCH  26  27
ENDBRANCH  25  26
ENDBRANCH  19  25
ENDBRANCH   1  19
TORSDOF 11
