REMARK  Name = 5362119
REMARK  15 active torsions:
REMARK  status: ('A' for Active; 'I' for Inactive)
REMARK    1  A    between atoms: O_2  and  C_18
REMARK    2  A    between atoms: O_4  and  C_22
REMARK    3  A    between atoms: N_7  and  CA_13
REMARK    4  A    between atoms: N_7  and  CA_16
REMARK    5  A    between atoms: NZ_8  and  CE_23
REMARK    6  A    between atoms: CA_9  and  C_18
REMARK    7  A    between atoms: CA_13  and  C_14
REMARK    8  A    between atoms: CA_13  and  CB_15
REMARK    9  A    between atoms: CB_15  and  CG_17
REMARK   10  A    between atoms: CA_16  and  C_19
REMARK   11  A    between atoms: CA_16  and  C_22
REMARK   12  A    between atoms: CG_17  and  CD_20
REMARK   13  A    between atoms: C_19  and  C_21
REMARK   14  A    between atoms: CD_20  and  CE_23
REMARK   15  A    between atoms: C_21  and  C_24
REMARK                            x       y       z     vdW  Elec       q    Type
REMARK                         _______ _______ _______ _____ _____    ______ ____
ROOT
ATOM      1  CA  UNL     1       1.404   0.569   0.030  0.00  0.00    +0.000 C 
ENDROOT
BRANCH   1   8
ATOM      2  O   UNL     1       1.040  -1.270   1.499  0.00  0.00    +0.000 OA
ATOM      3  N   UNL     1       2.430  -1.627  -0.318  0.00  0.00    +0.000 N 
ATOM      4  CA  UNL     1       2.596  -3.061  -0.121  0.00  0.00    +0.000 C 
ATOM      5  CB  UNL     1       3.185  -3.567  -1.433  0.00  0.00    +0.000 C 
ATOM      6  CD  UNL     1       3.108  -1.180  -1.531  0.00  0.00    +0.000 C 
ATOM      7  CG  UNL     1       3.963  -2.363  -1.960  0.00  0.00    +0.000 C 
ATOM      8  C   UNL     1       1.597  -0.858   0.479  0.00  0.00    +0.000 C 
BRANCH   4  10
ATOM      9  OXT UNL     1       4.443  -2.466   1.321  0.00  0.00    +0.000 OA
ATOM     10  C   UNL     1       3.548  -3.243   1.023  0.00  0.00    +0.000 C 
BRANCH  10  11
ATOM     11  O   UNL     1       3.284  -4.394   1.687  0.00  0.00    +0.000 OA
ATOM     12  H   UNL     1       3.898  -4.532   2.440  0.00  0.00    +0.000 HD
ENDBRANCH  10  11
ENDBRANCH   4  10
ENDBRANCH   1   8
BRANCH   1  13
ATOM     13  N   UNL     1       0.043   0.926   0.417  0.00  0.00    +0.000 NA
ATOM     14  H   UNL     1      -0.156   0.597   1.361  0.00  0.00    +0.000 HD
BRANCH  13  15
ATOM     15  CA  UNL     1      -0.921   0.412  -0.545  0.00  0.00    +0.000 C 
BRANCH  15  17
ATOM     16  OXT UNL     1      -0.735   2.573  -1.651  0.00  0.00    +0.000 OA
ATOM     17  C   UNL     1      -0.917   1.364  -1.728  0.00  0.00    +0.000 C 
BRANCH  17  18
ATOM     18  O   UNL     1      -1.113   0.727  -2.910  0.00  0.00    +0.000 OA
ATOM     19  H   UNL     1      -1.098   1.349  -3.668  0.00  0.00    +0.000 HD
ENDBRANCH  17  18
ENDBRANCH  15  17
BRANCH  15  20
ATOM     20  C   UNL     1      -2.307   0.350   0.111  0.00  0.00    +0.000 C 
BRANCH  20  21
ATOM     21  C   UNL     1      -3.418  -0.200  -0.798  0.00  0.00    +0.000 C 
BRANCH  21  22
ATOM     22  C   UNL     1      -4.764  -0.333  -0.130  0.00  0.00    +0.000 A 
ATOM     23  C   UNL     1      -5.107  -1.520   0.518  0.00  0.00    +0.000 A 
ATOM     24  C   UNL     1      -5.667   0.730  -0.161  0.00  0.00    +0.000 A 
ATOM     25  C   UNL     1      -6.352  -1.643   1.135  0.00  0.00    +0.000 A 
ATOM     26  C   UNL     1      -6.911   0.607   0.457  0.00  0.00    +0.000 A 
ATOM     27  C   UNL     1      -7.254  -0.580   1.105  0.00  0.00    +0.000 A 
ENDBRANCH  21  22
ENDBRANCH  20  21
ENDBRANCH  15  20
ENDBRANCH  13  15
ENDBRANCH   1  13
BRANCH   1  28
ATOM     28  CB  UNL     1       2.423   1.507   0.686  0.00  0.00    +0.000 C 
BRANCH  28  29
ATOM     29  CG  UNL     1       2.227   2.964   0.249  0.00  0.00    +0.000 C 
BRANCH  29  30
ATOM     30  CD  UNL     1       3.215   3.934   0.907  0.00  0.00    +0.000 C 
BRANCH  30  31
ATOM     31  CE  UNL     1       2.999   5.389   0.492  0.00  0.00    +0.000 C 
BRANCH  31  32
ATOM     32  NZ  UNL     1       3.961   6.253   1.169  0.00  0.00    +0.000 NA
ATOM     33  HZ1 UNL     1       4.908   5.981   0.910  0.00  0.00    +0.000 HD
ATOM     34  HZ2 UNL     1       3.840   7.212   0.845  0.00  0.00    +0.000 HD
ENDBRANCH  31  32
ENDBRANCH  30  31
ENDBRANCH  29  30
ENDBRANCH  28  29
ENDBRANCH   1  28
TORSDOF 15
