REMARK  Name = 19003
REMARK  7 active torsions:
REMARK  status: ('A' for Active; 'I' for Inactive)
REMARK    1  A    between atoms: O_3  and  C_20
REMARK    2  A    between atoms: N_7  and  CA_10
REMARK    3  A    between atoms: N_8  and  C_14
REMARK    4  A    between atoms: CA_11  and  C_20
REMARK    5  A    between atoms: C_12  and  C_15
REMARK    6  A    between atoms: C_12  and  C_16
REMARK    7  A    between atoms: C_14  and  C_19
REMARK                            x       y       z     vdW  Elec       q    Type
REMARK                         _______ _______ _______ _____ _____    ______ ____
ROOT
ATOM      1  S   UNL     1      -0.817   1.485   0.408  0.00  0.00    +0.000 S 
ATOM      2  O   UNL     1      -1.587  -2.671  -0.837  0.00  0.00    +0.000 OA
ATOM      3  N   UNL     1      -2.128  -0.753   0.428  0.00  0.00    +0.000 N 
ATOM      4  C   UNL     1      -1.056  -0.140   1.216  0.00  0.00    +0.000 C 
ATOM      5  CA  UNL     1      -0.146  -1.284   0.750  0.00  0.00    +0.000 C 
ATOM      6  CA  UNL     1      -2.969   0.093  -0.394  0.00  0.00    +0.000 C 
ATOM      7  C   UNL     1      -2.618   1.559  -0.060  0.00  0.00    +0.000 C 
ATOM      8  C   UNL     1      -1.375  -1.795  -0.029  0.00  0.00    +0.000 C 
ATOM      9  C   UNL     1      -3.392   2.144   1.129  0.00  0.00    +0.000 C 
ATOM     10  C   UNL     1      -2.777   2.463  -1.284  0.00  0.00    +0.000 C 
ENDROOT
BRANCH   5  12
ATOM     11  O   UNL     1       2.639  -1.119   1.533  0.00  0.00    +0.000 OA
ATOM     12  N   UNL     1       1.000  -0.937  -0.103  0.00  0.00    +0.000 N 
ATOM     13  C   UNL     1       2.307  -0.885   0.372  0.00  0.00    +0.000 C 
ATOM     14  H   UNL     1       0.845  -0.765  -1.093  0.00  0.00    +0.000 HD
BRANCH  13  15
ATOM     15  C   UNL     1       3.322  -0.494  -0.673  0.00  0.00    +0.000 C 
ATOM     16  C   UNL     1       3.003   0.898  -1.238  0.00  0.00    +0.000 C 
ATOM     17  C   UNL     1       4.743  -0.557  -0.092  0.00  0.00    +0.000 C 
ATOM     18  C   UNL     1       3.291   2.017  -0.234  0.00  0.00    +0.000 C 
ATOM     19  C   UNL     1       5.019   0.572   0.903  0.00  0.00    +0.000 C 
ATOM     20  C   UNL     1       4.717   1.940   0.302  0.00  0.00    +0.000 C 
BRANCH  15  21
ATOM     21  N   UNL     1       3.187  -1.492  -1.735  0.00  0.00    +0.000 NA
ATOM     22  H   UNL     1       3.469  -2.410  -1.390  0.00  0.00    +0.000 HD
ATOM     23  H   UNL     1       3.826  -1.274  -2.499  0.00  0.00    +0.000 HD
ENDBRANCH  15  21
ENDBRANCH  13  15
ENDBRANCH   5  12
BRANCH   6  25
ATOM     24  OXT UNL     1      -4.742  -1.132   0.695  0.00  0.00    +0.000 OA
ATOM     25  C   UNL     1      -4.387  -0.301  -0.128  0.00  0.00    +0.000 C 
BRANCH  25  26
ATOM     26  O   UNL     1      -5.234   0.389  -0.930  0.00  0.00    +0.000 OA
ATOM     27  H   UNL     1      -6.171   0.145  -0.770  0.00  0.00    +0.000 HD
ENDBRANCH  25  26
ENDBRANCH   6  25
TORSDOF 5
