REMARK  Name = 446598
REMARK  14 active torsions:
REMARK  status: ('A' for Active; 'I' for Inactive)
REMARK    1  A    between atoms: S_2  and  C_21
REMARK    2  A    between atoms: S_2  and  C_27
REMARK    3  A    between atoms: O_4  and  C_16
REMARK    4  A    between atoms: O_5  and  C_18
REMARK    5  A    between atoms: O_6  and  C_20
REMARK    6  A    between atoms: N_8  and  C_23
REMARK    7  A    between atoms: N_9  and  C_15
REMARK    8  A    between atoms: C_10  and  C_17
REMARK    9  A    between atoms: C_11  and  C_19
REMARK   10  A    between atoms: C_14  and  C_15
REMARK   11  A    between atoms: C_15  and  C_22
REMARK   12  A    between atoms: C_17  and  C_24
REMARK   13  A    between atoms: C_22  and  C_25
REMARK   14  A    between atoms: C_24  and  C_26
REMARK                            x       y       z     vdW  Elec       q    Type
REMARK                         _______ _______ _______ _____ _____    ______ ____
ROOT
ATOM      1  C   UNL     1       0.800  -0.958  -0.528  0.00  0.00    +0.000 C 
ENDROOT
BRANCH   1   3
ATOM      2  O   UNL     1       3.173  -0.889  -0.723  0.00  0.00    +0.000 OA
ATOM      3  C   UNL     1       2.083  -0.379   0.060  0.00  0.00    +0.000 C 
ATOM      4  C   UNL     1       2.080   1.154   0.066  0.00  0.00    +0.000 C 
ATOM      5  C   UNL     1       3.430   1.685   0.552  0.00  0.00    +0.000 C 
ATOM      6  C   UNL     1       4.565   1.072  -0.268  0.00  0.00    +0.000 C 
ATOM      7  C   UNL     1       4.474  -0.461  -0.301  0.00  0.00    +0.000 C 
BRANCH   7   8
ATOM      8  S   UNL     1       5.017  -1.279   1.247  0.00  0.00    +0.000 S 
ATOM      9  C   UNL     1       5.330  -2.918   0.560  0.00  0.00    +0.000 C 
ENDBRANCH   7   8
BRANCH   4  10
ATOM     10  O   UNL     1       1.831   1.623  -1.262  0.00  0.00    +0.000 OA
ATOM     11  H   UNL     1       2.409   1.136  -1.873  0.00  0.00    +0.000 HD
ENDBRANCH   4  10
BRANCH   5  12
ATOM     12  O   UNL     1       3.470   3.104   0.419  0.00  0.00    +0.000 OA
ATOM     13  H   UNL     1       2.730   3.467   0.935  0.00  0.00    +0.000 HD
ENDBRANCH   5  12
BRANCH   6  14
ATOM     14  O   UNL     1       5.832   1.492   0.226  0.00  0.00    +0.000 OA
ATOM     15  H   UNL     1       6.515   1.068  -0.321  0.00  0.00    +0.000 HD
ENDBRANCH   6  14
ENDBRANCH   1   3
BRANCH   1  17
ATOM     16  O   UNL     1      -1.305   0.715  -1.623  0.00  0.00    +0.000 OA
ATOM     17  N   UNL     1      -0.353  -0.429   0.166  0.00  0.00    +0.000 N 
ATOM     18  C   UNL     1      -1.307   0.364  -0.446  0.00  0.00    +0.000 C 
ATOM     19  H   UNL     1      -0.460  -0.669   1.148  0.00  0.00    +0.000 HD
BRANCH  18  22
ATOM     20  N   UNL     1      -2.966   2.016  -0.005  0.00  0.00    +0.000 NA
ATOM     21  C   UNL     1      -4.723   0.516  -0.154  0.00  0.00    +0.000 C 
ATOM     22  C   UNL     1      -2.405   0.754   0.491  0.00  0.00    +0.000 C 
ATOM     23  C   UNL     1      -3.554  -0.256   0.456  0.00  0.00    +0.000 C 
ATOM     24  C   UNL     1      -4.409   1.954   0.235  0.00  0.00    +0.000 C 
ATOM     25  C   UNL     1      -2.357   3.191   0.603  0.00  0.00    +0.000 C 
BRANCH  21  26
ATOM     26  C   UNL     1      -6.082   0.042   0.333  0.00  0.00    +0.000 C 
BRANCH  26  27
ATOM     27  C   UNL     1      -6.302  -1.438   0.028  0.00  0.00    +0.000 C 
ATOM     28  C   UNL     1      -7.673  -1.905   0.490  0.00  0.00    +0.000 C 
ENDBRANCH  26  27
ENDBRANCH  21  26
ENDBRANCH  18  22
ENDBRANCH   1  17
BRANCH   1  30
ATOM     29 CL   UNL     1       1.049  -3.195   1.077  0.00  0.00    +0.000 Cl
ATOM     30  C   UNL     1       0.795  -2.500  -0.555  0.00  0.00    +0.000 C 
ATOM     31  C   UNL     1      -0.492  -3.074  -1.144  0.00  0.00    +0.000 C 
ENDBRANCH   1  30
TORSDOF 10
