REMARK  Name = 40466888
REMARK  10 active torsions:
REMARK  status: ('A' for Active; 'I' for Inactive)
REMARK    1  A    between atoms: O_2  and  C_21
REMARK    2  A    between atoms: O_2  and  C_26
REMARK    3  A    between atoms: N_8  and  C_9
REMARK    4  A    between atoms: N_8  and  C_18
REMARK    5  A    between atoms: C_11  and  C_20
REMARK    6  A    between atoms: C_18  and  C_19
REMARK    7  A    between atoms: C_18  and  C_21
REMARK    8  A    between atoms: C_19  and  C_22
REMARK    9  A    between atoms: C_22  and  C_23
REMARK   10  A    between atoms: C_26  and  C_29
REMARK                            x       y       z     vdW  Elec       q    Type
REMARK                         _______ _______ _______ _____ _____    ______ ____
ROOT
ATOM      1  N   UNL     1      -0.408  -0.000  -0.916  0.00  0.00    +0.000 N 
ATOM      2  H   UNL     1      -0.523   1.018  -0.809  0.00  0.00    +0.000 HD
ATOM      3  H   UNL     1      -0.815  -0.217  -1.836  0.00  0.00    +0.000 HD
ENDROOT
BRANCH   1   7
ATOM      4  O   UNL     1       1.143   1.432   0.744  0.00  0.00    +0.000 OA
ATOM      5  N   UNL     1       3.086   0.219   0.410  0.00  0.00    +0.000 N 
ATOM      6  N   UNL     1       3.678  -0.856  -0.284  0.00  0.00    +0.000 NA
ATOM      7  C   UNL     1       1.054  -0.321  -0.902  0.00  0.00    +0.000 C 
ATOM      8  C   UNL     1       1.614  -0.009  -2.295  0.00  0.00    +0.000 C 
ATOM      9  C   UNL     1       3.917   1.099   1.244  0.00  0.00    +0.000 C 
ATOM     10  C   UNL     1       4.073  -0.490  -1.643  0.00  0.00    +0.000 C 
ATOM     11  C   UNL     1       2.915  -0.752  -2.610  0.00  0.00    +0.000 C 
ATOM     12  C   UNL     1       1.745   0.523   0.167  0.00  0.00    +0.000 C 
ATOM     13  C   UNL     1       4.705  -1.556   0.482  0.00  0.00    +0.000 C 
ATOM     14  C   UNL     1       5.067   0.398   1.958  0.00  0.00    +0.000 C 
ATOM     15  C   UNL     1       5.756  -0.617   1.057  0.00  0.00    +0.000 C 
BRANCH   9  18
ATOM     16  O   UNL     1       3.777   2.611  -0.557  0.00  0.00    +0.000 OA
ATOM     17  O   UNL     1       5.548   2.753   0.884  0.00  0.00    +0.000 OA
ATOM     18  C   UNL     1       4.467   2.270   0.443  0.00  0.00    +0.000 C 
ENDBRANCH   9  18
ENDBRANCH   1   7
BRANCH   1  19
ATOM     19  C   UNL     1      -1.191  -0.721   0.117  0.00  0.00    +0.000 C 
BRANCH  19  21
ATOM     20  O   UNL     1      -1.155  -2.605  -1.415  0.00  0.00    +0.000 OA
ATOM     21  C   UNL     1      -1.445  -2.149  -0.316  0.00  0.00    +0.000 C 
BRANCH  21  22
ATOM     22  O   UNL     1      -2.002  -2.852   0.713  0.00  0.00    +0.000 OA
BRANCH  22  23
ATOM     23  C   UNL     1      -2.256  -4.236   0.451  0.00  0.00    +0.000 C 
ATOM     24  C   UNL     1      -2.869  -4.867   1.682  0.00  0.00    +0.000 C 
ENDBRANCH  22  23
ENDBRANCH  21  22
ENDBRANCH  19  21
BRANCH  19  25
ATOM     25  C   UNL     1      -2.457   0.078   0.464  0.00  0.00    +0.000 C 
BRANCH  25  26
ATOM     26  C   UNL     1      -3.510   0.242  -0.644  0.00  0.00    +0.000 C 
BRANCH  26  27
ATOM     27  C   UNL     1      -4.738   1.017  -0.243  0.00  0.00    +0.000 A 
ATOM     28  C   UNL     1      -5.838   0.350   0.295  0.00  0.00    +0.000 A 
ATOM     29  C   UNL     1      -4.775   2.402  -0.411  0.00  0.00    +0.000 A 
ATOM     30  C   UNL     1      -6.976   1.068   0.666  0.00  0.00    +0.000 A 
ATOM     31  C   UNL     1      -5.912   3.119  -0.040  0.00  0.00    +0.000 A 
ATOM     32  C   UNL     1      -7.013   2.452   0.498  0.00  0.00    +0.000 A 
ENDBRANCH  26  27
ENDBRANCH  25  26
ENDBRANCH  19  25
ENDBRANCH   1  19
TORSDOF 9
