REMARK  Name = 5289469
REMARK  15 active torsions:
REMARK  status: ('A' for Active; 'I' for Inactive)
REMARK    1  A    between atoms: S_1  and  C_11
REMARK    2  A    between atoms: O_4  and  C_25
REMARK    3  A    between atoms: N_6  and  CA_9
REMARK    4  A    between atoms: N_7  and  CA_18
REMARK    5  A    between atoms: C_8  and  C_10
REMARK    6  A    between atoms: C_8  and  C_11
REMARK    7  A    between atoms: CA_9  and  CB_13
REMARK    8  A    between atoms: CA_9  and  C_16
REMARK    9  A    between atoms: C_10  and  C_12
REMARK   10  A    between atoms: C_11  and  C_14
REMARK   11  A    between atoms: C_12  and  C_15
REMARK   12  A    between atoms: CB_13  and  CG_17
REMARK   13  A    between atoms: C_15  and  C_19
REMARK   14  A    between atoms: CA_18  and  CB_22
REMARK   15  A    between atoms: CA_18  and  C_25
REMARK                            x       y       z     vdW  Elec       q    Type
REMARK                         _______ _______ _______ _____ _____    ______ ____
ROOT
ATOM      1  CA  UNL     1       0.870  -0.097   0.277  0.00  0.00    +0.000 C 
ENDROOT
BRANCH   1   3
ATOM      2  O   UNL     1      -0.581   1.167  -1.860  0.00  0.00    +0.000 OA
ATOM      3  N   UNL     1       0.177   1.169   0.333  0.00  0.00    +0.000 N 
ATOM      4  C   ACE A   0      -0.500   1.702  -0.755  0.00  0.00    +0.000 C 
ATOM      5  H   UNL     1       0.128   1.643   1.230  0.00  0.00    +0.000 HD
BRANCH   4   6
ATOM      6  C   UNL     1      -1.175   3.031  -0.432  0.00  0.00    +0.000 C 
BRANCH   6   7
ATOM      7  S   UNL     1      -0.426   4.321  -1.484  0.00  0.00    +0.000 S 
ATOM      8  H   UNL     1      -0.787   3.792  -2.663  0.00  0.00    +0.000 HD
ENDBRANCH   6   7
BRANCH   6   9
ATOM      9  C   UNL     1      -2.689   2.891  -0.643  0.00  0.00    +0.000 C 
BRANCH   9  10
ATOM     10  C   UNL     1      -3.407   1.869   0.249  0.00  0.00    +0.000 C 
BRANCH  10  11
ATOM     11  C   UNL     1      -4.920   1.822   0.027  0.00  0.00    +0.000 C 
BRANCH  11  12
ATOM     12  C   UNL     1      -5.593   0.863   1.011  0.00  0.00    +0.000 C 
ATOM     13  C   UNL     1      -7.093   0.786   0.775  0.00  0.00    +0.000 C 
ENDBRANCH  11  12
ENDBRANCH  10  11
ENDBRANCH   9  10
ENDBRANCH   6   9
ENDBRANCH   4   6
ENDBRANCH   1   3
BRANCH   1  16
ATOM     14  O   UNL     1      -1.064  -1.026   1.404  0.00  0.00    +0.000 OA
ATOM     15  N   UNL     1       0.057  -2.330  -0.157  0.00  0.00    +0.000 N 
ATOM     16  C   UNL     1      -0.149  -1.184   0.599  0.00  0.00    +0.000 C 
ATOM     17  H   UNL     1       0.837  -2.360  -0.807  0.00  0.00    +0.000 HD
BRANCH  15  18
ATOM     18  CA  UNL     1      -0.797  -3.493  -0.083  0.00  0.00    +0.000 C 
ATOM     19  CB  UNL     1      -1.935  -3.386  -1.085  0.00  0.00    +0.000 C 
BRANCH  18  21
ATOM     20  OXT UNL     1      -0.525  -5.891  -0.217  0.00  0.00    +0.000 OA
ATOM     21  C   UNL     1      -0.017  -4.779  -0.304  0.00  0.00    +0.000 C 
BRANCH  21  22
ATOM     22  O   UNL     1       1.294  -4.603  -0.594  0.00  0.00    +0.000 OA
ATOM     23  H   UNL     1       1.760  -5.457  -0.723  0.00  0.00    +0.000 HD
ENDBRANCH  21  22
ENDBRANCH  18  21
ENDBRANCH  15  18
ENDBRANCH   1  16
BRANCH   1  24
ATOM     24  CB  UNL     1       2.044  -0.158   1.260  0.00  0.00    +0.000 C 
BRANCH  24  25
ATOM     25  CG  UNL     1       3.271   0.558   0.751  0.00  0.00    +0.000 A 
ATOM     26  CD1 UNL     1       4.219  -0.132  -0.004  0.00  0.00    +0.000 A 
ATOM     27  CD2 UNL     1       3.456   1.912   1.034  0.00  0.00    +0.000 A 
ATOM     28  CE1 UNL     1       5.353   0.530  -0.475  0.00  0.00    +0.000 A 
ATOM     29  CE2 UNL     1       4.590   2.574   0.563  0.00  0.00    +0.000 A 
ATOM     30  CZ  UNL     1       5.538   1.883  -0.191  0.00  0.00    +0.000 A 
ENDBRANCH  24  25
ENDBRANCH   1  24
TORSDOF 13
