REMARK  Name = 65536
REMARK  14 active torsions:
REMARK  status: ('A' for Active; 'I' for Inactive)
REMARK    1  A    between atoms: O_3  and  C_20
REMARK    2  A    between atoms: O_3  and  C_27
REMARK    3  A    between atoms: O_5  and  C_22
REMARK    4  A    between atoms: O_7  and  C_26
REMARK    5  A    between atoms: N_11  and  CA_14
REMARK    6  A    between atoms: N_12  and  CA_25
REMARK    7  A    between atoms: CA_16  and  C_22
REMARK    8  A    between atoms: C_17  and  C_20
REMARK    9  A    between atoms: C_19  and  C_21
REMARK   10  A    between atoms: C_21  and  C_23
REMARK   11  A    between atoms: C_23  and  C_24
REMARK   12  A    between atoms: C_24  and  CA_25
REMARK   13  A    between atoms: CA_25  and  C_26
REMARK   14  A    between atoms: C_27  and  C_28
REMARK                            x       y       z     vdW  Elec       q    Type
REMARK                         _______ _______ _______ _____ _____    ______ ____
ROOT
ATOM      1  S   UNL     1      -0.880  -1.402  -0.130  0.00  0.00    +0.000 S 
ATOM      2  O   UNL     1      -0.933   3.247  -0.159  0.00  0.00    +0.000 OA
ATOM      3  N   UNL     1      -1.809   1.071  -0.400  0.00  0.00    +0.000 N 
ATOM      4  C   UNL     1      -1.037   0.089  -1.140  0.00  0.00    +0.000 C 
ATOM      5  CA  UNL     1       0.124   1.097  -1.073  0.00  0.00    +0.000 C 
ATOM      6  C   UNL     1      -0.919   2.083  -0.486  0.00  0.00    +0.000 C 
ATOM      7  CA  UNL     1      -3.034   0.824   0.130  0.00  0.00    +0.000 C 
ATOM      8  C   UNL     1      -3.506  -0.439   0.264  0.00  0.00    +0.000 C 
ATOM      9  C   UNL     1      -2.682  -1.682  -0.066  0.00  0.00    +0.000 C 
ENDROOT
BRANCH   5  11
ATOM     10  O   UNL     1       2.755   0.121  -1.764  0.00  0.00    +0.000 OA
ATOM     11  N   UNL     1       1.239   0.816  -0.151  0.00  0.00    +0.000 N 
ATOM     12  C   UNL     1       2.471   0.347  -0.590  0.00  0.00    +0.000 C 
ATOM     13  H   UNL     1       1.112   0.958   0.848  0.00  0.00    +0.000 HD
BRANCH  12  14
ATOM     14  C   UNL     1       3.431   0.115   0.564  0.00  0.00    +0.000 C 
BRANCH  14  15
ATOM     15  C   UNL     1       4.802  -0.403   0.127  0.00  0.00    +0.000 C 
BRANCH  15  16
ATOM     16  C   UNL     1       5.747  -0.617   1.320  0.00  0.00    +0.000 C 
BRANCH  16  17
ATOM     17  CA  UNL     1       7.124  -1.196   0.957  0.00  0.00    +0.000 C 
BRANCH  17  18
ATOM     18  N   UNL     1       7.036  -2.500   0.302  0.00  0.00    +0.000 NA
ATOM     19  H1  UNL     1       6.470  -3.130   0.870  0.00  0.00    +0.000 HD
ATOM     20  H2  UNL     1       6.553  -2.416  -0.591  0.00  0.00    +0.000 HD
ENDBRANCH  17  18
BRANCH  17  22
ATOM     21  OXT UNL     1       8.319  -0.540  -1.069  0.00  0.00    +0.000 OA
ATOM     22  C   UNL     1       7.917  -0.267   0.055  0.00  0.00    +0.000 C 
BRANCH  22  23
ATOM     23  O   UNL     1       8.139   0.941   0.638  0.00  0.00    +0.000 OA
ATOM     24  H   UNL     1       8.648   1.541   0.052  0.00  0.00    +0.000 HD
ENDBRANCH  22  23
ENDBRANCH  17  22
ENDBRANCH  16  17
ENDBRANCH  15  16
ENDBRANCH  14  15
ENDBRANCH  12  14
ENDBRANCH   5  11
BRANCH   7  26
ATOM     25  OXT UNL     1      -3.704   2.450   1.730  0.00  0.00    +0.000 OA
ATOM     26  C   UNL     1      -3.799   1.984   0.612  0.00  0.00    +0.000 C 
BRANCH  26  27
ATOM     27  O   UNL     1      -4.603   2.430  -0.373  0.00  0.00    +0.000 OA
ATOM     28  H   UNL     1      -5.135   3.205  -0.093  0.00  0.00    +0.000 HD
ENDBRANCH  26  27
ENDBRANCH   7  26
BRANCH   8  29
ATOM     29  C   UNL     1      -4.885  -0.790   0.767  0.00  0.00    +0.000 C 
BRANCH  29  30
ATOM     30  O   UNL     1      -5.575  -1.517  -0.228  0.00  0.00    +0.000 OA
BRANCH  30  32
ATOM     31  O   UNL     1      -7.429  -1.684   1.139  0.00  0.00    +0.000 OA
ATOM     32  C   UNL     1      -6.851  -1.910   0.085  0.00  0.00    +0.000 C 
ATOM     33  C   UNL     1      -7.456  -2.666  -1.059  0.00  0.00    +0.000 C 
ENDBRANCH  30  32
ENDBRANCH  29  30
ENDBRANCH   8  29
TORSDOF 13
