REMARK  Name = 123938
REMARK  11 active torsions:
REMARK  status: ('A' for Active; 'I' for Inactive)
REMARK    1  A    between atoms: S_1  and  C_14
REMARK    2  A    between atoms: O_3  and  C_15
REMARK    3  A    between atoms: O_4  and  C_16
REMARK    4  A    between atoms: N_7  and  C_12
REMARK    5  A    between atoms: N_8  and  C_11
REMARK    6  A    between atoms: C_9  and  C_10
REMARK    7  A    between atoms: C_9  and  C_11
REMARK    8  A    between atoms: C_10  and  C_13
REMARK    9  A    between atoms: C_11  and  C_15
REMARK   10  A    between atoms: C_12  and  C_14
REMARK   11  A    between atoms: C_12  and  C_16
REMARK                            x       y       z     vdW  Elec       q    Type
REMARK                         _______ _______ _______ _____ _____    ______ ____
ROOT
ATOM      1  O   UNK     1      -0.309   1.677  -1.188  0.00  0.00    +0.000 OA
ATOM      2  N   UNK     1      -1.392   0.100   0.130  0.00  0.00    +0.000 N 
ATOM      3  C   UNK     1      -0.282   0.782  -0.347  0.00  0.00    +0.000 C 
ATOM      4  H   UNK     1      -1.261  -0.640   0.814  0.00  0.00    +0.000 HD
ENDROOT
BRANCH   3   5
ATOM      5  C   UNK     1       1.000   0.280   0.294  0.00  0.00    +0.000 C 
BRANCH   5   6
ATOM      6  C   UNK     1       2.238   1.020  -0.218  0.00  0.00    +0.000 C 
BRANCH   6   7
ATOM      7  C   UNK     1       3.529   0.572   0.476  0.00  0.00    +0.000 C 
BRANCH   7   8
ATOM      8  N   UNK     1       4.663   1.323  -0.068  0.00  0.00    +0.000 NA
ATOM      9  H   UNK     1       4.522   2.319   0.100  0.00  0.00    +0.000 HD
ATOM     10  H   UNK     1       4.696   1.216  -1.082  0.00  0.00    +0.000 HD
ENDBRANCH   7   8
BRANCH   7  12
ATOM     11  O   UNK     1       4.415  -1.334  -0.758  0.00  0.00    +0.000 OA
ATOM     12  C   UNK     1       3.814  -0.896   0.215  0.00  0.00    +0.000 C 
BRANCH  12  13
ATOM     13  O   UNK     1       3.300  -1.700   1.182  0.00  0.00    +0.000 OA
ATOM     14  H   UNK     1       3.476  -2.648   1.001  0.00  0.00    +0.000 HD
ENDBRANCH  12  13
ENDBRANCH   7  12
ENDBRANCH   6   7
ENDBRANCH   5   6
ENDBRANCH   3   5
BRANCH   2  15
ATOM     15  C   UNK     1      -2.735   0.376  -0.323  0.00  0.00    +0.000 C 
BRANCH  15  17
ATOM     16  O   UNK     1      -4.941   0.501   0.677  0.00  0.00    +0.000 OA
ATOM     17  C   UNK     1      -3.754   0.221   0.794  0.00  0.00    +0.000 C 
BRANCH  17  18
ATOM     18  O   UNK     1      -3.217  -0.245   1.947  0.00  0.00    +0.000 OA
ATOM     19  H   UNK     1      -3.890  -0.331   2.656  0.00  0.00    +0.000 HD
ENDBRANCH  17  18
ENDBRANCH  15  17
BRANCH  15  20
ATOM     20  C   UNK     1      -3.102  -0.443  -1.563  0.00  0.00    +0.000 C 
BRANCH  20  21
ATOM     21  S   UNK     1      -3.228  -2.235  -1.249  0.00  0.00    +0.000 S 
ATOM     22  H   UNK     1      -1.958  -2.410  -0.855  0.00  0.00    +0.000 HD
ENDBRANCH  20  21
ENDBRANCH  15  20
ENDBRANCH   2  15
TORSDOF 11
