REMARK  Name = 5288988
REMARK  11 active torsions:
REMARK  status: ('A' for Active; 'I' for Inactive)
REMARK    1  A    between atoms: O_2  and  C_19
REMARK    2  A    between atoms: O_2  and  C_20
REMARK    3  A    between atoms: N_4  and  C_18
REMARK    4  A    between atoms: N_5  and  C_8
REMARK    5  A    between atoms: N_6  and  C_12
REMARK    6  A    between atoms: C_12  and  C_13
REMARK    7  A    between atoms: C_12  and  C_14
REMARK    8  A    between atoms: C_13  and  C_15
REMARK    9  A    between atoms: C_15  and  C_16
REMARK   10  A    between atoms: C_15  and  C_17
REMARK   11  A    between atoms: C_20  and  C_21
REMARK                            x       y       z     vdW  Elec       q    Type
REMARK                         _______ _______ _______ _____ _____    ______ ____
ROOT
ATOM      1  C   UNL     1       0.736   1.083   0.165  0.00  0.00    +0.000 C 
ENDROOT
BRANCH   1   4
ATOM      2  O   UNL     1       1.014  -0.453   2.020  0.00  0.00    +0.000 OA
ATOM      3  N   UNL     1       2.663  -0.359   0.388  0.00  0.00    +0.000 N 
ATOM      4  C   UNL     1       1.469   0.024   0.982  0.00  0.00    +0.000 C 
ATOM      5  H   UNL     1       2.982   0.138  -0.440  0.00  0.00    +0.000 HD
BRANCH   3   7
ATOM      6  N   UNL     1       5.574  -1.234  -0.298  0.00  0.00    +0.000 N 
ATOM      7  C   UNL     1       3.525  -1.381   0.930  0.00  0.00    +0.000 C 
ATOM      8  C   UNL     1       4.596  -0.796   1.837  0.00  0.00    +0.000 C 
ATOM      9  C   UNL     1       4.341  -2.064  -0.163  0.00  0.00    +0.000 C 
ATOM     10  C   UNL     1       5.666  -0.310   0.867  0.00  0.00    +0.000 C 
BRANCH   6  12
ATOM     11  N   UNL     1       7.281  -1.455  -2.115  0.00  0.00    +0.000 NA
ATOM     12  C   UNL     1       6.490  -1.352  -1.273  0.00  0.00    +0.000 C 
ENDBRANCH   6  12
ENDBRANCH   3   7
ENDBRANCH   1   4
BRANCH   1  14
ATOM     13  O   UNL     1      -0.843  -0.719  -1.479  0.00  0.00    +0.000 OA
ATOM     14  N   UNL     1      -0.672   0.799   0.268  0.00  0.00    +0.000 N 
ATOM     15  C   UNL     1      -1.345  -0.078  -0.561  0.00  0.00    +0.000 C 
ATOM     16  H   UNL     1      -1.198   1.227   1.025  0.00  0.00    +0.000 HD
BRANCH  15  17
ATOM     17  O   UNL     1      -2.664  -0.129  -0.210  0.00  0.00    +0.000 OA
BRANCH  17  18
ATOM     18  C   UNL     1      -3.485  -1.005  -0.992  0.00  0.00    +0.000 C 
BRANCH  18  19
ATOM     19  C   UNL     1      -4.893  -0.944  -0.479  0.00  0.00    +0.000 A 
ATOM     20  C   UNL     1      -5.309  -1.820   0.524  0.00  0.00    +0.000 A 
ATOM     21  C   UNL     1      -5.787  -0.010  -1.004  0.00  0.00    +0.000 A 
ATOM     22  C   UNL     1      -6.619  -1.763   1.001  0.00  0.00    +0.000 A 
ATOM     23  C   UNL     1      -7.096   0.047  -0.526  0.00  0.00    +0.000 A 
ATOM     24  C   UNL     1      -7.512  -0.830   0.476  0.00  0.00    +0.000 A 
ENDBRANCH  18  19
ENDBRANCH  17  18
ENDBRANCH  15  17
ENDBRANCH   1  14
BRANCH   1  25
ATOM     25  C   UNL     1       1.085   2.486   0.678  0.00  0.00    +0.000 C 
BRANCH  25  26
ATOM     26  C   UNL     1       0.361   3.639  -0.046  0.00  0.00    +0.000 C 
ATOM     27  C   UNL     1       0.717   3.617  -1.535  0.00  0.00    +0.000 C 
ATOM     28  C   UNL     1       0.706   5.006   0.545  0.00  0.00    +0.000 C 
ENDBRANCH  25  26
ENDBRANCH   1  25
TORSDOF 9
