REMARK  Name = 446411
REMARK  11 active torsions:
REMARK  status: ('A' for Active; 'I' for Inactive)
REMARK    1  A    between atoms: S_1  and  N_8
REMARK    2  A    between atoms: S_1  and  C_18
REMARK    3  A    between atoms: O_6  and  C_21
REMARK    4  A    between atoms: N_9  and  CA_15
REMARK    5  A    between atoms: C_10  and  C_14
REMARK    6  A    between atoms: CA_15  and  CB_16
REMARK    7  A    between atoms: CA_15  and  C_21
REMARK    8  A    between atoms: CB_16  and  CG_17
REMARK    9  A    between atoms: CG_17  and  CD1_19
REMARK   10  A    between atoms: CG_17  and  CD2_20
REMARK   11  A    between atoms: C_26  and  C_27
REMARK                            x       y       z     vdW  Elec       q    Type
REMARK                         _______ _______ _______ _____ _____    ______ ____
ROOT
ATOM      1  S   UNL     1      -0.293  -3.696  -0.879  0.00  0.00    +0.000 S 
ATOM      2  N   UNL     1       0.741  -1.205   0.799  0.00  0.00    +0.000 NA
ATOM      3  C   UNL     1      -0.137  -0.922  -0.370  0.00  0.00    +0.000 C 
ATOM      4  C   UNL     1       1.636  -2.384   0.666  0.00  0.00    +0.000 C 
ATOM      5  C   UNL     1      -0.103  -1.983  -1.464  0.00  0.00    +0.000 C 
ATOM      6  C   UNL     1       0.806  -3.654   0.569  0.00  0.00    +0.000 C 
ENDROOT
BRANCH   3   9
ATOM      7  O   UNL     1      -1.880  -1.395   1.187  0.00  0.00    +0.000 OA
ATOM      8  N   UNL     1      -2.273   0.156  -0.505  0.00  0.00    +0.000 N 
ATOM      9  C   ACE A   0      -1.508  -0.757   0.205  0.00  0.00    +0.000 C 
ATOM     10  H   UNL     1      -1.914   0.508  -1.388  0.00  0.00    +0.000 HD
BRANCH   8  11
ATOM     11  CA  UNL     1      -3.636   0.478  -0.169  0.00  0.00    +0.000 C 
BRANCH  11  13
ATOM     12  OXT UNL     1      -5.839  -0.474  -0.479  0.00  0.00    +0.000 OA
ATOM     13  C   UNL     1      -4.642  -0.503  -0.749  0.00  0.00    +0.000 C 
BRANCH  13  14
ATOM     14  O   UNL     1      -4.104  -1.453  -1.550  0.00  0.00    +0.000 OA
ATOM     15  H   UNL     1      -4.782  -2.080  -1.882  0.00  0.00    +0.000 HD
ENDBRANCH  13  14
ENDBRANCH  11  13
BRANCH  11  16
ATOM     16  CB  UNL     1      -3.981   1.943  -0.477  0.00  0.00    +0.000 C 
BRANCH  16  17
ATOM     17  CG  UNL     1      -3.041   3.035   0.080  0.00  0.00    +0.000 C 
ATOM     18  CD1 UNL     1      -2.987   2.924   1.608  0.00  0.00    +0.000 C 
ATOM     19  CD2 UNL     1      -1.622   2.974  -0.483  0.00  0.00    +0.000 C 
ENDBRANCH  16  17
ENDBRANCH  11  16
ENDBRANCH   8  11
ENDBRANCH   3   9
BRANCH   2  20
ATOM     20  S   UNL     1       1.407   0.157   1.597  0.00  0.00    +0.000 S 
ATOM     21  O   UNL     1       1.932  -0.270   2.871  0.00  0.00    +0.000 OA
ATOM     22  O   UNL     1       0.471   1.250   1.491  0.00  0.00    +0.000 OA
BRANCH  20  23
ATOM     23  C   UNL     1       2.767   0.488   0.525  0.00  0.00    +0.000 A 
ATOM     24  C   UNL     1       2.593   1.346  -0.550  0.00  0.00    +0.000 A 
ATOM     25  C   UNL     1       3.991  -0.113   0.774  0.00  0.00    +0.000 A 
ATOM     26  C   UNL     1       3.670   1.608  -1.398  0.00  0.00    +0.000 A 
ATOM     27  C   UNL     1       5.068   0.149  -0.074  0.00  0.00    +0.000 A 
ATOM     28  C   UNL     1       4.907   1.010  -1.160  0.00  0.00    +0.000 A 
ATOM     29  C   UNL     1       6.058   1.291  -2.065  0.00  0.00    +0.000 C 
ENDBRANCH  20  23
ENDBRANCH   2  20
TORSDOF 8
