REMARK  Name = 
REMARK  19 active torsions:
REMARK  status: ('A' for Active; 'I' for Inactive)
REMARK    1  A    between atoms: C_1  and  C_2
REMARK    2  A    between atoms: C_2  and  C_3
REMARK    3  A    between atoms: C_3  and  C_4
REMARK    4  A    between atoms: C_4  and  C_5
REMARK    5  A    between atoms: C_5  and  C_6
REMARK    6  A    between atoms: C_6  and  S_7
REMARK    7  A    between atoms: S_7  and  C_8
REMARK    8  A    between atoms: C_8  and  C_9
REMARK    9  A    between atoms: C_9  and  N_10
REMARK   10  A    between atoms: C_9  and  C_20
REMARK   11  A    between atoms: C_11  and  C_13
REMARK   12  A    between atoms: C_13  and  C_14
REMARK   13  A    between atoms: C_14  and  C_15
REMARK   14  A    between atoms: C_15  and  N_16
REMARK   15  A    between atoms: C_15  and  C_17
REMARK   16  A    between atoms: C_17  and  O_19
REMARK   17  A    between atoms: N_22  and  CA_23
REMARK   18  A    between atoms: CA_23  and  C_24
REMARK   19  A    between atoms: C_24  and  OXT_26
REMARK                            x       y       z     vdW  Elec       q    Type
REMARK                         _______ _______ _______ _____ _____    ______ ____
ROOT
ATOM      1  C   UNK A   1      -0.247   1.139   1.138  0.00  0.00    +0.000 C 
ENDROOT
BRANCH   1   2
ATOM      2  N   UNK A   1      -0.493  -0.204   0.291  0.00  0.00    +0.000 N 
ATOM      3  C   UNK A   1      -1.642  -0.936   0.739  0.00  0.00    +0.000 C 
ATOM      4  O   UNK A   1      -1.612  -1.196   1.981  0.00  0.00    +0.000 OA
ATOM      5  H   UNK A   1       0.082  -0.493  -0.453  0.00  0.00    +0.000 HD
BRANCH   3   6
ATOM      6  C   UNK A   1      -2.853  -1.172  -0.073  0.00  0.00    +0.000 C 
BRANCH   6   7
ATOM      7  C   UNK A   1      -2.923  -2.522  -0.703  0.00  0.00    +0.000 C 
BRANCH   7   8
ATOM      8  C   UNK A   1      -2.635  -3.462   0.653  0.00  0.00    +0.000 C 
BRANCH   8   9
ATOM      9  N   UNK A   1      -1.971  -4.617  -0.240  0.00  0.00    +0.000 NA
ATOM     10  H   UNK A   1      -2.556  -4.795  -1.056  0.00  0.00    +0.000 HD
ATOM     11  H   UNK A   1      -1.890  -5.470   0.313  0.00  0.00    +0.000 HD
ENDBRANCH   8   9
BRANCH   8  12
ATOM     12  C   UNK A   1      -4.115  -4.167   0.538  0.00  0.00    +0.000 C 
ATOM     13  O   UNK A   1      -5.012  -3.313   0.676  0.00  0.00    +0.000 OA
BRANCH  12  14
ATOM     14  O   UNK A   1      -4.099  -5.331   1.316  0.00  0.00    +0.000 OA
ATOM     15  H   UNK A   1      -3.417  -5.963   1.199  0.00  0.00    +0.000 HD
ENDBRANCH  12  14
ENDBRANCH   8  12
ENDBRANCH   7   8
ENDBRANCH   6   7
ENDBRANCH   3   6
ENDBRANCH   1   2
BRANCH   1  16
ATOM     16  C   UNK A   1      -0.657   2.073  -0.154  0.00  0.00    +0.000 C 
ATOM     17  O   UNK A   1      -1.924   1.954  -0.219  0.00  0.00    +0.000 OA
ATOM     18  N   GLY A   2      -0.242   3.437   0.013  0.00  0.00    +0.000 N 
ATOM     19  H   GLY A   2       0.449   3.708   0.659  0.00  0.00    +0.000 HD
BRANCH  18  20
ATOM     20  CA  GLY A   2      -0.929   4.391  -0.856  0.00  0.00    +0.000 C 
BRANCH  20  21
ATOM     21  C   GLY A   2      -1.331   5.580  -0.086  0.00  0.00    +0.000 C 
ATOM     22  O   GLY A   2      -0.442   6.414   0.206  0.00  0.00    +0.000 OA
BRANCH  21  23
ATOM     23  OXT GLY A   2      -2.665   5.783   0.272  0.00  0.00    +0.000 OA
ATOM     24  HXT GLY A   2      -3.314   5.147   0.043  0.00  0.00    +0.000 HD
ENDBRANCH  21  23
ENDBRANCH  20  21
ENDBRANCH  18  20
ENDBRANCH   1  16
BRANCH   1  25
ATOM     25  C   UNK A   1       1.377   1.192   0.738  0.00  0.00    +0.000 C 
BRANCH  25  26
ATOM     26  S   UNK A   1       1.490   0.803  -0.993  0.00  0.00    +0.000 S 
BRANCH  26  27
ATOM     27  C   UNK A   1       3.167   0.163  -1.301  0.00  0.00    +0.000 C 
BRANCH  27  28
ATOM     28  C   UNK A   1       3.910  -0.102   0.002  0.00  0.00    +0.000 C 
BRANCH  28  29
ATOM     29  C   UNK A   1       4.755  -1.341  -0.121  0.00  0.00    +0.000 C 
BRANCH  29  30
ATOM     30  C   UNK A   1       6.071  -1.222   0.633  0.00  0.00    +0.000 C 
BRANCH  30  32
ATOM     31  C   UNK A   1       7.793  -1.613  -0.363  0.00  0.00    +0.000 C 
ATOM     32  C   UNK A   1       7.227  -1.732  -0.200  0.00  0.00    +0.000 C 
ENDBRANCH  30  32
ENDBRANCH  29  30
ENDBRANCH  28  29
ENDBRANCH  27  28
ENDBRANCH  26  27
ENDBRANCH  25  26
ENDBRANCH   1  25
TORSDOF 18
