REMARK  Name = 5288145
REMARK  16 active torsions:
REMARK  status: ('A' for Active; 'I' for Inactive)
REMARK    1  A    between atoms: O_2  and  C_21
REMARK    2  A    between atoms: O_4  and  C_24
REMARK    3  A    between atoms: N_6  and  C_12
REMARK    4  A    between atoms: N_7  and  C_17
REMARK    5  A    between atoms: N_8  and  C_22
REMARK    6  A    between atoms: C_11  and  C_12
REMARK    7  A    between atoms: C_11  and  C_13
REMARK    8  A    between atoms: C_12  and  C_14
REMARK    9  A    between atoms: C_13  and  C_15
REMARK   10  A    between atoms: C_13  and  C_16
REMARK   11  A    between atoms: C_17  and  C_18
REMARK   12  A    between atoms: C_18  and  C_19
REMARK   13  A    between atoms: C_19  and  C_22
REMARK   14  A    between atoms: C_20  and  C_21
REMARK   15  A    between atoms: C_21  and  C_23
REMARK   16  A    between atoms: C_23  and  C_24
REMARK                            x       y       z     vdW  Elec       q    Type
REMARK                         _______ _______ _______ _____ _____    ______ ____
ROOT
ATOM      1  C   UNL     1      -1.425   1.618  -0.025  0.00  0.00    +0.000 C 
ENDROOT
BRANCH   1   4
ATOM      2  O   UNL     1      -0.419   1.004   2.094  0.00  0.00    +0.000 OA
ATOM      3  N   UNL     1       0.646   2.582   0.764  0.00  0.00    +0.000 N 
ATOM      4  C   UNL     1      -0.373   1.693   1.077  0.00  0.00    +0.000 C 
ATOM      5  H   UNL     1       0.597   3.111  -0.102  0.00  0.00    +0.000 HD
BRANCH   3   6
ATOM      6  C   UNL     1       1.793   2.804   1.615  0.00  0.00    +0.000 C 
BRANCH   6   7
ATOM      7  C   UNL     1       2.949   1.863   1.291  0.00  0.00    +0.000 C 
BRANCH   7   8
ATOM      8  C   UNL     1       3.431   2.002  -0.157  0.00  0.00    +0.000 C 
BRANCH   8   9
ATOM      9  C   UNL     1       4.596   1.068  -0.469  0.00  0.00    +0.000 C 
BRANCH   9  10
ATOM     10  N   UNL     1       4.244  -0.335  -0.257  0.00  0.00    +0.000 N 
ATOM     11  N   UNL     1       6.466  -1.065  -0.813  0.00  0.00    +0.000 N 
ATOM     12  N   UNL     1       4.813  -2.700  -0.223  0.00  0.00    +0.000 N 
ATOM     13  C   UNL     1       5.165  -1.370  -0.428  0.00  0.00    +0.000 C 
ATOM     14  H   UNL     1       3.295  -0.594   0.004  0.00  0.00    +0.000 HD
ATOM     15  H   UNL     1       6.776  -0.112  -0.980  0.00  0.00    +0.000 HD
ATOM     16  H   UNL     1       7.155  -1.802  -0.943  0.00  0.00    +0.000 HD
ATOM     17  H   UNL     1       3.870  -2.956   0.059  0.00  0.00    +0.000 HD
ATOM     18  H   UNL     1       5.488  -3.450  -0.348  0.00  0.00    +0.000 HD
ENDBRANCH   9  10
ENDBRANCH   8   9
ENDBRANCH   7   8
ENDBRANCH   6   7
ENDBRANCH   3   6
ENDBRANCH   1   4
BRANCH   1  20
ATOM     19  O   UNL     1      -0.206  -0.492  -1.561  0.00  0.00    +0.000 OA
ATOM     20  N   UNL     1      -1.858   0.247  -0.105  0.00  0.00    +0.000 N 
ATOM     21  C   UNL     1      -1.205  -0.706  -0.876  0.00  0.00    +0.000 C 
ATOM     22  H   UNL     1      -2.666  -0.029   0.445  0.00  0.00    +0.000 HD
BRANCH  21  23
ATOM     23  C   UNL     1      -1.869  -2.075  -0.805  0.00  0.00    +0.000 C 
BRANCH  23  24
ATOM     24  O   UNL     1      -1.200  -2.952  -1.700  0.00  0.00    +0.000 OA
ATOM     25  H   UNL     1      -1.717  -3.774  -1.747  0.00  0.00    +0.000 HD
ENDBRANCH  23  24
BRANCH  23  26
ATOM     26  C   UNL     1      -1.823  -2.645   0.615  0.00  0.00    +0.000 C 
BRANCH  26  28
ATOM     27  O   UNL     1      -3.640  -4.144  -0.015  0.00  0.00    +0.000 OA
ATOM     28  C   UNL     1      -2.860  -3.727   0.830  0.00  0.00    +0.000 C 
BRANCH  28  29
ATOM     29  O   UNL     1      -2.821  -4.205   2.102  0.00  0.00    +0.000 OA
ATOM     30  H   UNL     1      -3.488  -4.910   2.248  0.00  0.00    +0.000 HD
ENDBRANCH  28  29
ENDBRANCH  26  28
ENDBRANCH  23  26
ENDBRANCH  21  23
ENDBRANCH   1  20
BRANCH   1  31
ATOM     31  C   UNL     1      -2.584   2.575   0.281  0.00  0.00    +0.000 C 
BRANCH  31  32
ATOM     32  C   UNL     1      -3.734   2.549  -0.746  0.00  0.00    +0.000 C 
ATOM     33  C   UNL     1      -4.883   3.480  -0.358  0.00  0.00    +0.000 C 
ATOM     34  C   UNL     1      -3.201   2.935  -2.128  0.00  0.00    +0.000 C 
ENDBRANCH  31  32
ENDBRANCH   1  31
TORSDOF 14
