REMARK  Name = 
REMARK  12 active torsions:
REMARK  status: ('A' for Active; 'I' for Inactive)
REMARK    1  A    between atoms: C_1  and  C_2
REMARK    2  A    between atoms: C_2  and  C_3
REMARK    3  A    between atoms: C_2  and  C_4
REMARK    4  A    between atoms: C_4  and  C_5
REMARK    5  A    between atoms: C_5  and  N_6
REMARK    6  A    between atoms: C_5  and  B_30
REMARK    7  A    between atoms: C_7  and  C_9
REMARK    8  A    between atoms: C_9  and  C_10
REMARK    9  A    between atoms: C_9  and  N_21
REMARK   10  A    between atoms: C_10  and  C_11
REMARK   11  A    between atoms: B_30  and  O_31
REMARK   12  A    between atoms: B_30  and  O_32
REMARK                            x       y       z     vdW  Elec       q    Type
REMARK                         _______ _______ _______ _____ _____    ______ ____
ROOT
ATOM      1  C   UNL     1      -0.355  -0.338  -0.771  0.00  0.00    +0.000 C 
ENDROOT
BRANCH   1   2
ATOM      2  N   UNL     1       0.647   0.866  -0.944  0.00  0.00    +0.000 N 
ATOM      3  C   UNL     1       0.458   1.990  -0.121  0.00  0.00    +0.000 C 
ATOM      4  O   UNL     1       0.723   1.613   1.065  0.00  0.00    +0.000 OA
ATOM      5  N   UNL     1       0.740   3.311  -0.586  0.00  0.00    +0.000 N 
ATOM      6  C   UNL     1       1.774   4.130  -0.010  0.00  0.00    +0.000 C 
ATOM      7  C   UNL     1       1.762   5.445  -0.774  0.00  0.00    +0.000 C 
ATOM      8  O   UNL     1       0.442   5.876  -0.803  0.00  0.00    +0.000 OA
ATOM      9  C   UNL     1      -0.347   5.130  -1.660  0.00  0.00    +0.000 C 
ATOM     10  C   UNL     1       0.149   3.720  -1.836  0.00  0.00    +0.000 C 
ATOM     11  H   UNL     1       1.378   0.832  -1.603  0.00  0.00    +0.000 HD
ENDBRANCH   1   2
BRANCH   1  13
ATOM     12  N   UNL     1       1.742  -1.159   0.550  0.00  0.00    +0.000 N 
ATOM     13  C   UNL     1       0.826  -1.388  -0.458  0.00  0.00    +0.000 C 
ATOM     14  O   UNL     1       0.627  -2.456  -1.072  0.00  0.00    +0.000 OA
ATOM     15  H   UNL     1       1.971  -0.271   0.909  0.00  0.00    +0.000 HD
BRANCH  12  16
ATOM     16  C   UNL     1       2.365  -2.509   1.044  0.00  0.00    +0.000 C 
BRANCH  16  17
ATOM     17  C   UNL     1       3.819  -2.207   0.373  0.00  0.00    +0.000 C 
BRANCH  17  19
ATOM     18  C   UNL     1       3.831  -3.621  -1.344  0.00  0.00    +0.000 C 
ATOM     19  C   UNL     1       3.691  -2.455  -1.100  0.00  0.00    +0.000 C 
ATOM     20  C   UNL     1       4.698  -1.552  -1.786  0.00  0.00    +0.000 C 
ENDBRANCH  17  19
ENDBRANCH  16  17
BRANCH  16  21
ATOM     21  B   UNL     1       2.813  -1.880   2.563  0.00  0.00    +0.000 B 
BRANCH  21  22
ATOM     22  O   UNL     1       3.628  -0.699   2.620  0.00  0.00    +0.000 OA
ATOM     23  H   UNL     1       3.336  -0.071   1.942  0.00  0.00    +0.000 HD
ENDBRANCH  21  22
BRANCH  21  24
ATOM     24  O   UNL     1       3.152  -2.925   3.549  0.00  0.00    +0.000 OA
ATOM     25  H   UNL     1       2.554  -3.681   3.438  0.00  0.00    +0.000 HD
ENDBRANCH  21  24
ENDBRANCH  16  21
ENDBRANCH  12  16
ENDBRANCH   1  13
BRANCH   1  26
ATOM     26  C   UNL     1      -0.704  -0.072   0.819  0.00  0.00    +0.000 C 
BRANCH  26  27
ATOM     27  C   UNL     1      -2.185   0.123   0.704  0.00  0.00    +0.000 A 
ATOM     28  C   UNL     1      -2.776   1.357   0.585  0.00  0.00    +0.000 A 
ATOM     29  C   UNL     1      -4.071   1.510   0.167  0.00  0.00    +0.000 A 
ATOM     30  C   UNL     1      -4.887   0.421  -0.011  0.00  0.00    +0.000 A 
ATOM     31  C   UNL     1      -4.315  -0.818   0.009  0.00  0.00    +0.000 A 
ATOM     32  C   UNL     1      -5.101  -1.906  -0.338  0.00  0.00    +0.000 A 
ATOM     33  C   UNL     1      -4.496  -3.079  -0.719  0.00  0.00    +0.000 A 
ATOM     34  C   UNL     1      -3.148  -3.215  -0.412  0.00  0.00    +0.000 A 
ATOM     35  C   UNL     1      -2.536  -2.257   0.384  0.00  0.00    +0.000 A 
ATOM     36  C   UNL     1      -2.965  -0.955   0.311  0.00  0.00    +0.000 A 
ENDBRANCH  26  27
ENDBRANCH   1  26
TORSDOF 10
