REMARK  Name = 3038505
REMARK  14 active torsions:
REMARK  status: ('A' for Active; 'I' for Inactive)
REMARK    1  A    between atoms: O_2  and  C_19
REMARK    2  A    between atoms: O_2  and  C_27
REMARK    3  A    between atoms: O_5  and  C_38
REMARK    4  A    between atoms: N_7  and  C_18
REMARK    5  A    between atoms: N_8  and  C_28
REMARK    6  A    between atoms: C_9  and  C_12
REMARK    7  A    between atoms: C_9  and  C_16
REMARK    8  A    between atoms: C_12  and  C_15
REMARK    9  A    between atoms: C_15  and  C_17
REMARK   10  A    between atoms: C_15  and  C_19
REMARK   11  A    between atoms: C_17  and  C_20
REMARK   12  A    between atoms: C_20  and  C_24
REMARK   13  A    between atoms: C_27  and  C_33
REMARK   14  A    between atoms: C_28  and  C_38
REMARK                            x       y       z     vdW  Elec       q    Type
REMARK                         _______ _______ _______ _____ _____    ______ ____
ROOT
ATOM      1  O   UNL     1      -0.580  -2.621  -0.871  0.00  0.00    +0.000 OA
ATOM      2  N   UNL     1      -0.941  -1.670   1.224  0.00  0.00    +0.000 N 
ATOM      3  C   UNL     1      -0.258  -2.448   0.302  0.00  0.00    +0.000 C 
ATOM      4  H   UNL     1      -0.589  -1.585   2.172  0.00  0.00    +0.000 HD
ENDROOT
BRANCH   2   7
ATOM      5  O   UNL     1      -0.920   0.952   1.729  0.00  0.00    +0.000 OA
ATOM      6  N   UNL     1      -2.731   1.406   0.339  0.00  0.00    +0.000 N 
ATOM      7  C   UNL     1      -2.148  -0.946   0.909  0.00  0.00    +0.000 C 
ATOM      8  C   UNL     1      -3.305  -1.417   1.782  0.00  0.00    +0.000 C 
ATOM      9  C   UNL     1      -1.873   0.550   1.056  0.00  0.00    +0.000 C 
ATOM     10  C   UNL     1      -4.499  -0.472   1.778  0.00  0.00    +0.000 C 
ATOM     11  C   UNL     1      -4.821   0.058   0.404  0.00  0.00    +0.000 A 
ATOM     12  C   UNL     1      -3.983   0.997  -0.238  0.00  0.00    +0.000 A 
ATOM     13  C   UNL     1      -6.026  -0.331  -0.205  0.00  0.00    +0.000 A 
ATOM     14  C   UNL     1      -4.415   1.565  -1.450  0.00  0.00    +0.000 A 
ATOM     15  C   UNL     1      -6.418   0.218  -1.423  0.00  0.00    +0.000 A 
ATOM     16  C   UNL     1      -5.618   1.172  -2.040  0.00  0.00    +0.000 A 
BRANCH   6  17
ATOM     17  C   UNL     1      -2.316   2.794   0.138  0.00  0.00    +0.000 C 
BRANCH  17  19
ATOM     18  O   UNL     1      -1.048   4.072  -1.460  0.00  0.00    +0.000 OA
ATOM     19  C   UNL     1      -1.500   2.988  -1.114  0.00  0.00    +0.000 C 
BRANCH  19  20
ATOM     20  O   UNL     1      -1.315   1.848  -1.821  0.00  0.00    +0.000 OA
ATOM     21  H   UNL     1      -0.780   2.000  -2.629  0.00  0.00    +0.000 HD
ENDBRANCH  19  20
ENDBRANCH  17  19
ENDBRANCH   6  17
ENDBRANCH   2   7
BRANCH   3  22
ATOM     22  C   UNL     1       0.984  -3.073   0.886  0.00  0.00    +0.000 C 
ATOM     23  C   UNL     1       1.640  -3.995  -0.154  0.00  0.00    +0.000 C 
ATOM     24  C   UNL     1       0.582  -3.991   2.058  0.00  0.00    +0.000 C 
ATOM     25  C   UNL     1       1.052  -5.369   0.136  0.00  0.00    +0.000 C 
ATOM     26  C   UNL     1       1.003  -5.403   1.652  0.00  0.00    +0.000 C 
BRANCH  22  27
ATOM     27  C   UNL     1       1.926  -1.952   1.321  0.00  0.00    +0.000 C 
BRANCH  27  28
ATOM     28  C   UNL     1       2.282  -1.001   0.169  0.00  0.00    +0.000 C 
BRANCH  28  30
ATOM     29  O   UNL     1       4.516  -1.869  -0.238  0.00  0.00    +0.000 OA
ATOM     30  C   UNL     1       3.400  -1.604  -0.666  0.00  0.00    +0.000 C 
BRANCH  30  31
ATOM     31  O   UNL     1       2.964  -1.800  -1.944  0.00  0.00    +0.000 OA
BRANCH  31  32
ATOM     32  C   UNL     1       3.922  -2.370  -2.841  0.00  0.00    +0.000 C 
ATOM     33  C   UNL     1       3.289  -2.523  -4.208  0.00  0.00    +0.000 C 
ENDBRANCH  31  32
ENDBRANCH  30  31
ENDBRANCH  28  30
BRANCH  28  34
ATOM     34  C   UNL     1       2.720   0.369   0.723  0.00  0.00    +0.000 C 
BRANCH  34  35
ATOM     35  C   UNL     1       2.676   1.516  -0.300  0.00  0.00    +0.000 C 
BRANCH  35  36
ATOM     36  C   UNL     1       3.170   2.837   0.234  0.00  0.00    +0.000 A 
ATOM     37  C   UNL     1       2.277   3.722   0.838  0.00  0.00    +0.000 A 
ATOM     38  C   UNL     1       4.519   3.173   0.125  0.00  0.00    +0.000 A 
ATOM     39  C   UNL     1       2.733   4.944   1.332  0.00  0.00    +0.000 A 
ATOM     40  C   UNL     1       4.976   4.395   0.619  0.00  0.00    +0.000 A 
ATOM     41  C   UNL     1       4.083   5.280   1.222  0.00  0.00    +0.000 A 
ENDBRANCH  35  36
ENDBRANCH  34  35
ENDBRANCH  28  34
ENDBRANCH  27  28
ENDBRANCH  22  27
ENDBRANCH   3  22
TORSDOF 13
