REMARK  Name = 122662112
REMARK  8 active torsions:
REMARK  status: ('A' for Active; 'I' for Inactive)
REMARK    1  A    between atoms: S_1  and  N_8
REMARK    2  A    between atoms: S_1  and  C_16
REMARK    3  A    between atoms: O_5  and  C_12
REMARK    4  A    between atoms: O_5  and  C_25
REMARK    5  A    between atoms: N_9  and  C_15
REMARK    6  A    between atoms: N_9  and  C_26
REMARK    7  A    between atoms: C_10  and  C_14
REMARK    8  A    between atoms: C_11  and  C_15
REMARK                            x       y       z     vdW  Elec       q    Type
REMARK                         _______ _______ _______ _____ _____    ______ ____
ROOT
ATOM      1  N   UNL     1      -0.736   0.759   0.565  0.00  0.00    +0.000 N 
ATOM      2  C   UNL     1      -1.009  -0.396  -0.119  0.00  0.00    +0.000 A 
ATOM      3  C   UNL     1      -2.683   1.072  -0.456  0.00  0.00    +0.000 A 
ATOM      4  C   UNL     1      -2.215  -0.229  -0.764  0.00  0.00    +0.000 A 
ATOM      5  C   UNL     1      -1.748   1.661   0.367  0.00  0.00    +0.000 A 
ENDROOT
BRANCH   2   8
ATOM      6  F   UNL     1      -1.242  -2.441   1.790  0.00  0.00    +0.000 F 
ATOM      7  F   UNL     1       2.378  -4.821  -0.108  0.00  0.00    +0.000 F 
ATOM      8  C   UNL     1      -0.135  -1.544  -0.114  0.00  0.00    +0.000 A 
ATOM      9  C   UNL     1      -0.285  -2.536   0.855  0.00  0.00    +0.000 A 
ATOM     10  C   UNL     1       0.864  -1.658  -1.081  0.00  0.00    +0.000 A 
ATOM     11  C   UNL     1       0.564  -3.643   0.857  0.00  0.00    +0.000 A 
ATOM     12  C   UNL     1       1.713  -2.765  -1.079  0.00  0.00    +0.000 A 
ATOM     13  C   UNL     1       1.563  -3.757  -0.110  0.00  0.00    +0.000 A 
ENDBRANCH   2   8
BRANCH   1  14
ATOM     14  S   UNL     1       0.608   1.062   1.504  0.00  0.00    +0.000 S 
ATOM     15  O   UNL     1       1.230  -0.190   2.005  0.00  0.00    +0.000 OA
ATOM     16  O   UNL     1       0.275   2.084   2.521  0.00  0.00    +0.000 OA
BRANCH  14  18
ATOM     17  F   UNL     1       4.780   0.730  -1.481  0.00  0.00    +0.000 F 
ATOM     18  C   UNL     1       1.929   1.785   0.518  0.00  0.00    +0.000 A 
ATOM     19  C   UNL     1       2.861   0.960  -0.112  0.00  0.00    +0.000 A 
ATOM     20  C   UNL     1       2.019   3.170   0.383  0.00  0.00    +0.000 A 
ATOM     21  C   UNL     1       3.884   1.521  -0.876  0.00  0.00    +0.000 A 
ATOM     22  C   UNL     1       3.042   3.731  -0.382  0.00  0.00    +0.000 A 
ATOM     23  C   UNL     1       3.975   2.907  -1.011  0.00  0.00    +0.000 A 
ENDBRANCH  14  18
ENDBRANCH   1  14
BRANCH   4  24
ATOM     24  O   UNL     1      -2.810  -1.153  -1.536  0.00  0.00    +0.000 OA
ATOM     25  C   UNL     1      -3.713  -2.071  -0.902  0.00  0.00    +0.000 C 
ENDBRANCH   4  24
BRANCH   3  26
ATOM     26  C   UNL     1      -3.938   1.690  -0.928  0.00  0.00    +0.000 C 
BRANCH  26  27
ATOM     27  N   UNL     1      -4.983   1.722   0.105  0.00  0.00    +0.000 NA
ATOM     28  C   UNL     1      -6.187   2.349  -0.411  0.00  0.00    +0.000 C 
ATOM     29  H   UNL     1      -5.201   0.768   0.393  0.00  0.00    +0.000 HD
ENDBRANCH  26  27
ENDBRANCH   3  26
TORSDOF 6
