REMARK  Name = 
REMARK  33 active torsions:
REMARK  status: ('A' for Active; 'I' for Inactive)
REMARK    1  A    between atoms: C_1  and  N_2
REMARK    2  A    between atoms: N_2  and  C_3
REMARK    3  A    between atoms: C_3  and  C_4
REMARK    4  A    between atoms: N_6  and  CA_7
REMARK    5  A    between atoms: CA_7  and  CB_8
REMARK    6  A    between atoms: CA_7  and  C_15
REMARK    7  A    between atoms: CB_8  and  CG_9
REMARK    8  A    between atoms: CG_9  and  CD_10
REMARK    9  A    between atoms: CD_10  and  NE_11
REMARK   10  A    between atoms: N_17  and  CA_18
REMARK   11  A    between atoms: CA_18  and  C_19
REMARK   12  A    between atoms: CA_18  and  CB_63
REMARK   13  A    between atoms: N_21  and  CA_22
REMARK   14  A    between atoms: CA_22  and  CB_23
REMARK   15  A    between atoms: CA_22  and  C_31
REMARK   16  A    between atoms: CB_23  and  CG_24
REMARK   17  A    between atoms: CZ_27  and  OH_28
REMARK   18  A    between atoms: N_33  and  CA_34
REMARK   19  A    between atoms: CA_34  and  C_35
REMARK   20  A    between atoms: CA_34  and  CB_60
REMARK   21  A    between atoms: N_37  and  CA_38
REMARK   22  A    between atoms: CA_38  and  CB_39
REMARK   23  A    between atoms: CA_38  and  C_45
REMARK   24  A    between atoms: CB_39  and  CG_40
REMARK   25  A    between atoms: CA_51  and  C_52
REMARK   26  A    between atoms: N_54  and  CA_55
REMARK   27  A    between atoms: CA_55  and  CB_56
REMARK   28  A    between atoms: CA_55  and  C_57
REMARK   29  A    between atoms: C_57  and  OXT_59
REMARK   30  A    between atoms: CB_60  and  CG1_61
REMARK   31  A    between atoms: CB_60  and  CG2_62
REMARK   32  A    between atoms: CB_63  and  CG1_64
REMARK   33  A    between atoms: CB_63  and  CG2_65
REMARK                            x       y       z     vdW  Elec       q    Type
REMARK                         _______ _______ _______ _____ _____    ______ ____
ROOT
ATOM      1  CA  TYR A   3       1.259  -1.209  -0.445  0.00  0.00    +0.000 C 
ENDROOT
BRANCH   1   4
ATOM      2  C   VAL A   2       2.965   0.035  -1.893  0.00  0.00    +0.000 C 
ATOM      3  O   VAL A   2       2.767  -0.568  -2.856  0.00  0.00    +0.000 OA
ATOM      4  N   TYR A   3       2.516  -0.304  -0.651  0.00  0.00    +0.000 N 
ATOM      5  H   TYR A   3       2.998   0.031   0.139  0.00  0.00    +0.000 HD
BRANCH   2   6
ATOM      6  CA  VAL A   2       3.880   1.320  -1.625  0.00  0.00    +0.000 C 
BRANCH   6   9
ATOM      7  C   ARG A   1       5.992   0.328  -1.780  0.00  0.00    +0.000 C 
ATOM      8  O   ARG A   1       5.814  -0.825  -2.162  0.00  0.00    +0.000 OA
ATOM      9  N   VAL A   2       5.027   0.974  -2.648  0.00  0.00    +0.000 N 
ATOM     10  H   VAL A   2       5.075   1.149  -3.616  0.00  0.00    +0.000 HD
BRANCH   7  11
ATOM     11  CA  ARG A   1       7.459   0.993  -1.816  0.00  0.00    +0.000 C 
BRANCH  11  14
ATOM     12  C   UNK A   0       7.107   0.437   0.668  0.00  0.00    +0.000 C 
ATOM     13  O   UNK A   0       6.823  -0.732   0.363  0.00  0.00    +0.000 OA
ATOM     14  N   ARG A   1       7.456   1.375  -0.287  0.00  0.00    +0.000 N 
ATOM     15  H   ARG A   1       7.703   2.287  -0.010  0.00  0.00    +0.000 HD
BRANCH  12  16
ATOM     16  C   UNK A   0       7.342   0.717   2.122  0.00  0.00    +0.000 C 
BRANCH  16  18
ATOM     17  C   UNK A   0       6.702  -1.296   2.509  0.00  0.00    +0.000 C 
ATOM     18  N   UNK A   0       7.068  -0.472   2.917  0.00  0.00    +0.000 NA
ATOM     19  H   UNK A   0       7.952  -0.737   3.352  0.00  0.00    +0.000 HD
ENDBRANCH  16  18
ENDBRANCH  12  16
ENDBRANCH  11  14
BRANCH  11  20
ATOM     20  CB  ARG A   1       8.276  -0.408  -1.532  0.00  0.00    +0.000 C 
BRANCH  20  21
ATOM     21  CG  ARG A   1       9.701   0.109  -1.666  0.00  0.00    +0.000 C 
BRANCH  21  22
ATOM     22  CD  ARG A   1      10.210   0.802  -0.444  0.00  0.00    +0.000 C 
BRANCH  22  23
ATOM     23  NE  ARG A   1      10.926  -0.142   0.373  0.00  0.00    +0.000 N 
ATOM     24  CZ  ARG A   1      10.812  -0.260   1.774  0.00  0.00    +0.000 C 
ATOM     25  NH1 ARG A   1      10.397   0.794   2.412  0.00  0.00    +0.000 NA
ATOM     26  NH2 ARG A   1      10.666  -1.573   2.330  0.00  0.00    +0.000 N 
ATOM     27  HE  ARG A   1      11.546  -0.756  -0.083  0.00  0.00    +0.000 HD
ATOM     28  HH1 ARG A   1      10.507   1.687   2.012  0.00  0.00    +0.000 HD
ATOM     29 HH21 ARG A   1      10.987  -2.358   1.829  0.00  0.00    +0.000 HD
ATOM     30 HH22 ARG A   1      10.244  -1.690   3.211  0.00  0.00    +0.000 HD
ENDBRANCH  22  23
ENDBRANCH  21  22
ENDBRANCH  20  21
ENDBRANCH  11  20
ENDBRANCH   7  11
ENDBRANCH   6   9
BRANCH   6  31
ATOM     31  CB  VAL A   2       3.102   2.269  -2.719  0.00  0.00    +0.000 C 
ATOM     32  CG1 VAL A   2       3.125   1.630  -4.042  0.00  0.00    +0.000 C 
ATOM     33  CG2 VAL A   2       4.040   3.465  -2.681  0.00  0.00    +0.000 C 
ENDBRANCH   6  31
ENDBRANCH   2   6
ENDBRANCH   1   4
BRANCH   1  34
ATOM     34  C   TYR A   3       0.484  -0.792  -1.799  0.00  0.00    +0.000 C 
ATOM     35  O   TYR A   3       0.223   0.378  -2.013  0.00  0.00    +0.000 OA
ATOM     36  N   VAL A   4      -0.563  -1.748  -1.917  0.00  0.00    +0.000 N 
ATOM     37  H   VAL A   4      -0.604  -2.543  -1.338  0.00  0.00    +0.000 HD
BRANCH  36  38
ATOM     38  CA  VAL A   4      -1.653  -1.473  -3.019  0.00  0.00    +0.000 C 
BRANCH  38  39
ATOM     39  C   VAL A   4      -2.609  -0.690  -1.991  0.00  0.00    +0.000 C 
ATOM     40  O   VAL A   4      -2.534   0.564  -2.213  0.00  0.00    +0.000 OA
ATOM     41  N   HIS A   5      -3.991  -0.996  -1.970  0.00  0.00    +0.000 N 
ATOM     42  H   HIS A   5      -4.483  -1.435  -2.701  0.00  0.00    +0.000 HD
BRANCH  41  43
ATOM     43  CA  HIS A   5      -4.628  -0.530  -0.603  0.00  0.00    +0.000 C 
BRANCH  43  44
ATOM     44  C   HIS A   5      -6.003  -0.016  -1.272  0.00  0.00    +0.000 C 
ATOM     45  O   HIS A   5      -5.921   0.591  -2.359  0.00  0.00    +0.000 OA
ATOM     46  N   PRO A   6      -6.741   0.682  -0.258  0.00  0.00    +0.000 N 
ATOM     47  CD  PRO A   6      -7.617   1.795  -0.372  0.00  0.00    +0.000 C 
ATOM     48  CG  PRO A   6      -8.052   2.085   1.036  0.00  0.00    +0.000 C 
ATOM     49  CB  PRO A   6      -7.396   1.070   1.907  0.00  0.00    +0.000 C 
ATOM     50  CA  PRO A   6      -7.287  -0.225   0.904  0.00  0.00    +0.000 C 
BRANCH  50  51
ATOM     51  C   PRO A   6      -8.824  -0.074   0.430  0.00  0.00    +0.000 C 
ATOM     52  O   PRO A   6      -8.942  -0.601  -0.704  0.00  0.00    +0.000 OA
ATOM     53  N   ALA A   7      -9.768  -0.359   1.444  0.00  0.00    +0.000 N 
ATOM     54  H   ALA A   7      -9.779   0.112   2.309  0.00  0.00    +0.000 HD
BRANCH  53  55
ATOM     55  CA  ALA A   7     -10.799  -1.492   1.078  0.00  0.00    +0.000 C 
ATOM     56  CB  ALA A   7     -11.305  -1.634   2.637  0.00  0.00    +0.000 C 
BRANCH  55  57
ATOM     57  C   ALA A   7     -11.962  -0.423   0.741  0.00  0.00    +0.000 C 
ATOM     58  O   ALA A   7     -11.625   0.358  -0.202  0.00  0.00    +0.000 OA
BRANCH  57  59
ATOM     59  OXT ALA A   7     -13.128  -1.151   0.469  0.00  0.00    +0.000 OA
ATOM     60  HXT ALA A   7     -13.461  -1.756   1.103  0.00  0.00    +0.000 HD
ENDBRANCH  57  59
ENDBRANCH  55  57
ENDBRANCH  53  55
ENDBRANCH  50  51
ENDBRANCH  43  44
BRANCH  43  61
ATOM     61  CB  HIS A   5      -3.985   0.983  -0.657  0.00  0.00    +0.000 C 
BRANCH  61  62
ATOM     62  CG  HIS A   5      -3.370   1.121   0.695  0.00  0.00    +0.000 A 
ATOM     63  CD2 HIS A   5      -2.662   0.183   1.425  0.00  0.00    +0.000 A 
ATOM     64  NE2 HIS A   5      -2.420   0.740   2.637  0.00  0.00    +0.000 N 
ATOM     65  CE1 HIS A   5      -3.333   1.725   2.794  0.00  0.00    +0.000 A 
ATOM     66  ND1 HIS A   5      -3.608   2.139   1.547  0.00  0.00    +0.000 NA
ATOM     67  HE2 HIS A   5      -1.718   0.479   3.276  0.00  0.00    +0.000 HD
ENDBRANCH  61  62
ENDBRANCH  43  61
ENDBRANCH  41  43
ENDBRANCH  38  39
BRANCH  38  68
ATOM     68  CB  VAL A   4      -2.350  -2.940  -2.758  0.00  0.00    +0.000 C 
ATOM     69  CG1 VAL A   4      -2.535  -3.086  -1.272  0.00  0.00    +0.000 C 
ATOM     70  CG2 VAL A   4      -1.268  -3.927  -3.159  0.00  0.00    +0.000 C 
ENDBRANCH  38  68
ENDBRANCH  36  38
ENDBRANCH   1  34
BRANCH   1  71
ATOM     71  CB  TYR A   3       0.538  -0.023   0.449  0.00  0.00    +0.000 C 
BRANCH  71  72
ATOM     72  CG  TYR A   3       1.232   0.026   1.732  0.00  0.00    +0.000 A 
ATOM     73  CD1 TYR A   3       0.488  -0.310   2.858  0.00  0.00    +0.000 A 
ATOM     74  CE1 TYR A   3       1.122  -0.869   3.961  0.00  0.00    +0.000 A 
ATOM     75  CZ  TYR A   3       2.509  -0.959   3.936  0.00  0.00    +0.000 A 
ATOM     76  CE2 TYR A   3       3.173  -0.155   3.016  0.00  0.00    +0.000 A 
ATOM     77  CD2 TYR A   3       2.496   0.483   1.981  0.00  0.00    +0.000 A 
BRANCH  75  78
ATOM     78  OH  TYR A   3       3.183  -1.962   4.638  0.00  0.00    +0.000 OA
ATOM     79  HH  TYR A   3       2.720  -2.495   5.254  0.00  0.00    +0.000 HD
ENDBRANCH  75  78
ENDBRANCH  71  72
ENDBRANCH   1  71
TORSDOF 27
