REMARK  Name = 25011732
REMARK  7 active torsions:
REMARK  status: ('A' for Active; 'I' for Inactive)
REMARK    1  A    between atoms: N_5  and  C_15
REMARK    2  A    between atoms: N_6  and  C_13
REMARK    3  A    between atoms: C_7  and  C_12
REMARK    4  A    between atoms: C_11  and  C_13
REMARK    5  A    between atoms: C_13  and  C_14
REMARK    6  A    between atoms: C_14  and  C_16
REMARK    7  A    between atoms: C_15  and  C_17
REMARK                            x       y       z     vdW  Elec       q    Type
REMARK                         _______ _______ _______ _____ _____    ______ ____
ROOT
ATOM      1  O   UNL     1      -1.524  -1.555  -1.557  0.00  0.00    +0.000 OA
ATOM      2  N   UNL     1      -1.064  -0.291   0.326  0.00  0.00    +0.000 N 
ATOM      3  C   UNL     1       0.003   0.506  -0.265  0.00  0.00    +0.000 C 
ATOM      4  C   UNL     1       0.200   1.667   0.703  0.00  0.00    +0.000 C 
ATOM      5  C   UNL     1      -0.205   1.078   2.052  0.00  0.00    +0.000 C 
ATOM      6  C   UNL     1      -1.347   0.138   1.693  0.00  0.00    +0.000 C 
ATOM      7  C   UNL     1      -1.793  -1.217  -0.403  0.00  0.00    +0.000 C 
ENDROOT
BRANCH   3  10
ATOM      8  O   UNL     1       1.421  -1.268   0.470  0.00  0.00    +0.000 OA
ATOM      9  N   UNL     1       2.050  -0.018  -1.390  0.00  0.00    +0.000 N 
ATOM     10  C   UNL     1       1.218  -0.368  -0.341  0.00  0.00    +0.000 C 
ATOM     11  H   UNL     1       1.799   0.766  -1.985  0.00  0.00    +0.000 HD
BRANCH   9  12
ATOM     12  C   UNL     1       3.299  -0.691  -1.667  0.00  0.00    +0.000 C 
BRANCH  12  14
ATOM     13 CL   UNL     1       6.741  -0.846   2.238  0.00  0.00    +0.000 Cl
ATOM     14  C   UNL     1       4.452  -0.056  -0.946  0.00  0.00    +0.000 A 
ATOM     15  C   UNL     1       4.997  -0.674   0.180  0.00  0.00    +0.000 A 
ATOM     16  C   UNL     1       4.979   1.153  -1.402  0.00  0.00    +0.000 A 
ATOM     17  C   UNL     1       6.068  -0.083   0.850  0.00  0.00    +0.000 A 
ATOM     18  C   UNL     1       6.050   1.743  -0.732  0.00  0.00    +0.000 A 
ATOM     19  C   UNL     1       6.595   1.125   0.394  0.00  0.00    +0.000 A 
ENDBRANCH  12  14
ENDBRANCH   9  12
ENDBRANCH   3  10
BRANCH   7  20
ATOM     20  C   UNL     1      -2.973  -1.825   0.313  0.00  0.00    +0.000 C 
BRANCH  20  21
ATOM     21  N   UNL     1      -2.661  -3.244   0.431  0.00  0.00    +0.000 NA
ATOM     22  H   UNL     1      -1.855  -3.370   1.042  0.00  0.00    +0.000 HD
ATOM     23  H   UNL     1      -3.436  -3.731   0.882  0.00  0.00    +0.000 HD
ENDBRANCH  20  21
BRANCH  20  24
ATOM     24  C   UNL     1      -4.267  -1.604  -0.469  0.00  0.00    +0.000 C 
BRANCH  24  25
ATOM     25  C   UNL     1      -4.842  -0.221  -0.267  0.00  0.00    +0.000 A 
ATOM     26  C   UNL     1      -5.746   0.013   0.769  0.00  0.00    +0.000 A 
ATOM     27  C   UNL     1      -4.469   0.821  -1.116  0.00  0.00    +0.000 A 
ATOM     28  C   UNL     1      -6.277   1.289   0.956  0.00  0.00    +0.000 A 
ATOM     29  C   UNL     1      -5.000   2.097  -0.929  0.00  0.00    +0.000 A 
ATOM     30  C   UNL     1      -5.904   2.331   0.107  0.00  0.00    +0.000 A 
ENDBRANCH  24  25
ENDBRANCH  20  24
ENDBRANCH   7  20
TORSDOF 7
