REMARK  Name = 25113616
REMARK  7 active torsions:
REMARK  status: ('A' for Active; 'I' for Inactive)
REMARK    1  A    between atoms: N_4  and  C_15
REMARK    2  A    between atoms: C_7  and  C_11
REMARK    3  A    between atoms: C_12  and  C_13
REMARK    4  A    between atoms: C_13  and  C_14
REMARK    5  A    between atoms: C_14  and  C_17
REMARK    6  A    between atoms: C_15  and  C_16
REMARK    7  A    between atoms: C_22  and  C_23
REMARK                            x       y       z     vdW  Elec       q    Type
REMARK                         _______ _______ _______ _____ _____    ______ ____
ROOT
ATOM      1  O   UNL     1       0.976  -0.231  -1.046  0.00  0.00    +0.000 OA
ATOM      2  N   UNL     1       0.097  -1.143   0.907  0.00  0.00    +0.000 N 
ATOM      3  C   UNL     1       0.945  -0.327   0.178  0.00  0.00    +0.000 C 
ATOM      4  H   UNL     1       0.136  -1.121   1.922  0.00  0.00    +0.000 HD
ENDROOT
BRANCH   3   7
ATOM      5  O   UNL     1       3.968  -1.387   0.559  0.00  0.00    +0.000 OA
ATOM      6  N   UNL     1       3.071   0.732   0.308  0.00  0.00    +0.000 N 
ATOM      7  C   UNL     1       1.847   0.485   1.059  0.00  0.00    +0.000 C 
ATOM      8  C   UNL     1       1.274   1.870   1.333  0.00  0.00    +0.000 C 
ATOM      9  C   UNL     1       1.770   2.700   0.151  0.00  0.00    +0.000 C 
ATOM     10  C   UNL     1       3.152   2.125  -0.123  0.00  0.00    +0.000 C 
ATOM     11  C   UNL     1       4.072  -0.218   0.182  0.00  0.00    +0.000 C 
BRANCH  11  12
ATOM     12  C   UNL     1       5.343   0.260  -0.474  0.00  0.00    +0.000 C 
BRANCH  12  13
ATOM     13  C   UNL     1       6.356  -0.869  -0.552  0.00  0.00    +0.000 C 
ATOM     14  C   UNL     1       7.686  -0.429  -1.150  0.00  0.00    +0.000 C 
ENDBRANCH  12  13
ENDBRANCH  11  12
ENDBRANCH   3   7
BRANCH   2  15
ATOM     15  C   UNL     1      -0.886  -2.008   0.296  0.00  0.00    +0.000 C 
BRANCH  15  16
ATOM     16  C   UNL     1      -2.207  -1.319   0.115  0.00  0.00    +0.000 A 
ATOM     17  C   UNL     1      -3.042  -1.112   1.213  0.00  0.00    +0.000 A 
ATOM     18  C   UNL     1      -2.600  -0.885  -1.151  0.00  0.00    +0.000 A 
ATOM     19  C   UNL     1      -4.270  -0.472   1.045  0.00  0.00    +0.000 A 
ATOM     20  C   UNL     1      -3.829  -0.246  -1.319  0.00  0.00    +0.000 A 
ATOM     21  C   UNL     1      -4.663  -0.039  -0.221  0.00  0.00    +0.000 A 
BRANCH  21  24
ATOM     22  N   UNL     1      -6.799   0.850   0.682  0.00  0.00    +0.000 N 
ATOM     23  N   UNL     1      -6.316   1.034  -1.597  0.00  0.00    +0.000 NA
ATOM     24  C   UNL     1      -5.944   0.629  -0.396  0.00  0.00    +0.000 C 
ATOM     25  H   UNL     1      -6.592   0.572   1.633  0.00  0.00    +0.000 HD
ATOM     26  H   UNL     1      -7.689   1.316   0.540  0.00  0.00    +0.000 HD
ATOM     27  H   UNL     1      -7.239   1.475  -1.516  0.00  0.00    +0.000 HD
ENDBRANCH  21  24
ENDBRANCH  15  16
ENDBRANCH   2  15
TORSDOF 6
