REMARK  Name = 24963035
REMARK  7 active torsions:
REMARK  status: ('A' for Active; 'I' for Inactive)
REMARK    1  A    between atoms: O_1  and  C_9
REMARK    2  A    between atoms: O_1  and  C_18
REMARK    3  A    between atoms: N_5  and  C_20
REMARK    4  A    between atoms: C_8  and  C_19
REMARK    5  A    between atoms: C_17  and  C_18
REMARK    6  A    between atoms: C_20  and  C_21
REMARK    7  A    between atoms: C_26  and  C_27
REMARK                            x       y       z     vdW  Elec       q    Type
REMARK                         _______ _______ _______ _____ _____    ______ ____
ROOT
ATOM      1  O   UNL     1       0.273   0.152  -1.007  0.00  0.00    +0.000 OA
ATOM      2  N   UNL     1       1.109   0.934   1.020  0.00  0.00    +0.000 N 
ATOM      3  C   UNL     1       0.308   0.136   0.221  0.00  0.00    +0.000 C 
ATOM      4  H   UNL     1       1.080   0.816   2.029  0.00  0.00    +0.000 HD
ENDROOT
BRANCH   3   7
ATOM      5  O   UNL     1      -2.772   0.961   0.705  0.00  0.00    +0.000 OA
ATOM      6  N   UNL     1      -1.745  -1.064   0.257  0.00  0.00    +0.000 N 
ATOM      7  C   UNL     1      -0.533  -0.809   1.024  0.00  0.00    +0.000 C 
ATOM      8  C   UNL     1       0.129  -2.175   1.167  0.00  0.00    +0.000 C 
ATOM      9  C   UNL     1      -0.324  -2.921  -0.086  0.00  0.00    +0.000 C 
ATOM     10  C   UNL     1      -1.741  -2.413  -0.302  0.00  0.00    +0.000 C 
ATOM     11  C   UNL     1      -2.806  -0.172   0.222  0.00  0.00    +0.000 C 
BRANCH  11  12
ATOM     12  C   UNL     1      -4.049  -0.667  -0.473  0.00  0.00    +0.000 C 
BRANCH  12  13
ATOM     13  O   UNL     1      -5.005   0.359  -0.368  0.00  0.00    +0.000 OA
BRANCH  13  14
ATOM     14  C   UNL     1      -6.235   0.011  -0.991  0.00  0.00    +0.000 C 
ATOM     15  C   UNL     1      -7.028   1.274  -1.287  0.00  0.00    +0.000 C 
ATOM     16  C   UNL     1      -7.131  -0.736  -0.014  0.00  0.00    +0.000 C 
ATOM     17  C   UNL     1      -7.670   1.645   0.049  0.00  0.00    +0.000 C 
ATOM     18  C   UNL     1      -7.708   0.361   0.877  0.00  0.00    +0.000 C 
ENDBRANCH  13  14
ENDBRANCH  12  13
ENDBRANCH  11  12
ENDBRANCH   3   7
BRANCH   2  19
ATOM     19  C   UNL     1       2.030   1.913   0.489  0.00  0.00    +0.000 C 
BRANCH  19  20
ATOM     20  C   UNL     1       3.390   1.328   0.242  0.00  0.00    +0.000 A 
ATOM     21  C   UNL     1       4.247   1.074   1.313  0.00  0.00    +0.000 A 
ATOM     22  C   UNL     1       3.798   1.040  -1.061  0.00  0.00    +0.000 A 
ATOM     23  C   UNL     1       5.510   0.531   1.082  0.00  0.00    +0.000 A 
ATOM     24  C   UNL     1       5.062   0.497  -1.292  0.00  0.00    +0.000 A 
ATOM     25  C   UNL     1       5.918   0.242  -0.220  0.00  0.00    +0.000 A 
BRANCH  25  28
ATOM     26  N   UNL     1       8.115  -0.586   0.588  0.00  0.00    +0.000 N 
ATOM     27  N   UNL     1       7.622  -0.591  -1.696  0.00  0.00    +0.000 NA
ATOM     28  C   UNL     1       7.236  -0.322  -0.461  0.00  0.00    +0.000 C 
ATOM     29  H   UNL     1       7.901  -0.411   1.562  0.00  0.00    +0.000 HD
ATOM     30  H   UNL     1       9.031  -0.979   0.400  0.00  0.00    +0.000 HD
ATOM     31  H   UNL     1       8.572  -0.978  -1.660  0.00  0.00    +0.000 HD
ENDBRANCH  25  28
ENDBRANCH  19  20
ENDBRANCH   2  19
TORSDOF 7
