REMARK  Name = 
REMARK  20 active torsions:
REMARK  status: ('A' for Active; 'I' for Inactive)
REMARK    1  A    between atoms: C_1  and  C_2
REMARK    2  A    between atoms: C_2  and  C_3
REMARK    3  A    between atoms: C_2  and  C_4
REMARK    4  A    between atoms: C_4  and  C_5
REMARK    5  A    between atoms: C_5  and  C_6
REMARK    6  A    between atoms: N_8  and  C_9
REMARK    7  A    between atoms: C_9  and  C_10
REMARK    8  A    between atoms: C_9  and  C_28
REMARK    9  A    between atoms: N_12  and  C_13
REMARK   10  A    between atoms: C_13  and  C_14
REMARK   11  A    between atoms: C_13  and  C_21
REMARK   12  A    between atoms: C_14  and  C_15
REMARK   13  A    between atoms: C_15  and  C_16
REMARK   14  A    between atoms: C_16  and  N_17
REMARK   15  A    between atoms: N_17  and  C_18
REMARK   16  A    between atoms: C_18  and  N_19
REMARK   17  A    between atoms: C_18  and  N_20
REMARK   18  A    between atoms: C_21  and  C_23
REMARK   19  A    between atoms: C_28  and  C_29
REMARK   20  A    between atoms: C_28  and  C_30
REMARK                            x       y       z     vdW  Elec       q    Type
REMARK                         _______ _______ _______ _____ _____    ______ ____
ROOT
ATOM      1  C   UNL     1       1.043   0.268   0.250  0.00  0.00    +0.000 C 
ENDROOT
BRANCH   1   4
ATOM      2  C   UNL     1      -1.138  -0.448  -0.566  0.00  0.00    +0.000 C 
ATOM      3  O   UNL     1      -1.399  -1.059   0.515  0.00  0.00    +0.000 OA
ATOM      4  N   UNL     1       0.235  -0.415  -0.942  0.00  0.00    +0.000 N 
ATOM      5  H   UNL     1       0.615  -0.753  -1.784  0.00  0.00    +0.000 HD
BRANCH   2   6
ATOM      6  C   UNL     1      -2.067  -1.151  -1.713  0.00  0.00    +0.000 C 
BRANCH   6   9
ATOM      7  C   UNL     1      -3.531   0.379  -0.252  0.00  0.00    +0.000 C 
ATOM      8  O   UNL     1      -2.736   1.316  -0.483  0.00  0.00    +0.000 OA
ATOM      9  N   UNL     1      -3.460  -0.720  -1.076  0.00  0.00    +0.000 N 
ATOM     10  H   UNL     1      -4.272  -1.241  -1.272  0.00  0.00    +0.000 HD
BRANCH   7  11
ATOM     11  C   UNL     1      -4.613   0.496   0.778  0.00  0.00    +0.000 C 
BRANCH  11  12
ATOM     12  C   UNL     1      -5.559  -0.692   0.663  0.00  0.00    +0.000 C 
BRANCH  12  14
ATOM     13  C   UNL     1      -6.849   0.551   0.201  0.00  0.00    +0.000 C 
ATOM     14  C   UNL     1      -6.846  -0.068   0.139  0.00  0.00    +0.000 C 
ATOM     15  C   UNL     1      -8.054  -0.816   0.649  0.00  0.00    +0.000 C 
ENDBRANCH  12  14
ENDBRANCH  11  12
ENDBRANCH   7  11
ENDBRANCH   6   9
BRANCH   6  16
ATOM     16  C   UNL     1      -2.003   0.205  -2.679  0.00  0.00    +0.000 C 
ATOM     17  C   UNL     1      -0.688  -0.039  -3.419  0.00  0.00    +0.000 C 
ATOM     18  C   UNL     1      -3.083  -0.052  -3.727  0.00  0.00    +0.000 C 
ENDBRANCH   6  16
ENDBRANCH   2   6
ENDBRANCH   1   4
BRANCH   1  19
ATOM     19  C   UNL     1       2.117   0.916  -0.788  0.00  0.00    +0.000 C 
ATOM     20  O   UNL     1       2.001   2.176  -0.851  0.00  0.00    +0.000 OA
BRANCH  19  21
ATOM     21  C   UNL     1       3.304   0.228  -1.130  0.00  0.00    +0.000 A 
ATOM     22  N   UNL     1       4.572   0.698  -1.052  0.00  0.00    +0.000 NA
ATOM     23  C   UNL     1       5.475  -0.268  -0.989  0.00  0.00    +0.000 A 
ATOM     24  C   UNL     1       5.285  -1.258  -1.927  0.00  0.00    +0.000 A 
ATOM     25  S   UNL     1       3.575  -1.177  -2.081  0.00  0.00    +0.000 S 
ENDBRANCH  19  21
ENDBRANCH   1  19
BRANCH   1  26
ATOM     26  C   UNL     1       1.907  -1.128   0.519  0.00  0.00    +0.000 C 
BRANCH  26  27
ATOM     27  C   UNL     1       2.772  -0.863   1.697  0.00  0.00    +0.000 C 
BRANCH  27  28
ATOM     28  C   UNL     1       2.394   0.295   2.538  0.00  0.00    +0.000 C 
BRANCH  28  29
ATOM     29  N   UNL     1       3.375   0.834   3.387  0.00  0.00    +0.000 NA
ATOM     30  H   UNL     1       2.926   1.018   4.284  0.00  0.00    +0.000 HD
BRANCH  29  31
ATOM     31  C   UNL     1       4.542   0.073   3.653  0.00  0.00    +0.000 C 
BRANCH  31  32
ATOM     32  N   UNL     1       5.099   0.514   4.921  0.00  0.00    +0.000 NA
ATOM     33  H   UNL     1       4.431   0.329   5.669  0.00  0.00    +0.000 HD
ATOM     34  H   UNL     1       5.292   1.515   4.877  0.00  0.00    +0.000 HD
ENDBRANCH  31  32
BRANCH  31  35
ATOM     35  N   UNL     1       4.330  -1.352   3.767  0.00  0.00    +0.000 NA
ATOM     36  H   UNL     1       3.719  -1.542   4.561  0.00  0.00    +0.000 HD
ATOM     37  H   UNL     1       5.226  -1.819   3.909  0.00  0.00    +0.000 HD
ENDBRANCH  31  35
ENDBRANCH  29  31
ENDBRANCH  28  29
ENDBRANCH  27  28
ENDBRANCH  26  27
ENDBRANCH   1  26
TORSDOF 16
