REMARK  Name = 
REMARK  19 active torsions:
REMARK  status: ('A' for Active; 'I' for Inactive)
REMARK    1  A    between atoms: C_1  and  C_2
REMARK    2  A    between atoms: C_2  and  C_3
REMARK    3  A    between atoms: C_3  and  C_4
REMARK    4  A    between atoms: C_4  and  CA_5
REMARK    5  A    between atoms: CA_5  and  C_6
REMARK    6  A    between atoms: CA_5  and  N_8
REMARK    7  A    between atoms: C_9  and  CA_11
REMARK    8  A    between atoms: CA_11  and  CB_12
REMARK    9  A    between atoms: CA_11  and  N_16
REMARK   10  A    between atoms: CB_12  and  CG_13
REMARK   11  A    between atoms: CG_13  and  CD1_14
REMARK   12  A    between atoms: CG_13  and  CD2_15
REMARK   13  A    between atoms: C_17  and  CA_19
REMARK   14  A    between atoms: CA_19  and  CB_20
REMARK   15  A    between atoms: CA_19  and  N_24
REMARK   16  A    between atoms: CB_20  and  CG_21
REMARK   17  A    between atoms: CG_21  and  CD1_22
REMARK   18  A    between atoms: CG_21  and  CD2_23
REMARK   19  A    between atoms: C_25  and  C_26
REMARK                            x       y       z     vdW  Elec       q    Type
REMARK                         _______ _______ _______ _____ _____    ______ ____
ROOT
ATOM      1  CA  LEU A   1       0.377  -0.741   1.340  0.00  0.00    +0.000 C 
ENDROOT
BRANCH   1   3
ATOM      2  N   LEU A   1       2.326   0.431   0.437  0.00  0.00    +0.000 N 
ATOM      3  C   LEU A   1       1.826  -0.906   0.633  0.00  0.00    +0.000 C 
ATOM      4  O   LEU A   1       1.927  -1.590  -0.377  0.00  0.00    +0.000 OA
ATOM      5  H   LEU A   1       1.791   1.257   0.400  0.00  0.00    +0.000 HD
BRANCH   2   6
ATOM      6  CA  LEU A   1       3.898   0.322   0.292  0.00  0.00    +0.000 C 
BRANCH   6   7
ATOM      7  C   LEU A   1       4.116   0.877   1.803  0.00  0.00    +0.000 C 
ATOM      8  O   LEU A   1       5.287   0.995   2.093  0.00  0.00    +0.000 OA
ENDBRANCH   6   7
BRANCH   6   9
ATOM      9  C   LEU A   1       4.008   1.843  -0.348  0.00  0.00    +0.000 C 
BRANCH   9  10
ATOM     10  C   LEU A   1       5.496   1.854  -0.684  0.00  0.00    +0.000 C 
BRANCH  10  12
ATOM     11  C   LEU A   1       4.830   0.736  -2.723  0.00  0.00    +0.000 C 
ATOM     12  C   LEU A   1       5.723   1.805  -2.173  0.00  0.00    +0.000 C 
ENDBRANCH  10  12
ENDBRANCH   9  10
ENDBRANCH   6   9
ENDBRANCH   2   6
ENDBRANCH   1   3
BRANCH   1  13
ATOM     13  N   LEU A   1      -0.416  -0.659  -0.034  0.00  0.00    +0.000 N 
ATOM     14  C   LEU A   1      -1.738  -0.218   0.313  0.00  0.00    +0.000 C 
ATOM     15  O   LEU A   1      -2.303  -0.472   1.363  0.00  0.00    +0.000 OA
ATOM     16  H   LEU A   1      -0.074  -0.866  -0.933  0.00  0.00    +0.000 HD
BRANCH  14  17
ATOM     17  CA  LEU A   1      -2.536   0.538  -0.873  0.00  0.00    +0.000 C 
BRANCH  17  18
ATOM     18  N   LEU A   1      -3.956   0.438  -0.171  0.00  0.00    +0.000 N 
ATOM     19  C   UNK A   0      -4.669  -0.753  -0.520  0.00  0.00    +0.000 C 
ATOM     20  C   UNK A   0      -5.608  -1.435   0.405  0.00  0.00    +0.000 C 
ATOM     21  O   UNK A   0      -4.697  -1.127  -1.717  0.00  0.00    +0.000 OA
ATOM     22  H   LEU A   1      -4.309   1.123   0.441  0.00  0.00    +0.000 HD
ENDBRANCH  17  18
BRANCH  17  23
ATOM     23  CB  LEU A   1      -2.207   2.011  -0.194  0.00  0.00    +0.000 C 
BRANCH  23  24
ATOM     24  CG  LEU A   1      -3.407   2.821  -0.209  0.00  0.00    +0.000 C 
ATOM     25  CD1 LEU A   1      -4.311   2.792  -1.361  0.00  0.00    +0.000 C 
ATOM     26  CD2 LEU A   1      -3.815   3.560   0.995  0.00  0.00    +0.000 C 
ENDBRANCH  23  24
ENDBRANCH  17  23
ENDBRANCH  14  17
ENDBRANCH   1  13
BRANCH   1  27
ATOM     27  CB  LEU A   1       0.116  -2.360   1.514  0.00  0.00    +0.000 C 
BRANCH  27  28
ATOM     28  CG  LEU A   1       0.108  -3.050   0.261  0.00  0.00    +0.000 C 
ATOM     29  CD1 LEU A   1       0.747  -4.423   0.443  0.00  0.00    +0.000 C 
ATOM     30  CD2 LEU A   1      -1.123  -3.290  -0.508  0.00  0.00    +0.000 C 
ENDBRANCH  27  28
ENDBRANCH   1  27
TORSDOF 13
