REMARK  Name = 478379
REMARK  9 active torsions:
REMARK  status: ('A' for Active; 'I' for Inactive)
REMARK    1  A    between atoms: O_4  and  N_8
REMARK    2  A    between atoms: N_6  and  C_9
REMARK    3  A    between atoms: C_11  and  C_13
REMARK    4  A    between atoms: C_11  and  C_21
REMARK    5  A    between atoms: C_11  and  C_23
REMARK    6  A    between atoms: C_13  and  C_18
REMARK    7  A    between atoms: C_18  and  C_29
REMARK    8  A    between atoms: C_18  and  C_30
REMARK    9  A    between atoms: C_23  and  C_33
REMARK                            x       y       z     vdW  Elec       q    Type
REMARK                         _______ _______ _______ _____ _____    ______ ____
ROOT
ATOM      1  O   UNL     1       0.299   0.653  -2.039  0.00  0.00    +0.000 OA
ATOM      2  N   UNL     1       3.970  -0.143   1.124  0.00  0.00    +0.000 N 
ATOM      3  N   UNL     1       0.959   2.270  -0.503  0.00  0.00    +0.000 N 
ATOM      4  C   UNL     1      -0.284   0.356   0.290  0.00  0.00    +0.000 C 
ATOM      5  C   UNL     1       0.423  -0.981   0.557  0.00  0.00    +0.000 C 
ATOM      6  C   UNL     1       1.916  -0.879   0.643  0.00  0.00    +0.000 A 
ATOM      7  C   UNL     1       5.034   0.685   1.671  0.00  0.00    +0.000 C 
ATOM      8  C   UNL     1       2.870  -1.657  -0.093  0.00  0.00    +0.000 A 
ATOM      9  C   UNL     1       4.145  -1.191   0.243  0.00  0.00    +0.000 A 
ATOM     10  C   UNL     1       5.689   1.621   0.644  0.00  0.00    +0.000 C 
ATOM     11  C   UNL     1       2.643  -0.010   1.435  0.00  0.00    +0.000 A 
ATOM     12  C   UNL     1       5.172   3.065   0.652  0.00  0.00    +0.000 C 
ATOM     13  C   UNL     1       3.693   3.268   0.325  0.00  0.00    +0.000 C 
ATOM     14  C   UNL     1       3.292   2.801  -1.080  0.00  0.00    +0.000 C 
ATOM     15  C   UNL     1       0.337   1.093  -0.892  0.00  0.00    +0.000 C 
ATOM     16  C   UNL     1       1.811   3.061  -1.374  0.00  0.00    +0.000 C 
ATOM     17  C   UNL     1       2.761  -2.713  -1.024  0.00  0.00    +0.000 A 
ATOM     18  C   UNL     1       5.311  -1.753  -0.303  0.00  0.00    +0.000 A 
ATOM     19  C   UNL     1       3.918  -3.276  -1.573  0.00  0.00    +0.000 A 
ATOM     20  C   UNL     1       5.175  -2.802  -1.214  0.00  0.00    +0.000 A 
ATOM     21  H   UNL     1       0.867   2.585   0.458  0.00  0.00    +0.000 HD
ENDROOT
BRANCH   4  23
ATOM     22  O   UNL     1      -2.489   0.257   2.124  0.00  0.00    +0.000 OA
ATOM     23  N   UNL     1      -1.670   0.146  -0.042  0.00  0.00    +0.000 N 
ATOM     24  C   UNL     1      -2.671   0.114   0.916  0.00  0.00    +0.000 C 
ATOM     25  H   UNL     1      -1.913   0.002  -1.018  0.00  0.00    +0.000 HD
BRANCH  24  26
ATOM     26  C   UNL     1      -4.073  -0.118   0.352  0.00  0.00    +0.000 C 
BRANCH  26  27
ATOM     27  C   UNL     1      -4.198  -1.474  -0.370  0.00  0.00    +0.000 C 
BRANCH  27  28
ATOM     28  C   UNL     1      -3.857  -2.708   0.493  0.00  0.00    +0.000 C 
ATOM     29  C   UNL     1      -3.946  -4.016  -0.293  0.00  0.00    +0.000 C 
ATOM     30  C   UNL     1      -4.798  -2.768   1.700  0.00  0.00    +0.000 C 
ENDBRANCH  27  28
ENDBRANCH  26  27
BRANCH  26  31
ATOM     31  C   UNL     1      -4.466   1.044  -0.578  0.00  0.00    +0.000 C 
BRANCH  31  34
ATOM     32  O   UNL     1      -6.614   0.608  -1.560  0.00  0.00    +0.000 OA
ATOM     33  N   UNL     1      -6.497   2.032   0.258  0.00  0.00    +0.000 N 
ATOM     34  C   UNL     1      -5.971   1.190  -0.688  0.00  0.00    +0.000 C 
ATOM     35  H   UNL     1      -5.977   2.613   0.906  0.00  0.00    +0.000 HD
BRANCH  33  36
ATOM     36  O   UNL     1      -7.883   2.225   0.201  0.00  0.00    +0.000 OA
ATOM     37  H   UNL     1      -8.175   1.568   0.855  0.00  0.00    +0.000 HD
ENDBRANCH  33  36
ENDBRANCH  31  34
ENDBRANCH  26  31
ENDBRANCH  24  26
ENDBRANCH   4  23
TORSDOF 7
