REMARK  Name = 9887557
REMARK  7 active torsions:
REMARK  status: ('A' for Active; 'I' for Inactive)
REMARK    1  A    between atoms: N_4  and  C_17
REMARK    2  A    between atoms: N_5  and  C_24
REMARK    3  A    between atoms: N_6  and  C_16
REMARK    4  A    between atoms: C_9  and  C_12
REMARK    5  A    between atoms: C_12  and  C_16
REMARK    6  A    between atoms: C_16  and  C_22
REMARK    7  A    between atoms: C_17  and  C_23
REMARK                            x       y       z     vdW  Elec       q    Type
REMARK                         _______ _______ _______ _____ _____    ______ ____
ROOT
ATOM      1  C   UNL     1       0.451   1.242  -0.124  0.00  0.00    +0.000 C 
ENDROOT
BRANCH   1   4
ATOM      2  O   UNL     1      -5.884   2.184   0.516  0.00  0.00    +0.000 OA
ATOM      3  O   UNL     1      -1.802   0.352  -1.557  0.00  0.00    +0.000 OA
ATOM      4  N   UNL     1      -0.910   1.682   0.086  0.00  0.00    +0.000 N 
ATOM      5  N   UNL     1      -3.233   1.720  -0.350  0.00  0.00    +0.000 N 
ATOM      6  C   UNL     1      -1.971   1.192  -0.667  0.00  0.00    +0.000 C 
ATOM      7  C   UNL     1      -3.519   2.718   0.691  0.00  0.00    +0.000 C 
ATOM      8  C   UNL     1      -4.379   1.391  -1.201  0.00  0.00    +0.000 C 
ATOM      9  C   UNL     1      -4.806   2.375   1.433  0.00  0.00    +0.000 C 
ATOM     10  C   UNL     1      -5.612   1.091  -0.363  0.00  0.00    +0.000 C 
ATOM     11  H   UNL     1      -1.059   2.340   0.838  0.00  0.00    +0.000 HD
ENDBRANCH   1   4
BRANCH   1  14
ATOM     12  O   UNL     1       0.621  -0.005   1.948  0.00  0.00    +0.000 OA
ATOM     13  N   UNL     1       0.856  -1.134  -0.066  0.00  0.00    +0.000 N 
ATOM     14  C   UNL     1       0.664  -0.010   0.719  0.00  0.00    +0.000 C 
ATOM     15  H   UNL     1       0.871  -1.039  -1.077  0.00  0.00    +0.000 HD
BRANCH  13  17
ATOM     16  N   UNL     1      -1.142  -4.181  -0.526  0.00  0.00    +0.000 NA
ATOM     17  C   UNL     1       1.030  -2.460   0.500  0.00  0.00    +0.000 C 
ATOM     18  C   UNL     1      -0.199  -2.853   1.341  0.00  0.00    +0.000 C 
ATOM     19  C   UNL     1       1.232  -3.489  -0.626  0.00  0.00    +0.000 C 
ATOM     20  C   UNL     1      -1.433  -3.156   0.484  0.00  0.00    +0.000 C 
ATOM     21  C   UNL     1      -0.055  -3.753  -1.416  0.00  0.00    +0.000 C 
ATOM     22  C   UNL     1      -2.343  -4.494  -1.299  0.00  0.00    +0.000 C 
BRANCH  17  24
ATOM     23  N   UNL     1       3.167  -2.406   2.044  0.00  0.00    +0.000 NA
ATOM     24  C   UNL     1       2.227  -2.430   1.365  0.00  0.00    +0.000 C 
ENDBRANCH  17  24
ENDBRANCH  13  17
ENDBRANCH   1  14
BRANCH   1  25
ATOM     25  C   UNL     1       1.467   2.321   0.253  0.00  0.00    +0.000 C 
BRANCH  25  26
ATOM     26  C   UNL     1       2.911   1.860   0.063  0.00  0.00    +0.000 C 
ATOM     27  C   UNL     1       3.184   1.528  -1.411  0.00  0.00    +0.000 C 
ATOM     28  C   UNL     1       3.892   2.924   0.574  0.00  0.00    +0.000 C 
ATOM     29  C   UNL     1       4.637   1.114  -1.635  0.00  0.00    +0.000 C 
ATOM     30  C   UNL     1       5.343   2.508   0.345  0.00  0.00    +0.000 C 
ATOM     31  C   UNL     1       5.609   2.170  -1.118  0.00  0.00    +0.000 C 
ENDBRANCH  25  26
ENDBRANCH   1  25
TORSDOF 6
