REMARK  Name = 65944
REMARK  3 active torsions:
REMARK  status: ('A' for Active; 'I' for Inactive)
REMARK    1  A    between atoms: O_4  and  C_16
REMARK    2  A    between atoms: C_8  and  C_11
REMARK    3  A    between atoms: C_9  and  C_16
REMARK                            x       y       z     vdW  Elec       q    Type
REMARK                         _______ _______ _______ _____ _____    ______ ____
ROOT
ATOM      1  S   UNK     1      -3.037   2.054  -0.252  0.00  0.00    +0.000 S 
ATOM      2  O   UNK     1       0.628  -0.998   1.044  0.00  0.00    +0.000 OA
ATOM      3  N   UNK     1      -0.934   0.526   0.258  0.00  0.00    +0.000 N 
ATOM      4  C   UNK     1      -2.095  -0.221   0.733  0.00  0.00    +0.000 C 
ATOM      5  C   UNK     1       0.358   0.048   0.452  0.00  0.00    +0.000 C 
ATOM      6  C   UNK     1      -3.245   0.741   0.977  0.00  0.00    +0.000 C 
ATOM      7  C   UNK     1      -1.263   1.763  -0.442  0.00  0.00    +0.000 C 
ENDROOT
BRANCH   5  10
ATOM      8  O   UNK     1       4.593  -0.530   0.698  0.00  0.00    +0.000 OA
ATOM      9  N   UNK     1       2.609   0.713   0.731  0.00  0.00    +0.000 N 
ATOM     10  C   UNK     1       1.465   0.902  -0.116  0.00  0.00    +0.000 C 
ATOM     11  C   UNK     1       1.939   0.423  -1.475  0.00  0.00    +0.000 C 
ATOM     12  C   UNK     1       3.026  -0.603  -1.156  0.00  0.00    +0.000 C 
ATOM     13  C   UNK     1       3.550  -0.155   0.186  0.00  0.00    +0.000 C 
ATOM     14  H   UNK     1       2.708   1.134   1.649  0.00  0.00    +0.000 HD
ENDBRANCH   5  10
BRANCH   4  16
ATOM     15  O   UNK     1      -2.235  -1.076  -1.528  0.00  0.00    +0.000 OA
ATOM     16  C   UNK     1      -2.417  -1.234  -0.330  0.00  0.00    +0.000 C 
BRANCH  16  17
ATOM     17  O   UNK     1      -2.942  -2.355   0.221  0.00  0.00    +0.000 OA
ATOM     18  H   UNK     1      -3.161  -3.029  -0.457  0.00  0.00    +0.000 HD
ENDBRANCH  16  17
ENDBRANCH   4  16
TORSDOF 3
