REMARK  Name = 
REMARK  33 active torsions:
REMARK  status: ('A' for Active; 'I' for Inactive)
REMARK    1  A    between atoms: CD1_1  and  CG1_2
REMARK    2  A    between atoms: CG1_2  and  CB_3
REMARK    3  A    between atoms: CB_3  and  CG2_4
REMARK    4  A    between atoms: CB_3  and  CA_5
REMARK    5  A    between atoms: CA_5  and  N_6
REMARK    6  A    between atoms: CA_5  and  C_45
REMARK    7  A    between atoms: C_7  and  CA_9
REMARK    8  A    between atoms: CA_9  and  CB_10
REMARK    9  A    between atoms: CA_9  and  N_18
REMARK   10  A    between atoms: CB_10  and  CG_11
REMARK   11  A    between atoms: CZ_14  and  OH_15
REMARK   12  A    between atoms: C_19  and  CA_21
REMARK   13  A    between atoms: CA_21  and  N_22
REMARK   14  A    between atoms: CA_21  and  CB_42
REMARK   15  A    between atoms: C_23  and  CA_25
REMARK   16  A    between atoms: CA_25  and  CB_26
REMARK   17  A    between atoms: CA_25  and  N_33
REMARK   18  A    between atoms: CB_26  and  CG_27
REMARK   19  A    between atoms: CG_27  and  CD_28
REMARK   20  A    between atoms: CD_28  and  NE_29
REMARK   21  A    between atoms: C_34  and  CA_36
REMARK   22  A    between atoms: CA_36  and  N_37
REMARK   23  A    between atoms: CA_36  and  CB_38
REMARK   24  A    between atoms: CB_38  and  CG_39
REMARK   25  A    between atoms: CG_39  and  OD2_41
REMARK   26  A    between atoms: CB_42  and  CG1_43
REMARK   27  A    between atoms: CB_42  and  CG2_44
REMARK   28  A    between atoms: N_47  and  CA_48
REMARK   29  A    between atoms: CA_48  and  CB_49
REMARK   30  A    between atoms: CA_48  and  C_55
REMARK   31  A    between atoms: CB_49  and  CG_50
REMARK   32  A    between atoms: CA_61  and  C_62
REMARK   33  A    between atoms: C_62  and  OXT_64
REMARK                            x       y       z     vdW  Elec       q    Type
REMARK                         _______ _______ _______ _____ _____    ______ ____
ROOT
ATOM      1  CA  TYR A   4      -0.193   0.143   0.239  0.00  0.00    +0.000 C 
ENDROOT
BRANCH   1   3
ATOM      2  N   ILE A   5      -2.539  -0.989  -0.205  0.00  0.00    +0.000 N 
ATOM      3  C   TYR A   4      -1.454  -0.846   0.445  0.00  0.00    +0.000 C 
ATOM      4  O   TYR A   4      -2.099   0.244   0.795  0.00  0.00    +0.000 OA
ATOM      5  H   ILE A   5      -2.955  -0.136  -0.469  0.00  0.00    +0.000 HD
BRANCH   2   6
ATOM      6  CA  ILE A   5      -3.319  -2.208  -0.653  0.00  0.00    +0.000 C 
BRANCH   6   7
ATOM      7  C   ILE A   5      -4.816  -1.663  -0.383  0.00  0.00    +0.000 C 
ATOM      8  O   ILE A   5      -5.492  -2.354  -1.221  0.00  0.00    +0.000 OA
ATOM      9  N   HIS A   6      -5.048  -0.310  -0.393  0.00  0.00    +0.000 N 
ATOM     10  H   HIS A   6      -4.346   0.378  -0.341  0.00  0.00    +0.000 HD
BRANCH   9  11
ATOM     11  CA  HIS A   6      -6.596  -0.008  -0.499  0.00  0.00    +0.000 C 
BRANCH  11  12
ATOM     12  C   HIS A   6      -6.295   1.284  -1.400  0.00  0.00    +0.000 C 
ATOM     13  O   HIS A   6      -6.435   0.818  -2.577  0.00  0.00    +0.000 OA
ATOM     14  N   PRO A   7      -6.796   2.562  -1.196  0.00  0.00    +0.000 N 
ATOM     15  CD  PRO A   7      -6.078   3.500  -2.090  0.00  0.00    +0.000 C 
ATOM     16  CG  PRO A   7      -6.853   4.708  -1.843  0.00  0.00    +0.000 C 
ATOM     17  CB  PRO A   7      -6.817   4.837  -0.426  0.00  0.00    +0.000 C 
ATOM     18  CA  PRO A   7      -6.732   3.315   0.188  0.00  0.00    +0.000 C 
BRANCH  18  19
ATOM     19  C   PRO A   7      -8.321   3.331   0.475  0.00  0.00    +0.000 C 
ATOM     20  O   PRO A   7      -8.546   3.753   1.646  0.00  0.00    +0.000 OA
BRANCH  19  21
ATOM     21  OXT PRO A   7      -9.206   2.913  -0.403  0.00  0.00    +0.000 OA
ATOM     22  HXT PRO A   7      -8.925   2.620  -1.247  0.00  0.00    +0.000 HD
ENDBRANCH  19  21
ENDBRANCH  18  19
ENDBRANCH  11  12
BRANCH  11  23
ATOM     23  CB  HIS A   6      -6.564   0.759   0.957  0.00  0.00    +0.000 C 
BRANCH  23  24
ATOM     24  CG  HIS A   6      -7.421  -0.206   1.720  0.00  0.00    +0.000 A 
ATOM     25  CD2 HIS A   6      -7.051  -1.498   2.079  0.00  0.00    +0.000 A 
ATOM     26  NE2 HIS A   6      -8.153  -2.125   2.559  0.00  0.00    +0.000 NA
ATOM     27  CE1 HIS A   6      -9.225  -1.352   2.270  0.00  0.00    +0.000 A 
ATOM     28  ND1 HIS A   6      -8.755  -0.335   1.506  0.00  0.00    +0.000 N 
ATOM     29  HD1 HIS A   6      -9.294   0.220   0.895  0.00  0.00    +0.000 HD
ENDBRANCH  23  24
ENDBRANCH  11  23
ENDBRANCH   9  11
ENDBRANCH   6   7
BRANCH   6  30
ATOM     30  CB  ILE A   5      -3.145  -3.062   0.835  0.00  0.00    +0.000 C 
ATOM     31  CG2 ILE A   5      -3.887  -1.984   1.778  0.00  0.00    +0.000 C 
BRANCH  30  33
ATOM     32  CD1 ILE A   5      -4.833  -4.071   0.701  0.00  0.00    +0.000 C 
ATOM     33  CG1 ILE A   5      -4.487  -3.920   0.555  0.00  0.00    +0.000 C 
ENDBRANCH  30  33
ENDBRANCH   6  30
ENDBRANCH   2   6
ENDBRANCH   1   3
BRANCH   1  34
ATOM     34  N   TYR A   4       0.872  -0.856   0.810  0.00  0.00    +0.000 N 
ATOM     35  C   VAL A   3       2.110  -0.392   1.290  0.00  0.00    +0.000 C 
ATOM     36  O   VAL A   3       2.269   0.836   1.269  0.00  0.00    +0.000 OA
ATOM     37  H   TYR A   4       0.673  -1.820   0.832  0.00  0.00    +0.000 HD
BRANCH  35  38
ATOM     38  CA  VAL A   3       3.296  -1.293   0.657  0.00  0.00    +0.000 C 
BRANCH  38  39
ATOM     39  N   VAL A   3       4.459  -0.417   1.264  0.00  0.00    +0.000 N 
ATOM     40  C   ARG A   2       5.121   0.403   0.346  0.00  0.00    +0.000 C 
ATOM     41  O   ARG A   2       4.487   0.897  -0.608  0.00  0.00    +0.000 OA
ATOM     42  H   VAL A   3       4.701  -0.447   2.218  0.00  0.00    +0.000 HD
BRANCH  40  43
ATOM     43  CA  ARG A   2       6.605  -0.018  -0.130  0.00  0.00    +0.000 C 
BRANCH  43  44
ATOM     44  N   ARG A   2       7.059   1.465  -0.384  0.00  0.00    +0.000 N 
ATOM     45  C   ASP A   1       6.618   2.457   0.473  0.00  0.00    +0.000 C 
ATOM     46  O   ASP A   1       6.289   2.157   1.635  0.00  0.00    +0.000 OA
ATOM     47  H   ARG A   2       7.647   1.685  -1.142  0.00  0.00    +0.000 HD
BRANCH  45  48
ATOM     48  CA  ASP A   1       7.455   3.829   0.330  0.00  0.00    +0.000 C 
BRANCH  48  49
ATOM     49  N   ASP A   1       7.090   3.973  -1.200  0.00  0.00    +0.000 NA
ATOM     50  H1  ASP A   1       6.093   3.798  -1.330  0.00  0.00    +0.000 HD
ATOM     51  H2  ASP A   1       7.627   3.296  -1.742  0.00  0.00    +0.000 HD
ENDBRANCH  48  49
BRANCH  48  52
ATOM     52  CB  ASP A   1       6.181   4.723   0.859  0.00  0.00    +0.000 C 
BRANCH  52  53
ATOM     53  CG  ASP A   1       5.763   5.650  -0.153  0.00  0.00    +0.000 C 
ATOM     54  OD1 ASP A   1       6.153   6.833  -0.309  0.00  0.00    +0.000 OA
BRANCH  53  55
ATOM     55  OD2 ASP A   1       4.768   5.216  -1.038  0.00  0.00    +0.000 OA
ATOM     56  HD2 ASP A   1       4.434   4.343  -0.975  0.00  0.00    +0.000 HD
ENDBRANCH  53  55
ENDBRANCH  52  53
ENDBRANCH  48  52
ENDBRANCH  45  48
ENDBRANCH  43  44
BRANCH  43  57
ATOM     57  CB  ARG A   2       7.188  -0.022   1.409  0.00  0.00    +0.000 C 
BRANCH  57  58
ATOM     58  CG  ARG A   2       7.510  -1.477   1.587  0.00  0.00    +0.000 C 
BRANCH  58  59
ATOM     59  CD  ARG A   2       7.764  -2.217   0.315  0.00  0.00    +0.000 C 
BRANCH  59  60
ATOM     60  NE  ARG A   2       8.685  -1.577  -0.580  0.00  0.00    +0.000 N 
ATOM     61  CZ  ARG A   2      10.082  -1.546  -0.382  0.00  0.00    +0.000 C 
ATOM     62  NH1 ARG A   2      10.607  -2.521   0.265  0.00  0.00    +0.000 NA
ATOM     63  NH2 ARG A   2      10.863  -0.444  -0.828  0.00  0.00    +0.000 N 
ATOM     64  HE  ARG A   2       8.321  -1.134  -1.380  0.00  0.00    +0.000 HD
ATOM     65  HH1 ARG A   2      10.046  -3.273   0.564  0.00  0.00    +0.000 HD
ATOM     66 HH21 ARG A   2      10.437   0.293  -1.323  0.00  0.00    +0.000 HD
ATOM     67 HH22 ARG A   2      11.830  -0.418  -0.642  0.00  0.00    +0.000 HD
ENDBRANCH  59  60
ENDBRANCH  58  59
ENDBRANCH  57  58
ENDBRANCH  43  57
ENDBRANCH  40  43
ENDBRANCH  38  39
BRANCH  38  68
ATOM     68  CB  VAL A   3       3.368  -2.327   1.933  0.00  0.00    +0.000 C 
ATOM     69  CG1 VAL A   3       1.996  -2.650   2.354  0.00  0.00    +0.000 C 
ATOM     70  CG2 VAL A   3       4.009  -3.521   1.228  0.00  0.00    +0.000 C 
ENDBRANCH  38  68
ENDBRANCH  35  38
ENDBRANCH   1  34
BRANCH   1  71
ATOM     71  CB  TYR A   4       0.042  -0.195  -1.353  0.00  0.00    +0.000 C 
BRANCH  71  72
ATOM     72  CG  TYR A   4       0.509  -1.522  -1.501  0.00  0.00    +0.000 A 
ATOM     73  CD1 TYR A   4       1.291  -1.829  -2.607  0.00  0.00    +0.000 A 
ATOM     74  CE1 TYR A   4       1.837  -3.101  -2.762  0.00  0.00    +0.000 A 
ATOM     75  CZ  TYR A   4       1.633  -4.070  -1.785  0.00  0.00    +0.000 A 
ATOM     76  CE2 TYR A   4       0.604  -3.890  -0.891  0.00  0.00    +0.000 A 
ATOM     77  CD2 TYR A   4       0.127  -2.634  -0.816  0.00  0.00    +0.000 A 
BRANCH  75  78
ATOM     78  OH  TYR A   4       2.448  -5.157  -1.570  0.00  0.00    +0.000 OA
ATOM     79  HH  TYR A   4       3.164  -5.328  -2.150  0.00  0.00    +0.000 HD
ENDBRANCH  75  78
ENDBRANCH  71  72
ENDBRANCH   1  71
TORSDOF 29
