REMARK  Name = 
REMARK  6 active torsions:
REMARK  status: ('A' for Active; 'I' for Inactive)
REMARK    1  A    between atoms: C_2  and  C_3
REMARK    2  A    between atoms: C_3  and  N_4
REMARK    3  A    between atoms: N_4  and  C_5
REMARK    4  A    between atoms: C_14  and  B_15
REMARK    5  A    between atoms: B_15  and  O_16
REMARK    6  A    between atoms: B_15  and  O_17
REMARK                            x       y       z     vdW  Elec       q    Type
REMARK                         _______ _______ _______ _____ _____    ______ ____
ROOT
ATOM      1  O   UNL     1      -0.424   1.207   0.217  0.00  0.00    +0.000 OA
ATOM      2  C   UNL     1      -0.306   0.683  -0.062  0.00  0.00    +0.000 C 
ATOM      3  N   UNL     1      -1.170  -0.455   0.065  0.00  0.00    +0.000 N 
ATOM      4  C   UNL     1      -0.810  -1.818   0.435  0.00  0.00    +0.000 C 
ATOM      5  C   UNL     1      -2.213  -2.147   0.940  0.00  0.00    +0.000 C 
ATOM      6  C   UNL     1      -2.976  -1.929  -0.295  0.00  0.00    +0.000 C 
ATOM      7  C   UNL     1      -2.311  -0.614  -0.986  0.00  0.00    +0.000 C 
ENDROOT
BRANCH   2   8
ATOM      8  C   UNL     1       1.132   0.325  -0.312  0.00  0.00    +0.000 C 
BRANCH   8   9
ATOM      9  N   UNL     1       1.702   0.297   1.005  0.00  0.00    +0.000 NA
ATOM     10  H   UNL     1       1.434  -0.563   1.484  0.00  0.00    +0.000 HD
BRANCH   9  11
ATOM     11  C   UNL     1       3.263   0.356   0.837  0.00  0.00    +0.000 C 
ATOM     12  C   UNL     1       3.193   1.550  -0.286  0.00  0.00    +0.000 C 
ATOM     13  C   UNL     1       4.469   1.112  -0.992  0.00  0.00    +0.000 C 
ATOM     14  N   UNL     1       4.319  -0.306  -1.189  0.00  0.00    +0.000 NA
ATOM     15  C   UNL     1       3.267  -0.781  -0.343  0.00  0.00    +0.000 C 
ATOM     16  H   UNL     1       5.191  -0.779  -0.951  0.00  0.00    +0.000 HD
ENDBRANCH   9  11
ENDBRANCH   8   9
ENDBRANCH   2   8
BRANCH   7  17
ATOM     17  B   UNL     1      -3.353   0.456  -0.153  0.00  0.00    +0.000 B 
BRANCH  17  18
ATOM     18  O   UNL     1      -4.785   0.188  -0.371  0.00  0.00    +0.000 OA
ATOM     19  H   UNL     1      -4.960  -0.757  -0.244  0.00  0.00    +0.000 HD
ENDBRANCH  17  18
BRANCH  17  20
ATOM     20  O   UNL     1      -2.996   1.876  -0.326  0.00  0.00    +0.000 OA
ATOM     21  H   UNL     1      -2.046   1.992  -0.171  0.00  0.00    +0.000 HD
ENDBRANCH  17  20
ENDBRANCH   7  17
TORSDOF 6
