REMARK  Name = 123935
REMARK  9 active torsions:
REMARK  status: ('A' for Active; 'I' for Inactive)
REMARK    1  A    between atoms: O_1  and  C_13
REMARK    2  A    between atoms: N_5  and  CA_8
REMARK    3  A    between atoms: N_6  and  CA_11
REMARK    4  A    between atoms: CA_8  and  CB_9
REMARK    5  A    between atoms: CA_8  and  C_13
REMARK    6  A    between atoms: CB_9  and  CG_10
REMARK    7  A    between atoms: CG_10  and  CD_15
REMARK    8  A    between atoms: CA_11  and  C_12
REMARK    9  A    between atoms: CA_11  and  CB_14
REMARK                            x       y       z     vdW  Elec       q    Type
REMARK                         _______ _______ _______ _____ _____    ______ ____
ROOT
ATOM      1  CA  GLN A   2       0.086   0.923   0.611  0.00  0.00    +0.000 C 
ENDROOT
BRANCH   1   3
ATOM      2  O   ALA A   1      -2.139  -0.603   1.614  0.00  0.00    +0.000 OA
ATOM      3  N   GLN A   2      -0.982   0.341  -0.162  0.00  0.00    +0.000 N 
ATOM      4  C   ALA A   1      -2.021  -0.384   0.410  0.00  0.00    +0.000 C 
ATOM      5  H   GLN A   2      -0.961   0.465  -1.170  0.00  0.00    +0.000 HD
BRANCH   4   6
ATOM      6  CA  ALA A   1      -3.006  -0.898  -0.632  0.00  0.00    +0.000 C 
ATOM      7  CB  ALA A   1      -4.130   0.109  -0.838  0.00  0.00    +0.000 C 
BRANCH   6   8
ATOM      8  N   ALA A   1      -3.546  -2.172  -0.164  0.00  0.00    +0.000 NA
ATOM      9  H1  ALA A   1      -4.030  -2.043   0.723  0.00  0.00    +0.000 HD
ATOM     10  H2  ALA A   1      -2.787  -2.828   0.010  0.00  0.00    +0.000 HD
ENDBRANCH   6   8
ENDBRANCH   4   6
ENDBRANCH   1   3
BRANCH   1  12
ATOM     11  OXT GLN A   2       1.427   2.933   0.580  0.00  0.00    +0.000 OA
ATOM     12  C   GLN A   2       0.582   2.237   0.028  0.00  0.00    +0.000 C 
BRANCH  12  13
ATOM     13  O   GLN A   2      -0.019   2.605  -1.129  0.00  0.00    +0.000 OA
ATOM     14  H   GLN A   2       0.315   3.467  -1.457  0.00  0.00    +0.000 HD
ENDBRANCH  12  13
ENDBRANCH   1  12
BRANCH   1  15
ATOM     15  CB  GLN A   2       1.244  -0.065   0.798  0.00  0.00    +0.000 C 
BRANCH  15  16
ATOM     16  CG  GLN A   2       2.014  -0.371  -0.490  0.00  0.00    +0.000 C 
BRANCH  16  19
ATOM     17  OE1 GLN A   2       3.410  -1.737   0.914  0.00  0.00    +0.000 OA
ATOM     18  NE2 GLN A   2       3.907  -1.617  -1.330  0.00  0.00    +0.000 N 
ATOM     19  CD  GLN A   2       3.173  -1.302  -0.210  0.00  0.00    +0.000 C 
ATOM     20 HE21 GLN A   2       4.708  -2.238  -1.273  0.00  0.00    +0.000 HD
ATOM     21 HE22 GLN A   2       3.683  -1.245  -2.247  0.00  0.00    +0.000 HD
ENDBRANCH  16  19
ENDBRANCH  15  16
ENDBRANCH   1  15
TORSDOF 8
