REMARK  Name = 176873
REMARK  13 active torsions:
REMARK  status: ('A' for Active; 'I' for Inactive)
REMARK    1  A    between atoms: OD1_6  and  CG_40
REMARK    2  A    between atoms: N_8  and  C_26
REMARK    3  A    between atoms: NE_13  and  CD_32
REMARK    4  A    between atoms: CA_16  and  CB_17
REMARK    5  A    between atoms: CB_17  and  CG1_22
REMARK    6  A    between atoms: CB_17  and  CG2_23
REMARK    7  A    between atoms: CA_18  and  CB_25
REMARK    8  A    between atoms: CA_20  and  CB_24
REMARK    9  A    between atoms: CB_24  and  CG_27
REMARK   10  A    between atoms: CB_25  and  CG_30
REMARK   11  A    between atoms: CG_27  and  CD_32
REMARK   12  A    between atoms: CA_29  and  CB_33
REMARK   13  A    between atoms: CB_33  and  CG_40
REMARK                            x       y       z     vdW  Elec       q    Type
REMARK                         _______ _______ _______ _____ _____    ______ ____
ROOT
ATOM      1  O   VAL A   1       0.955  -0.023  -2.321  0.00  0.00    +0.000 OA
ATOM      2  O   PHE A   5      -1.843   1.631  -1.901  0.00  0.00    +0.000 OA
ATOM      3  O   ARG A   2       2.009  -1.899   1.278  0.00  0.00    +0.000 OA
ATOM      4  O   ASP A   4      -3.153  -1.244   2.065  0.00  0.00    +0.000 OA
ATOM      5  O   GLY A   3      -1.016  -2.770  -1.654  0.00  0.00    +0.000 OA
ATOM      6  N   VAL A   1      -0.406   1.463  -0.084  0.00  0.00    +0.000 N 
ATOM      7  N   ARG A   2       2.485   0.157  -0.597  0.00  0.00    +0.000 N 
ATOM      8  N   PHE A   5      -2.956  -0.502  -0.127  0.00  0.00    +0.000 N 
ATOM      9  N   GLY A   3       1.533  -3.042  -0.686  0.00  0.00    +0.000 N 
ATOM     10  N   ASP A   4      -1.799  -3.396   0.440  0.00  0.00    +0.000 N 
ATOM     11  CA  VAL A   1       0.760   1.891  -0.883  0.00  0.00    +0.000 C 
ATOM     12  CA  PHE A   5      -2.841   0.923   0.157  0.00  0.00    +0.000 C 
ATOM     13  C   VAL A   1       1.432   0.608  -1.375  0.00  0.00    +0.000 C 
ATOM     14  CA  ARG A   2       3.067  -1.167  -0.768  0.00  0.00    +0.000 C 
ATOM     15  C   PHE A   5      -1.667   1.398  -0.700  0.00  0.00    +0.000 C 
ATOM     16  C   ACE A   0      -0.180   1.083   1.312  0.00  0.00    +0.000 C 
ATOM     17  C   ARG A   2       2.174  -2.073   0.071  0.00  0.00    +0.000 C 
ATOM     18  CA  ASP A   4      -3.152  -2.879   0.285  0.00  0.00    +0.000 C 
ATOM     19  C   ASP A   4      -3.120  -1.467   0.856  0.00  0.00    +0.000 C 
ATOM     20  CA  GLY A   3       0.492  -3.893  -0.149  0.00  0.00    +0.000 C 
ATOM     21  C   GLY A   3      -0.834  -3.279  -0.550  0.00  0.00    +0.000 C 
ATOM     22  H   ARG A   2       2.780   0.686   0.215  0.00  0.00    +0.000 HD
ATOM     23  H   PHE A   5      -2.915  -0.790  -1.100  0.00  0.00    +0.000 HD
ATOM     24  H   GLY A   3       1.737  -3.120  -1.678  0.00  0.00    +0.000 HD
ATOM     25  H   ASP A   4      -1.538  -3.786   1.341  0.00  0.00    +0.000 HD
ENDROOT
BRANCH  11  26
ATOM     26  CB  VAL A   1       1.651   2.927  -0.205  0.00  0.00    +0.000 C 
ATOM     27  CG1 VAL A   1       2.768   3.375  -1.145  0.00  0.00    +0.000 C 
ATOM     28  CG2 VAL A   1       0.826   4.127   0.257  0.00  0.00    +0.000 C 
ENDBRANCH  11  26
BRANCH  14  29
ATOM     29  CB  ARG A   2       4.501  -1.212  -0.266  0.00  0.00    +0.000 C 
BRANCH  29  30
ATOM     30  CG  ARG A   2       5.419  -0.342  -1.126  0.00  0.00    +0.000 C 
BRANCH  30  31
ATOM     31  CD  ARG A   2       6.862  -0.358  -0.635  0.00  0.00    +0.000 C 
BRANCH  31  32
ATOM     32  NE  ARG A   2       6.931   0.177   0.726  0.00  0.00    +0.000 NA
ATOM     33  NH1 ARG A   2       9.318  -0.084   0.701  0.00  0.00    +0.000 N 
ATOM     34  NH2 ARG A   2       8.258   0.758   2.535  0.00  0.00    +0.000 N 
ATOM     35  CZ  ARG A   2       8.109   0.266   1.260  0.00  0.00    +0.000 C 
ATOM     36 HH11 ARG A   2      10.184   0.030   1.217  0.00  0.00    +0.000 HD
ATOM     37 HH12 ARG A   2       9.392  -0.468  -0.234  0.00  0.00    +0.000 HD
ATOM     38 HH21 ARG A   2       9.171   0.836   2.970  0.00  0.00    +0.000 HD
ATOM     39 HH22 ARG A   2       7.456   1.059   3.077  0.00  0.00    +0.000 HD
ENDBRANCH  31  32
ENDBRANCH  30  31
ENDBRANCH  29  30
ENDBRANCH  14  29
BRANCH  12  40
ATOM     40  CB  PHE A   5      -4.132   1.637  -0.230  0.00  0.00    +0.000 C 
BRANCH  40  41
ATOM     41  CG  PHE A   5      -4.072   3.110   0.077  0.00  0.00    +0.000 A 
ATOM     42  CD1 PHE A   5      -4.491   3.581   1.322  0.00  0.00    +0.000 A 
ATOM     43  CD2 PHE A   5      -3.598   4.004  -0.883  0.00  0.00    +0.000 A 
ATOM     44  CE1 PHE A   5      -4.435   4.945   1.607  0.00  0.00    +0.000 A 
ATOM     45  CE2 PHE A   5      -3.543   5.369  -0.598  0.00  0.00    +0.000 A 
ATOM     46  CZ  PHE A   5      -3.961   5.839   0.647  0.00  0.00    +0.000 A 
ENDBRANCH  40  41
ENDBRANCH  12  40
BRANCH  18  47
ATOM     47  CB  ASP A   4      -4.151  -3.751   1.033  0.00  0.00    +0.000 C 
BRANCH  47  49
ATOM     48  OD2 ASP A   4      -4.168  -5.244  -0.893  0.00  0.00    +0.000 OA
ATOM     49  CG  ASP A   4      -4.566  -4.953   0.225  0.00  0.00    +0.000 C 
BRANCH  49  50
ATOM     50  OD1 ASP A   4      -5.467  -5.692   0.921  0.00  0.00    +0.000 OA
ATOM     51  HD1 ASP A   4      -5.756  -6.484   0.419  0.00  0.00    +0.000 HD
ENDBRANCH  49  50
ENDBRANCH  47  49
ENDBRANCH  18  47
TORSDOF 10
