REMARK  Name = 443289
REMARK  12 active torsions:
REMARK  status: ('A' for Active; 'I' for Inactive)
REMARK    1  A    between atoms: OD1_6  and  CG_35
REMARK    2  A    between atoms: CA_20  and  CB_22
REMARK    3  A    between atoms: CA_21  and  CB_25
REMARK    4  A    between atoms: CB_22  and  CG1_32
REMARK    5  A    between atoms: CB_22  and  CG2_33
REMARK    6  A    between atoms: CA_23  and  CB_27
REMARK    7  A    between atoms: CB_25  and  CG_35
REMARK    8  A    between atoms: CA_26  and  CB_30
REMARK    9  A    between atoms: CB_27  and  CG_28
REMARK   10  A    between atoms: CG_28  and  CD1_36
REMARK   11  A    between atoms: CG_28  and  CD2_37
REMARK   12  A    between atoms: CB_30  and  CG_34
REMARK                            x       y       z     vdW  Elec       q    Type
REMARK                         _______ _______ _______ _____ _____    ______ ____
ROOT
ATOM      1  O   PRO A   1      -3.047  -0.631  -1.955  0.00  0.00    +0.000 OA
ATOM      2  O   ASP A   5      -2.690   1.569   1.389  0.00  0.00    +0.000 OA
ATOM      3  O   VAL A   2      -1.811  -1.840   1.833  0.00  0.00    +0.000 OA
ATOM      4  O   TRP A   4       0.254   1.812   2.008  0.00  0.00    +0.000 OA
ATOM      5  O   LEU A   3       0.230  -0.639  -1.518  0.00  0.00    +0.000 OA
ATOM      6  N   PRO A   1      -3.400   1.980  -0.763  0.00  0.00    +0.000 N 
ATOM      7  N   VAL A   2      -3.965  -1.287   0.071  0.00  0.00    +0.000 N 
ATOM      8  N   ASP A   5      -0.302   2.640  -0.097  0.00  0.00    +0.000 N 
ATOM      9  N   LEU A   3      -0.927  -2.698  -0.137  0.00  0.00    +0.000 N 
ATOM     10  N   TRP A   4       1.442  -0.179   0.407  0.00  0.00    +0.000 N 
ATOM     11  CA  PRO A   1      -4.436   0.949  -0.752  0.00  0.00    +0.000 C 
ATOM     12  CB  PRO A   1      -5.352   1.313  -1.918  0.00  0.00    +0.000 C 
ATOM     13  CG  PRO A   1      -4.428   2.028  -2.899  0.00  0.00    +0.000 C 
ATOM     14  CD  PRO A   1      -3.447   2.761  -1.997  0.00  0.00    +0.000 C 
ATOM     15  C   PRO A   1      -3.749  -0.397  -0.973  0.00  0.00    +0.000 C 
ATOM     16  C   ASP A   5      -2.614   2.236   0.353  0.00  0.00    +0.000 C 
ATOM     17  CA  VAL A   2      -3.335  -2.599   0.119  0.00  0.00    +0.000 C 
ATOM     18  CA  ASP A   5      -1.553   3.328   0.213  0.00  0.00    +0.000 C 
ATOM     19  CA  LEU A   3       0.464  -2.379   0.145  0.00  0.00    +0.000 C 
ATOM     20  C   VAL A   2      -1.960  -2.350   0.723  0.00  0.00    +0.000 C 
ATOM     21  CA  TRP A   4       1.659   1.235   0.138  0.00  0.00    +0.000 C 
ATOM     22  C   TRP A   4       0.480   1.933   0.805  0.00  0.00    +0.000 C 
ATOM     23  C   LEU A   3       0.683  -0.985  -0.428  0.00  0.00    +0.000 C 
ATOM     24  H   VAL A   2      -4.505  -0.988   0.878  0.00  0.00    +0.000 HD
ATOM     25  H   ASP A   5      -0.018   2.657  -1.072  0.00  0.00    +0.000 HD
ATOM     26  H   LEU A   3      -1.155  -3.028  -1.071  0.00  0.00    +0.000 HD
ATOM     27  H   TRP A   4       1.752  -0.545   1.303  0.00  0.00    +0.000 HD
ENDROOT
BRANCH  17  28
ATOM     28  CB  VAL A   2      -4.130  -3.565   0.983  0.00  0.00    +0.000 C 
ATOM     29  CG1 VAL A   2      -5.526  -3.792   0.400  0.00  0.00    +0.000 C 
ATOM     30  CG2 VAL A   2      -3.393  -4.897   1.129  0.00  0.00    +0.000 C 
ENDBRANCH  17  28
BRANCH  18  31
ATOM     31  CB  ASP A   5      -1.485   4.218   1.449  0.00  0.00    +0.000 C 
BRANCH  31  33
ATOM     32  OD2 ASP A   5       0.294   5.468   0.346  0.00  0.00    +0.000 OA
ATOM     33  CG  ASP A   5      -0.433   5.287   1.311  0.00  0.00    +0.000 C 
BRANCH  33  34
ATOM     34  OD1 ASP A   5      -0.399   6.048   2.435  0.00  0.00    +0.000 OA
ATOM     35  HD1 ASP A   5       0.278   6.756   2.377  0.00  0.00    +0.000 HD
ENDBRANCH  33  34
ENDBRANCH  31  33
ENDBRANCH  18  31
BRANCH  19  36
ATOM     36  CB  LEU A   3       1.410  -3.373  -0.507  0.00  0.00    +0.000 C 
BRANCH  36  37
ATOM     37  CG  LEU A   3       1.308  -4.795   0.072  0.00  0.00    +0.000 C 
ATOM     38  CD1 LEU A   3       1.562  -4.829   1.580  0.00  0.00    +0.000 C 
ATOM     39  CD2 LEU A   3      -0.071  -5.384  -0.234  0.00  0.00    +0.000 C 
ENDBRANCH  36  37
ENDBRANCH  19  36
BRANCH  21  40
ATOM     40  CB  TRP A   4       2.972   1.717   0.732  0.00  0.00    +0.000 C 
BRANCH  40  42
ATOM     41  NE1 TRP A   4       5.716   1.513  -1.669  0.00  0.00    +0.000 N 
ATOM     42  CG  TRP A   4       4.149   1.378  -0.131  0.00  0.00    +0.000 A 
ATOM     43  CD2 TRP A   4       4.915   0.195  -0.057  0.00  0.00    +0.000 A 
ATOM     44  CD1 TRP A   4       4.650   2.173  -1.119  0.00  0.00    +0.000 A 
ATOM     45  CE2 TRP A   4       5.901   0.303  -1.040  0.00  0.00    +0.000 A 
ATOM     46  CE3 TRP A   4       4.878  -0.964   0.743  0.00  0.00    +0.000 A 
ATOM     47  CZ2 TRP A   4       6.857  -0.695  -1.263  0.00  0.00    +0.000 A 
ATOM     48  CZ3 TRP A   4       5.827  -1.971   0.531  0.00  0.00    +0.000 A 
ATOM     49  CH2 TRP A   4       6.801  -1.836  -0.457  0.00  0.00    +0.000 A 
ATOM     50  HE1 TRP A   4       6.286   1.863  -2.427  0.00  0.00    +0.000 HD
ENDBRANCH  40  42
ENDBRANCH  21  40
TORSDOF 8
