REMARK  Name = 
REMARK  16 active torsions:
REMARK  status: ('A' for Active; 'I' for Inactive)
REMARK    1  A    between atoms: C_1  and  C_2
REMARK    2  A    between atoms: N_4  and  C_5
REMARK    3  A    between atoms: C_5  and  C_6
REMARK    4  A    between atoms: C_5  and  C_14
REMARK    5  A    between atoms: C_6  and  C_7
REMARK    6  A    between atoms: C_10  and  O_11
REMARK    7  A    between atoms: C_20  and  C_21
REMARK    8  A    between atoms: C_25  and  O_26
REMARK    9  A    between atoms: C_28  and  C_29
REMARK   10  A    between atoms: N_31  and  C_32
REMARK   11  A    between atoms: C_32  and  C_33
REMARK   12  A    between atoms: N_35  and  C_36
REMARK   13  A    between atoms: C_36  and  C_37
REMARK   14  A    between atoms: C_36  and  C_38
REMARK   15  A    between atoms: N_40  and  C_41
REMARK   16  A    between atoms: C_41  and  C_42
REMARK                            x       y       z     vdW  Elec       q    Type
REMARK                         _______ _______ _______ _____ _____    ______ ____
ROOT
ATOM      1  C   UNL     1      -0.573  -0.746  -0.166  0.00  0.00    +0.000 C 
ATOM      2  O   UNL     1      -0.687  -1.809   0.517  0.00  0.00    +0.000 OA
ATOM      3  N   UNL     1       0.718  -0.110  -0.038  0.00  0.00    +0.000 N 
ATOM      4  C   UNL     1       1.202   0.894  -0.842  0.00  0.00    +0.000 C 
ATOM      5  C   UNL     1       2.091   1.891   0.104  0.00  0.00    +0.000 C 
ATOM      6  C   UNL     1       1.101   1.632   1.385  0.00  0.00    +0.000 C 
ATOM      7  C   UNL     1       1.279   0.000   1.422  0.00  0.00    +0.000 C 
ENDROOT
BRANCH   1  14
ATOM      8  C   UNL     1      -3.468  -1.571  -0.070  0.00  0.00    +0.000 C 
ATOM      9  O   UNL     1      -3.119  -2.684  -0.579  0.00  0.00    +0.000 OA
ATOM     10  N   UNL     1      -2.913  -0.404  -0.537  0.00  0.00    +0.000 N 
ATOM     11  C   UNL     1      -3.647   0.844  -0.793  0.00  0.00    +0.000 C 
ATOM     12  C   UNL     1      -2.732   1.769  -1.525  0.00  0.00    +0.000 C 
ATOM     13  C   UNL     1      -1.418   1.116  -1.279  0.00  0.00    +0.000 C 
ATOM     14  C   UNL     1      -1.713   0.354   0.149  0.00  0.00    +0.000 C 
BRANCH   8  15
ATOM     15  C   UNL     1      -5.050  -1.755   0.158  0.00  0.00    +0.000 C 
BRANCH  15  19
ATOM     16  C   UNL     1      -6.822  -1.038  -3.043  0.00  0.00    +0.000 C 
ATOM     17  C   UNL     1      -5.902  -1.556  -2.220  0.00  0.00    +0.000 C 
ATOM     18  O   UNL     1      -5.135  -2.492  -2.600  0.00  0.00    +0.000 OA
ATOM     19  N   UNL     1      -5.478  -0.867  -1.067  0.00  0.00    +0.000 N 
ATOM     20  H   UNL     1      -5.451   0.116  -1.031  0.00  0.00    +0.000 HD
ENDBRANCH  15  19
BRANCH  15  21
ATOM     21  C   UNL     1      -5.159  -0.494   1.209  0.00  0.00    +0.000 C 
BRANCH  21  22
ATOM     22  C   UNL     1      -6.629  -0.203   1.276  0.00  0.00    +0.000 A 
ATOM     23  C   UNL     1      -7.458  -0.790   2.224  0.00  0.00    +0.000 A 
ATOM     24  C   UNL     1      -8.821  -0.509   2.248  0.00  0.00    +0.000 A 
ATOM     25  C   UNL     1      -9.392   0.301   1.276  0.00  0.00    +0.000 A 
ATOM     26  C   UNL     1      -8.547   1.083   0.528  0.00  0.00    +0.000 A 
ATOM     27  C   UNL     1      -7.188   0.910   0.656  0.00  0.00    +0.000 A 
BRANCH  25  28
ATOM     28  O   UNL     1     -10.692   0.168   0.840  0.00  0.00    +0.000 OA
ATOM     29  H   UNL     1     -11.297  -0.358   1.324  0.00  0.00    +0.000 HD
ENDBRANCH  25  28
ENDBRANCH  21  22
ENDBRANCH  15  21
ENDBRANCH   8  15
ENDBRANCH   1  14
BRANCH   7  30
ATOM     30  C   UNL     1       2.831  -0.005   0.981  0.00  0.00    +0.000 C 
ATOM     31  O   UNL     1       3.546   0.233   1.981  0.00  0.00    +0.000 OA
ATOM     32  N   UNL     1       3.231  -0.978   0.038  0.00  0.00    +0.000 N 
ATOM     33  H   UNL     1       2.551  -1.488  -0.459  0.00  0.00    +0.000 HD
BRANCH  32  34
ATOM     34  C   UNL     1       4.619  -1.227  -0.198  0.00  0.00    +0.000 C 
BRANCH  34  35
ATOM     35  C   UNL     1       5.350  -0.016  -0.704  0.00  0.00    +0.000 C 
ATOM     36  O   UNL     1       4.859   0.546  -1.706  0.00  0.00    +0.000 OA
ATOM     37  N   UNL     1       5.921   0.778   0.261  0.00  0.00    +0.000 N 
ATOM     38  H   UNL     1       5.919   0.464   1.194  0.00  0.00    +0.000 HD
BRANCH  37  39
ATOM     39  C   UNL     1       6.575   2.165  -0.066  0.00  0.00    +0.000 C 
ATOM     40  C   UNL     1       5.779   2.414  -1.485  0.00  0.00    +0.000 C 
BRANCH  39  41
ATOM     41  C   UNL     1       7.853   1.492  -0.782  0.00  0.00    +0.000 C 
ATOM     42  O   UNL     1       7.668   0.635  -1.640  0.00  0.00    +0.000 OA
ATOM     43  N   UNL     1       8.849   1.206   0.210  0.00  0.00    +0.000 N 
ATOM     44  H   UNL     1       8.804   1.615   1.104  0.00  0.00    +0.000 HD
BRANCH  43  45
ATOM     45  C   UNL     1       9.918   0.301  -0.141  0.00  0.00    +0.000 C 
BRANCH  45  46
ATOM     46  C   UNL     1       9.412  -1.100  -0.273  0.00  0.00    +0.000 C 
ATOM     47  N   UNL     1       8.821  -1.783   0.811  0.00  0.00    +0.000 N 
ATOM     48  O   UNL     1       9.601  -1.726  -1.344  0.00  0.00    +0.000 OA
ATOM     49  H   UNL     1       8.664  -1.312   1.662  0.00  0.00    +0.000 HD
ATOM     50  H   UNL     1       8.567  -2.729   0.717  0.00  0.00    +0.000 HD
ENDBRANCH  45  46
ENDBRANCH  43  45
ENDBRANCH  39  41
ENDBRANCH  37  39
ENDBRANCH  34  35
ENDBRANCH  32  34
ENDBRANCH   7  30
BRANCH   5  51
ATOM     51  O   UNL     1       1.320   3.129  -0.323  0.00  0.00    +0.000 OA
ATOM     52  H   UNL     1       0.369   2.942  -0.299  0.00  0.00    +0.000 HD
ENDBRANCH   5  51
TORSDOF 14
