REMARK  Name = 125516
REMARK  9 active torsions:
REMARK  status: ('A' for Active; 'I' for Inactive)
REMARK    1  A    between atoms: O_3  and  C_23
REMARK    2  A    between atoms: O_4  and  C_24
REMARK    3  A    between atoms: C_9  and  C_23
REMARK    4  A    between atoms: C_10  and  C_24
REMARK    5  A    between atoms: C_17  and  C_19
REMARK    6  A    between atoms: C_18  and  C_20
REMARK    7  A    between atoms: C_19  and  C_21
REMARK    8  A    between atoms: C_20  and  C_22
REMARK    9  A    between atoms: C_21  and  C_22
REMARK                            x       y       z     vdW  Elec       q    Type
REMARK                         _______ _______ _______ _____ _____    ______ ____
ROOT
ATOM      1  C   UNL     1       0.648   0.426  -0.462  0.00  0.00    +0.000 C 
ENDROOT
BRANCH   1   2
ATOM      2  C   UNL     1       1.887  -0.463  -0.435  0.00  0.00    +0.000 C 
BRANCH   2   9
ATOM      3  O   UNL     1       3.079   1.595  -0.324  0.00  0.00    +0.000 OA
ATOM      4  N   UNL     1       4.331  -0.352  -0.333  0.00  0.00    +0.000 N 
ATOM      5  C   UNL     1       5.636   0.289  -0.425  0.00  0.00    +0.000 C 
ATOM      6  C   UNL     1       6.592  -0.832  -0.818  0.00  0.00    +0.000 C 
ATOM      7  C   UNL     1       5.943  -2.077  -0.218  0.00  0.00    +0.000 C 
ATOM      8  C   UNL     1       4.455  -1.807  -0.377  0.00  0.00    +0.000 C 
ATOM      9  C   UNL     1       3.145   0.365  -0.362  0.00  0.00    +0.000 C 
BRANCH   5  11
ATOM     10  O   UNL     1       5.566   0.368   1.990  0.00  0.00    +0.000 OA
ATOM     11  C   UNL     1       5.954   0.841   0.932  0.00  0.00    +0.000 C 
BRANCH  11  12
ATOM     12  O   UNL     1       6.732   1.946   0.830  0.00  0.00    +0.000 OA
ATOM     13  H   UNL     1       6.950   2.323   1.709  0.00  0.00    +0.000 HD
ENDBRANCH  11  12
ENDBRANCH   5  11
ENDBRANCH   2   9
ENDBRANCH   1   2
BRANCH   1  14
ATOM     14  C   UNL     1      -0.655  -0.384  -0.469  0.00  0.00    +0.000 C 
BRANCH  14  15
ATOM     15  C   UNL     1      -1.893   0.499  -0.433  0.00  0.00    +0.000 C 
BRANCH  15  22
ATOM     16  O   UNL     1      -3.060  -1.574  -0.339  0.00  0.00    +0.000 OA
ATOM     17  N   UNL     1      -4.335   0.358  -0.330  0.00  0.00    +0.000 N 
ATOM     18  C   UNL     1      -5.632  -0.298  -0.426  0.00  0.00    +0.000 C 
ATOM     19  C   UNL     1      -6.602   0.814  -0.808  0.00  0.00    +0.000 C 
ATOM     20  C   UNL     1      -5.968   2.062  -0.199  0.00  0.00    +0.000 C 
ATOM     21  C   UNL     1      -4.476   1.811  -0.361  0.00  0.00    +0.000 C 
ATOM     22  C   UNL     1      -3.141  -0.344  -0.367  0.00  0.00    +0.000 C 
BRANCH  18  24
ATOM     23  O   UNL     1      -5.558  -0.397   1.989  0.00  0.00    +0.000 OA
ATOM     24  C   UNL     1      -5.941  -0.866   0.927  0.00  0.00    +0.000 C 
BRANCH  24  25
ATOM     25  O   UNL     1      -6.707  -1.979   0.816  0.00  0.00    +0.000 OA
ATOM     26  H   UNL     1      -6.919  -2.366   1.692  0.00  0.00    +0.000 HD
ENDBRANCH  24  25
ENDBRANCH  18  24
ENDBRANCH  15  22
ENDBRANCH  14  15
ENDBRANCH   1  14
TORSDOF 9
