REMARK  Name = 44537841
REMARK  14 active torsions:
REMARK  status: ('A' for Active; 'I' for Inactive)
REMARK    1  A    between atoms: O_2  and  C_10
REMARK    2  A    between atoms: O_5  and  C_29
REMARK    3  A    between atoms: N_7  and  C_18
REMARK    4  A    between atoms: N_8  and  C_28
REMARK    5  A    between atoms: C_9  and  C_14
REMARK    6  A    between atoms: C_9  and  C_15
REMARK    7  A    between atoms: C_10  and  C_16
REMARK    8  A    between atoms: C_17  and  C_18
REMARK    9  A    between atoms: C_18  and  C_21
REMARK   10  A    between atoms: C_21  and  C_24
REMARK   11  A    between atoms: C_21  and  C_25
REMARK   12  A    between atoms: C_28  and  C_29
REMARK   13  A    between atoms: C_29  and  C_30
REMARK   14  A    between atoms: C_29  and  C_31
REMARK                            x       y       z     vdW  Elec       q    Type
REMARK                         _______ _______ _______ _____ _____    ______ ____
ROOT
ATOM      1  O   UNL     1      -1.167  -0.847  -2.033  0.00  0.00    +0.000 OA
ATOM      2  N   UNL     1       0.244  -0.867  -0.186  0.00  0.00    +0.000 N 
ATOM      3  C   UNL     1       2.614  -1.329  -0.865  0.00  0.00    +0.000 C 
ATOM      4  C   UNL     1       3.087  -0.771   0.542  0.00  0.00    +0.000 C 
ATOM      5  C   UNL     1       1.152  -1.857  -0.767  0.00  0.00    +0.000 C 
ATOM      6  C   UNL     1       2.022   0.194   1.137  0.00  0.00    +0.000 C 
ATOM      7  C   UNL     1       0.615  -0.406   1.152  0.00  0.00    +0.000 C 
ATOM      8  C   UNL     1       2.655  -0.246  -1.970  0.00  0.00    +0.000 C 
ATOM      9  C   UNL     1       3.487  -2.513  -1.340  0.00  0.00    +0.000 C 
ATOM     10  C   UNL     1      -0.875  -0.444  -0.904  0.00  0.00    +0.000 C 
ENDROOT
BRANCH   4  12
ATOM     11 CL   UNL     1       8.593   1.731   0.414  0.00  0.00    +0.000 Cl
ATOM     12  C   UNL     1       4.488  -0.135   0.509  0.00  0.00    +0.000 A 
ATOM     13  C   UNL     1       4.624   1.245   0.364  0.00  0.00    +0.000 A 
ATOM     14  C   UNL     1       5.622  -0.939   0.623  0.00  0.00    +0.000 A 
ATOM     15  C   UNL     1       5.893   1.822   0.334  0.00  0.00    +0.000 A 
ATOM     16  C   UNL     1       6.892  -0.362   0.593  0.00  0.00    +0.000 A 
ATOM     17  C   UNL     1       7.027   1.018   0.449  0.00  0.00    +0.000 A 
ENDBRANCH   4  12
BRANCH   4  18
ATOM     18  O   UNL     1       3.174  -1.863   1.483  0.00  0.00    +0.000 OA
ATOM     19  H   UNL     1       3.465  -1.506   2.340  0.00  0.00    +0.000 HD
ENDBRANCH   4  18
BRANCH  10  20
ATOM     20  C   UNL     1      -1.763   0.575  -0.235  0.00  0.00    +0.000 C 
BRANCH  20  22
ATOM     21  O   UNL     1      -3.909  -0.435   1.389  0.00  0.00    +0.000 OA
ATOM     22  N   UNL     1      -3.070   0.185  -0.684  0.00  0.00    +0.000 N 
ATOM     23  N   UNL     1      -5.231  -0.601  -0.512  0.00  0.00    +0.000 N 
ATOM     24  C   UNL     1      -4.059  -0.297   0.176  0.00  0.00    +0.000 C 
ATOM     25  H   UNL     1      -3.271   0.182  -1.680  0.00  0.00    +0.000 HD
ATOM     26  H   UNL     1      -5.260  -0.444  -1.515  0.00  0.00    +0.000 HD
BRANCH  23  27
ATOM     27  C   UNL     1      -6.415  -1.119   0.133  0.00  0.00    +0.000 C 
BRANCH  27  28
ATOM     28  C   UNL     1      -7.372  -0.016   0.609  0.00  0.00    +0.000 C 
ATOM     29  C   UNL     1      -8.584  -0.642   1.304  0.00  0.00    +0.000 C 
ATOM     30  C   UNL     1      -7.837   0.880  -0.540  0.00  0.00    +0.000 C 
BRANCH  28  31
ATOM     31  O   UNL     1      -6.699   0.811   1.561  0.00  0.00    +0.000 OA
ATOM     32  H   UNL     1      -7.322   1.494   1.862  0.00  0.00    +0.000 HD
ENDBRANCH  28  31
ENDBRANCH  27  28
ENDBRANCH  23  27
ENDBRANCH  20  22
BRANCH  20  33
ATOM     33  C   UNL     1      -1.396   2.006  -0.644  0.00  0.00    +0.000 C 
ATOM     34  C   UNL     1      -1.517   2.200  -2.159  0.00  0.00    +0.000 C 
ATOM     35  C   UNL     1      -2.295   3.024   0.067  0.00  0.00    +0.000 C 
ENDBRANCH  20  33
ENDBRANCH  10  20
TORSDOF 8
