REMARK  Name = 25022340
REMARK  13 active torsions:
REMARK  status: ('A' for Active; 'I' for Inactive)
REMARK    1  A    between atoms: N_7  and  C_17
REMARK    2  A    between atoms: N_8  and  C_21
REMARK    3  A    between atoms: N_9  and  C_25
REMARK    4  A    between atoms: N_9  and  C_39
REMARK    5  A    between atoms: C_11  and  C_19
REMARK    6  A    between atoms: C_20  and  C_22
REMARK    7  A    between atoms: C_21  and  C_26
REMARK    8  A    between atoms: C_21  and  C_27
REMARK    9  A    between atoms: C_22  and  C_24
REMARK   10  A    between atoms: C_23  and  C_25
REMARK   11  A    between atoms: C_24  and  C_28
REMARK   12  A    between atoms: C_24  and  C_29
REMARK   13  A    between atoms: C_25  and  C_30
REMARK                            x       y       z     vdW  Elec       q    Type
REMARK                         _______ _______ _______ _____ _____    ______ ____
ROOT
ATOM      1  O   UNL     1      -1.204  -0.002  -1.496  0.00  0.00    +0.000 OA
ATOM      2  O   UNL     1      -0.498   0.441   3.695  0.00  0.00    +0.000 OA
ATOM      3  N   UNL     1      -1.061   1.951  -0.272  0.00  0.00    +0.000 N 
ATOM      4  N   UNL     1      -2.241   0.513   2.157  0.00  0.00    +0.000 N 
ATOM      5  C   UNL     1      -1.652   3.094   0.441  0.00  0.00    +0.000 C 
ATOM      6  C   UNL     1       0.316   2.236  -0.672  0.00  0.00    +0.000 C 
ATOM      7  C   UNL     1      -0.783   4.267  -0.027  0.00  0.00    +0.000 C 
ATOM      8  C   UNL     1       0.601   3.656  -0.192  0.00  0.00    +0.000 C 
ATOM      9  C   UNL     1      -1.611   2.931   1.969  0.00  0.00    +0.000 C 
ATOM     10  C   UNL     1      -2.586   1.887   2.527  0.00  0.00    +0.000 C 
ATOM     11  C   UNL     1      -1.730   0.824  -0.745  0.00  0.00    +0.000 C 
ATOM     12  C   UNL     1      -3.135   0.597  -0.196  0.00  0.00    +0.000 C 
ATOM     13  C   UNL     1      -3.087  -0.139   1.144  0.00  0.00    +0.000 C 
ATOM     14  C   UNL     1      -1.172  -0.104   2.816  0.00  0.00    +0.000 C 
ENDROOT
BRANCH   6  17
ATOM     15  O   UNL     1       0.910   0.791   1.132  0.00  0.00    +0.000 OA
ATOM     16  N   UNL     1       2.342   0.962  -0.695  0.00  0.00    +0.000 N 
ATOM     17  C   UNL     1       1.199   1.250   0.030  0.00  0.00    +0.000 C 
ATOM     18  H   UNL     1       2.465   1.387  -1.610  0.00  0.00    +0.000 HD
BRANCH  16  19
ATOM     19  C   UNL     1       3.367   0.057  -0.228  0.00  0.00    +0.000 C 
BRANCH  19  20
ATOM     20  C   UNL     1       4.750   0.454  -0.712  0.00  0.00    +0.000 A 
ATOM     21  C   UNL     1       5.235  -0.043  -1.921  0.00  0.00    +0.000 A 
ATOM     22  C   UNL     1       5.536   1.316   0.053  0.00  0.00    +0.000 A 
ATOM     23  C   UNL     1       6.506   0.322  -2.366  0.00  0.00    +0.000 A 
ATOM     24  C   UNL     1       6.807   1.681  -0.392  0.00  0.00    +0.000 A 
ATOM     25  C   UNL     1       7.292   1.184  -1.601  0.00  0.00    +0.000 A 
ENDBRANCH  19  20
BRANCH  19  26
ATOM     26  C   UNL     1       3.041  -1.393  -0.536  0.00  0.00    +0.000 A 
ATOM     27  C   UNL     1       3.500  -2.406   0.306  0.00  0.00    +0.000 A 
ATOM     28  C   UNL     1       2.281  -1.713  -1.662  0.00  0.00    +0.000 A 
ATOM     29  C   UNL     1       3.200  -3.739   0.023  0.00  0.00    +0.000 A 
ATOM     30  C   UNL     1       1.981  -3.046  -1.945  0.00  0.00    +0.000 A 
ATOM     31  C   UNL     1       2.441  -4.058  -1.103  0.00  0.00    +0.000 A 
ENDBRANCH  19  26
ENDBRANCH  16  19
ENDBRANCH   6  17
BRANCH  12  33
ATOM     32  O   UNL     1      -5.963   0.705  -0.722  0.00  0.00    +0.000 OA
ATOM     33  N   UNL     1      -3.865  -0.178  -1.171  0.00  0.00    +0.000 N 
ATOM     34  C   UNL     1      -5.236  -0.058  -1.355  0.00  0.00    +0.000 C 
ATOM     35  H   UNL     1      -3.349  -0.851  -1.730  0.00  0.00    +0.000 HD
BRANCH  34  36
ATOM     36  C   UNL     1      -5.753  -1.000  -2.435  0.00  0.00    +0.000 C 
ATOM     37  C   UNL     1      -5.744  -0.305  -3.791  0.00  0.00    +0.000 C 
BRANCH  36  38
ATOM     38  N   UNL     1      -7.113  -1.401  -2.082  0.00  0.00    +0.000 NA
ATOM     39  C   UNL     1      -7.097  -2.450  -1.074  0.00  0.00    +0.000 C 
ATOM     40  H   UNL     1      -7.590  -1.758  -2.910  0.00  0.00    +0.000 HD
ENDBRANCH  36  38
ENDBRANCH  34  36
ENDBRANCH  12  33
BRANCH  14  41
ATOM     41  C   UNL     1      -0.837  -1.516   2.404  0.00  0.00    +0.000 C 
BRANCH  41  42
ATOM     42  C   UNL     1       0.340  -2.046   3.221  0.00  0.00    +0.000 C 
ATOM     43  C   UNL     1       0.031  -2.058   4.720  0.00  0.00    +0.000 C 
ATOM     44  C   UNL     1       0.694  -3.459   2.753  0.00  0.00    +0.000 C 
ENDBRANCH  41  42
ENDBRANCH  14  41
TORSDOF 9
