REMARK  Name = 17754065
REMARK  13 active torsions:
REMARK  status: ('A' for Active; 'I' for Inactive)
REMARK    1  A    between atoms: O_1  and  C_15
REMARK    2  A    between atoms: O_3  and  C_16
REMARK    3  A    between atoms: O_4  and  C_17
REMARK    4  A    between atoms: N_7  and  CE_12
REMARK    5  A    between atoms: N_7  and  CA_14
REMARK    6  A    between atoms: N_8  and  CA_13
REMARK    7  A    between atoms: CG_9  and  CD_10
REMARK    8  A    between atoms: CG_9  and  CB_11
REMARK    9  A    between atoms: CD_10  and  CE_12
REMARK   10  A    between atoms: CB_11  and  CA_13
REMARK   11  A    between atoms: CA_13  and  C_15
REMARK   12  A    between atoms: CA_14  and  C_16
REMARK   13  A    between atoms: CA_14  and  C_17
REMARK                            x       y       z     vdW  Elec       q    Type
REMARK                         _______ _______ _______ _____ _____    ______ ____
ROOT
ATOM      1  CE  UNL     1      -0.623  -0.030  -0.072  0.00  0.00    +0.000 C 
ENDROOT
BRANCH   1   2
ATOM      2  N   UNL     1      -1.900  -0.443   0.498  0.00  0.00    +0.000 NA
ATOM      3  H   UNL     1      -1.857  -1.449   0.666  0.00  0.00    +0.000 HD
BRANCH   2   4
ATOM      4  CA  UNL     1      -2.997  -0.138  -0.409  0.00  0.00    +0.000 C 
BRANCH   4   6
ATOM      5  O   UNL     1      -3.169   2.005   0.748  0.00  0.00    +0.000 OA
ATOM      6  C   UNL     1      -3.318   1.333  -0.263  0.00  0.00    +0.000 C 
BRANCH   6   7
ATOM      7  O   UNL     1      -3.852   1.830  -1.410  0.00  0.00    +0.000 OA
ATOM      8  H   UNL     1      -4.084   2.780  -1.323  0.00  0.00    +0.000 HD
ENDBRANCH   6   7
ENDBRANCH   4   6
BRANCH   4  10
ATOM      9  OXT UNL     1      -5.241  -0.755   0.319  0.00  0.00    +0.000 OA
ATOM     10  C   UNL     1      -4.126  -1.087  -0.061  0.00  0.00    +0.000 C 
BRANCH  10  11
ATOM     11  O   UNL     1      -3.760  -2.389  -0.208  0.00  0.00    +0.000 OA
ATOM     12  H   UNL     1      -4.491  -3.001   0.022  0.00  0.00    +0.000 HD
ENDBRANCH  10  11
ENDBRANCH   4  10
ENDBRANCH   2   4
ENDBRANCH   1   2
BRANCH   1  13
ATOM     13  CD  UNL     1       0.517  -0.346   0.895  0.00  0.00    +0.000 C 
BRANCH  13  14
ATOM     14  CG  UNL     1       1.866   0.089   0.316  0.00  0.00    +0.000 C 
BRANCH  14  15
ATOM     15  CB  UNL     1       3.057  -0.224   1.231  0.00  0.00    +0.000 C 
BRANCH  15  16
ATOM     16  CA  UNL     1       4.414   0.264   0.708  0.00  0.00    +0.000 C 
BRANCH  16  17
ATOM     17  N   UNL     1       4.422   1.715   0.520  0.00  0.00    +0.000 NA
ATOM     18  H1  UNL     1       5.366   2.026   0.290  0.00  0.00    +0.000 HD
ATOM     19  H2  UNL     1       4.178   2.174   1.397  0.00  0.00    +0.000 HD
ENDBRANCH  16  17
BRANCH  16  21
ATOM     20  OXT UNL     1       4.980   0.271  -1.639  0.00  0.00    +0.000 OA
ATOM     21  C   UNL     1       4.804  -0.372  -0.611  0.00  0.00    +0.000 C 
BRANCH  21  22
ATOM     22  O   UNL     1       4.926  -1.722  -0.561  0.00  0.00    +0.000 OA
ATOM     23  H   UNL     1       5.170  -2.100  -1.433  0.00  0.00    +0.000 HD
ENDBRANCH  21  22
ENDBRANCH  16  21
ENDBRANCH  15  16
ENDBRANCH  14  15
ENDBRANCH  13  14
ENDBRANCH   1  13
TORSDOF 13
