REMARK  Name = 
REMARK  20 active torsions:
REMARK  status: ('A' for Active; 'I' for Inactive)
REMARK    1  A    between atoms: C_1  and  C_2
REMARK    2  A    between atoms: C_2  and  C_3
REMARK    3  A    between atoms: C_3  and  C_4
REMARK    4  A    between atoms: C_4  and  C_5
REMARK    5  A    between atoms: C_5  and  N_6
REMARK    6  A    between atoms: C_7  and  C_9
REMARK    7  A    between atoms: C_9  and  C_10
REMARK    8  A    between atoms: C_9  and  N_25
REMARK    9  A    between atoms: C_10  and  C_11
REMARK   10  A    between atoms: C_14  and  O_15
REMARK   11  A    between atoms: O_15  and  C_16
REMARK   12  A    between atoms: C_16  and  C_17
REMARK   13  A    between atoms: C_16  and  C_20
REMARK   14  A    between atoms: C_17  and  O_19
REMARK   15  A    between atoms: C_20  and  O_22
REMARK   16  A    between atoms: N_28  and  CA_29
REMARK   17  A    between atoms: CA_29  and  CB_30
REMARK   18  A    between atoms: CA_29  and  C_37
REMARK   19  A    between atoms: CB_30  and  CG_31
REMARK   20  A    between atoms: C_37  and  OXT_39
REMARK                            x       y       z     vdW  Elec       q    Type
REMARK                         _______ _______ _______ _____ _____    ______ ____
ROOT
ATOM      1  C   UNK A   0      -0.229   1.423  -0.936  0.00  0.00    +0.000 C 
ENDROOT
BRANCH   1   2
ATOM      2  N   UNK A   0       1.287   0.997  -1.235  0.00  0.00    +0.000 N 
ATOM      3  C   UNK A   0       1.583  -0.370  -1.082  0.00  0.00    +0.000 C 
ATOM      4  O   UNK A   0       1.130  -0.904  -0.044  0.00  0.00    +0.000 OA
ATOM      5  N   PHE A   1       2.912  -0.740  -1.482  0.00  0.00    +0.000 N 
ATOM      6  H   UNK A   0       1.969   1.651  -1.509  0.00  0.00    +0.000 HD
ATOM      7  H   PHE A   1       3.412  -0.285  -2.197  0.00  0.00    +0.000 HD
BRANCH   5   8
ATOM      8  CA  PHE A   1       3.494  -1.975  -0.636  0.00  0.00    +0.000 C 
BRANCH   8   9
ATOM      9  C   PHE A   1       4.018  -1.063   0.627  0.00  0.00    +0.000 C 
ATOM     10  O   PHE A   1       3.768  -1.752   1.666  0.00  0.00    +0.000 OA
BRANCH   9  11
ATOM     11  OXT PHE A   1       3.681   0.240   0.677  0.00  0.00    +0.000 OA
ATOM     12  HXT PHE A   1       3.842   0.795  -0.060  0.00  0.00    +0.000 HD
ENDBRANCH   9  11
ENDBRANCH   8   9
BRANCH   8  13
ATOM     13  CB  PHE A   1       4.973  -1.839  -1.412  0.00  0.00    +0.000 C 
BRANCH  13  14
ATOM     14  CG  PHE A   1       5.955  -2.225  -0.382  0.00  0.00    +0.000 A 
ATOM     15  CD1 PHE A   1       5.983  -3.416   0.286  0.00  0.00    +0.000 A 
ATOM     16  CE1 PHE A   1       6.959  -3.663   1.243  0.00  0.00    +0.000 A 
ATOM     17  CZ  PHE A   1       7.826  -2.644   1.616  0.00  0.00    +0.000 A 
ATOM     18  CE2 PHE A   1       7.673  -1.382   1.105  0.00  0.00    +0.000 A 
ATOM     19  CD2 PHE A   1       6.806  -1.221   0.059  0.00  0.00    +0.000 A 
ENDBRANCH  13  14
ENDBRANCH   8  13
ENDBRANCH   5   8
ENDBRANCH   1   2
BRANCH   1  21
ATOM     20  N   UNK A   0      -0.807   3.642   0.199  0.00  0.00    +0.000 N 
ATOM     21  C   UNK A   0       0.263   2.755  -0.112  0.00  0.00    +0.000 C 
ATOM     22  O   UNK A   0       1.129   2.564   0.747  0.00  0.00    +0.000 OA
ATOM     23  H   UNK A   0      -1.754   3.392   0.101  0.00  0.00    +0.000 HD
BRANCH  20  24
ATOM     24  C   UNK A   0      -0.381   4.956   0.676  0.00  0.00    +0.000 C 
BRANCH  24  25
ATOM     25  C   UNK A   0       0.769   5.401  -0.199  0.00  0.00    +0.000 C 
BRANCH  25  26
ATOM     26  C   UNK A   0       0.931   6.900  -0.212  0.00  0.00    +0.000 C 
BRANCH  26  28
ATOM     27  C   UNK A   0      -0.323   8.970  -0.301  0.00  0.00    +0.000 C 
ATOM     28  C   UNK A   0      -0.345   7.589  -0.650  0.00  0.00    +0.000 C 
ENDBRANCH  26  28
ENDBRANCH  25  26
ENDBRANCH  24  25
ENDBRANCH  20  24
ENDBRANCH   1  21
BRANCH   1  29
ATOM     29  C   UNK A   0      -0.351   0.510   0.470  0.00  0.00    +0.000 C 
BRANCH  29  30
ATOM     30  C   UNK A   0      -1.813   0.192   0.507  0.00  0.00    +0.000 A 
ATOM     31  C   UNK A   0      -2.318  -1.050   0.863  0.00  0.00    +0.000 A 
ATOM     32  C   UNK A   0      -3.289  -1.589   0.025  0.00  0.00    +0.000 A 
ATOM     33  C   UNK A   0      -4.288  -0.710  -0.379  0.00  0.00    +0.000 A 
ATOM     34  C   UNK A   0      -4.055   0.655  -0.252  0.00  0.00    +0.000 A 
ATOM     35  C   UNK A   0      -2.760   1.081   0.015  0.00  0.00    +0.000 A 
BRANCH  33  36
ATOM     36  O   UNK A   0      -5.395  -1.208  -1.024  0.00  0.00    +0.000 OA
BRANCH  36  37
ATOM     37  C   UNK A   0      -6.095  -2.370  -0.692  0.00  0.00    +0.000 C 
BRANCH  37  38
ATOM     38  C   UNK A   0      -5.254  -3.454  -0.154  0.00  0.00    +0.000 C 
ATOM     39  O   UNK A   0      -4.648  -4.180  -0.988  0.00  0.00    +0.000 OA
BRANCH  38  40
ATOM     40  O   UNK A   0      -5.598  -4.047   1.062  0.00  0.00    +0.000 OA
ATOM     41  H   UNK A   0      -6.050  -3.549   1.715  0.00  0.00    +0.000 HD
ENDBRANCH  38  40
ENDBRANCH  37  38
BRANCH  37  42
ATOM     42  C   UNK A   0      -7.288  -2.083   0.152  0.00  0.00    +0.000 C 
ATOM     43  O   UNK A   0      -7.882  -3.042   0.725  0.00  0.00    +0.000 OA
BRANCH  42  44
ATOM     44  O   UNK A   0      -8.021  -0.948  -0.164  0.00  0.00    +0.000 OA
ATOM     45  H   UNK A   0      -7.604  -0.224  -0.588  0.00  0.00    +0.000 HD
ENDBRANCH  42  44
ENDBRANCH  37  42
ENDBRANCH  36  37
ENDBRANCH  33  36
ENDBRANCH  29  30
ENDBRANCH   1  29
TORSDOF 19
