REMARK  Name = 439968
REMARK  11 active torsions:
REMARK  status: ('A' for Active; 'I' for Inactive)
REMARK    1  A    between atoms: O_1  and  C_14
REMARK    2  A    between atoms: O_4  and  C_18
REMARK    3  A    between atoms: N_6  and  CA_11
REMARK    4  A    between atoms: NE_7  and  CD_13
REMARK    5  A    between atoms: CB_10  and  CA_11
REMARK    6  A    between atoms: CB_10  and  CG_12
REMARK    7  A    between atoms: CA_11  and  C_14
REMARK    8  A    between atoms: CG_12  and  CD_13
REMARK    9  A    between atoms: C_15  and  C_16
REMARK   10  A    between atoms: C_16  and  C_17
REMARK   11  A    between atoms: C_17  and  C_18
REMARK                            x       y       z     vdW  Elec       q    Type
REMARK                         _______ _______ _______ _____ _____    ______ ____
ROOT
ATOM      1  CA  ARG A   1       0.065   1.948   0.513  0.00  0.00    +0.000 C 
ENDROOT
BRANCH   1   3
ATOM      2  O   UNK A   0      -2.181   0.702   1.845  0.00  0.00    +0.000 OA
ATOM      3  N   ARG A   1      -0.941   1.104  -0.080  0.00  0.00    +0.000 N 
ATOM      4  C   UNK A   0      -1.989   0.546   0.642  0.00  0.00    +0.000 C 
ATOM      5  H   ARG A   1      -0.863   0.888  -1.070  0.00  0.00    +0.000 HD
BRANCH   4   6
ATOM      6  C   UNK A   0      -2.892  -0.298  -0.240  0.00  0.00    +0.000 C 
BRANCH   6   7
ATOM      7  C   UNK A   0      -4.050  -0.919   0.534  0.00  0.00    +0.000 C 
BRANCH   7   9
ATOM      8  O   UNK A   0      -4.783  -1.929  -1.555  0.00  0.00    +0.000 OA
ATOM      9  C   UNK A   0      -4.936  -1.761  -0.353  0.00  0.00    +0.000 C 
BRANCH   9  10
ATOM     10  O   UNK A   0      -5.948  -2.330   0.353  0.00  0.00    +0.000 OA
ATOM     11  H   UNK A   0      -6.527  -2.880  -0.217  0.00  0.00    +0.000 HD
ENDBRANCH   9  10
ENDBRANCH   7   9
ENDBRANCH   6   7
ENDBRANCH   4   6
ENDBRANCH   1   3
BRANCH   1  13
ATOM     12  OXT ARG A   1       1.219   3.937  -0.293  0.00  0.00    +0.000 OA
ATOM     13  C   ARG A   1       0.468   2.995  -0.508  0.00  0.00    +0.000 C 
BRANCH  13  14
ATOM     14  O   ARG A   1      -0.076   2.750  -1.728  0.00  0.00    +0.000 OA
ATOM     15  H   ARG A   1       0.199   3.417  -2.392  0.00  0.00    +0.000 HD
ENDBRANCH  13  14
ENDBRANCH   1  13
BRANCH   1  16
ATOM     16  CB  ARG A   1       1.264   1.151   1.035  0.00  0.00    +0.000 C 
BRANCH  16  17
ATOM     17  CG  ARG A   1       2.008   0.354  -0.043  0.00  0.00    +0.000 C 
BRANCH  17  18
ATOM     18  CD  ARG A   1       3.159  -0.445   0.558  0.00  0.00    +0.000 C 
BRANCH  18  19
ATOM     19  NE  ARG A   1       3.832  -1.189  -0.508  0.00  0.00    +0.000 NA
ATOM     20  NH1 ARG A   1       5.538  -2.639  -1.105  0.00  0.00    +0.000 N 
ATOM     21  NH2 ARG A   1       5.389  -2.067   1.096  0.00  0.00    +0.000 N 
ATOM     22  CZ  ARG A   1       4.852  -1.910  -0.162  0.00  0.00    +0.000 C 
ATOM     23 HH11 ARG A   1       5.261  -2.627  -2.080  0.00  0.00    +0.000 HD
ATOM     24 HH12 ARG A   1       6.338  -3.210  -0.855  0.00  0.00    +0.000 HD
ATOM     25 HH21 ARG A   1       5.005  -1.600   1.910  0.00  0.00    +0.000 HD
ATOM     26 HH22 ARG A   1       6.196  -2.662   1.250  0.00  0.00    +0.000 HD
ENDBRANCH  18  19
ENDBRANCH  17  18
ENDBRANCH  16  17
ENDBRANCH   1  16
TORSDOF 11
