REMARK  Name = 9600398
REMARK  15 active torsions:
REMARK  status: ('A' for Active; 'I' for Inactive)
REMARK    1  A    between atoms: S_1  and  C_14
REMARK    2  A    between atoms: S_2  and  C_17
REMARK    3  A    between atoms: S_2  and  C_24
REMARK    4  A    between atoms: O_4  and  C_18
REMARK    5  A    between atoms: O_8  and  C_25
REMARK    6  A    between atoms: N_10  and  C_16
REMARK    7  A    between atoms: N_11  and  C_13
REMARK    8  A    between atoms: N_12  and  C_23
REMARK    9  A    between atoms: C_16  and  C_17
REMARK   10  A    between atoms: C_16  and  C_18
REMARK   11  A    between atoms: C_19  and  C_20
REMARK   12  A    between atoms: C_20  and  C_21
REMARK   13  A    between atoms: C_21  and  C_22
REMARK   14  A    between atoms: C_22  and  C_23
REMARK   15  A    between atoms: C_23  and  C_25
REMARK                            x       y       z     vdW  Elec       q    Type
REMARK                         _______ _______ _______ _____ _____    ______ ____
ROOT
ATOM      1  O   UNK A   1      -1.438  -0.018   1.562  0.00  0.00    +0.000 OA
ATOM      2  N   UNK A   2      -2.753  -0.118  -0.388  0.00  0.00    +0.000 N 
ATOM      3  C   UNK A   1      -1.013   0.922  -0.769  0.00  0.00    +0.000 C 
ATOM      4  C   UNK A   1      -2.246   0.522  -1.591  0.00  0.00    +0.000 C 
ATOM      5  C   UNK A   1      -1.688   0.193   0.398  0.00  0.00    +0.000 C 
ENDROOT
BRANCH   3   7
ATOM      6  O   UNK A   1       1.421   0.947   0.787  0.00  0.00    +0.000 OA
ATOM      7  N   UNK A   1       0.290   0.349  -1.148  0.00  0.00    +0.000 N 
ATOM      8  C   UNK A   1       1.405   0.416  -0.321  0.00  0.00    +0.000 C 
ATOM      9  H   UNK A   1       0.392  -0.109  -2.051  0.00  0.00    +0.000 HD
BRANCH   8  10
ATOM     10  C   UNK A   1       2.624  -0.226  -0.962  0.00  0.00    +0.000 C 
BRANCH  10  11
ATOM     11  C   UNK A   1       3.876  -0.175  -0.085  0.00  0.00    +0.000 C 
BRANCH  11  12
ATOM     12  C   UNK A   1       5.084  -0.842  -0.763  0.00  0.00    +0.000 C 
BRANCH  12  13
ATOM     13  C   UNK A   1       6.393  -0.772   0.038  0.00  0.00    +0.000 C 
BRANCH  13  14
ATOM     14  N   UNK A   1       6.329  -1.524   1.292  0.00  0.00    +0.000 NA
ATOM     15  H   UNK A   1       6.075  -2.492   1.096  0.00  0.00    +0.000 HD
ATOM     16  H   UNK A   1       7.252  -1.553   1.722  0.00  0.00    +0.000 HD
ENDBRANCH  13  14
BRANCH  13  18
ATOM     17  O   UNK A   1       6.932   1.115   1.491  0.00  0.00    +0.000 OA
ATOM     18  C   UNK A   1       6.792   0.656   0.365  0.00  0.00    +0.000 C 
BRANCH  18  19
ATOM     19  O   UNK A   1       6.987   1.399  -0.757  0.00  0.00    +0.000 OA
ATOM     20  H   UNK A   1       7.244   2.321  -0.544  0.00  0.00    +0.000 HD
ENDBRANCH  18  19
ENDBRANCH  13  18
ENDBRANCH  12  13
ENDBRANCH  11  12
ENDBRANCH  10  11
ENDBRANCH   8  10
ENDBRANCH   3   7
BRANCH   4  21
ATOM     21  S   UNK A   1      -1.975  -0.710  -2.910  0.00  0.00    +0.000 S 
ATOM     22  H   UNK A   1      -3.260  -0.980  -3.177  0.00  0.00    +0.000 HD
ENDBRANCH   4  21
BRANCH   2  23
ATOM     23  C   UNK A   2      -4.022  -0.707  -0.099  0.00  0.00    +0.000 C 
BRANCH  23  25
ATOM     24  O   UNK A   2      -4.812  -2.871   0.637  0.00  0.00    +0.000 OA
ATOM     25  C   UNK A   2      -3.860  -2.133   0.403  0.00  0.00    +0.000 C 
BRANCH  25  26
ATOM     26  O   UNK A   2      -2.578  -2.536   0.568  0.00  0.00    +0.000 OA
ATOM     27  H   UNK A   2      -2.522  -3.461   0.890  0.00  0.00    +0.000 HD
ENDBRANCH  25  26
ENDBRANCH  23  25
BRANCH  23  28
ATOM     28  C   UNK A   2      -4.798   0.119   0.923  0.00  0.00    +0.000 C 
BRANCH  28  29
ATOM     29  S   UNK A   2      -5.019   1.839   0.363  0.00  0.00    +0.000 S 
ATOM     30  O   UNK A   2      -5.927   1.799  -0.825  0.00  0.00    +0.000 OA
ATOM     31  C   UNK A   2      -6.002   2.356   1.790  0.00  0.00    +0.000 C 
ENDBRANCH  28  29
ENDBRANCH  23  28
ENDBRANCH   2  23
TORSDOF 14
