REMARK  Name = 6398414
REMARK  15 active torsions:
REMARK  status: ('A' for Active; 'I' for Inactive)
REMARK    1  A    between atoms: SG_1  and  CB_17
REMARK    2  A    between atoms: O_4  and  C_19
REMARK    3  A    between atoms: O_6  and  C_22
REMARK    4  A    between atoms: N_8  and  CA_14
REMARK    5  A    between atoms: N_9  and  CA_20
REMARK    6  A    between atoms: N_10  and  CA_15
REMARK    7  A    between atoms: C_11  and  C_12
REMARK    8  A    between atoms: C_11  and  C_13
REMARK    9  A    between atoms: C_12  and  CA_15
REMARK   10  A    between atoms: C_13  and  C_16
REMARK   11  A    between atoms: CA_14  and  CB_17
REMARK   12  A    between atoms: CA_14  and  C_18
REMARK   13  A    between atoms: CA_15  and  C_19
REMARK   14  A    between atoms: CA_20  and  C_21
REMARK   15  A    between atoms: CA_20  and  C_22
REMARK                            x       y       z     vdW  Elec       q    Type
REMARK                         _______ _______ _______ _____ _____    ______ ____
ROOT
ATOM      1  O   UNL     1      -1.378   0.040  -1.453  0.00  0.00    +0.000 OA
ATOM      2  N   UNL     1       0.021   0.426   0.358  0.00  0.00    +0.000 N 
ATOM      3  C   UNL     1      -1.194   0.128  -0.242  0.00  0.00    +0.000 C 
ATOM      4  H   UNL     1       0.072   0.499   1.370  0.00  0.00    +0.000 HD
ENDROOT
BRANCH   3   5
ATOM      5  C   UNL     1      -2.291  -0.081   0.786  0.00  0.00    +0.000 C 
BRANCH   5   6
ATOM      6  C   UNL     1      -3.638  -0.410   0.145  0.00  0.00    +0.000 C 
BRANCH   6   7
ATOM      7  C   UNL     1      -4.733  -0.571   1.208  0.00  0.00    +0.000 C 
BRANCH   7   8
ATOM      8  CA  UNL     1      -6.133  -0.852   0.644  0.00  0.00    +0.000 C 
BRANCH   8   9
ATOM      9  N   UNL     1      -6.180  -2.130  -0.064  0.00  0.00    +0.000 NA
ATOM     10  H1  UNL     1      -5.884  -2.878   0.562  0.00  0.00    +0.000 HD
ATOM     11  H2  UNL     1      -7.142  -2.342  -0.325  0.00  0.00    +0.000 HD
ENDBRANCH   8   9
BRANCH   8  13
ATOM     12  OXT UNL     1      -6.886   0.089  -1.486  0.00  0.00    +0.000 OA
ATOM     13  C   UNL     1      -6.595   0.234  -0.307  0.00  0.00    +0.000 C 
BRANCH  13  14
ATOM     14  O   UNL     1      -6.664   1.430   0.334  0.00  0.00    +0.000 OA
ATOM     15  H   UNL     1      -6.967   2.148  -0.262  0.00  0.00    +0.000 HD
ENDBRANCH  13  14
ENDBRANCH   8  13
ENDBRANCH   7   8
ENDBRANCH   6   7
ENDBRANCH   5   6
ENDBRANCH   3   5
BRANCH   2  16
ATOM     16  CA  UNL     1       1.217   0.667  -0.413  0.00  0.00    +0.000 C 
BRANCH  16  19
ATOM     17  O   UNL     1       2.336  -0.325   1.498  0.00  0.00    +0.000 OA
ATOM     18  N   UNL     1       3.597   0.222  -0.371  0.00  0.00    +0.000 N 
ATOM     19  C   UNL     1       2.419   0.124   0.357  0.00  0.00    +0.000 C 
ATOM     20  H   UNL     1       3.553   0.527  -1.339  0.00  0.00    +0.000 HD
BRANCH  18  21
ATOM     21  CA  UNL     1       4.874  -0.204   0.152  0.00  0.00    +0.000 C 
BRANCH  21  23
ATOM     22  OXT UNL     1       6.180  -2.235   0.296  0.00  0.00    +0.000 OA
ATOM     23  C   UNL     1       5.169  -1.671  -0.111  0.00  0.00    +0.000 C 
BRANCH  23  24
ATOM     24  O   UNL     1       4.230  -2.315  -0.845  0.00  0.00    +0.000 OA
ATOM     25  H   UNL     1       4.463  -3.256  -0.994  0.00  0.00    +0.000 HD
ENDBRANCH  23  24
ENDBRANCH  21  23
BRANCH  21  26
ATOM     26  C   UNL     1       5.960   0.609  -0.483  0.00  0.00    +0.000 C 
ATOM     27  C   UNL     1       6.778   1.418   0.200  0.00  0.00    +0.000 C 
ENDBRANCH  21  26
ENDBRANCH  18  21
ENDBRANCH  16  19
BRANCH  16  28
ATOM     28  CB  UNL     1       1.366   2.138  -0.811  0.00  0.00    +0.000 C 
BRANCH  28  29
ATOM     29  SG  UNL     1       1.545   3.269   0.607  0.00  0.00    +0.000 S 
ATOM     30  HG  UNL     1       1.629   4.399  -0.110  0.00  0.00    +0.000 HD
ENDBRANCH  28  29
ENDBRANCH  16  28
ENDBRANCH   2  16
TORSDOF 15
