REMARK  Name = 17753992
REMARK  18 active torsions:
REMARK  status: ('A' for Active; 'I' for Inactive)
REMARK    1  A    between atoms: SG_2  and  CB_18
REMARK    2  A    between atoms: SG_2  and  C_22
REMARK    3  A    between atoms: O_5  and  C_22
REMARK    4  A    between atoms: O_6  and  C_23
REMARK    5  A    between atoms: O_7  and  N_14
REMARK    6  A    between atoms: O_9  and  C_28
REMARK    7  A    between atoms: N_11  and  CA_15
REMARK    8  A    between atoms: N_12  and  CA_24
REMARK    9  A    between atoms: N_13  and  CA_19
REMARK   10  A    between atoms: N_14  and  C_22
REMARK   11  A    between atoms: N_14  and  C_25
REMARK   12  A    between atoms: CA_15  and  CB_18
REMARK   13  A    between atoms: CA_15  and  C_21
REMARK   14  A    between atoms: C_16  and  C_17
REMARK   15  A    between atoms: C_16  and  CA_19
REMARK   16  A    between atoms: C_17  and  C_20
REMARK   17  A    between atoms: CA_19  and  C_23
REMARK   18  A    between atoms: CA_24  and  C_28
REMARK                            x       y       z     vdW  Elec       q    Type
REMARK                         _______ _______ _______ _____ _____    ______ ____
ROOT
ATOM      1  CA  UNL     1      -2.027   0.357  -1.005  0.00  0.00    +0.000 C 
ENDROOT
BRANCH   1   3
ATOM      2  O   UNL     1      -0.594  -1.308   0.867  0.00  0.00    +0.000 OA
ATOM      3  N   UNL     1      -1.128  -0.730  -1.319  0.00  0.00    +0.000 N 
ATOM      4  C   UNL     1      -0.482  -1.477  -0.344  0.00  0.00    +0.000 C 
ATOM      5  H   UNL     1      -1.016  -0.990  -2.295  0.00  0.00    +0.000 HD
BRANCH   4   6
ATOM      6  C   UNL     1       0.407  -2.545  -0.958  0.00  0.00    +0.000 C 
BRANCH   6   7
ATOM      7  C   UNL     1       1.130  -3.381   0.101  0.00  0.00    +0.000 C 
BRANCH   7   8
ATOM      8  CA  UNL     1       1.973  -4.508  -0.505  0.00  0.00    +0.000 C 
BRANCH   8   9
ATOM      9  N   UNL     1       2.236  -5.526   0.515  0.00  0.00    +0.000 NA
ATOM     10  H1  UNL     1       2.738  -6.308   0.096  0.00  0.00    +0.000 HD
ATOM     11  H2  UNL     1       1.353  -5.908   0.853  0.00  0.00    +0.000 HD
ENDBRANCH   8   9
BRANCH   8  13
ATOM     12  OXT UNL     1       4.320  -3.898  -0.261  0.00  0.00    +0.000 OA
ATOM     13  C   UNL     1       3.326  -3.998  -0.969  0.00  0.00    +0.000 C 
BRANCH  13  14
ATOM     14  O   UNL     1       3.316  -3.628  -2.276  0.00  0.00    +0.000 OA
ATOM     15  H   UNL     1       4.189  -3.287  -2.566  0.00  0.00    +0.000 HD
ENDBRANCH  13  14
ENDBRANCH   8  13
ENDBRANCH   7   8
ENDBRANCH   6   7
ENDBRANCH   4   6
ENDBRANCH   1   3
BRANCH   1  18
ATOM     16  O   UNL     1      -3.877  -1.169  -1.378  0.00  0.00    +0.000 OA
ATOM     17  N   UNL     1      -4.106   0.489   0.229  0.00  0.00    +0.000 N 
ATOM     18  C   ACE A   1      -3.422  -0.212  -0.754  0.00  0.00    +0.000 C 
ATOM     19  H   UNL     1      -3.653   1.268   0.698  0.00  0.00    +0.000 HD
BRANCH  17  20
ATOM     20  CA  UNL     1      -5.454   0.157   0.627  0.00  0.00    +0.000 C 
BRANCH  20  22
ATOM     21  OXT UNL     1      -6.550  -1.263   2.232  0.00  0.00    +0.000 OA
ATOM     22  C   UNL     1      -5.503  -0.843   1.753  0.00  0.00    +0.000 C 
BRANCH  22  23
ATOM     23  O   UNL     1      -4.282  -1.232   2.186  0.00  0.00    +0.000 OA
ATOM     24  H   UNL     1      -4.341  -1.882   2.918  0.00  0.00    +0.000 HD
ENDBRANCH  22  23
ENDBRANCH  20  22
ENDBRANCH  17  20
ENDBRANCH   1  18
BRANCH   1  25
ATOM     25  CB  UNL     1      -2.002   1.458  -2.067  0.00  0.00    +0.000 C 
BRANCH  25  26
ATOM     26  SG  UNL     1      -0.346   2.164  -2.356  0.00  0.00    +0.000 S 
BRANCH  26  27
ATOM     27  C   UNL     1      -0.278   3.299  -0.922  0.00  0.00    +0.000 C 
BRANCH  27  28
ATOM     28  O   UNL     1      -1.091   4.452  -1.152  0.00  0.00    +0.000 OA
ATOM     29  H   UNL     1      -0.741   4.878  -1.953  0.00  0.00    +0.000 HD
ENDBRANCH  27  28
BRANCH  27  30
ATOM     30  N   UNL     1       1.105   3.686  -0.647  0.00  0.00    +0.000 N 
BRANCH  30  32
ATOM     31 BR   UNL     1       4.865   0.741   3.112  0.00  0.00    +0.000 Br
ATOM     32  C   UNL     1       1.970   3.009   0.218  0.00  0.00    +0.000 A 
ATOM     33  C   UNL     1       1.530   1.871   0.895  0.00  0.00    +0.000 A 
ATOM     34  C   UNL     1       3.274   3.470   0.404  0.00  0.00    +0.000 A 
ATOM     35  C   UNL     1       2.393   1.196   1.758  0.00  0.00    +0.000 A 
ATOM     36  C   UNL     1       4.137   2.795   1.267  0.00  0.00    +0.000 A 
ATOM     37  C   UNL     1       3.696   1.657   1.944  0.00  0.00    +0.000 A 
ENDBRANCH  30  32
BRANCH  30  38
ATOM     38  O   UNL     1       1.460   4.916  -1.196  0.00  0.00    +0.000 OA
ATOM     39  H   UNL     1       1.145   5.536  -0.516  0.00  0.00    +0.000 HD
ENDBRANCH  30  38
ENDBRANCH  27  30
ENDBRANCH  26  27
ENDBRANCH  25  26
ENDBRANCH   1  25
TORSDOF 18
