REMARK  Name = 444461
REMARK  15 active torsions:
REMARK  status: ('A' for Active; 'I' for Inactive)
REMARK    1  A    between atoms: SG_1  and  C_12
REMARK    2  A    between atoms: SG_1  and  CB_18
REMARK    3  A    between atoms: O_2  and  C_13
REMARK    4  A    between atoms: O_5  and  C_34
REMARK    5  A    between atoms: O_7  and  C_35
REMARK    6  A    between atoms: N_9  and  CA_20
REMARK    7  A    between atoms: N_10  and  CA_33
REMARK    8  A    between atoms: N_11  and  CA_32
REMARK    9  A    between atoms: CB_18  and  CA_20
REMARK   10  A    between atoms: CA_20  and  C_28
REMARK   11  A    between atoms: C_29  and  C_30
REMARK   12  A    between atoms: C_29  and  C_31
REMARK   13  A    between atoms: C_31  and  CA_32
REMARK   14  A    between atoms: CA_32  and  C_34
REMARK   15  A    between atoms: CA_33  and  C_35
REMARK                            x       y       z     vdW  Elec       q    Type
REMARK                         _______ _______ _______ _____ _____    ______ ____
ROOT
ATOM      1  CA  UNL     1      -1.448  -2.382  -0.561  0.00  0.00    +0.000 C 
ENDROOT
BRANCH   1   4
ATOM      2  O   UNL     1      -0.761  -3.550   1.452  0.00  0.00    +0.000 OA
ATOM      3  N   UNL     1       0.494  -3.825  -0.479  0.00  0.00    +0.000 N 
ATOM      4  C   ACE A   1      -0.560  -3.312   0.263  0.00  0.00    +0.000 C 
ATOM      5  H   UNL     1       0.578  -3.594  -1.464  0.00  0.00    +0.000 HD
BRANCH   3   6
ATOM      6  CA  UNL     1       1.485  -4.711   0.085  0.00  0.00    +0.000 C 
BRANCH   6   8
ATOM      7  OXT UNL     1       3.621  -4.543   1.183  0.00  0.00    +0.000 OA
ATOM      8  C   UNL     1       2.667  -3.976   0.664  0.00  0.00    +0.000 C 
BRANCH   8   9
ATOM      9  O   UNL     1       2.572  -2.631   0.558  0.00  0.00    +0.000 OA
ATOM     10  H   UNL     1       3.343  -2.179   0.963  0.00  0.00    +0.000 HD
ENDBRANCH   8   9
ENDBRANCH   6   8
ENDBRANCH   3   6
ENDBRANCH   1   4
BRANCH   1  12
ATOM     11  O   UNL     1      -4.141  -1.898  -1.477  0.00  0.00    +0.000 OA
ATOM     12  N   UNL     1      -2.578  -1.984   0.239  0.00  0.00    +0.000 N 
ATOM     13  C   UNL     1      -3.844  -1.774  -0.292  0.00  0.00    +0.000 C 
ATOM     14  H   UNL     1      -2.432  -1.871   1.238  0.00  0.00    +0.000 HD
BRANCH  13  15
ATOM     15  C   UNL     1      -4.839  -1.354   0.777  0.00  0.00    +0.000 C 
BRANCH  15  16
ATOM     16  C   UNL     1      -4.431  -0.055   1.475  0.00  0.00    +0.000 C 
BRANCH  16  17
ATOM     17  CA  UNL     1      -4.248   1.113   0.500  0.00  0.00    +0.000 C 
BRANCH  17  18
ATOM     18  N   UNL     1      -3.860   2.314   1.243  0.00  0.00    +0.000 NA
ATOM     19  H1  UNL     1      -2.989   2.140   1.743  0.00  0.00    +0.000 HD
ATOM     20  H2  UNL     1      -3.662   3.071   0.589  0.00  0.00    +0.000 HD
ENDBRANCH  17  18
BRANCH  17  22
ATOM     21  OXT UNL     1      -6.414   2.192   0.213  0.00  0.00    +0.000 OA
ATOM     22  C   UNL     1      -5.545   1.443  -0.216  0.00  0.00    +0.000 C 
BRANCH  22  23
ATOM     23  O   UNL     1      -5.662   0.787  -1.399  0.00  0.00    +0.000 OA
ATOM     24  H   UNL     1      -6.508   0.994  -1.851  0.00  0.00    +0.000 HD
ENDBRANCH  22  23
ENDBRANCH  17  22
ENDBRANCH  16  17
ENDBRANCH  15  16
ENDBRANCH  13  15
ENDBRANCH   1  12
BRANCH   1  25
ATOM     25  CB  UNL     1      -0.695  -1.183  -1.143  0.00  0.00    +0.000 C 
BRANCH  25  26
ATOM     26  SG  UNL     1       0.040  -0.110   0.108  0.00  0.00    +0.000 S 
BRANCH  26  27
ATOM     27  C   UNL     1       0.719   1.163  -1.025  0.00  0.00    +0.000 C 
ATOM     28  C   UNL     1       1.992   0.650  -1.723  0.00  0.00    +0.000 C 
ATOM     29  C   UNL     1       0.979   2.453  -0.271  0.00  0.00    +0.000 A 
ATOM     30  C   UNL     1       3.211   0.688  -0.828  0.00  0.00    +0.000 A 
ATOM     31  C   UNL     1       2.249   2.702   0.304  0.00  0.00    +0.000 A 
ATOM     32  C   UNL     1       3.330   1.698   0.155  0.00  0.00    +0.000 A 
ATOM     33  C   UNL     1      -0.062   3.389  -0.134  0.00  0.00    +0.000 A 
ATOM     34  C   UNL     1       4.224  -0.267  -1.002  0.00  0.00    +0.000 A 
ATOM     35  C   UNL     1       2.428   3.920   0.987  0.00  0.00    +0.000 A 
ATOM     36  C   UNL     1       4.482   1.685   0.964  0.00  0.00    +0.000 A 
ATOM     37  C   UNL     1       0.144   4.579   0.555  0.00  0.00    +0.000 A 
ATOM     38  C   UNL     1       1.388   4.846   1.112  0.00  0.00    +0.000 A 
ATOM     39  C   UNL     1       5.356  -0.248  -0.194  0.00  0.00    +0.000 A 
ATOM     40  C   UNL     1       5.483   0.724   0.790  0.00  0.00    +0.000 A 
BRANCH  28  41
ATOM     41  O   UNL     1       2.224   1.457  -2.883  0.00  0.00    +0.000 OA
ATOM     42  H   UNL     1       1.460   1.347  -3.475  0.00  0.00    +0.000 HD
ENDBRANCH  28  41
ENDBRANCH  26  27
ENDBRANCH  25  26
ENDBRANCH   1  25
TORSDOF 15
