REMARK  Name = 5288867
REMARK  15 active torsions:
REMARK  status: ('A' for Active; 'I' for Inactive)
REMARK    1  A    between atoms: O_3  and  C_19
REMARK    2  A    between atoms: O_3  and  C_21
REMARK    3  A    between atoms: N_6  and  CA_11
REMARK    4  A    between atoms: N_7  and  CA_9
REMARK    5  A    between atoms: CB_8  and  CA_9
REMARK    6  A    between atoms: CB_8  and  CG_10
REMARK    7  A    between atoms: CA_9  and  C_13
REMARK    8  A    between atoms: CG_10  and  CD1_15
REMARK    9  A    between atoms: CG_10  and  CD2_16
REMARK   10  A    between atoms: CA_11  and  C_12
REMARK   11  A    between atoms: CA_11  and  C_18
REMARK   12  A    between atoms: C_12  and  C_14
REMARK   13  A    between atoms: C_14  and  C_17
REMARK   14  A    between atoms: C_17  and  C_20
REMARK   15  A    between atoms: C_21  and  C_22
REMARK                            x       y       z     vdW  Elec       q    Type
REMARK                         _______ _______ _______ _____ _____    ______ ____
ROOT
ATOM      1  CA  UNL     1       1.522  -1.516   0.069  0.00  0.00    +0.000 C 
ENDROOT
BRANCH   1   4
ATOM      2  O   UNL     1       1.882  -0.180  -1.923  0.00  0.00    +0.000 OA
ATOM      3  N   UNL     1       3.489  -0.148  -0.246  0.00  0.00    +0.000 N 
ATOM      4  C   UNL     1       2.300  -0.561  -0.831  0.00  0.00    +0.000 C 
ATOM      5  H   UNL     1       3.767  -0.548   0.645  0.00  0.00    +0.000 HD
BRANCH   3   6
ATOM      6  CA  UNL     1       4.391   0.797  -0.866  0.00  0.00    +0.000 C 
BRANCH   6   8
ATOM      7  O   UNL     1       6.764   0.522  -1.272  0.00  0.00    +0.000 OA
ATOM      8  C   UNL     1       5.656   0.010  -1.141  0.00  0.00    +0.000 C 
ENDBRANCH   6   8
BRANCH   6   9
ATOM      9  C   UNL     1       4.619   2.009   0.036  0.00  0.00    +0.000 C 
BRANCH   9  10
ATOM     10  C   UNL     1       3.333   2.801   0.295  0.00  0.00    +0.000 C 
BRANCH  10  11
ATOM     11  C   UNL     1       3.603   4.020   1.179  0.00  0.00    +0.000 C 
ATOM     12  C   UNL     1       2.336   4.826   1.419  0.00  0.00    +0.000 C 
ENDBRANCH  10  11
ENDBRANCH   9  10
ENDBRANCH   6   9
ENDBRANCH   3   6
ENDBRANCH   1   4
BRANCH   1  14
ATOM     13  O   UNL     1      -0.049   0.476   1.483  0.00  0.00    +0.000 OA
ATOM     14  N   UNL     1       0.124  -1.212  -0.099  0.00  0.00    +0.000 N 
ATOM     15  C   UNL     1      -0.545  -0.242   0.622  0.00  0.00    +0.000 C 
ATOM     16  H   UNL     1      -0.394  -1.701  -0.823  0.00  0.00    +0.000 HD
BRANCH  15  17
ATOM     17  O   UNL     1      -1.854  -0.196   0.233  0.00  0.00    +0.000 OA
BRANCH  17  18
ATOM     18  C   UNL     1      -2.671   0.772   0.902  0.00  0.00    +0.000 C 
BRANCH  18  20
ATOM     19 BR   UNL     1      -8.425   0.441  -1.327  0.00  0.00    +0.000 Br
ATOM     20  C   UNL     1      -4.068   0.692   0.361  0.00  0.00    +0.000 A 
ATOM     21  C   UNL     1      -4.438   1.473  -0.734  0.00  0.00    +0.000 A 
ATOM     22  C   UNL     1      -4.997  -0.164   0.953  0.00  0.00    +0.000 A 
ATOM     23  C   UNL     1      -5.737   1.398  -1.236  0.00  0.00    +0.000 A 
ATOM     24  C   UNL     1      -6.296  -0.239   0.450  0.00  0.00    +0.000 A 
ATOM     25  C   UNL     1      -6.666   0.542  -0.644  0.00  0.00    +0.000 A 
ENDBRANCH  18  20
ENDBRANCH  17  18
ENDBRANCH  15  17
ENDBRANCH   1  14
BRANCH   1  26
ATOM     26  CB  UNL     1       1.847  -2.970  -0.294  0.00  0.00    +0.000 C 
BRANCH  26  27
ATOM     27  CG  UNL     1       1.078  -4.029   0.522  0.00  0.00    +0.000 C 
ATOM     28  CD1 UNL     1       1.402  -5.456   0.079  0.00  0.00    +0.000 C 
ATOM     29  CD2 UNL     1       1.400  -3.866   2.011  0.00  0.00    +0.000 C 
ENDBRANCH  26  27
ENDBRANCH   1  26
TORSDOF 12
