REMARK  Name = 
REMARK  19 active torsions:
REMARK  status: ('A' for Active; 'I' for Inactive)
REMARK    1  A    between atoms: C_1  and  C_2
REMARK    2  A    between atoms: C_2  and  C_3
REMARK    3  A    between atoms: C_3  and  C_4
REMARK    4  A    between atoms: C_3  and  C_5
REMARK    5  A    between atoms: C_5  and  N_6
REMARK    6  A    between atoms: C_5  and  C_20
REMARK    7  A    between atoms: N_6  and  S_7
REMARK    8  A    between atoms: S_7  and  C_10
REMARK    9  A    between atoms: C_10  and  C_11
REMARK   10  A    between atoms: C_15  and  C_16
REMARK   11  A    between atoms: C_16  and  O_18
REMARK   12  A    between atoms: N_22  and  C_23
REMARK   13  A    between atoms: C_23  and  C_24
REMARK   14  A    between atoms: C_23  and  C_29
REMARK   15  A    between atoms: C_24  and  C_25
REMARK   16  A    between atoms: C_25  and  C_26
REMARK   17  A    between atoms: N_31  and  C_32
REMARK   18  A    between atoms: C_32  and  C_33
REMARK   19  A    between atoms: C_36  and  C_37
REMARK                            x       y       z     vdW  Elec       q    Type
REMARK                         _______ _______ _______ _____ _____    ______ ____
ROOT
ATOM      1  C   UNL     1      -1.490  -2.156  -0.595  0.00  0.00    +0.000 C 
ENDROOT
BRANCH   1   4
ATOM      2  C   UNL     1       0.696  -1.293  -1.111  0.00  0.00    +0.000 C 
ATOM      3  O   UNL     1       0.644  -1.161  -2.280  0.00  0.00    +0.000 OA
ATOM      4  N   UNL     1      -0.561  -0.888  -0.544  0.00  0.00    +0.000 N 
ATOM      5  H   UNL     1      -0.794   0.002  -0.195  0.00  0.00    +0.000 HD
BRANCH   2   6
ATOM      6  C   UNL     1       1.929  -1.156  -0.115  0.00  0.00    +0.000 C 
BRANCH   6   7
ATOM      7  C   UNL     1       2.935  -2.381  -0.767  0.00  0.00    +0.000 C 
ATOM      8  C   UNL     1       2.904  -1.929  -2.318  0.00  0.00    +0.000 C 
BRANCH   7  10
ATOM      9  C   UNL     1       1.670  -3.892  -0.341  0.00  0.00    +0.000 C 
ATOM     10  C   UNL     1       1.741  -3.463  -0.929  0.00  0.00    +0.000 C 
ENDBRANCH   7  10
ENDBRANCH   6   7
BRANCH   6  11
ATOM     11  N   UNL     1       2.604   0.022  -0.906  0.00  0.00    +0.000 NA
ATOM     12  H   UNL     1       1.946   0.524  -1.501  0.00  0.00    +0.000 HD
BRANCH  11  13
ATOM     13  S   UNL     1       3.079   0.941   0.497  0.00  0.00    +0.000 S 
ATOM     14  O   UNL     1       1.826   1.163   1.304  0.00  0.00    +0.000 OA
ATOM     15  O   UNL     1       3.677   2.243   0.172  0.00  0.00    +0.000 OA
BRANCH  13  16
ATOM     16  C   UNL     1       4.160  -0.128   1.435  0.00  0.00    +0.000 C 
BRANCH  16  17
ATOM     17  C   UNL     1       5.578   0.117   1.025  0.00  0.00    +0.000 A 
ATOM     18  C   UNL     1       6.308  -0.813   0.307  0.00  0.00    +0.000 A 
ATOM     19  C   UNL     1       7.092  -0.426  -0.770  0.00  0.00    +0.000 A 
ATOM     20  C   UNL     1       7.515   0.896  -0.797  0.00  0.00    +0.000 A 
ATOM     21  C   UNL     1       7.035   1.831   0.106  0.00  0.00    +0.000 A 
ATOM     22  C   UNL     1       6.078   1.409   1.016  0.00  0.00    +0.000 A 
BRANCH  21  23
ATOM     23  C   UNL     1       7.129   3.232  -0.322  0.00  0.00    +0.000 C 
ATOM     24  O   UNL     1       6.035   3.845  -0.507  0.00  0.00    +0.000 OA
BRANCH  23  25
ATOM     25  O   UNL     1       8.292   3.961  -0.222  0.00  0.00    +0.000 OA
ATOM     26  H   UNL     1       9.109   3.522  -0.085  0.00  0.00    +0.000 HD
ENDBRANCH  23  25
ENDBRANCH  21  23
ENDBRANCH  16  17
ENDBRANCH  13  16
ENDBRANCH  11  13
ENDBRANCH   6  11
ENDBRANCH   2   6
ENDBRANCH   1   4
BRANCH   1  27
ATOM     27  C   UNL     1      -2.836  -1.282  -0.785  0.00  0.00    +0.000 C 
ATOM     28  O   UNL     1      -2.956  -0.850  -1.963  0.00  0.00    +0.000 OA
ATOM     29  N   UNL     1      -3.917  -2.108  -0.340  0.00  0.00    +0.000 N 
ATOM     30  H   UNL     1      -3.771  -2.611   0.494  0.00  0.00    +0.000 HD
BRANCH  29  31
ATOM     31  C   UNL     1      -5.173  -2.281  -0.969  0.00  0.00    +0.000 C 
BRANCH  31  32
ATOM     32  C   UNL     1      -6.110  -1.258  -0.407  0.00  0.00    +0.000 A 
ATOM     33  C   UNL     1      -6.875  -0.586  -1.338  0.00  0.00    +0.000 A 
ATOM     34  C   UNL     1      -7.205   0.748  -1.234  0.00  0.00    +0.000 A 
ATOM     35  C   UNL     1      -6.786   1.425  -0.097  0.00  0.00    +0.000 A 
ATOM     36  C   UNL     1      -6.330   0.687   0.980  0.00  0.00    +0.000 A 
ATOM     37  C   UNL     1      -5.874  -0.612   0.792  0.00  0.00    +0.000 A 
BRANCH  35  38
ATOM     38  C   UNL     1      -6.603   2.869  -0.200  0.00  0.00    +0.000 C 
ATOM     39  N   UNL     1      -5.583   3.315  -0.851  0.00  0.00    +0.000 NA
ATOM     40  N   UNL     1      -7.679   3.684   0.215  0.00  0.00    +0.000 N 
ATOM     41  H   UNL     1      -4.861   2.700  -1.115  0.00  0.00    +0.000 HD
ATOM     42  H   UNL     1      -8.433   3.289   0.710  0.00  0.00    +0.000 HD
ATOM     43  H   UNL     1      -7.675   4.647   0.010  0.00  0.00    +0.000 HD
ENDBRANCH  35  38
ENDBRANCH  31  32
ENDBRANCH  29  31
ENDBRANCH   1  27
BRANCH   1  44
ATOM     44  C   UNL     1      -1.673  -2.148   1.044  0.00  0.00    +0.000 C 
BRANCH  44  45
ATOM     45  C   UNL     1      -1.781  -0.732   1.471  0.00  0.00    +0.000 C 
BRANCH  45  46
ATOM     46  C   UNL     1      -2.820  -0.379   2.403  0.00  0.00    +0.000 C 
ATOM     47  N   UNL     1      -3.322   0.817   2.301  0.00  0.00    +0.000 NA
ATOM     48  N   UNL     1      -3.353  -1.282   3.337  0.00  0.00    +0.000 N 
ATOM     49  H   UNL     1      -2.951   1.453   1.648  0.00  0.00    +0.000 HD
ATOM     50  H   UNL     1      -2.975  -2.187   3.417  0.00  0.00    +0.000 HD
ATOM     51  H   UNL     1      -4.105  -1.010   3.912  0.00  0.00    +0.000 HD
ENDBRANCH  45  46
ENDBRANCH  44  45
ENDBRANCH   1  44
TORSDOF 17
