REMARK  Name = 
REMARK  24 active torsions:
REMARK  status: ('A' for Active; 'I' for Inactive)
REMARK    1  A    between atoms: C_1  and  C_2
REMARK    2  A    between atoms: C_4  and  C_5
REMARK    3  A    between atoms: N_7  and  C_8
REMARK    4  A    between atoms: C_8  and  C_9
REMARK    5  A    between atoms: C_8  and  C_10
REMARK    6  A    between atoms: N_12  and  C_13
REMARK    7  A    between atoms: C_13  and  C_14
REMARK    8  A    between atoms: C_13  and  C_45
REMARK    9  A    between atoms: N_16  and  C_17
REMARK   10  A    between atoms: C_17  and  C_18
REMARK   11  A    between atoms: C_17  and  C_22
REMARK   12  A    between atoms: C_18  and  C_19
REMARK   13  A    between atoms: C_19  and  C_20
REMARK   14  A    between atoms: C_19  and  C_21
REMARK   15  A    between atoms: N_24  and  C_25
REMARK   16  A    between atoms: C_25  and  C_26
REMARK   17  A    between atoms: C_25  and  C_38
REMARK   18  A    between atoms: C_27  and  C_28
REMARK   19  A    between atoms: C_28  and  O_30
REMARK   20  A    between atoms: O_30  and  C_31
REMARK   21  A    between atoms: C_31  and  C_32
REMARK   22  A    between atoms: C_38  and  C_39
REMARK   23  A    between atoms: C_45  and  C_46
REMARK   24  A    between atoms: C_45  and  C_47
REMARK                            x       y       z     vdW  Elec       q    Type
REMARK                         _______ _______ _______ _____ _____    ______ ____
ROOT
ATOM      1  C   UNL     1       0.714   1.064   1.397  0.00  0.00    +0.000 C 
ENDROOT
BRANCH   1   4
ATOM      2  C   UNL     1      -1.667   0.178   1.469  0.00  0.00    +0.000 C 
ATOM      3  O   UNL     1      -2.089   1.323   1.151  0.00  0.00    +0.000 OA
ATOM      4  N   UNL     1      -0.299  -0.172   1.545  0.00  0.00    +0.000 N 
ATOM      5  H   UNL     1       0.007  -1.098   1.677  0.00  0.00    +0.000 HD
BRANCH   2   6
ATOM      6  C   UNL     1      -2.562  -0.404   2.723  0.00  0.00    +0.000 C 
BRANCH   6   9
ATOM      7  C   UNL     1      -4.856   0.299   1.843  0.00  0.00    +0.000 C 
ATOM      8  O   UNL     1      -4.725   1.362   2.525  0.00  0.00    +0.000 OA
ATOM      9  N   UNL     1      -3.833  -0.607   1.771  0.00  0.00    +0.000 N 
ATOM     10  H   UNL     1      -3.878  -1.367   1.147  0.00  0.00    +0.000 HD
BRANCH   7  11
ATOM     11  C   UNL     1      -6.386  -0.235   2.105  0.00  0.00    +0.000 C 
ATOM     12  C   UNL     1      -6.075  -1.768   1.500  0.00  0.00    +0.000 C 
BRANCH  11  15
ATOM     13  C   UNL     1      -7.838  -0.498   0.047  0.00  0.00    +0.000 C 
ATOM     14  O   UNL     1      -7.536  -1.730  -0.020  0.00  0.00    +0.000 OA
ATOM     15  N   UNL     1      -6.869   0.308   0.671  0.00  0.00    +0.000 N 
ATOM     16  H   UNL     1      -6.517   1.133   0.266  0.00  0.00    +0.000 HD
BRANCH  13  20
ATOM     17  C   UNL     1     -12.621  -0.209   0.923  0.00  0.00    +0.000 C 
ATOM     18  C   UNL     1     -11.434  -0.090   0.052  0.00  0.00    +0.000 A 
ATOM     19  C   UNL     1     -10.313  -0.912   0.062  0.00  0.00    +0.000 A 
ATOM     20  C   UNL     1      -9.211  -0.130  -0.271  0.00  0.00    +0.000 A 
ATOM     21  N   UNL     1      -9.743   0.997  -0.730  0.00  0.00    +0.000 NA
ATOM     22  O   UNL     1     -11.047   0.976  -0.632  0.00  0.00    +0.000 OA
ENDBRANCH  13  20
ENDBRANCH  11  15
ENDBRANCH   7  11
ENDBRANCH   6   9
BRANCH   6  23
ATOM     23  C   UNL     1      -2.032  -1.976   2.481  0.00  0.00    +0.000 C 
ATOM     24  C   UNL     1      -2.291  -2.300   1.064  0.00  0.00    +0.000 C 
ATOM     25  C   UNL     1      -2.822  -2.764   3.486  0.00  0.00    +0.000 C 
ENDBRANCH   6  23
ENDBRANCH   2   6
ENDBRANCH   1   4
BRANCH   1  26
ATOM     26  C   UNL     1       1.204   0.549  -0.084  0.00  0.00    +0.000 C 
ATOM     27  O   UNL     1       0.260   0.394  -0.889  0.00  0.00    +0.000 OA
ATOM     28  N   UNL     1       2.240   1.364  -0.662  0.00  0.00    +0.000 N 
ATOM     29  H   UNL     1       2.431   2.314  -0.486  0.00  0.00    +0.000 HD
BRANCH  28  30
ATOM     30  C   UNL     1       3.014   0.370  -1.657  0.00  0.00    +0.000 C 
BRANCH  30  31
ATOM     31  C   UNL     1       4.103   1.537  -2.055  0.00  0.00    +0.000 C 
ATOM     32  C   UNL     1       4.951   1.768  -1.048  0.00  0.00    +0.000 C 
BRANCH  32  33
ATOM     33  C   UNL     1       6.384   1.999  -1.276  0.00  0.00    +0.000 C 
ATOM     34  O   UNL     1       7.022   2.748  -0.480  0.00  0.00    +0.000 OA
BRANCH  33  35
ATOM     35  O   UNL     1       7.028   1.290  -2.282  0.00  0.00    +0.000 OA
BRANCH  35  36
ATOM     36  C   UNL     1       8.414   1.180  -2.324  0.00  0.00    +0.000 C 
BRANCH  36  37
ATOM     37  C   UNL     1       9.006   0.536  -1.115  0.00  0.00    +0.000 A 
ATOM     38  C   UNL     1       8.261  -0.206  -0.233  0.00  0.00    +0.000 A 
ATOM     39  C   UNL     1       8.806  -0.510   1.006  0.00  0.00    +0.000 A 
ATOM     40  C   UNL     1       9.949   0.147   1.444  0.00  0.00    +0.000 A 
ATOM     41  C   UNL     1      10.724   0.853   0.559  0.00  0.00    +0.000 A 
ATOM     42  C   UNL     1      10.276   0.920  -0.753  0.00  0.00    +0.000 A 
ENDBRANCH  36  37
ENDBRANCH  35  36
ENDBRANCH  33  35
ENDBRANCH  32  33
ENDBRANCH  30  31
BRANCH  30  43
ATOM     43  C   UNL     1       2.036   0.771  -2.958  0.00  0.00    +0.000 C 
BRANCH  43  44
ATOM     44  C   UNL     1       3.147   0.159  -4.038  0.00  0.00    +0.000 C 
ATOM     45  C   UNL     1       2.005  -0.033  -5.226  0.00  0.00    +0.000 C 
ATOM     46  C   UNL     1       1.054  -0.969  -4.546  0.00  0.00    +0.000 C 
ATOM     47  N   UNL     1       2.058  -2.000  -4.274  0.00  0.00    +0.000 N 
ATOM     48  C   UNL     1       2.966  -1.352  -3.458  0.00  0.00    +0.000 C 
ATOM     49  O   UNL     1       3.926  -1.842  -2.786  0.00  0.00    +0.000 OA
ATOM     50  H   UNL     1       2.080  -2.930  -4.595  0.00  0.00    +0.000 HD
ENDBRANCH  43  44
ENDBRANCH  30  43
ENDBRANCH  28  30
ENDBRANCH   1  26
BRANCH   1  51
ATOM     51  C   UNL     1       1.946   0.208   2.142  0.00  0.00    +0.000 C 
BRANCH  51  52
ATOM     52  C   UNL     1       1.313  -0.281   3.430  0.00  0.00    +0.000 C 
ATOM     53  C   UNL     1       2.252  -1.318   3.963  0.00  0.00    +0.000 C 
ATOM     54  C   UNL     1       1.190   0.833   4.438  0.00  0.00    +0.000 C 
ENDBRANCH  51  52
ENDBRANCH   1  51
TORSDOF 18
