REMARK  Name = 
REMARK  25 active torsions:
REMARK  status: ('A' for Active; 'I' for Inactive)
REMARK    1  A    between atoms: C_1  and  C_2
REMARK    2  A    between atoms: C_2  and  O_3
REMARK    3  A    between atoms: O_3  and  C_4
REMARK    4  A    between atoms: C_4  and  C_6
REMARK    5  A    between atoms: C_7  and  C_8
REMARK    6  A    between atoms: C_8  and  C_9
REMARK    7  A    between atoms: C_8  and  N_16
REMARK    8  A    between atoms: C_9  and  C_10
REMARK    9  A    between atoms: C_17  and  C_19
REMARK   10  A    between atoms: C_19  and  C_20
REMARK   11  A    between atoms: C_19  and  N_24
REMARK   12  A    between atoms: C_20  and  C_21
REMARK   13  A    between atoms: C_21  and  C_22
REMARK   14  A    between atoms: C_21  and  C_23
REMARK   15  A    between atoms: C_25  and  C_27
REMARK   16  A    between atoms: C_27  and  N_28
REMARK   17  A    between atoms: C_27  and  C_43
REMARK   18  A    between atoms: C_29  and  C_31
REMARK   19  A    between atoms: C_31  and  N_32
REMARK   20  A    between atoms: C_31  and  C_40
REMARK   21  A    between atoms: C_33  and  C_35
REMARK   22  A    between atoms: C_40  and  C_41
REMARK   23  A    between atoms: C_40  and  C_42
REMARK   24  A    between atoms: C_43  and  C_44
REMARK   25  A    between atoms: C_43  and  C_45
REMARK                            x       y       z     vdW  Elec       q    Type
REMARK                         _______ _______ _______ _____ _____    ______ ____
ROOT
ATOM      1  C   UNL     1      -0.986   0.438   0.619  0.00  0.00    +0.000 C 
ENDROOT
BRANCH   1   3
ATOM      2  N   UNL     1      -3.159   0.465  -0.156  0.00  0.00    +0.000 N 
ATOM      3  C   UNL     1      -1.858   0.718  -0.714  0.00  0.00    +0.000 C 
ATOM      4  O   UNL     1      -1.623   0.045  -1.712  0.00  0.00    +0.000 OA
ATOM      5  H   UNL     1      -3.326   0.534   0.812  0.00  0.00    +0.000 HD
BRANCH   2   6
ATOM      6  C   UNL     1      -4.302   0.073  -1.161  0.00  0.00    +0.000 C 
BRANCH   6   8
ATOM      7  C   UNL     1      -5.495   0.794   0.901  0.00  0.00    +0.000 C 
ATOM      8  C   UNL     1      -5.346  -0.181   0.050  0.00  0.00    +0.000 C 
BRANCH   7   9
ATOM      9  C   UNL     1      -6.854   1.111   1.367  0.00  0.00    +0.000 C 
ATOM     10  O   UNL     1      -7.674   0.157   1.526  0.00  0.00    +0.000 OA
BRANCH   9  11
ATOM     11  O   UNL     1      -7.385   2.288   0.858  0.00  0.00    +0.000 OA
BRANCH  11  13
ATOM     12  C   UNL     1      -8.903   2.208  -0.042  0.00  0.00    +0.000 C 
ATOM     13  C   UNL     1      -8.644   2.370   0.198  0.00  0.00    +0.000 C 
ENDBRANCH  11  13
ENDBRANCH   9  11
ENDBRANCH   7   9
ENDBRANCH   6   8
BRANCH   6  14
ATOM     14  C   UNL     1      -3.775  -1.479  -1.315  0.00  0.00    +0.000 C 
BRANCH  14  15
ATOM     15  C   UNL     1      -4.302  -2.247   0.012  0.00  0.00    +0.000 C 
ATOM     16  C   UNL     1      -3.098  -3.349  -0.042  0.00  0.00    +0.000 C 
ATOM     17  C   UNL     1      -3.911  -4.491   0.557  0.00  0.00    +0.000 C 
ATOM     18  N   UNL     1      -5.243  -4.366   0.003  0.00  0.00    +0.000 N 
ATOM     19  C   UNL     1      -5.244  -3.221  -0.845  0.00  0.00    +0.000 C 
ATOM     20  O   UNL     1      -6.199  -2.742  -1.500  0.00  0.00    +0.000 OA
ATOM     21  H   UNL     1      -6.007  -4.962   0.179  0.00  0.00    +0.000 HD
ENDBRANCH  14  15
ENDBRANCH   6  14
ENDBRANCH   2   6
ENDBRANCH   1   3
BRANCH   1  22
ATOM     22  N   UNL     1       0.412   0.940   0.078  0.00  0.00    +0.000 N 
ATOM     23  C   UNL     1       1.283   0.054  -0.322  0.00  0.00    +0.000 C 
ATOM     24  O   UNL     1       0.894  -0.878  -1.105  0.00  0.00    +0.000 OA
ATOM     25  H   UNL     1       0.621   1.901   0.043  0.00  0.00    +0.000 HD
BRANCH  23  26
ATOM     26  C   UNL     1       2.652  -0.584   0.238  0.00  0.00    +0.000 C 
BRANCH  26  27
ATOM     27  N   UNL     1       3.534   0.618  -0.234  0.00  0.00    +0.000 N 
ATOM     28  C   UNL     1       4.348   1.359   0.309  0.00  0.00    +0.000 C 
ATOM     29  O   UNL     1       3.635   2.111   1.058  0.00  0.00    +0.000 OA
ATOM     30  H   UNL     1       3.408   0.829  -1.187  0.00  0.00    +0.000 HD
BRANCH  28  31
ATOM     31  C   UNL     1       5.746   1.544   1.060  0.00  0.00    +0.000 C 
BRANCH  31  32
ATOM     32  N   UNL     1       6.587   0.384   0.408  0.00  0.00    +0.000 N 
ATOM     33  C   UNL     1       6.008  -0.476  -0.499  0.00  0.00    +0.000 C 
ATOM     34  O   UNL     1       5.922   0.232  -1.553  0.00  0.00    +0.000 OA
ATOM     35  H   UNL     1       7.535   0.273   0.649  0.00  0.00    +0.000 HD
BRANCH  33  36
ATOM     36  C   UNL     1       6.405  -1.893  -0.544  0.00  0.00    +0.000 A 
ATOM     37  C   UNL     1       5.569  -3.003  -0.649  0.00  0.00    +0.000 A 
ATOM     38  C   UNL     1       6.193  -4.102  -0.069  0.00  0.00    +0.000 A 
ATOM     39  O   UNL     1       7.423  -3.704   0.202  0.00  0.00    +0.000 OA
ATOM     40  C   UNL     1       7.453  -2.398   0.225  0.00  0.00    +0.000 A 
ENDBRANCH  33  36
ENDBRANCH  31  32
BRANCH  31  41
ATOM     41  C   UNL     1       6.294   2.696   0.008  0.00  0.00    +0.000 C 
ATOM     42  C   UNL     1       6.888   3.663   1.044  0.00  0.00    +0.000 C 
ATOM     43  C   UNL     1       5.101   3.468  -0.487  0.00  0.00    +0.000 C 
ENDBRANCH  31  41
ENDBRANCH  28  31
ENDBRANCH  26  27
BRANCH  26  44
ATOM     44  C   UNL     1       2.553  -0.236   1.841  0.00  0.00    +0.000 C 
ATOM     45  C   UNL     1       2.035  -1.581   2.367  0.00  0.00    +0.000 C 
ATOM     46  C   UNL     1       1.678   0.716   2.287  0.00  0.00    +0.000 C 
ENDBRANCH  26  44
ENDBRANCH  23  26
ENDBRANCH   1  22
BRANCH   1  47
ATOM     47  C   UNL     1      -1.416   1.911   1.229  0.00  0.00    +0.000 C 
BRANCH  47  48
ATOM     48  C   UNL     1      -1.145   2.927   0.186  0.00  0.00    +0.000 C 
ATOM     49  C   UNL     1      -2.226   4.001   0.312  0.00  0.00    +0.000 C 
ATOM     50  C   UNL     1       0.175   3.639   0.350  0.00  0.00    +0.000 C 
ENDBRANCH  47  48
ENDBRANCH   1  47
TORSDOF 18
