REMARK  Name = 115260
REMARK  14 active torsions:
REMARK  status: ('A' for Active; 'I' for Inactive)
REMARK    1  A    between atoms: SG_1  and  CB_16
REMARK    2  A    between atoms: SG_1  and  C_20
REMARK    3  A    between atoms: O_4  and  C_18
REMARK    4  A    between atoms: O_6  and  C_21
REMARK    5  A    between atoms: N_8  and  CA_11
REMARK    6  A    between atoms: N_9  and  CA_19
REMARK    7  A    between atoms: N_10  and  CA_14
REMARK    8  A    between atoms: CA_11  and  CB_16
REMARK    9  A    between atoms: CA_11  and  C_17
REMARK   10  A    between atoms: C_12  and  C_13
REMARK   11  A    between atoms: C_12  and  CA_14
REMARK   12  A    between atoms: C_13  and  C_15
REMARK   13  A    between atoms: CA_14  and  C_18
REMARK   14  A    between atoms: CA_19  and  C_21
REMARK                            x       y       z     vdW  Elec       q    Type
REMARK                         _______ _______ _______ _____ _____    ______ ____
ROOT
ATOM      1  O   UNL     1      -1.398  -0.408  -2.181  0.00  0.00    +0.000 OA
ATOM      2  N   UNL     1      -0.089  -0.285  -0.266  0.00  0.00    +0.000 N 
ATOM      3  C   UNL     1      -1.285  -0.407  -0.958  0.00  0.00    +0.000 C 
ATOM      4  H   UNL     1      -0.106  -0.272   0.750  0.00  0.00    +0.000 HD
ENDROOT
BRANCH   2   5
ATOM      5  CA  UNL     1       1.188  -0.144  -0.928  0.00  0.00    +0.000 C 
BRANCH   5   8
ATOM      6  O   UNL     1       2.027  -1.363   0.995  0.00  0.00    +0.000 OA
ATOM      7  N   UNL     1       3.490  -0.866  -0.735  0.00  0.00    +0.000 N 
ATOM      8  C   ACE A   1       2.253  -0.866  -0.106  0.00  0.00    +0.000 C 
ATOM      9  H   UNL     1       3.588  -0.449  -1.655  0.00  0.00    +0.000 HD
BRANCH   7  10
ATOM     10  CA  UNL     1       4.664  -1.466  -0.145  0.00  0.00    +0.000 C 
BRANCH  10  12
ATOM     11  OXT UNL     1       6.485  -0.810   1.286  0.00  0.00    +0.000 OA
ATOM     12  C   UNL     1       5.452  -0.503   0.704  0.00  0.00    +0.000 C 
BRANCH  12  13
ATOM     13  O   UNL     1       4.908   0.735   0.764  0.00  0.00    +0.000 OA
ATOM     14  H   UNL     1       5.438   1.343   1.323  0.00  0.00    +0.000 HD
ENDBRANCH  12  13
ENDBRANCH  10  12
ENDBRANCH   7  10
ENDBRANCH   5   8
BRANCH   5  15
ATOM     15  CB  UNL     1       1.533   1.319  -1.220  0.00  0.00    +0.000 C 
BRANCH  15  16
ATOM     16  SG  UNL     1       1.721   2.342   0.277  0.00  0.00    +0.000 S 
ATOM     17  C   UNL     1       2.026   3.927  -0.533  0.00  0.00    +0.000 C 
ENDBRANCH  15  16
ENDBRANCH   5  15
ENDBRANCH   2   5
BRANCH   3  18
ATOM     18  C   UNL     1      -2.467  -0.531  -0.012  0.00  0.00    +0.000 C 
BRANCH  18  19
ATOM     19  C   UNL     1      -3.798  -0.667  -0.755  0.00  0.00    +0.000 C 
BRANCH  19  20
ATOM     20  CA  UNL     1      -4.989  -0.866   0.188  0.00  0.00    +0.000 C 
BRANCH  20  21
ATOM     21  N   UNL     1      -6.220  -0.986  -0.596  0.00  0.00    +0.000 NA
ATOM     22  H1  UNL     1      -6.324  -0.174  -1.205  0.00  0.00    +0.000 HD
ATOM     23  H2  UNL     1      -6.149  -1.791  -1.218  0.00  0.00    +0.000 HD
ENDBRANCH  20  21
BRANCH  20  25
ATOM     24  OXT UNL     1      -5.810   1.338   0.828  0.00  0.00    +0.000 OA
ATOM     25  C   UNL     1      -5.172   0.330   1.105  0.00  0.00    +0.000 C 
BRANCH  25  26
ATOM     26  O   UNL     1      -4.519   0.178   2.287  0.00  0.00    +0.000 OA
ATOM     27  H   UNL     1      -4.630   0.959   2.869  0.00  0.00    +0.000 HD
ENDBRANCH  25  26
ENDBRANCH  20  25
ENDBRANCH  19  20
ENDBRANCH  18  19
ENDBRANCH   3  18
TORSDOF 13
