REMARK  Name = 
REMARK  17 active torsions:
REMARK  status: ('A' for Active; 'I' for Inactive)
REMARK    1  A    between atoms: C_1  and  C_2
REMARK    2  A    between atoms: C_2  and  C_3
REMARK    3  A    between atoms: C_3  and  C_4
REMARK    4  A    between atoms: C_4  and  C_5
REMARK    5  A    between atoms: C_5  and  N_6
REMARK    6  A    between atoms: N_6  and  C_7
REMARK    7  A    between atoms: C_7  and  C_8
REMARK    8  A    between atoms: C_8  and  C_9
REMARK    9  A    between atoms: C_9  and  O_10
REMARK   10  A    between atoms: O_10  and  C_11
REMARK   11  A    between atoms: C_12  and  C_14
REMARK   12  A    between atoms: C_14  and  C_15
REMARK   13  A    between atoms: C_14  and  N_20
REMARK   14  A    between atoms: C_15  and  C_16
REMARK   15  A    between atoms: C_16  and  C_17
REMARK   16  A    between atoms: C_17  and  O_19
REMARK   17  A    between atoms: C_21  and  C_23
REMARK                            x       y       z     vdW  Elec       q    Type
REMARK                         _______ _______ _______ _____ _____    ______ ____
ROOT
ATOM      1  C   UNL     1      -0.563   0.808   1.048  0.00  0.00    +0.000 C 
ENDROOT
BRANCH   1   2
ATOM      2  N   UNL     1       0.681   1.099   0.094  0.00  0.00    +0.000 N 
ATOM      3  C   UNL     1       1.409   0.013  -0.372  0.00  0.00    +0.000 C 
ATOM      4  O   UNL     1       1.144  -1.140   0.054  0.00  0.00    +0.000 OA
ATOM      5  H   UNL     1       0.926   2.020  -0.156  0.00  0.00    +0.000 HD
BRANCH   3   6
ATOM      6  C   UNL     1       2.772   0.215  -0.881  0.00  0.00    +0.000 A 
ATOM      7  C   UNL     1       3.079   0.346  -2.203  0.00  0.00    +0.000 A 
ATOM      8  C   UNL     1       4.407   0.205  -2.573  0.00  0.00    +0.000 A 
ATOM      9  C   UNL     1       5.362  -0.119  -1.617  0.00  0.00    +0.000 A 
ATOM     10 CL   UNL     1       6.909  -0.832  -2.056  0.00  0.00    +0.000 Cl
ATOM     11  C   UNL     1       5.089   0.015  -0.272  0.00  0.00    +0.000 A 
ATOM     12 CL   UNL     1       6.267  -0.441   0.955  0.00  0.00    +0.000 Cl
ATOM     13  C   UNL     1       3.766   0.099   0.083  0.00  0.00    +0.000 A 
ENDBRANCH   3   6
ENDBRANCH   1   2
BRANCH   1  15
ATOM     14  N   UNL     1      -1.879   0.035  -0.962  0.00  0.00    +0.000 N 
ATOM     15  C   UNL     1      -1.084  -0.447   0.130  0.00  0.00    +0.000 C 
ATOM     16  O   UNL     1      -1.637  -1.341   0.843  0.00  0.00    +0.000 OA
BRANCH  14  17
ATOM     17  C   UNL     1      -1.633   1.300  -1.603  0.00  0.00    +0.000 C 
BRANCH  17  18
ATOM     18  C   UNL     1      -2.778   1.671  -2.494  0.00  0.00    +0.000 C 
BRANCH  18  19
ATOM     19  C   UNL     1      -3.389   3.006  -2.173  0.00  0.00    +0.000 C 
BRANCH  19  21
ATOM     20  C   UNL     1      -5.130   4.130  -0.834  0.00  0.00    +0.000 C 
ATOM     21  C   UNL     1      -4.318   2.922  -0.981  0.00  0.00    +0.000 C 
ENDBRANCH  19  21
ENDBRANCH  18  19
ENDBRANCH  17  18
ENDBRANCH  14  17
BRANCH  14  22
ATOM     22  C   UNL     1      -2.821  -0.878  -1.585  0.00  0.00    +0.000 C 
BRANCH  22  23
ATOM     23  C   UNL     1      -3.771  -1.479  -0.555  0.00  0.00    +0.000 C 
BRANCH  23  24
ATOM     24  C   UNL     1      -3.776  -2.985  -0.632  0.00  0.00    +0.000 C 
BRANCH  24  25
ATOM     25  O   UNL     1      -4.927  -3.452  -0.006  0.00  0.00    +0.000 OA
ATOM     26  C   UNL     1      -5.319  -4.593  -0.725  0.00  0.00    +0.000 C 
ENDBRANCH  24  25
ENDBRANCH  23  24
ENDBRANCH  22  23
ENDBRANCH  14  22
ENDBRANCH   1  15
BRANCH   1  27
ATOM     27  C   UNL     1       0.328  -0.195   2.042  0.00  0.00    +0.000 C 
BRANCH  27  28
ATOM     28  C   UNL     1       1.017   0.746   3.001  0.00  0.00    +0.000 C 
BRANCH  28  29
ATOM     29  C   UNL     1       0.419   0.523   4.336  0.00  0.00    +0.000 C 
ATOM     30  O   UNL     1      -0.753   0.899   4.597  0.00  0.00    +0.000 OA
BRANCH  29  31
ATOM     31  O   UNL     1       1.129  -0.132   5.341  0.00  0.00    +0.000 OA
ATOM     32  H   UNL     1       2.004  -0.426   5.181  0.00  0.00    +0.000 HD
ENDBRANCH  29  31
ENDBRANCH  28  29
ENDBRANCH  27  28
ENDBRANCH   1  27
TORSDOF 15
