REMARK  Name = 
REMARK  18 active torsions:
REMARK  status: ('A' for Active; 'I' for Inactive)
REMARK    1  A    between atoms: C_1  and  C_2
REMARK    2  A    between atoms: C_8  and  C_9
REMARK    3  A    between atoms: N_11  and  CA_12
REMARK    4  A    between atoms: CA_12  and  CB_13
REMARK    5  A    between atoms: CA_12  and  C_19
REMARK    6  A    between atoms: CB_13  and  CG_14
REMARK    7  A    between atoms: N_21  and  C_22
REMARK    8  A    between atoms: C_22  and  C_23
REMARK    9  A    between atoms: C_22  and  C_25
REMARK   10  A    between atoms: C_23  and  O_24
REMARK   11  A    between atoms: N_27  and  C_28
REMARK   12  A    between atoms: C_28  and  C_29
REMARK   13  A    between atoms: C_28  and  C_31
REMARK   14  A    between atoms: C_29  and  S_30
REMARK   15  A    between atoms: N_33  and  C_34
REMARK   16  A    between atoms: C_34  and  C_35
REMARK   17  A    between atoms: C_34  and  C_39
REMARK   18  A    between atoms: C_35  and  C_36
REMARK                            x       y       z     vdW  Elec       q    Type
REMARK                         _______ _______ _______ _____ _____    ______ ____
ROOT
ATOM      1  C   UNK A   2       0.126   1.307   1.635  0.00  0.00    +0.000 C 
ENDROOT
BRANCH   1   4
ATOM      2  C   HIS A   1      -2.377   1.225   1.774  0.00  0.00    +0.000 C 
ATOM      3  O   HIS A   1      -2.387   2.258   2.456  0.00  0.00    +0.000 OA
ATOM      4  N   UNK A   2      -1.262   0.788   1.115  0.00  0.00    +0.000 N 
ATOM      5  H   UNK A   2      -1.327   0.175   0.348  0.00  0.00    +0.000 HD
BRANCH   2   6
ATOM      6  CA  HIS A   1      -3.820   0.610   1.411  0.00  0.00    +0.000 C 
BRANCH   6   9
ATOM      7  C   UNK A   0      -5.117   1.810  -0.236  0.00  0.00    +0.000 C 
ATOM      8  O   UNK A   0      -6.020   1.986   0.640  0.00  0.00    +0.000 OA
ATOM      9  N   HIS A   1      -3.870   1.347   0.008  0.00  0.00    +0.000 N 
ATOM     10  H   HIS A   1      -3.103   1.452  -0.600  0.00  0.00    +0.000 HD
BRANCH   7  18
ATOM     11  C   UNK A   0      -5.258   2.752  -4.530  0.00  0.00    +0.000 C 
ATOM     12  C   UNK A   0      -4.670   1.605  -3.984  0.00  0.00    +0.000 C 
ATOM     13  O   UNK A   0      -4.649   0.605  -4.773  0.00  0.00    +0.000 OA
ATOM     14  N   UNK A   0      -4.654   1.459  -2.554  0.00  0.00    +0.000 N 
ATOM     15  C   UNK A   0      -4.609   0.135  -2.094  0.00  0.00    +0.000 C 
ATOM     16  C   UNK A   0      -6.007  -0.290  -2.173  0.00  0.00    +0.000 C 
ATOM     17  C   UNK A   0      -6.727   0.788  -1.595  0.00  0.00    +0.000 C 
ATOM     18  C   UNK A   0      -5.774   2.127  -1.668  0.00  0.00    +0.000 C 
ENDBRANCH   7  18
ENDBRANCH   6   9
BRANCH   6  19
ATOM     19  CB  HIS A   1      -3.201  -0.777   0.788  0.00  0.00    +0.000 C 
BRANCH  19  20
ATOM     20  CG  HIS A   1      -3.698  -1.887   1.590  0.00  0.00    +0.000 A 
ATOM     21  CD2 HIS A   1      -5.008  -2.237   1.884  0.00  0.00    +0.000 A 
ATOM     22  NE2 HIS A   1      -5.095  -3.587   1.966  0.00  0.00    +0.000 N 
ATOM     23  CE1 HIS A   1      -3.980  -4.075   1.395  0.00  0.00    +0.000 A 
ATOM     24  ND1 HIS A   1      -3.062  -3.084   1.524  0.00  0.00    +0.000 NA
ATOM     25  HE2 HIS A   1      -5.829  -4.107   2.365  0.00  0.00    +0.000 HD
ENDBRANCH  19  20
ENDBRANCH   6  19
ENDBRANCH   2   6
ENDBRANCH   1   4
BRANCH   1  26
ATOM     26  C   UNK A   2       0.935   0.249   0.714  0.00  0.00    +0.000 C 
ATOM     27  O   UNK A   2       0.675   0.461  -0.512  0.00  0.00    +0.000 OA
ATOM     28  N   UNK A   2       2.291   0.035   1.014  0.00  0.00    +0.000 N 
ATOM     29  H   UNK A   2       2.570  -0.443   1.828  0.00  0.00    +0.000 HD
BRANCH  28  30
ATOM     30  C   UNK A   2       3.346   0.599  -0.016  0.00  0.00    +0.000 C 
BRANCH  30  31
ATOM     31  C   UNK A   2       4.200  -0.774  -0.084  0.00  0.00    +0.000 C 
ATOM     32  O   UNK A   2       4.397  -1.372   0.955  0.00  0.00    +0.000 OA
ATOM     33  N   UNK A   2       5.158  -0.748  -1.047  0.00  0.00    +0.000 N 
ATOM     34  H   UNK A   2       4.943  -0.294  -1.894  0.00  0.00    +0.000 HD
BRANCH  33  35
ATOM     35  C   UNK A   2       6.586  -1.394  -0.905  0.00  0.00    +0.000 C 
BRANCH  35  36
ATOM     36  C   UNK A   2       6.513  -1.689   0.686  0.00  0.00    +0.000 C 
ATOM     37  N   UNK A   2       7.471  -1.046   1.519  0.00  0.00    +0.000 N 
ATOM     38  O   UNK A   2       6.691  -2.952   0.777  0.00  0.00    +0.000 OA
ATOM     39  H   UNK A   2       7.490  -0.064   1.580  0.00  0.00    +0.000 HD
ATOM     40  H   UNK A   2       8.114  -1.584   2.035  0.00  0.00    +0.000 HD
ENDBRANCH  35  36
BRANCH  35  41
ATOM     41  C   UNK A   2       7.276   0.099  -0.753  0.00  0.00    +0.000 C 
BRANCH  41  42
ATOM     42  C   UNK A   2       8.683  -0.083  -1.183  0.00  0.00    +0.000 C 
ATOM     43  N   UNK A   2       9.028  -0.638  -2.458  0.00  0.00    +0.000 N 
ATOM     44  O   UNK A   2       9.479   0.823  -0.790  0.00  0.00    +0.000 OA
ATOM     45  H   UNK A   2       8.472  -1.349  -2.852  0.00  0.00    +0.000 HD
ATOM     46  H   UNK A   2       9.821  -0.309  -2.940  0.00  0.00    +0.000 HD
ENDBRANCH  41  42
ENDBRANCH  35  41
ENDBRANCH  33  35
ENDBRANCH  30  31
BRANCH  30  47
ATOM     47  C   UNK A   2       4.283   1.204   1.196  0.00  0.00    +0.000 C 
BRANCH  47  48
ATOM     48  S   UNK A   2       4.143   2.988   1.131  0.00  0.00    +0.000 S 
ATOM     49  H   UNK A   2       4.557   3.431  -0.086  0.00  0.00    +0.000 HD
ENDBRANCH  47  48
ENDBRANCH  30  47
ENDBRANCH  28  30
ENDBRANCH   1  26
BRANCH   1  50
ATOM     50  C   UNK A   2       0.111   0.317   2.949  0.00  0.00    +0.000 C 
BRANCH  50  51
ATOM     51  O   UNK A   2      -0.146  -0.944   2.538  0.00  0.00    +0.000 OA
ATOM     52  H   UNK A   2      -1.006  -0.969   2.090  0.00  0.00    +0.000 HD
ENDBRANCH  50  51
ENDBRANCH   1  50
TORSDOF 17
