REMARK  Name = 121396
REMARK  7 active torsions:
REMARK  status: ('A' for Active; 'I' for Inactive)
REMARK    1  A    between atoms: O_1  and  C_11
REMARK    2  A    between atoms: OE1_3  and  CD_12
REMARK    3  A    between atoms: N_6  and  CA_8
REMARK    4  A    between atoms: CA_8  and  CB_9
REMARK    5  A    between atoms: CA_8  and  C_11
REMARK    6  A    between atoms: CB_9  and  CG_10
REMARK    7  A    between atoms: CG_10  and  CD_12
REMARK                            x       y       z     vdW  Elec       q    Type
REMARK                         _______ _______ _______ _____ _____    ______ ____
ROOT
ATOM      1  CA  UNL     1      -0.762   0.559   0.510  0.00  0.00    +0.000 C 
ENDROOT
BRANCH   1   3
ATOM      2  O   UNL     1      -2.475  -1.683   1.181  0.00  0.00    +0.000 OA
ATOM      3  N   UNL     1      -1.517  -0.268  -0.398  0.00  0.00    +0.000 N 
ATOM      4  N   UNL     1      -2.932  -1.960  -1.051  0.00  0.00    +0.000 N 
ATOM      5  C   ACE A   0      -2.316  -1.328   0.014  0.00  0.00    +0.000 C 
ATOM      6  H   UNL     1      -1.442  -0.088  -1.395  0.00  0.00    +0.000 HD
ATOM      7  H   UNL     1      -2.789  -1.653  -2.008  0.00  0.00    +0.000 HD
ATOM      8  H   UNL     1      -3.547  -2.753  -0.907  0.00  0.00    +0.000 HD
ENDBRANCH   1   3
BRANCH   1  10
ATOM      9  OXT UNL     1      -1.201   2.294  -1.142  0.00  0.00    +0.000 OA
ATOM     10  C   UNL     1      -0.763   1.968  -0.047  0.00  0.00    +0.000 C 
BRANCH  10  11
ATOM     11  O   UNL     1      -0.246   2.863   0.837  0.00  0.00    +0.000 OA
ATOM     12  H   UNL     1      -0.262   3.777   0.482  0.00  0.00    +0.000 HD
ENDBRANCH  10  11
ENDBRANCH   1  10
BRANCH   1  13
ATOM     13  CB  UNL     1       0.639   0.005   0.790  0.00  0.00    +0.000 C 
BRANCH  13  14
ATOM     14  CG  UNL     1       1.574  -0.093  -0.422  0.00  0.00    +0.000 C 
BRANCH  14  16
ATOM     15  OE2 UNL     1       3.311  -1.025   1.011  0.00  0.00    +0.000 OA
ATOM     16  CD  UNL     1       2.940  -0.658  -0.095  0.00  0.00    +0.000 C 
BRANCH  16  17
ATOM     17  OE1 UNL     1       3.748  -0.676  -1.188  0.00  0.00    +0.000 OA
ATOM     18  HE1 UNL     1       4.640  -1.024  -0.976  0.00  0.00    +0.000 HD
ENDBRANCH  16  17
ENDBRANCH  14  16
ENDBRANCH  13  14
ENDBRANCH   1  13
TORSDOF 7
