REMARK  Name = 25113157
REMARK  14 active torsions:
REMARK  status: ('A' for Active; 'I' for Inactive)
REMARK    1  A    between atoms: S_1  and  C_16
REMARK    2  A    between atoms: S_1  and  C_19
REMARK    3  A    between atoms: O_3  and  C_18
REMARK    4  A    between atoms: O_6  and  C_20
REMARK    5  A    between atoms: O_7  and  C_21
REMARK    6  A    between atoms: N_10  and  C_12
REMARK    7  A    between atoms: N_11  and  C_14
REMARK    8  A    between atoms: C_12  and  C_13
REMARK    9  A    between atoms: C_12  and  C_18
REMARK   10  A    between atoms: C_13  and  C_15
REMARK   11  A    between atoms: C_14  and  C_16
REMARK   12  A    between atoms: C_14  and  C_20
REMARK   13  A    between atoms: C_15  and  C_21
REMARK   14  A    between atoms: C_19  and  C_22
REMARK                            x       y       z     vdW  Elec       q    Type
REMARK                         _______ _______ _______ _____ _____    ______ ____
ROOT
ATOM      1  O   UNK A   0       1.996   0.795  -2.090  0.00  0.00    +0.000 OA
ATOM      2  N   UNK A   1       2.452  -0.491  -0.211  0.00  0.00    +0.000 N 
ATOM      3  N   UNK A   1       0.838   1.147  -0.110  0.00  0.00    +0.000 N 
ATOM      4  C   UNK A   0       1.782   0.510  -0.912  0.00  0.00    +0.000 C 
ATOM      5  H   UNK A   1       2.220  -0.626   0.769  0.00  0.00    +0.000 HD
ATOM      6  H   UNK A   1       0.716   0.825   0.845  0.00  0.00    +0.000 HD
ENDROOT
BRANCH   2   7
ATOM      7  C   UNK A   1       3.483  -1.312  -0.795  0.00  0.00    +0.000 C 
BRANCH   7   9
ATOM      8  O   UNK A   1       2.618  -3.002   0.731  0.00  0.00    +0.000 OA
ATOM      9  C   UNK A   1       3.363  -2.696  -0.191  0.00  0.00    +0.000 C 
BRANCH   9  10
ATOM     10  O   UNK A   1       4.162  -3.595  -0.822  0.00  0.00    +0.000 OA
ATOM     11  H   UNK A   1       4.072  -4.495  -0.441  0.00  0.00    +0.000 HD
ENDBRANCH   9  10
ENDBRANCH   7   9
BRANCH   7  12
ATOM     12  C   UNK A   1       4.880  -0.695  -0.657  0.00  0.00    +0.000 C 
BRANCH  12  13
ATOM     13  C   UNK A   1       5.386  -0.501   0.778  0.00  0.00    +0.000 C 
BRANCH  13  15
ATOM     14  O   UNK A   1       7.446   0.464  -0.096  0.00  0.00    +0.000 OA
ATOM     15  C   UNK A   1       6.763   0.122   0.860  0.00  0.00    +0.000 C 
BRANCH  15  16
ATOM     16  O   UNK A   1       7.189   0.225   2.146  0.00  0.00    +0.000 OA
ATOM     17  H   UNK A   1       8.089   0.612   2.203  0.00  0.00    +0.000 HD
ENDBRANCH  15  16
ENDBRANCH  13  15
ENDBRANCH  12  13
ENDBRANCH   7  12
ENDBRANCH   2   7
BRANCH   3  18
ATOM     18  C   UNK A   1       0.003   2.224  -0.589  0.00  0.00    +0.000 C 
BRANCH  18  20
ATOM     19  O   UNK A   1      -0.858   4.311   0.294  0.00  0.00    +0.000 OA
ATOM     20  C   UNK A   1      -0.262   3.259   0.491  0.00  0.00    +0.000 C 
BRANCH  20  21
ATOM     21  O   UNK A   1       0.241   2.913   1.700  0.00  0.00    +0.000 OA
ATOM     22  H   UNK A   1       0.064   3.597   2.381  0.00  0.00    +0.000 HD
ENDBRANCH  20  21
ENDBRANCH  18  20
BRANCH  18  23
ATOM     23  C   UNK A   1      -1.288   1.706  -1.229  0.00  0.00    +0.000 C 
BRANCH  23  24
ATOM     24  S   UNK A   1      -2.428   0.913  -0.047  0.00  0.00    +0.000 S 
BRANCH  24  25
ATOM     25  C   UNK A   1      -3.765   0.532  -1.200  0.00  0.00    +0.000 C 
BRANCH  25  27
ATOM     26  F   UNK A   1      -8.082  -2.050   1.333  0.00  0.00    +0.000 F 
ATOM     27  C   UNK A   1      -4.918  -0.158  -0.524  0.00  0.00    +0.000 A 
ATOM     28  C   UNK A   1      -4.823  -1.508  -0.190  0.00  0.00    +0.000 A 
ATOM     29  C   UNK A   1      -6.081   0.554  -0.232  0.00  0.00    +0.000 A 
ATOM     30  C   UNK A   1      -5.892  -2.148   0.438  0.00  0.00    +0.000 A 
ATOM     31  C   UNK A   1      -7.150  -0.086   0.396  0.00  0.00    +0.000 A 
ATOM     32  C   UNK A   1      -7.056  -1.436   0.730  0.00  0.00    +0.000 A 
ENDBRANCH  25  27
ENDBRANCH  24  25
ENDBRANCH  23  24
ENDBRANCH  18  23
ENDBRANCH   3  18
TORSDOF 14
