REMARK  Name = 446136
REMARK  11 active torsions:
REMARK  status: ('A' for Active; 'I' for Inactive)
REMARK    1  A    between atoms: O_2  and  C_15
REMARK    2  A    between atoms: N_7  and  C_12
REMARK    3  A    between atoms: N_8  and  C_18
REMARK    4  A    between atoms: C_9  and  C_13
REMARK    5  A    between atoms: C_9  and  C_14
REMARK    6  A    between atoms: CA_10  and  C_15
REMARK    7  A    between atoms: C_11  and  C_12
REMARK    8  A    between atoms: C_12  and  C_16
REMARK    9  A    between atoms: C_17  and  C_19
REMARK   10  A    between atoms: C_18  and  C_20
REMARK   11  A    between atoms: C_19  and  C_21
REMARK                            x       y       z     vdW  Elec       q    Type
REMARK                         _______ _______ _______ _____ _____    ______ ____
ROOT
ATOM      1  C   UNL     1       1.176   0.121  -0.330  0.00  0.00    +0.000 C 
ENDROOT
BRANCH   1   6
ATOM      2  S   UNL     1       3.361   1.709  -0.844  0.00  0.00    +0.000 S 
ATOM      3  N   UNL     1       3.392  -0.955  -0.629  0.00  0.00    +0.000 NA
ATOM      4  C   UNL     1       4.842   0.930  -0.104  0.00  0.00    +0.000 C 
ATOM      5  CA  UNL     1       4.261  -0.399   0.412  0.00  0.00    +0.000 C 
ATOM      6  C   UNL     1       2.502   0.118  -1.085  0.00  0.00    +0.000 C 
ATOM      7  C   UNL     1       5.375   1.800   1.035  0.00  0.00    +0.000 C 
ATOM      8  C   UNL     1       5.899   0.783  -1.207  0.00  0.00    +0.000 C 
ATOM      9  H   UNL     1       3.968  -1.246  -1.419  0.00  0.00    +0.000 HD
BRANCH   5  11
ATOM     10  OXT UNL     1       5.779  -2.205  -0.110  0.00  0.00    +0.000 OA
ATOM     11  C   UNL     1       5.313  -1.423   0.706  0.00  0.00    +0.000 C 
BRANCH  11  12
ATOM     12  O   UNL     1       5.683  -1.369   2.009  0.00  0.00    +0.000 OA
ATOM     13  H   UNL     1       6.373  -2.033   2.222  0.00  0.00    +0.000 HD
ENDBRANCH  11  12
ENDBRANCH   5  11
ENDBRANCH   1   6
BRANCH   1  16
ATOM     14  O   UNL     1      -0.073   1.387  -1.974  0.00  0.00    +0.000 OA
ATOM     15  N   UNL     1      -0.029   2.140   0.221  0.00  0.00    +0.000 N 
ATOM     16  C   UNL     1       0.286   1.260  -0.805  0.00  0.00    +0.000 C 
ATOM     17  H   UNL     1       0.296   1.954   1.165  0.00  0.00    +0.000 HD
BRANCH  15  18
ATOM     18  C   UNL     1      -0.830   3.324   0.014  0.00  0.00    +0.000 C 
BRANCH  18  19
ATOM     19  C   UNL     1      -2.294   3.053   0.207  0.00  0.00    +0.000 A 
ATOM     20  C   UNL     1      -3.078   2.651  -0.875  0.00  0.00    +0.000 A 
ATOM     21  C   UNL     1      -2.871   3.202   1.468  0.00  0.00    +0.000 A 
ATOM     22  C   UNL     1      -4.438   2.399  -0.696  0.00  0.00    +0.000 A 
ATOM     23  C   UNL     1      -4.231   2.950   1.648  0.00  0.00    +0.000 A 
ATOM     24  C   UNL     1      -5.014   2.548   0.566  0.00  0.00    +0.000 A 
ENDBRANCH  18  19
ENDBRANCH  15  18
ENDBRANCH   1  16
BRANCH   1  26
ATOM     25  O   UNL     1      -0.631  -1.135   1.524  0.00  0.00    +0.000 OA
ATOM     26  N   UNL     1       0.465  -1.114  -0.523  0.00  0.00    +0.000 N 
ATOM     27  C   UNL     1      -0.392  -1.647   0.434  0.00  0.00    +0.000 C 
ATOM     28  H   UNL     1       0.545  -1.568  -1.428  0.00  0.00    +0.000 HD
BRANCH  27  29
ATOM     29  C   UNL     1      -1.011  -2.951  -0.032  0.00  0.00    +0.000 C 
BRANCH  29  30
ATOM     30  C   UNL     1      -2.514  -2.905  -0.105  0.00  0.00    +0.000 A 
ATOM     31  C   UNL     1      -3.277  -3.262   1.007  0.00  0.00    +0.000 A 
ATOM     32  C   UNL     1      -3.144  -2.507  -1.284  0.00  0.00    +0.000 A 
ATOM     33  C   UNL     1      -4.670  -3.219   0.940  0.00  0.00    +0.000 A 
ATOM     34  C   UNL     1      -4.537  -2.464  -1.351  0.00  0.00    +0.000 A 
ATOM     35  C   UNL     1      -5.300  -2.820  -0.239  0.00  0.00    +0.000 A 
ENDBRANCH  29  30
ENDBRANCH  27  29
ENDBRANCH   1  26
TORSDOF 9
