REMARK  Name = 20055267
REMARK  15 active torsions:
REMARK  status: ('A' for Active; 'I' for Inactive)
REMARK    1  A    between atoms: O_2  and  C_33
REMARK    2  A    between atoms: OG_6  and  CB_44
REMARK    3  A    between atoms: O_9  and  C_46
REMARK    4  A    between atoms: N_15  and  C_29
REMARK    5  A    between atoms: N_18  and  C_32
REMARK    6  A    between atoms: N_21  and  C_40
REMARK    7  A    between atoms: N_22  and  C_47
REMARK    8  A    between atoms: C_24  and  C_25
REMARK    9  A    between atoms: C_32  and  C_33
REMARK   10  A    between atoms: C_32  and  C_34
REMARK   11  A    between atoms: C_33  and  C_35
REMARK   12  A    between atoms: C_34  and  C_37
REMARK   13  A    between atoms: C_35  and  C_40
REMARK   14  A    between atoms: CA_39  and  CB_44
REMARK   15  A    between atoms: C_42  and  C_46
REMARK                            x       y       z     vdW  Elec       q    Type
REMARK                         _______ _______ _______ _____ _____    ______ ____
ROOT
ATOM      1  O   UNK A   1       0.812   2.921  -0.410  0.00  0.00    +0.000 OA
ATOM      2  O   UNK A   1      -1.224  -0.435   2.581  0.00  0.00    +0.000 OA
ATOM      3  O   UNK A   3       2.539   0.274  -1.664  0.00  0.00    +0.000 OA
ATOM      4  O   SER A   2      -2.328  -2.977  -0.822  0.00  0.00    +0.000 OA
ATOM      5  O   UNK A   3       0.384  -1.339  -0.289  0.00  0.00    +0.000 OA
ATOM      6  N   UNK A   3       2.963   0.584   0.616  0.00  0.00    +0.000 N 
ATOM      7  N   UNK A   1       0.513   1.925   1.664  0.00  0.00    +0.000 N 
ATOM      8  N   SER A   2      -2.925  -0.822   1.054  0.00  0.00    +0.000 N 
ATOM      9  N   UNK A   3      -0.952  -3.289   1.032  0.00  0.00    +0.000 N 
ATOM     10  N   UNK A   3       2.378  -2.539  -0.115  0.00  0.00    +0.000 N 
ATOM     11  C   UNK A   1       2.750   2.022   0.727  0.00  0.00    +0.000 C 
ATOM     12  C   UNK A   1       1.265   2.335   0.571  0.00  0.00    +0.000 C 
ATOM     13  C   UNK A   1      -1.831   1.350   1.059  0.00  0.00    +0.000 C 
ATOM     14  C   UNK A   1      -0.890   2.274   1.829  0.00  0.00    +0.000 C 
ATOM     15  C   UNK A   1      -1.976  -0.032   1.695  0.00  0.00    +0.000 C 
ATOM     16  C   UNK A   3       2.889  -0.139  -0.564  0.00  0.00    +0.000 C 
ATOM     17  CA  SER A   2      -3.106  -2.240   1.339  0.00  0.00    +0.000 C 
ATOM     18  C   UNK A   3       3.300  -1.552  -0.376  0.00  0.00    +0.000 C 
ATOM     19  C   UNK A   3       0.294  -3.666   0.376  0.00  0.00    +0.000 C 
ATOM     20  C   SER A   2      -2.124  -2.913   0.389  0.00  0.00    +0.000 C 
ATOM     21  C   UNK A   3       0.999  -2.373  -0.037  0.00  0.00    +0.000 C 
ATOM     22  C   UNK A   3       4.613  -1.804  -0.457  0.00  0.00    +0.000 C 
ATOM     23  H   UNK A   3       3.244   0.101   1.464  0.00  0.00    +0.000 HD
ATOM     24  H   UNK A   1       0.964   1.405   2.411  0.00  0.00    +0.000 HD
ATOM     25  H   SER A   2      -3.448  -0.422   0.279  0.00  0.00    +0.000 HD
ATOM     26  H   UNK A   3      -0.903  -3.181   2.041  0.00  0.00    +0.000 HD
ATOM     27  H   UNK A   3       2.736  -3.474   0.046  0.00  0.00    +0.000 HD
ENDROOT
BRANCH  11  31
ATOM     28  N   UNK A   1       5.019   2.471  -0.036  0.00  0.00    +0.000 N 
ATOM     29  N   UNK A   1       5.895   4.634  -0.551  0.00  0.00    +0.000 NA
ATOM     30  N   UNK A   1       7.279   2.845   0.029  0.00  0.00    +0.000 N 
ATOM     31  C   UNK A   1       3.626   2.829  -0.221  0.00  0.00    +0.000 C 
ATOM     32  C   UNK A   1       3.491   4.330   0.033  0.00  0.00    +0.000 C 
ATOM     33  C   UNK A   1       4.519   5.086  -0.806  0.00  0.00    +0.000 C 
ATOM     34  C   UNK A   1       6.040   3.386  -0.212  0.00  0.00    +0.000 C 
ATOM     35  H   UNK A   1       5.242   1.500   0.159  0.00  0.00    +0.000 HD
ATOM     36  H   UNK A   1       7.390   1.873   0.297  0.00  0.00    +0.000 HD
ATOM     37  H   UNK A   1       8.120   3.404  -0.056  0.00  0.00    +0.000 HD
ENDBRANCH  11  31
BRANCH  22  39
ATOM     38  O   UNK A   3       7.388  -2.522  -0.596  0.00  0.00    +0.000 OA
ATOM     39  N   UNK A   3       5.134  -3.048  -0.306  0.00  0.00    +0.000 N 
ATOM     40  N   UNK A   3       6.747  -4.689  -0.191  0.00  0.00    +0.000 N 
ATOM     41  C   UNK A   3       6.494  -3.341  -0.384  0.00  0.00    +0.000 C 
ATOM     42  H   UNK A   3       4.509  -3.826  -0.127  0.00  0.00    +0.000 HD
ATOM     43  H   UNK A   3       7.692  -5.055  -0.218  0.00  0.00    +0.000 HD
ATOM     44  H   UNK A   3       5.999  -5.352  -0.016  0.00  0.00    +0.000 HD
ENDBRANCH  22  39
BRANCH  13  46
ATOM     45  O   UNK A   0      -2.806   3.103  -0.992  0.00  0.00    +0.000 OA
ATOM     46  N   UNK A   1      -3.150   1.928   0.979  0.00  0.00    +0.000 N 
ATOM     47  C   UNK A   0      -3.531   2.770  -0.058  0.00  0.00    +0.000 C 
ATOM     48  H   UNK A   1      -3.792   1.758   1.747  0.00  0.00    +0.000 HD
BRANCH  47  49
ATOM     49  C   UNK A   0      -4.953   3.282   0.117  0.00  0.00    +0.000 C 
BRANCH  49  50
ATOM     50  C   UNK A   0      -6.019   2.171   0.186  0.00  0.00    +0.000 C 
BRANCH  50  51
ATOM     51  N   UNK A   0      -7.331   2.791   0.410  0.00  0.00    +0.000 NA
ATOM     52  H   UNK A   0      -8.028   2.071   0.595  0.00  0.00    +0.000 HD
ATOM     53  H   UNK A   0      -7.296   3.368   1.250  0.00  0.00    +0.000 HD
ENDBRANCH  50  51
BRANCH  50  54
ATOM     54  C   UNK A   0      -6.070   1.318  -1.106  0.00  0.00    +0.000 C 
BRANCH  54  55
ATOM     55  O   UNK A   0      -6.308   2.157  -2.236  0.00  0.00    +0.000 OA
ATOM     56  H   UNK A   0      -6.180   1.623  -3.037  0.00  0.00    +0.000 HD
ENDBRANCH  54  55
BRANCH  54  57
ATOM     57  C   UNK A   0      -7.160   0.231  -1.063  0.00  0.00    +0.000 C 
BRANCH  57  58
ATOM     58  C   UNK A   0      -6.925  -0.863  -2.109  0.00  0.00    +0.000 C 
BRANCH  58  59
ATOM     59  N   UNK A   0      -7.970  -1.878  -2.023  0.00  0.00    +0.000 NA
ATOM     60  H   UNK A   0      -7.827  -2.572  -2.755  0.00  0.00    +0.000 HD
ATOM     61  H   UNK A   0      -8.878  -1.452  -2.206  0.00  0.00    +0.000 HD
ENDBRANCH  58  59
ENDBRANCH  57  58
ENDBRANCH  54  57
ENDBRANCH  50  54
ENDBRANCH  49  50
ENDBRANCH  47  49
ENDBRANCH  13  46
BRANCH  17  62
ATOM     62  CB  SER A   2      -4.535  -2.677   1.061  0.00  0.00    +0.000 C 
BRANCH  62  63
ATOM     63  OG  SER A   2      -4.744  -3.950   1.649  0.00  0.00    +0.000 OA
ATOM     64  H   SER A   2      -4.146  -4.580   1.212  0.00  0.00    +0.000 HD
ENDBRANCH  62  63
ENDBRANCH  17  62
BRANCH  19  65
ATOM     65  C   UNK A   3       0.145  -4.631  -0.790  0.00  0.00    +0.000 C 
BRANCH  65  66
ATOM     66  O   UNK A   3       1.379  -5.298  -0.984  0.00  0.00    +0.000 OA
ATOM     67  H   UNK A   3       1.261  -5.911  -1.729  0.00  0.00    +0.000 HD
ENDBRANCH  65  66
ENDBRANCH  19  65
TORSDOF 15
