REMARK  Name = 
REMARK  33 active torsions:
REMARK  status: ('A' for Active; 'I' for Inactive)
REMARK    1  A    between atoms: CD1_1  and  CG1_2
REMARK    2  A    between atoms: CG1_2  and  CB_3
REMARK    3  A    between atoms: CB_3  and  CG2_4
REMARK    4  A    between atoms: CB_3  and  CA_5
REMARK    5  A    between atoms: CA_5  and  N_6
REMARK    6  A    between atoms: CA_5  and  C_45
REMARK    7  A    between atoms: C_7  and  CA_9
REMARK    8  A    between atoms: CA_9  and  CB_10
REMARK    9  A    between atoms: CA_9  and  N_18
REMARK   10  A    between atoms: CB_10  and  CG_11
REMARK   11  A    between atoms: CZ_14  and  OH_15
REMARK   12  A    between atoms: C_19  and  CA_21
REMARK   13  A    between atoms: CA_21  and  N_22
REMARK   14  A    between atoms: CA_21  and  CB_42
REMARK   15  A    between atoms: C_23  and  CA_25
REMARK   16  A    between atoms: CA_25  and  CB_26
REMARK   17  A    between atoms: CA_25  and  N_33
REMARK   18  A    between atoms: CB_26  and  CG_27
REMARK   19  A    between atoms: CG_27  and  CD_28
REMARK   20  A    between atoms: CD_28  and  NE_29
REMARK   21  A    between atoms: C_34  and  CA_36
REMARK   22  A    between atoms: CA_36  and  N_37
REMARK   23  A    between atoms: CA_36  and  CB_38
REMARK   24  A    between atoms: CB_38  and  CG_39
REMARK   25  A    between atoms: CG_39  and  OD2_41
REMARK   26  A    between atoms: CB_42  and  CG1_43
REMARK   27  A    between atoms: CB_42  and  CG2_44
REMARK   28  A    between atoms: N_47  and  CA_48
REMARK   29  A    between atoms: CA_48  and  CB_49
REMARK   30  A    between atoms: CA_48  and  C_55
REMARK   31  A    between atoms: CB_49  and  CG_50
REMARK   32  A    between atoms: CA_61  and  C_62
REMARK   33  A    between atoms: C_62  and  OXT_64
REMARK                            x       y       z     vdW  Elec       q    Type
REMARK                         _______ _______ _______ _____ _____    ______ ____
ROOT
ATOM      1  CA  TYR A   4       0.089  -0.076   1.100  0.00  0.00    +0.000 C 
ENDROOT
BRANCH   1   3
ATOM      2  N   ILE A   5       2.147   0.516   0.053  0.00  0.00    +0.000 N 
ATOM      3  C   TYR A   4       1.101  -0.410  -0.111  0.00  0.00    +0.000 C 
ATOM      4  O   TYR A   4       0.798  -0.999  -1.094  0.00  0.00    +0.000 OA
ATOM      5  H   ILE A   5       2.565   0.697   0.926  0.00  0.00    +0.000 HD
BRANCH   2   6
ATOM      6  CA  ILE A   5       2.594   1.236  -1.268  0.00  0.00    +0.000 C 
BRANCH   6   7
ATOM      7  C   ILE A   5       4.165   0.973  -1.056  0.00  0.00    +0.000 C 
ATOM      8  O   ILE A   5       4.306   0.141  -2.022  0.00  0.00    +0.000 OA
ATOM      9  N   HIS A   6       4.643   0.415   0.115  0.00  0.00    +0.000 N 
ATOM     10  H   HIS A   6       4.087   0.405   0.928  0.00  0.00    +0.000 HD
BRANCH   9  11
ATOM     11  CA  HIS A   6       6.089  -0.204   0.130  0.00  0.00    +0.000 C 
BRANCH  11  12
ATOM     12  C   HIS A   6       6.745   1.033  -0.678  0.00  0.00    +0.000 C 
ATOM     13  O   HIS A   6       6.926   0.941  -1.885  0.00  0.00    +0.000 OA
ATOM     14  N   PRO A   7       7.419   1.956   0.193  0.00  0.00    +0.000 N 
ATOM     15  CD  PRO A   7       8.076   1.602   1.415  0.00  0.00    +0.000 C 
ATOM     16  CG  PRO A   7       9.026   2.690   1.782  0.00  0.00    +0.000 C 
ATOM     17  CB  PRO A   7       8.784   3.747   0.764  0.00  0.00    +0.000 C 
ATOM     18  CA  PRO A   7       8.459   2.856  -0.582  0.00  0.00    +0.000 C 
BRANCH  18  19
ATOM     19  C   PRO A   7       9.684   1.832  -0.302  0.00  0.00    +0.000 C 
ATOM     20  O   PRO A   7      10.739   2.477  -0.588  0.00  0.00    +0.000 OA
BRANCH  19  21
ATOM     21  OXT PRO A   7       9.573   0.606  -0.961  0.00  0.00    +0.000 OA
ATOM     22  HXT PRO A   7       8.826   0.060  -0.812  0.00  0.00    +0.000 HD
ENDBRANCH  19  21
ENDBRANCH  18  19
ENDBRANCH  11  12
BRANCH  11  23
ATOM     23  CB  HIS A   6       5.787  -1.151  -1.195  0.00  0.00    +0.000 C 
BRANCH  23  24
ATOM     24  CG  HIS A   6       6.963  -2.075  -1.122  0.00  0.00    +0.000 A 
ATOM     25  CD2 HIS A   6       8.189  -1.888  -1.753  0.00  0.00    +0.000 A 
ATOM     26  NE2 HIS A   6       9.148  -2.566  -1.081  0.00  0.00    +0.000 NA
ATOM     27  CE1 HIS A   6       8.521  -3.344  -0.186  0.00  0.00    +0.000 A 
ATOM     28  ND1 HIS A   6       7.277  -2.826  -0.037  0.00  0.00    +0.000 N 
ATOM     29  HD1 HIS A   6       6.690  -2.974   0.739  0.00  0.00    +0.000 HD
ENDBRANCH  23  24
ENDBRANCH  11  23
ENDBRANCH   9  11
ENDBRANCH   6   7
BRANCH   6  30
ATOM     30  CB  ILE A   5       2.524   2.802  -0.560  0.00  0.00    +0.000 C 
ATOM     31  CG2 ILE A   5       3.310   2.457   0.814  0.00  0.00    +0.000 C 
BRANCH  30  33
ATOM     32  CD1 ILE A   5       4.416   3.998  -0.431  0.00  0.00    +0.000 C 
ATOM     33  CG1 ILE A   5       3.851   3.384  -1.291  0.00  0.00    +0.000 C 
ENDBRANCH  30  33
ENDBRANCH   6  30
ENDBRANCH   2   6
ENDBRANCH   1   3
BRANCH   1  34
ATOM     34  N   TYR A   4      -1.185  -0.816   0.507  0.00  0.00    +0.000 N 
ATOM     35  C   VAL A   3      -2.045  -0.102  -0.308  0.00  0.00    +0.000 C 
ATOM     36  O   VAL A   3      -1.475   0.611  -1.197  0.00  0.00    +0.000 OA
ATOM     37  H   TYR A   4      -1.359  -1.762   0.715  0.00  0.00    +0.000 HD
BRANCH  35  38
ATOM     38  CA  VAL A   3      -3.170   0.904   0.277  0.00  0.00    +0.000 C 
BRANCH  38  39
ATOM     39  N   VAL A   3      -4.282   0.370  -0.717  0.00  0.00    +0.000 N 
ATOM     40  C   ARG A   2      -5.606   0.861  -0.409  0.00  0.00    +0.000 C 
ATOM     41  O   ARG A   2      -5.752   0.844   0.862  0.00  0.00    +0.000 OA
ATOM     42  H   VAL A   3      -4.091  -0.235  -1.470  0.00  0.00    +0.000 HD
BRANCH  40  43
ATOM     43  CA  ARG A   2      -6.695  -0.241  -0.911  0.00  0.00    +0.000 C 
BRANCH  43  44
ATOM     44  N   ARG A   2      -7.951   0.707  -1.007  0.00  0.00    +0.000 N 
ATOM     45  C   ASP A   1      -7.975   1.707   0.024  0.00  0.00    +0.000 C 
ATOM     46  O   ASP A   1      -7.315   2.617  -0.565  0.00  0.00    +0.000 OA
ATOM     47  H   ARG A   2      -8.646   0.623  -1.700  0.00  0.00    +0.000 HD
BRANCH  45  48
ATOM     48  CA  ASP A   1      -9.452   2.137   0.510  0.00  0.00    +0.000 C 
BRANCH  48  49
ATOM     49  N   ASP A   1      -9.558   0.905   1.500  0.00  0.00    +0.000 NA
ATOM     50  H1  ASP A   1      -8.696   0.826   2.038  0.00  0.00    +0.000 HD
ATOM     51  H2  ASP A   1      -9.705   0.050   0.963  0.00  0.00    +0.000 HD
ENDBRANCH  48  49
BRANCH  48  52
ATOM     52  CB  ASP A   1      -8.857   3.106   1.708  0.00  0.00    +0.000 C 
BRANCH  52  53
ATOM     53  CG  ASP A   1      -8.436   4.324   0.953  0.00  0.00    +0.000 C 
ATOM     54  OD1 ASP A   1      -7.370   4.870   1.303  0.00  0.00    +0.000 OA
BRANCH  53  55
ATOM     55  OD2 ASP A   1      -9.229   4.907  -0.009  0.00  0.00    +0.000 OA
ATOM     56  HD2 ASP A   1     -10.029   4.495  -0.270  0.00  0.00    +0.000 HD
ENDBRANCH  53  55
ENDBRANCH  52  53
ENDBRANCH  48  52
ENDBRANCH  45  48
ENDBRANCH  43  44
BRANCH  43  57
ATOM     57  CB  ARG A   2      -6.317  -0.021  -2.501  0.00  0.00    +0.000 C 
BRANCH  57  58
ATOM     58  CG  ARG A   2      -5.623  -1.315  -2.850  0.00  0.00    +0.000 C 
BRANCH  58  59
ATOM     59  CD  ARG A   2      -5.671  -2.355  -1.780  0.00  0.00    +0.000 C 
BRANCH  59  60
ATOM     60  NE  ARG A   2      -6.986  -2.857  -1.487  0.00  0.00    +0.000 N 
ATOM     61  CZ  ARG A   2      -7.159  -3.575  -0.278  0.00  0.00    +0.000 C 
ATOM     62  NH1 ARG A   2      -6.312  -4.532  -0.039  0.00  0.00    +0.000 NA
ATOM     63  NH2 ARG A   2      -8.406  -3.647   0.391  0.00  0.00    +0.000 N 
ATOM     64  HE  ARG A   2      -7.738  -2.707  -2.104  0.00  0.00    +0.000 HD
ATOM     65  HH1 ARG A   2      -5.430  -4.529  -0.478  0.00  0.00    +0.000 HD
ATOM     66 HH21 ARG A   2      -9.083  -2.948   0.245  0.00  0.00    +0.000 HD
ATOM     67 HH22 ARG A   2      -8.594  -4.396   1.001  0.00  0.00    +0.000 HD
ENDBRANCH  59  60
ENDBRANCH  58  59
ENDBRANCH  57  58
ENDBRANCH  43  57
ENDBRANCH  40  43
ENDBRANCH  38  39
BRANCH  38  68
ATOM     68  CB  VAL A   3      -3.681  -0.105   1.476  0.00  0.00    +0.000 C 
ATOM     69  CG1 VAL A   3      -3.744  -1.462   0.927  0.00  0.00    +0.000 C 
ATOM     70  CG2 VAL A   3      -2.802   0.177   2.621  0.00  0.00    +0.000 C 
ENDBRANCH  38  68
ENDBRANCH  35  38
ENDBRANCH   1  34
BRANCH   1  71
ATOM     71  CB  TYR A   4       0.678  -1.349   1.965  0.00  0.00    +0.000 C 
BRANCH  71  72
ATOM     72  CG  TYR A   4      -0.145  -2.506   1.841  0.00  0.00    +0.000 A 
ATOM     73  CD1 TYR A   4      -0.494  -3.123   3.041  0.00  0.00    +0.000 A 
ATOM     74  CE1 TYR A   4      -1.380  -4.193   3.080  0.00  0.00    +0.000 A 
ATOM     75  CZ  TYR A   4      -2.044  -4.478   1.905  0.00  0.00    +0.000 A 
ATOM     76  CE2 TYR A   4      -1.333  -4.207   0.743  0.00  0.00    +0.000 A 
ATOM     77  CD2 TYR A   4      -0.218  -3.376   0.757  0.00  0.00    +0.000 A 
BRANCH  75  78
ATOM     78  OH  TYR A   4      -3.361  -4.913   1.848  0.00  0.00    +0.000 OA
ATOM     79  HH  TYR A   4      -3.830  -5.093   2.639  0.00  0.00    +0.000 HD
ENDBRANCH  75  78
ENDBRANCH  71  72
ENDBRANCH   1  71
TORSDOF 29
