REMARK  Name = 1981
REMARK  10 active torsions:
REMARK  status: ('A' for Active; 'I' for Inactive)
REMARK    1  A    between atoms: O_2  and  C_18
REMARK    2  A    between atoms: O_2  and  C_27
REMARK    3  A    between atoms: O_4  and  C_21
REMARK    4  A    between atoms: O_4  and  C_28
REMARK    5  A    between atoms: O_6  and  C_29
REMARK    6  A    between atoms: C_9  and  C_13
REMARK    7  A    between atoms: C_11  and  C_16
REMARK    8  A    between atoms: C_13  and  C_21
REMARK    9  A    between atoms: C_17  and  C_20
REMARK   10  A    between atoms: C_28  and  C_29
REMARK                            x       y       z     vdW  Elec       q    Type
REMARK                         _______ _______ _______ _____ _____    ______ ____
ROOT
ATOM      1  O   UNL     1       2.257   2.448   1.719  0.00  0.00    +0.000 OA
ATOM      2  N   UNL     1       1.062   0.699   0.921  0.00  0.00    +0.000 N 
ATOM      3  C   UNL     1      -1.120   0.159   0.970  0.00  0.00    +0.000 A 
ATOM      4  C   UNL     1      -0.389  -1.019   0.692  0.00  0.00    +0.000 A 
ATOM      5  C   UNL     1      -0.219   1.186   1.098  0.00  0.00    +0.000 A 
ATOM      6  C   UNL     1       0.969  -0.672   0.659  0.00  0.00    +0.000 A 
ATOM      7  C   UNL     1      -0.770  -2.358   0.462  0.00  0.00    +0.000 A 
ATOM      8  C   UNL     1       1.954  -1.647   0.410  0.00  0.00    +0.000 A 
ATOM      9  C   UNL     1      -0.528   2.607   1.385  0.00  0.00    +0.000 C 
ATOM     10  C   UNL     1       2.237   1.481   0.965  0.00  0.00    +0.000 C 
ATOM     11  C   UNL     1       0.209  -3.321   0.209  0.00  0.00    +0.000 A 
ATOM     12  C   UNL     1       1.552  -2.968   0.185  0.00  0.00    +0.000 A 
ENDROOT
BRANCH  10  14
ATOM     13 CL   UNL     1       7.176   0.392  -2.228  0.00  0.00    +0.000 Cl
ATOM     14  C   UNL     1       3.456   1.212   0.177  0.00  0.00    +0.000 A 
ATOM     15  C   UNL     1       3.354   0.595  -1.067  0.00  0.00    +0.000 A 
ATOM     16  C   UNL     1       4.701   1.577   0.681  0.00  0.00    +0.000 A 
ATOM     17  C   UNL     1       4.506   0.341  -1.812  0.00  0.00    +0.000 A 
ATOM     18  C   UNL     1       5.853   1.323  -0.063  0.00  0.00    +0.000 A 
ATOM     19  C   UNL     1       5.755   0.705  -1.310  0.00  0.00    +0.000 A 
ENDBRANCH  10  14
BRANCH  11  20
ATOM     20  O   UNL     1      -0.158  -4.614  -0.013  0.00  0.00    +0.000 OA
ATOM     21  C   UNL     1      -1.553  -4.908   0.025  0.00  0.00    +0.000 C 
ENDBRANCH  11  20
BRANCH   3  22
ATOM     22  C   UNL     1      -2.589   0.267   1.095  0.00  0.00    +0.000 C 
BRANCH  22  24
ATOM     23  O   UNL     1      -2.700   0.675  -1.303  0.00  0.00    +0.000 OA
ATOM     24  C   UNL     1      -3.272   0.573  -0.227  0.00  0.00    +0.000 C 
BRANCH  24  25
ATOM     25  O   UNL     1      -4.616   0.713  -0.020  0.00  0.00    +0.000 OA
BRANCH  25  26
ATOM     26  C   UNL     1      -5.392   1.004  -1.187  0.00  0.00    +0.000 C 
BRANCH  26  28
ATOM     27  O   UNL     1      -7.310   0.984   0.304  0.00  0.00    +0.000 OA
ATOM     28  C   UNL     1      -6.843   1.130  -0.815  0.00  0.00    +0.000 C 
BRANCH  28  29
ATOM     29  O   UNL     1      -7.583   1.437  -1.911  0.00  0.00    +0.000 OA
ATOM     30  H   UNL     1      -8.536   1.526  -1.696  0.00  0.00    +0.000 HD
ENDBRANCH  28  29
ENDBRANCH  26  28
ENDBRANCH  25  26
ENDBRANCH  24  25
ENDBRANCH  22  24
ENDBRANCH   3  22
TORSDOF 8
