REMARK  Name = 
REMARK  17 active torsions:
REMARK  status: ('A' for Active; 'I' for Inactive)
REMARK    1  A    between atoms: C_2  and  O_3
REMARK    2  A    between atoms: C_2  and  C_4
REMARK    3  A    between atoms: C_4  and  C_5
REMARK    4  A    between atoms: C_5  and  C_6
REMARK    5  A    between atoms: C_6  and  N_7
REMARK    6  A    between atoms: C_6  and  C_28
REMARK    7  A    between atoms: N_10  and  C_11
REMARK    8  A    between atoms: C_11  and  C_12
REMARK    9  A    between atoms: C_11  and  C_25
REMARK   10  A    between atoms: C_12  and  C_13
REMARK   11  A    between atoms: C_13  and  C_14
REMARK   12  A    between atoms: C_14  and  C_15
REMARK   13  A    between atoms: C_15  and  N_16
REMARK   14  A    between atoms: N_16  and  C_17
REMARK   15  A    between atoms: C_17  and  C_18
REMARK   16  A    between atoms: C_25  and  O_27
REMARK   17  A    between atoms: C_28  and  O_30
REMARK                            x       y       z     vdW  Elec       q    Type
REMARK                         _______ _______ _______ _____ _____    ______ ____
ROOT
ATOM      1  C   UNK A   1      -0.407  -1.547  -0.257  0.00  0.00    +0.000 C 
ENDROOT
BRANCH   1   5
ATOM      2  N   UNK A   1      -4.157  -1.094   0.593  0.00  0.00    +0.000 N 
ATOM      3  C   UNK A   0      -2.917  -1.087  -0.051  0.00  0.00    +0.000 C 
ATOM      4  O   UNK A   0      -2.818  -0.154  -0.869  0.00  0.00    +0.000 OA
ATOM      5  N   UNK A   1      -1.886  -1.989   0.068  0.00  0.00    +0.000 N 
ATOM      6  H   UNK A   1      -4.226  -1.062   1.575  0.00  0.00    +0.000 HD
ATOM      7  H   UNK A   1      -2.071  -2.912   0.357  0.00  0.00    +0.000 HD
BRANCH   2   8
ATOM      8  C   UNK A   1      -5.443  -1.156  -0.323  0.00  0.00    +0.000 C 
BRANCH   8   9
ATOM      9  C   UNK A   1      -4.881  -0.226  -1.539  0.00  0.00    +0.000 C 
ATOM     10  O   UNK A   1      -5.745   0.617  -1.940  0.00  0.00    +0.000 OA
BRANCH   9  11
ATOM     11  O   UNK A   1      -4.736  -1.165  -2.590  0.00  0.00    +0.000 OA
ATOM     12  H   UNK A   1      -4.139  -1.881  -2.500  0.00  0.00    +0.000 HD
ENDBRANCH   9  11
ENDBRANCH   8   9
BRANCH   8  13
ATOM     13  C   UNK A   1      -6.156   0.093   0.488  0.00  0.00    +0.000 C 
BRANCH  13  14
ATOM     14  C   UNK A   1      -5.135   1.132   0.630  0.00  0.00    +0.000 C 
BRANCH  14  16
ATOM     15  O   UNK A   1      -5.779   2.573   0.398  0.00  0.00    +0.000 OA
ATOM     16  C   UNK A   1      -5.490   2.513   0.446  0.00  0.00    +0.000 C 
BRANCH  16  17
ATOM     17  O   UNK A   1      -4.502   3.429   0.206  0.00  0.00    +0.000 OA
ATOM     18  H   UNK A   1      -3.607   3.206   0.367  0.00  0.00    +0.000 HD
ENDBRANCH  16  17
ENDBRANCH  14  16
ENDBRANCH  13  14
ENDBRANCH   8  13
ENDBRANCH   2   8
ENDBRANCH   1   5
BRANCH   1  19
ATOM     19  C   UNK A   1      -0.199  -0.884   1.205  0.00  0.00    +0.000 C 
ATOM     20  O   UNK A   1      -1.081  -0.071   1.538  0.00  0.00    +0.000 OA
BRANCH  19  21
ATOM     21  O   UNK A   1       0.026  -1.957   2.083  0.00  0.00    +0.000 OA
ATOM     22  H   UNK A   1       0.678  -2.599   1.882  0.00  0.00    +0.000 HD
ENDBRANCH  19  21
ENDBRANCH   1  19
BRANCH   1  23
ATOM     23  C   UNK A   1      -0.753  -0.105  -0.990  0.00  0.00    +0.000 C 
BRANCH  23  24
ATOM     24  C   UNK A   1       0.568   0.350  -1.507  0.00  0.00    +0.000 C 
BRANCH  24  25
ATOM     25  C   UNK A   1       1.714  -0.067  -0.630  0.00  0.00    +0.000 C 
BRANCH  25  26
ATOM     26  C   UNK A   1       2.296  -1.408  -1.048  0.00  0.00    +0.000 C 
BRANCH  26  27
ATOM     27  N   UNK A   1       3.531  -1.614  -0.295  0.00  0.00    +0.000 NA
ATOM     28  H   UNK A   1       3.680  -2.608  -0.119  0.00  0.00    +0.000 HD
BRANCH  27  29
ATOM     29  C   UNK A   1       4.589  -1.083  -1.137  0.00  0.00    +0.000 C 
BRANCH  29  30
ATOM     30  C   UNK A   1       5.729  -0.553  -0.327  0.00  0.00    +0.000 A 
ATOM     31  C   UNK A   1       6.881  -0.257  -1.046  0.00  0.00    +0.000 A 
ATOM     32  C   UNK A   1       7.965   0.387  -0.476  0.00  0.00    +0.000 A 
ATOM     33  C   UNK A   1       7.717   1.211   0.614  0.00  0.00    +0.000 A 
ATOM     34  I   UNK A   1       9.068   2.768   1.037  0.00  0.00    +0.000 I 
ATOM     35  C   UNK A   1       6.503   1.080   1.274  0.00  0.00    +0.000 A 
ATOM     36  C   UNK A   1       5.497   0.262   0.775  0.00  0.00    +0.000 A 
ENDBRANCH  29  30
ENDBRANCH  27  29
ENDBRANCH  26  27
ENDBRANCH  25  26
ENDBRANCH  24  25
ENDBRANCH  23  24
ENDBRANCH   1  23
TORSDOF 17
