REMARK  Name = 
REMARK  19 active torsions:
REMARK  status: ('A' for Active; 'I' for Inactive)
REMARK    1  A    between atoms: N_4  and  C_5
REMARK    2  A    between atoms: C_5  and  C_6
REMARK    3  A    between atoms: C_6  and  C_7
REMARK    4  A    between atoms: C_7  and  C_8
REMARK    5  A    between atoms: C_8  and  C_9
REMARK    6  A    between atoms: C_9  and  C_10
REMARK    7  A    between atoms: C_10  and  C_11
REMARK    8  A    between atoms: N_13  and  C_14
REMARK    9  A    between atoms: C_14  and  O_15
REMARK   10  A    between atoms: C_14  and  C_16
REMARK   11  A    between atoms: N_18  and  C_19
REMARK   12  A    between atoms: C_19  and  C_20
REMARK   13  A    between atoms: C_20  and  C_21
REMARK   14  A    between atoms: C_21  and  C_22
REMARK   15  A    between atoms: C_22  and  N_23
REMARK   16  A    between atoms: N_23  and  C_24
REMARK   17  A    between atoms: C_24  and  C_25
REMARK   18  A    between atoms: C_25  and  C_26
REMARK   19  A    between atoms: C_26  and  N_27
REMARK                            x       y       z     vdW  Elec       q    Type
REMARK                         _______ _______ _______ _____ _____    ______ ____
ROOT
ATOM      1  C   UNL     1       0.106  -2.639   0.091  0.00  0.00    +0.000 C 
ENDROOT
BRANCH   1   4
ATOM      2  C   UNL     1      -1.570  -0.852   0.718  0.00  0.00    +0.000 C 
ATOM      3  O   UNL     1      -1.593  -1.310   1.884  0.00  0.00    +0.000 OA
ATOM      4  N   UNL     1      -0.938  -1.527  -0.363  0.00  0.00    +0.000 N 
ATOM      5  H   UNL     1      -1.129  -1.325  -1.308  0.00  0.00    +0.000 HD
BRANCH   2   6
ATOM      6  C   UNL     1      -2.393   0.342   0.372  0.00  0.00    +0.000 C 
BRANCH   6   7
ATOM      7  C   UNL     1      -3.430  -0.145  -0.630  0.00  0.00    +0.000 C 
BRANCH   7   8
ATOM      8  C   UNL     1      -3.782  -1.593  -0.311  0.00  0.00    +0.000 C 
BRANCH   8   9
ATOM      9  C   UNL     1      -5.280  -1.753  -0.165  0.00  0.00    +0.000 C 
BRANCH   9  10
ATOM     10  C   UNL     1      -5.836  -0.388   0.223  0.00  0.00    +0.000 C 
BRANCH  10  11
ATOM     11  C   UNL     1      -7.011  -0.563   1.171  0.00  0.00    +0.000 C 
BRANCH  11  15
ATOM     12  N   UNL     1      -6.436   1.992   0.362  0.00  0.00    +0.000 NA
ATOM     13  C   UNL     1      -7.593   1.764   0.456  0.00  0.00    +0.000 C 
ATOM     14  N   UNL     1      -8.569   2.615  -0.142  0.00  0.00    +0.000 N 
ATOM     15  N   UNL     1      -8.004   0.445   0.827  0.00  0.00    +0.000 N 
ATOM     16  H   UNL     1      -6.130   2.893   0.108  0.00  0.00    +0.000 HD
ATOM     17  H   UNL     1      -8.325   3.530  -0.411  0.00  0.00    +0.000 HD
ATOM     18  H   UNL     1      -9.486   2.288  -0.286  0.00  0.00    +0.000 HD
ATOM     19  H   UNL     1      -8.962   0.217   0.850  0.00  0.00    +0.000 HD
ENDBRANCH  11  15
ENDBRANCH  10  11
ENDBRANCH   9  10
ENDBRANCH   8   9
ENDBRANCH   7   8
ENDBRANCH   6   7
ENDBRANCH   2   6
ENDBRANCH   1   4
BRANCH   1  20
ATOM     20  C   UNL     1       1.369  -1.642  -0.131  0.00  0.00    +0.000 C 
ATOM     21  O   UNL     1       1.420  -0.977  -1.161  0.00  0.00    +0.000 OA
ATOM     22  N   UNL     1       1.873  -1.188   1.124  0.00  0.00    +0.000 N 
ATOM     23  H   UNL     1       1.778  -1.710   1.953  0.00  0.00    +0.000 HD
BRANCH  22  24
ATOM     24  C   UNL     1       2.541   0.111   1.088  0.00  0.00    +0.000 C 
BRANCH  24  25
ATOM     25  C   UNL     1       3.810  -0.139   0.285  0.00  0.00    +0.000 C 
BRANCH  25  26
ATOM     26  C   UNL     1       4.979   0.437   1.050  0.00  0.00    +0.000 C 
BRANCH  26  27
ATOM     27  C   UNL     1       6.192   0.159   0.196  0.00  0.00    +0.000 C 
BRANCH  27  28
ATOM     28  N   UNL     1       6.123   1.046  -0.964  0.00  0.00    +0.000 NA
ATOM     29  H   UNL     1       5.239   1.555  -0.953  0.00  0.00    +0.000 HD
BRANCH  28  30
ATOM     30  C   UNL     1       7.235   1.992  -0.903  0.00  0.00    +0.000 C 
BRANCH  30  31
ATOM     31  C   UNL     1       7.667   2.037   0.548  0.00  0.00    +0.000 C 
BRANCH  31  32
ATOM     32  C   UNL     1       8.897   2.871   0.723  0.00  0.00    +0.000 C 
BRANCH  32  33
ATOM     33  N   UNL     1      10.013   2.089   0.203  0.00  0.00    +0.000 NA
ATOM     34  H   UNL     1      10.077   1.208   0.712  0.00  0.00    +0.000 HD
ATOM     35  H   UNL     1      10.880   2.614   0.320  0.00  0.00    +0.000 HD
ENDBRANCH  32  33
ENDBRANCH  31  32
ENDBRANCH  30  31
ENDBRANCH  28  30
ENDBRANCH  27  28
ENDBRANCH  26  27
ENDBRANCH  25  26
ENDBRANCH  24  25
ENDBRANCH  22  24
ENDBRANCH   1  20
BRANCH   1  36
ATOM     36  O   UNL     1       0.210  -3.187  -1.333  0.00  0.00    +0.000 OA
ATOM     37  H   UNL     1       0.316  -2.451  -1.956  0.00  0.00    +0.000 HD
ENDBRANCH   1  36
TORSDOF 19
