REMARK  Name = 107994
REMARK  11 active torsions:
REMARK  status: ('A' for Active; 'I' for Inactive)
REMARK    1  A    between atoms: O_2  and  C_16
REMARK    2  A    between atoms: O_4  and  C_24
REMARK    3  A    between atoms: N_7  and  CA_13
REMARK    4  A    between atoms: N_7  and  CA_15
REMARK    5  A    between atoms: CA_8  and  C_16
REMARK    6  A    between atoms: CA_13  and  C_14
REMARK    7  A    between atoms: CA_13  and  CB_20
REMARK    8  A    between atoms: CA_15  and  C_17
REMARK    9  A    between atoms: CA_15  and  C_24
REMARK   10  A    between atoms: C_17  and  C_21
REMARK   11  A    between atoms: C_21  and  C_25
REMARK                            x       y       z     vdW  Elec       q    Type
REMARK                         _______ _______ _______ _____ _____    ______ ____
ROOT
ATOM      1  CA  UNL     1       0.331  -0.304  -2.047  0.00  0.00    +0.000 C 
ATOM      2  CB  UNL     1       0.896  -0.219  -3.450  0.00  0.00    +0.000 C 
ENDROOT
BRANCH   1  10
ATOM      3  O   UNL     1       0.215   1.908  -1.198  0.00  0.00    +0.000 OA
ATOM      4  N   UNL     1       2.026   0.617  -0.497  0.00  0.00    +0.000 N 
ATOM      5  CA  UNL     1       2.681   1.747   0.165  0.00  0.00    +0.000 C 
ATOM      6  C   UNL     1       3.246   1.382   1.533  0.00  0.00    +0.000 C 
ATOM      7  C   UNL     1       2.748  -0.665  -0.542  0.00  0.00    +0.000 C 
ATOM      8  C   UNL     1       4.017   0.090   1.526  0.00  0.00    +0.000 A 
ATOM      9  C   UNL     1       3.765  -0.882   0.548  0.00  0.00    +0.000 A 
ATOM     10  C   UNL     1       0.844   0.847  -1.215  0.00  0.00    +0.000 C 
ATOM     11  C   UNL     1       4.959  -0.166   2.533  0.00  0.00    +0.000 A 
ATOM     12  C   UNL     1       4.482  -2.088   0.577  0.00  0.00    +0.000 A 
ATOM     13  C   UNL     1       5.664  -1.368   2.554  0.00  0.00    +0.000 A 
ATOM     14  C   UNL     1       5.427  -2.328   1.574  0.00  0.00    +0.000 A 
BRANCH   5  16
ATOM     15  OXT UNL     1       4.003   1.762  -1.863  0.00  0.00    +0.000 OA
ATOM     16  C   UNL     1       3.732   2.258  -0.780  0.00  0.00    +0.000 C 
BRANCH  16  17
ATOM     17  O   UNL     1       4.347   3.351  -0.266  0.00  0.00    +0.000 OA
ATOM     18  H   UNL     1       5.039   3.699  -0.868  0.00  0.00    +0.000 HD
ENDBRANCH  16  17
ENDBRANCH   5  16
ENDBRANCH   1  10
BRANCH   1  19
ATOM     19  N   UNL     1      -1.118  -0.201  -2.059  0.00  0.00    +0.000 NA
ATOM     20  H   UNL     1      -1.518  -0.676  -2.867  0.00  0.00    +0.000 HD
BRANCH  19  21
ATOM     21  CA  UNL     1      -1.692  -0.725  -0.826  0.00  0.00    +0.000 C 
BRANCH  21  23
ATOM     22  OXT UNL     1      -1.932  -2.834  -2.018  0.00  0.00    +0.000 OA
ATOM     23  C   UNL     1      -1.739  -2.236  -0.967  0.00  0.00    +0.000 C 
BRANCH  23  24
ATOM     24  O   UNL     1      -1.515  -2.876   0.209  0.00  0.00    +0.000 OA
ATOM     25  H   UNL     1      -1.537  -3.851   0.105  0.00  0.00    +0.000 HD
ENDBRANCH  23  24
ENDBRANCH  21  23
BRANCH  21  26
ATOM     26  C   UNL     1      -3.100  -0.143  -0.635  0.00  0.00    +0.000 C 
BRANCH  26  27
ATOM     27  C   UNL     1      -3.811  -0.603   0.647  0.00  0.00    +0.000 C 
BRANCH  27  28
ATOM     28  C   UNL     1      -5.163   0.029   0.874  0.00  0.00    +0.000 A 
ATOM     29  C   UNL     1      -5.265   1.221   1.590  0.00  0.00    +0.000 A 
ATOM     30  C   UNL     1      -6.311  -0.580   0.366  0.00  0.00    +0.000 A 
ATOM     31  C   UNL     1      -6.514   1.805   1.800  0.00  0.00    +0.000 A 
ATOM     32  C   UNL     1      -7.560   0.004   0.575  0.00  0.00    +0.000 A 
ATOM     33  C   UNL     1      -7.662   1.196   1.292  0.00  0.00    +0.000 A 
ENDBRANCH  27  28
ENDBRANCH  26  27
ENDBRANCH  21  26
ENDBRANCH  19  21
ENDBRANCH   1  19
TORSDOF 10
