REMARK  Name = 
REMARK  36 active torsions:
REMARK  status: ('A' for Active; 'I' for Inactive)
REMARK    1  A    between atoms: CB_1  and  CA_2
REMARK    2  A    between atoms: CA_2  and  N_3
REMARK    3  A    between atoms: CA_2  and  C_4
REMARK    4  A    between atoms: N_6  and  C_7
REMARK    5  A    between atoms: C_7  and  C_8
REMARK    6  A    between atoms: C_7  and  C_10
REMARK    7  A    between atoms: C_8  and  O_9
REMARK    8  A    between atoms: N_12  and  C_13
REMARK    9  A    between atoms: C_13  and  C_14
REMARK   10  A    between atoms: C_13  and  C_58
REMARK   11  A    between atoms: N_16  and  C_17
REMARK   12  A    between atoms: C_17  and  C_18
REMARK   13  A    between atoms: C_17  and  C_55
REMARK   14  A    between atoms: N_20  and  C_21
REMARK   15  A    between atoms: C_21  and  C_22
REMARK   16  A    between atoms: C_21  and  C_52
REMARK   17  A    between atoms: N_24  and  C_25
REMARK   18  A    between atoms: C_25  and  C_26
REMARK   19  A    between atoms: C_25  and  C_30
REMARK   20  A    between atoms: C_26  and  C_27
REMARK   21  A    between atoms: N_32  and  C_33
REMARK   22  A    between atoms: C_33  and  C_34
REMARK   23  A    between atoms: C_33  and  C_42
REMARK   24  A    between atoms: C_34  and  C_35
REMARK   25  A    between atoms: C_38  and  O_39
REMARK   26  A    between atoms: N_44  and  C_45
REMARK   27  A    between atoms: C_45  and  C_46
REMARK   28  A    between atoms: C_45  and  C_49
REMARK   29  A    between atoms: C_49  and  C_50
REMARK   30  A    between atoms: C_49  and  O_51
REMARK   31  A    between atoms: C_52  and  C_53
REMARK   32  A    between atoms: C_52  and  O_54
REMARK   33  A    between atoms: C_55  and  C_56
REMARK   34  A    between atoms: C_55  and  O_57
REMARK   35  A    between atoms: C_58  and  C_59
REMARK   36  A    between atoms: C_58  and  O_60
REMARK                            x       y       z     vdW  Elec       q    Type
REMARK                         _______ _______ _______ _____ _____    ______ ____
ROOT
ATOM      1  C   UNK A   2       0.735  -1.055  -1.490  0.00  0.00    +0.000 C 
ENDROOT
BRANCH   1   4
ATOM      2  C   UNK A   2       2.131  -0.023   0.389  0.00  0.00    +0.000 C 
ATOM      3  O   UNK A   2       1.903  -1.029   1.115  0.00  0.00    +0.000 OA
ATOM      4  N   UNK A   2       1.614   0.062  -0.855  0.00  0.00    +0.000 N 
ATOM      5  H   UNK A   2       1.802   0.870  -1.386  0.00  0.00    +0.000 HD
BRANCH   2   6
ATOM      6  C   UNK A   2       3.482   0.708   0.819  0.00  0.00    +0.000 C 
BRANCH   6   9
ATOM      7  C   UNK A   2       5.288  -1.041   0.953  0.00  0.00    +0.000 C 
ATOM      8  O   UNK A   2       4.803  -1.519   1.963  0.00  0.00    +0.000 OA
ATOM      9  N   UNK A   2       4.392  -0.331   0.087  0.00  0.00    +0.000 N 
ATOM     10  H   UNK A   2       4.354  -0.484  -0.884  0.00  0.00    +0.000 HD
BRANCH   7  11
ATOM     11  C   UNK A   2       6.268  -1.873   0.004  0.00  0.00    +0.000 C 
BRANCH  11  14
ATOM     12  C   UNK A   2       7.807  -0.269   1.238  0.00  0.00    +0.000 C 
ATOM     13  O   UNK A   2       6.871   0.446   1.573  0.00  0.00    +0.000 OA
ATOM     14  N   UNK A   2       7.533  -1.593   0.884  0.00  0.00    +0.000 N 
ATOM     15  H   UNK A   2       8.118  -2.327   1.178  0.00  0.00    +0.000 HD
BRANCH  12  16
ATOM     16  C   UNK A   2       9.143   0.425   0.675  0.00  0.00    +0.000 C 
BRANCH  16  19
ATOM     17  C   ALA A   1       9.207   1.815  -1.312  0.00  0.00    +0.000 C 
ATOM     18  O   ALA A   1      10.018   2.675  -0.846  0.00  0.00    +0.000 OA
ATOM     19  N   UNK A   2       8.349   1.279  -0.388  0.00  0.00    +0.000 N 
ATOM     20  H   UNK A   2       7.374   1.409  -0.388  0.00  0.00    +0.000 HD
BRANCH  17  22
ATOM     21  CB  ALA A   1       9.450   0.595  -3.306  0.00  0.00    +0.000 C 
ATOM     22  CA  ALA A   1       8.825   2.048  -2.853  0.00  0.00    +0.000 C 
BRANCH  22  23
ATOM     23  N   ALA A   1       7.372   1.451  -2.747  0.00  0.00    +0.000 NA
ATOM     24  H1  ALA A   1       7.404   0.567  -2.239  0.00  0.00    +0.000 HD
ATOM     25  H2  ALA A   1       7.000   1.291  -3.684  0.00  0.00    +0.000 HD
ENDBRANCH  22  23
ENDBRANCH  17  22
ENDBRANCH  16  19
BRANCH  16  26
ATOM     26  C   UNK A   2       9.106   1.646   1.773  0.00  0.00    +0.000 C 
BRANCH  26  27
ATOM     27  O   UNK A   2      10.412   2.022   1.991  0.00  0.00    +0.000 OA
ATOM     28  H   UNK A   2      10.918   1.261   2.315  0.00  0.00    +0.000 HD
ENDBRANCH  26  27
ENDBRANCH  16  26
ENDBRANCH  12  16
ENDBRANCH  11  14
BRANCH  11  29
ATOM     29  C   UNK A   2       5.991  -3.393   0.754  0.00  0.00    +0.000 C 
ATOM     30  C   UNK A   2       4.664  -3.642  -0.173  0.00  0.00    +0.000 C 
BRANCH  29  31
ATOM     31  O   UNK A   2       6.897  -4.070  -0.243  0.00  0.00    +0.000 OA
ATOM     32  H   UNK A   2       6.689  -3.754  -1.136  0.00  0.00    +0.000 HD
ENDBRANCH  29  31
ENDBRANCH  11  29
ENDBRANCH   7  11
ENDBRANCH   6   9
BRANCH   6  33
ATOM     33  C   UNK A   2       3.469   1.901  -0.420  0.00  0.00    +0.000 C 
ATOM     34  C   UNK A   2       5.067   2.196  -0.213  0.00  0.00    +0.000 C 
BRANCH  33  35
ATOM     35  O   UNK A   2       3.721   0.997  -1.597  0.00  0.00    +0.000 OA
ATOM     36  H   UNK A   2       4.447   0.389  -1.388  0.00  0.00    +0.000 HD
ENDBRANCH  33  35
ENDBRANCH   6  33
ENDBRANCH   2   6
ENDBRANCH   1   4
BRANCH   1  37
ATOM     37  C   UNK A   2      -0.619  -0.622  -0.745  0.00  0.00    +0.000 C 
ATOM     38  O   UNK A   2      -1.410  -0.753  -1.735  0.00  0.00    +0.000 OA
ATOM     39  N   UNK A   2      -0.795   0.419   0.075  0.00  0.00    +0.000 N 
ATOM     40  H   UNK A   2      -0.102   0.580   0.756  0.00  0.00    +0.000 HD
BRANCH  39  41
ATOM     41  C   UNK A   2      -2.017   1.406   0.042  0.00  0.00    +0.000 C 
BRANCH  41  42
ATOM     42  C   UNK A   2      -3.095   0.344   0.596  0.00  0.00    +0.000 C 
ATOM     43  O   UNK A   2      -3.679  -0.426  -0.134  0.00  0.00    +0.000 OA
ATOM     44  N   UNK A   2      -3.610   0.513   1.891  0.00  0.00    +0.000 N 
ATOM     45  H   UNK A   2      -2.996   0.621   2.652  0.00  0.00    +0.000 HD
BRANCH  44  46
ATOM     46  C   UNK A   2      -5.175   0.533   2.132  0.00  0.00    +0.000 C 
BRANCH  46  47
ATOM     47  C   UNK A   2      -5.421  -0.776   1.208  0.00  0.00    +0.000 C 
ATOM     48  O   UNK A   2      -5.110  -1.652   2.079  0.00  0.00    +0.000 OA
ATOM     49  N   UNK A   2      -6.705  -0.926   0.642  0.00  0.00    +0.000 N 
ATOM     50  H   UNK A   2      -7.137  -0.212   0.121  0.00  0.00    +0.000 HD
BRANCH  49  51
ATOM     51  C   UNK A   2      -7.393  -2.308   0.901  0.00  0.00    +0.000 C 
BRANCH  51  52
ATOM     52  C   UNK A   2      -6.789  -3.052  -0.372  0.00  0.00    +0.000 C 
ATOM     53  N   UNK A   2      -6.418  -4.402  -0.051  0.00  0.00    +0.000 N 
ATOM     54  O   UNK A   2      -6.483  -2.484  -1.405  0.00  0.00    +0.000 OA
ATOM     55  H   UNK A   2      -6.700  -4.800   0.804  0.00  0.00    +0.000 HD
ATOM     56  H   UNK A   2      -5.881  -4.929  -0.686  0.00  0.00    +0.000 HD
ENDBRANCH  51  52
BRANCH  51  57
ATOM     57  C   UNK A   2      -8.870  -1.985   0.082  0.00  0.00    +0.000 C 
ATOM     58  C   UNK A   2      -9.198  -0.701   1.041  0.00  0.00    +0.000 C 
BRANCH  57  59
ATOM     59  O   UNK A   2      -8.309  -1.129  -1.022  0.00  0.00    +0.000 OA
ATOM     60  H   UNK A   2      -7.701  -0.474  -0.647  0.00  0.00    +0.000 HD
ENDBRANCH  57  59
ENDBRANCH  51  57
ENDBRANCH  49  51
ENDBRANCH  46  47
BRANCH  46  61
ATOM     61  C   UNK A   2      -5.420   1.625   0.970  0.00  0.00    +0.000 C 
BRANCH  61  62
ATOM     62  C   UNK A   2      -6.706   2.098   0.746  0.00  0.00    +0.000 A 
ATOM     63  C   UNK A   2      -7.902   2.112   1.362  0.00  0.00    +0.000 A 
ATOM     64  C   UNK A   2      -9.051   2.209   0.581  0.00  0.00    +0.000 A 
ATOM     65  C   UNK A   2      -8.998   2.394  -0.797  0.00  0.00    +0.000 A 
ATOM     66  C   UNK A   2      -7.809   2.952  -1.257  0.00  0.00    +0.000 A 
ATOM     67  C   UNK A   2      -6.698   2.875  -0.424  0.00  0.00    +0.000 A 
BRANCH  65  68
ATOM     68  O   UNK A   2      -9.847   1.704  -1.670  0.00  0.00    +0.000 OA
ATOM     69  H   UNK A   2     -10.646   1.332  -1.351  0.00  0.00    +0.000 HD
ENDBRANCH  65  68
ENDBRANCH  61  62
ENDBRANCH  46  61
ENDBRANCH  44  46
ENDBRANCH  41  42
BRANCH  41  70
ATOM     70  C   UNK A   2      -2.340   1.150  -1.542  0.00  0.00    +0.000 C 
BRANCH  70  71
ATOM     71  C   UNK A   2      -3.369   2.030  -2.021  0.00  0.00    +0.000 C 
ATOM     72  N   UNK A   2      -3.213   3.424  -2.069  0.00  0.00    +0.000 N 
ATOM     73  O   UNK A   2      -4.337   1.438  -2.598  0.00  0.00    +0.000 OA
ATOM     74  H   UNK A   2      -2.453   3.851  -1.612  0.00  0.00    +0.000 HD
ATOM     75  H   UNK A   2      -3.865   3.975  -2.560  0.00  0.00    +0.000 HD
ENDBRANCH  70  71
ENDBRANCH  41  70
ENDBRANCH  39  41
ENDBRANCH   1  37
BRANCH   1  76
ATOM     76  C   UNK A   2       1.206  -2.318  -0.418  0.00  0.00    +0.000 C 
ATOM     77  C   UNK A   2      -0.305  -2.857  -0.105  0.00  0.00    +0.000 C 
BRANCH  76  78
ATOM     78  O   UNK A   2       1.371  -3.262  -1.588  0.00  0.00    +0.000 OA
ATOM     79  H   UNK A   2       0.589  -3.209  -2.160  0.00  0.00    +0.000 HD
ENDBRANCH  76  78
ENDBRANCH   1  76
TORSDOF 31
