REMARK  Name = 
REMARK  2 active torsions:
REMARK  status: ('A' for Active; 'I' for Inactive)
REMARK    1  A    between atoms: C_6  and  C_7
REMARK    2  A    between atoms: C_13  and  C_14
REMARK                            x       y       z     vdW  Elec       q    Type
REMARK                         _______ _______ _______ _____ _____    ______ ____
ROOT
ATOM      1  C   UNL     1      -1.855   1.428   1.218  0.00  0.00    +0.000 C 
ATOM      2  C   UNL     1      -2.172   0.672   0.908  0.00  0.00    +0.000 C 
ATOM      3  C   UNL     1      -3.364   0.716   0.014  0.00  0.00    +0.000 C 
ATOM      4  C   UNL     1      -3.268  -0.069  -1.229  0.00  0.00    +0.000 C 
ATOM      5  C   UNL     1      -2.342  -1.252  -1.191  0.00  0.00    +0.000 C 
ATOM      6  C   UNL     1      -1.063  -0.746  -0.620  0.00  0.00    +0.000 C 
ATOM      7  C   UNL     1      -0.777   0.629  -1.066  0.00  0.00    +0.000 C 
ATOM      8  C   UNL     1       0.090  -1.689  -0.788  0.00  0.00    +0.000 C 
ATOM      9  C   UNL     1       1.232  -1.183  -0.311  0.00  0.00    +0.000 C 
ATOM     10  O   UNL     1       2.576  -1.149  -0.676  0.00  0.00    +0.000 OA
ATOM     11  C   UNL     1       3.058   0.129  -0.359  0.00  0.00    +0.000 C 
ATOM     12  O   UNL     1       3.859   0.848  -1.034  0.00  0.00    +0.000 OA
ATOM     13  C   UNL     1       2.071   0.724   0.553  0.00  0.00    +0.000 C 
ATOM     14  C   UNL     1       2.444   1.772   1.555  0.00  0.00    +0.000 C 
ATOM     15  C   UNL     1       0.960   0.006   0.513  0.00  0.00    +0.000 C 
ATOM     16  C   UNL     1      -0.037  -0.084   1.537  0.00  0.00    +0.000 C 
ATOM     17  C   UNL     1      -1.411  -0.751   0.976  0.00  0.00    +0.000 C 
ENDROOT
TORSDOF 0
