REMARK  Name = 54454
REMARK  13 active torsions:
REMARK  status: ('A' for Active; 'I' for Inactive)
REMARK    1  A    between atoms: O_1  and  C_8
REMARK    2  A    between atoms: O_1  and  C_22
REMARK    3  A    between atoms: O_3  and  C_23
REMARK    4  A    between atoms: C_7  and  C_11
REMARK    5  A    between atoms: C_9  and  C_18
REMARK    6  A    between atoms: C_11  and  C_15
REMARK    7  A    between atoms: C_13  and  C_20
REMARK    8  A    between atoms: C_15  and  C_19
REMARK    9  A    between atoms: C_22  and  C_24
REMARK   10  A    between atoms: C_24  and  C_27
REMARK   11  A    between atoms: C_24  and  C_28
REMARK   12  A    between atoms: C_24  and  C_29
REMARK   13  A    between atoms: C_27  and  C_30
REMARK                            x       y       z     vdW  Elec       q    Type
REMARK                         _______ _______ _______ _____ _____    ______ ____
ROOT
ATOM      1  C   UNL     1       1.366   1.634   0.487  0.00  0.00    +0.000 C 
ATOM      2  C   UNL     1       0.186   1.468  -0.516  0.00  0.00    +0.000 C 
ATOM      3  C   UNL     1       1.817   0.302   1.129  0.00  0.00    +0.000 C 
ATOM      4  C   UNL     1      -0.240   2.840  -1.117  0.00  0.00    +0.000 C 
ATOM      5  C   UNL     1       2.532   2.370  -0.167  0.00  0.00    +0.000 C 
ATOM      6  C   UNL     1       3.096   0.486   1.951  0.00  0.00    +0.000 C 
ATOM      7  C   UNL     1       4.264   1.077   1.141  0.00  0.00    +0.000 C 
ATOM      8  C   UNL     1       3.816   2.106   0.137  0.00  0.00    +0.000 C 
ATOM      9  C   UNL     1       0.960   3.628  -1.572  0.00  0.00    +0.000 C 
ATOM     10  C   UNL     1       2.208   3.392  -1.146  0.00  0.00    +0.000 C 
ATOM     11  C   UNL     1      -1.082   3.711  -0.179  0.00  0.00    +0.000 C 
ATOM     12  C   UNL     1       5.090  -0.007   0.443  0.00  0.00    +0.000 C 
ENDROOT
BRANCH   3  13
ATOM     13  O   UNL     1       2.012  -0.692   0.127  0.00  0.00    +0.000 OA
BRANCH  13  15
ATOM     14  O   UNL     1       2.566  -2.223   1.752  0.00  0.00    +0.000 OA
ATOM     15  C   UNL     1       2.390  -1.930   0.575  0.00  0.00    +0.000 C 
BRANCH  15  16
ATOM     16  C   UNL     1       2.572  -2.903  -0.597  0.00  0.00    +0.000 C 
ATOM     17  C   UNL     1       3.061  -4.262  -0.065  0.00  0.00    +0.000 C 
ATOM     18  C   UNL     1       3.658  -2.336  -1.530  0.00  0.00    +0.000 C 
BRANCH  16  19
ATOM     19  C   UNL     1       1.252  -3.065  -1.390  0.00  0.00    +0.000 C 
ATOM     20  C   UNL     1       0.066  -3.560  -0.569  0.00  0.00    +0.000 C 
ENDBRANCH  16  19
ENDBRANCH  15  16
ENDBRANCH  13  15
ENDBRANCH   3  13
BRANCH   2  21
ATOM     21  C   UNL     1      -1.007   0.719   0.087  0.00  0.00    +0.000 C 
BRANCH  21  22
ATOM     22  C   UNL     1      -2.088   0.480  -0.959  0.00  0.00    +0.000 C 
BRANCH  22  25
ATOM     23  O   UNL     1      -3.772   0.490   0.741  0.00  0.00    +0.000 OA
ATOM     24  O   UNL     1      -5.303   0.715   2.374  0.00  0.00    +0.000 OA
ATOM     25  C   UNL     1      -3.264  -0.286  -0.366  0.00  0.00    +0.000 C 
ATOM     26  C   UNL     1      -4.328  -0.559  -1.418  0.00  0.00    +0.000 C 
ATOM     27  C   UNL     1      -5.541  -1.185  -0.754  0.00  0.00    +0.000 C 
ATOM     28  C   UNL     1      -6.065  -0.275   0.339  0.00  0.00    +0.000 C 
ATOM     29  C   UNL     1      -5.013   0.311   1.250  0.00  0.00    +0.000 C 
BRANCH  27  30
ATOM     30  O   UNL     1      -5.207  -2.448  -0.185  0.00  0.00    +0.000 OA
ATOM     31  H   UNL     1      -4.865  -3.010  -0.901  0.00  0.00    +0.000 HD
ENDBRANCH  27  30
ENDBRANCH  22  25
ENDBRANCH  21  22
ENDBRANCH   2  21
TORSDOF 8
