REMARK  Name = 60823
REMARK  17 active torsions:
REMARK  status: ('A' for Active; 'I' for Inactive)
REMARK    1  A    between atoms: O_2  and  C_16
REMARK    2  A    between atoms: O_3  and  C_22
REMARK    3  A    between atoms: O_5  and  C_35
REMARK    4  A    between atoms: N_7  and  C_10
REMARK    5  A    between atoms: N_8  and  C_34
REMARK    6  A    between atoms: C_9  and  C_12
REMARK    7  A    between atoms: C_10  and  C_13
REMARK    8  A    between atoms: C_11  and  C_18
REMARK    9  A    between atoms: C_12  and  C_19
REMARK   10  A    between atoms: C_12  and  C_20
REMARK   11  A    between atoms: C_13  and  C_16
REMARK   12  A    between atoms: C_14  and  C_23
REMARK   13  A    between atoms: C_15  and  C_21
REMARK   14  A    between atoms: C_16  and  C_17
REMARK   15  A    between atoms: C_17  and  C_22
REMARK   16  A    between atoms: C_22  and  C_24
REMARK   17  A    between atoms: C_24  and  C_35
REMARK                            x       y       z     vdW  Elec       q    Type
REMARK                         _______ _______ _______ _____ _____    ______ ____
ROOT
ATOM      1  N   UNL     1       0.321   0.076   1.517  0.00  0.00    +0.000 N 
ATOM      2  C   UNL     1      -0.854  -0.625   1.600  0.00  0.00    +0.000 A 
ATOM      3  C   UNL     1       0.128   1.210   0.772  0.00  0.00    +0.000 A 
ATOM      4  C   UNL     1      -1.812   0.073   0.898  0.00  0.00    +0.000 A 
ATOM      5  C   UNL     1      -1.191   1.234   0.374  0.00  0.00    +0.000 A 
ENDROOT
BRANCH   3   7
ATOM      6  F   UNL     1       4.232   4.849  -0.241  0.00  0.00    +0.000 F 
ATOM      7  C   UNL     1       1.195   2.155   0.509  0.00  0.00    +0.000 A 
ATOM      8  C   UNL     1       1.999   2.003  -0.621  0.00  0.00    +0.000 A 
ATOM      9  C   UNL     1       1.417   3.218   1.385  0.00  0.00    +0.000 A 
ATOM     10  C   UNL     1       3.025   2.913  -0.874  0.00  0.00    +0.000 A 
ATOM     11  C   UNL     1       2.443   4.128   1.131  0.00  0.00    +0.000 A 
ATOM     12  C   UNL     1       3.247   3.976   0.002  0.00  0.00    +0.000 A 
ENDBRANCH   3   7
BRANCH   5  13
ATOM     13  C   UNL     1      -1.759   2.283  -0.427  0.00  0.00    +0.000 A 
ATOM     14  C   UNL     1      -2.326   3.400   0.187  0.00  0.00    +0.000 A 
ATOM     15  C   UNL     1      -1.744   2.185  -1.818  0.00  0.00    +0.000 A 
ATOM     16  C   UNL     1      -2.878   4.419  -0.590  0.00  0.00    +0.000 A 
ATOM     17  C   UNL     1      -2.296   3.203  -2.595  0.00  0.00    +0.000 A 
ATOM     18  C   UNL     1      -2.863   4.320  -1.981  0.00  0.00    +0.000 A 
ENDBRANCH   5  13
BRANCH   4  21
ATOM     19  O   UNL     1      -4.048  -0.024   1.587  0.00  0.00    +0.000 OA
ATOM     20  N   UNL     1      -3.451  -1.157  -0.363  0.00  0.00    +0.000 N 
ATOM     21  C   UNL     1      -3.179  -0.343   0.753  0.00  0.00    +0.000 C 
ATOM     22  H   UNL     1      -2.666  -1.361  -0.979  0.00  0.00    +0.000 HD
BRANCH  20  23
ATOM     23  C   UNL     1      -4.678  -1.749  -0.754  0.00  0.00    +0.000 A 
ATOM     24  C   UNL     1      -5.825  -1.549   0.014  0.00  0.00    +0.000 A 
ATOM     25  C   UNL     1      -4.739  -2.531  -1.908  0.00  0.00    +0.000 A 
ATOM     26  C   UNL     1      -7.033  -2.131  -0.372  0.00  0.00    +0.000 A 
ATOM     27  C   UNL     1      -5.947  -3.113  -2.293  0.00  0.00    +0.000 A 
ATOM     28  C   UNL     1      -7.094  -2.913  -1.525  0.00  0.00    +0.000 A 
ENDBRANCH  20  23
ENDBRANCH   4  21
BRANCH   2  29
ATOM     29  C   UNL     1      -0.953  -1.900   2.343  0.00  0.00    +0.000 C 
ATOM     30  C   UNL     1      -1.324  -3.100   1.440  0.00  0.00    +0.000 C 
ATOM     31  C   UNL     1      -1.935  -1.832   3.535  0.00  0.00    +0.000 C 
ENDBRANCH   2  29
BRANCH   1  32
ATOM     32  C   UNL     1       1.580  -0.334   2.128  0.00  0.00    +0.000 C 
BRANCH  32  33
ATOM     33  C   UNL     1       2.447  -1.216   1.219  0.00  0.00    +0.000 C 
BRANCH  33  34
ATOM     34  C   UNL     1       3.742  -1.712   1.878  0.00  0.00    +0.000 C 
BRANCH  34  35
ATOM     35  O   UNL     1       3.390  -2.437   3.060  0.00  0.00    +0.000 OA
ATOM     36  H   UNL     1       4.217  -2.697   3.501  0.00  0.00    +0.000 HD
ENDBRANCH  34  35
BRANCH  34  37
ATOM     37  C   UNL     1       4.579  -2.649   0.988  0.00  0.00    +0.000 C 
BRANCH  37  38
ATOM     38  C   UNL     1       5.032  -2.104  -0.374  0.00  0.00    +0.000 C 
BRANCH  38  39
ATOM     39  O   UNL     1       5.823  -0.936  -0.169  0.00  0.00    +0.000 OA
ATOM     40  H   UNL     1       5.244  -0.244   0.190  0.00  0.00    +0.000 HD
ENDBRANCH  38  39
BRANCH  38  41
ATOM     41  C   UNL     1       5.813  -3.125  -1.201  0.00  0.00    +0.000 C 
BRANCH  41  43
ATOM     42  O   UNL     1       5.734  -1.596  -3.071  0.00  0.00    +0.000 OA
ATOM     43  C   UNL     1       5.831  -2.746  -2.662  0.00  0.00    +0.000 C 
BRANCH  43  44
ATOM     44  O   UNL     1       5.951  -3.822  -3.478  0.00  0.00    +0.000 OA
ATOM     45  H   UNL     1       5.955  -3.565  -4.425  0.00  0.00    +0.000 HD
ENDBRANCH  43  44
ENDBRANCH  41  43
ENDBRANCH  38  41
ENDBRANCH  37  38
ENDBRANCH  34  37
ENDBRANCH  33  34
ENDBRANCH  32  33
ENDBRANCH   1  32
TORSDOF 15
