REMARK  Name = 102194235
REMARK  13 active torsions:
REMARK  status: ('A' for Active; 'I' for Inactive)
REMARK    1  A    between atoms: N_1  and  C_16
REMARK    2  A    between atoms: N_2  and  C_15
REMARK    3  A    between atoms: N_2  and  C_28
REMARK    4  A    between atoms: N_4  and  C_33
REMARK    5  A    between atoms: N_5  and  C_38
REMARK    6  A    between atoms: C_16  and  C_17
REMARK    7  A    between atoms: C_17  and  C_18
REMARK    8  A    between atoms: C_18  and  C_23
REMARK    9  A    between atoms: C_19  and  C_29
REMARK   10  A    between atoms: C_23  and  C_27
REMARK   11  A    between atoms: C_27  and  C_30
REMARK   12  A    between atoms: C_28  and  C_33
REMARK   13  A    between atoms: C_30  and  C_39
REMARK                            x       y       z     vdW  Elec       q    Type
REMARK                         _______ _______ _______ _____ _____    ______ ____
ROOT
ATOM      1  C   UNL     1       0.690   2.132   0.721  0.00  0.00    +0.000 C 
ENDROOT
BRANCH   1   2
ATOM      2  C   UNL     1       1.906   1.799   1.582  0.00  0.00    +0.000 C 
BRANCH   2   3
ATOM      3  N   UNL     1       2.525   0.527   1.154  0.00  0.00    +0.000 N 
ATOM      4  N   UNL     1      -0.676  -2.102   3.688  0.00  0.00    +0.000 NA
ATOM      5  C   UNL     1       3.730   0.514   0.416  0.00  0.00    +0.000 A 
ATOM      6  C   UNL     1       1.927  -0.700   1.537  0.00  0.00    +0.000 A 
ATOM      7  C   UNL     1       4.278  -0.629  -0.072  0.00  0.00    +0.000 A 
ATOM      8  C   UNL     1       2.450  -1.964   0.942  0.00  0.00    +0.000 A 
ATOM      9  C   UNL     1       3.569  -1.927   0.163  0.00  0.00    +0.000 A 
ATOM     10  C   UNL     1       0.910  -0.792   2.424  0.00  0.00    +0.000 A 
ATOM     11  C   UNL     1       5.549  -0.658  -0.822  0.00  0.00    +0.000 A 
ATOM     12  C   UNL     1       4.158  -3.125  -0.471  0.00  0.00    +0.000 A 
ATOM     13  C   UNL     1       1.730  -3.213   1.216  0.00  0.00    +0.000 A 
ATOM     14  C   UNL     1       6.017  -1.810  -1.331  0.00  0.00    +0.000 A 
ATOM     15  C   UNL     1       5.303  -3.057  -1.170  0.00  0.00    +0.000 A 
ATOM     16  C   UNL     1       0.259  -2.075   2.793  0.00  0.00    +0.000 A 
ATOM     17  C   UNL     1       0.715  -3.287   2.082  0.00  0.00    +0.000 A 
ATOM     18  H   UNL     1      -1.023  -3.058   3.820  0.00  0.00    +0.000 HD
BRANCH   5  19
ATOM     19  C   UNL     1       4.423   1.810   0.205  0.00  0.00    +0.000 A 
ATOM     20  C   UNL     1       4.146   2.572  -0.930  0.00  0.00    +0.000 A 
ATOM     21  C   UNL     1       5.351   2.265   1.141  0.00  0.00    +0.000 A 
ATOM     22  C   UNL     1       4.797   3.789  -1.129  0.00  0.00    +0.000 A 
ATOM     23  C   UNL     1       6.002   3.482   0.943  0.00  0.00    +0.000 A 
ATOM     24  C   UNL     1       5.726   4.244  -0.192  0.00  0.00    +0.000 A 
ENDBRANCH   5  19
BRANCH  14  25
ATOM     25  N   UNL     1       7.240  -1.779  -2.043  0.00  0.00    +0.000 NA
ATOM     26  H   UNL     1       8.010  -1.416  -1.464  0.00  0.00    +0.000 HD
ATOM     27  H   UNL     1       7.179  -1.180  -2.878  0.00  0.00    +0.000 HD
ATOM     28  H   UNL     1       7.530  -2.711  -2.369  0.00  0.00    +0.000 HD
ENDBRANCH  14  25
ENDBRANCH   2   3
ENDBRANCH   1   2
BRANCH   1  29
ATOM     29  C   UNL     1       0.017   3.445   1.135  0.00  0.00    +0.000 C 
BRANCH  29  30
ATOM     30  C   UNL     1      -1.234   3.712   0.294  0.00  0.00    +0.000 C 
BRANCH  30  31
ATOM     31  C   UNL     1      -1.969   5.000   0.684  0.00  0.00    +0.000 C 
BRANCH  31  32
ATOM     32  C   UNL     1      -3.220   5.319  -0.143  0.00  0.00    +0.000 C 
BRANCH  32  36
ATOM     33  N   UNL     1      -5.519   2.524  -0.457  0.00  0.00    +0.000 N 
ATOM     34  N   UNL     1      -5.250   4.223   0.836  0.00  0.00    +0.000 NA
ATOM     35  N   UNL     1      -6.019   3.162   0.615  0.00  0.00    +0.000 NA
ATOM     36  C   UNL     1      -4.267   4.234  -0.114  0.00  0.00    +0.000 A 
ATOM     37  C   UNL     1      -4.420   3.157  -0.950  0.00  0.00    +0.000 A 
BRANCH  33  38
ATOM     38  C   UNL     1      -6.142   1.325  -0.956  0.00  0.00    +0.000 C 
BRANCH  38  39
ATOM     39  C   UNL     1      -5.143   0.333  -1.549  0.00  0.00    +0.000 C 
BRANCH  39  40
ATOM     40  N   UNL     1      -4.148  -0.046  -0.573  0.00  0.00    +0.000 N 
ATOM     41  H   UNL     1      -3.712   0.719  -0.064  0.00  0.00    +0.000 HD
BRANCH  40  49
ATOM     42  N   UNL     1      -1.726  -3.405  -0.974  0.00  0.00    +0.000 NA
ATOM     43  C   UNL     1      -5.118  -2.489   0.470  0.00  0.00    +0.000 C 
ATOM     44  C   UNL     1      -3.768  -2.381  -0.183  0.00  0.00    +0.000 A 
ATOM     45  C   UNL     1      -5.294  -3.775   1.277  0.00  0.00    +0.000 C 
ATOM     46  C   UNL     1      -4.797  -4.977   0.484  0.00  0.00    +0.000 C 
ATOM     47  C   UNL     1      -3.305  -4.836   0.189  0.00  0.00    +0.000 C 
ATOM     48  C   UNL     1      -2.934  -3.482  -0.359  0.00  0.00    +0.000 A 
ATOM     49  C   UNL     1      -3.333  -1.159  -0.698  0.00  0.00    +0.000 A 
ATOM     50  C   UNL     1      -2.095  -1.056  -1.342  0.00  0.00    +0.000 A 
ATOM     51  C   UNL     1      -1.312  -2.220  -1.459  0.00  0.00    +0.000 A 
ATOM     52  C   UNL     1      -1.634   0.165  -1.863  0.00  0.00    +0.000 A 
ATOM     53  C   UNL     1      -0.080  -2.120  -2.099  0.00  0.00    +0.000 A 
ATOM     54  C   UNL     1      -0.398   0.238  -2.499  0.00  0.00    +0.000 A 
ATOM     55  C   UNL     1       0.381  -0.907  -2.616  0.00  0.00    +0.000 A 
ENDBRANCH  40  49
ENDBRANCH  39  40
ENDBRANCH  38  39
ENDBRANCH  33  38
ENDBRANCH  32  36
ENDBRANCH  31  32
ENDBRANCH  30  31
ENDBRANCH  29  30
ENDBRANCH   1  29
TORSDOF 13
