REMARK  Name = 
REMARK  4 active torsions:
REMARK  status: ('A' for Active; 'I' for Inactive)
REMARK    1  A    between atoms: C_1  and  N_2
REMARK    2  A    between atoms: N_5  and  C_6
REMARK    3  A    between atoms: C_11  and  C_12
REMARK    4  A    between atoms: C_13  and  N_14
REMARK                            x       y       z     vdW  Elec       q    Type
REMARK                         _______ _______ _______ _____ _____    ______ ____
ROOT
ATOM      1  C   UNL     1       3.554  -0.700   0.174  0.00  0.00    +0.000 A 
ATOM      2  C   UNL     1       3.232  -1.568   1.211  0.00  0.00    +0.000 A 
ATOM      3  C   UNL     1       1.954  -2.103   1.249  0.00  0.00    +0.000 A 
ATOM      4  C   UNL     1       0.927  -1.584   0.472  0.00  0.00    +0.000 A 
ATOM      5  N   UNL     1      -0.376  -1.359   0.755  0.00  0.00    +0.000 NA
ATOM      6  C   UNL     1      -0.837  -0.323   0.024  0.00  0.00    +0.000 A 
ATOM      7  N   UNL     1       0.124  -0.057  -0.864  0.00  0.00    +0.000 N 
ATOM      8  C   UNL     1       1.249  -0.759  -0.589  0.00  0.00    +0.000 A 
ATOM      9  C   UNL     1       2.586  -0.453  -0.789  0.00  0.00    +0.000 A 
ATOM     10  H   UNL     1       0.027   0.568  -1.619  0.00  0.00    +0.000 HD
ENDROOT
BRANCH   6  11
ATOM     11  C   UNL     1      -2.171   0.290   0.050  0.00  0.00    +0.000 A 
ATOM     12  C   UNL     1      -3.190  -0.308  -0.668  0.00  0.00    +0.000 A 
ATOM     13  C   UNL     1      -4.481   0.050  -0.315  0.00  0.00    +0.000 A 
ATOM     14  C   UNL     1      -5.534  -0.608  -0.918  0.00  0.00    +0.000 A 
ATOM     15  F   UNL     1      -5.286  -1.832  -1.464  0.00  0.00    +0.000 F 
ATOM     16  C   UNL     1      -6.772   0.004  -1.033  0.00  0.00    +0.000 A 
ATOM     17  C   UNL     1      -6.918   1.306  -0.573  0.00  0.00    +0.000 A 
ATOM     18  C   UNL     1      -5.983   1.752   0.352  0.00  0.00    +0.000 A 
ATOM     19  C   UNL     1      -4.774   1.109   0.507  0.00  0.00    +0.000 A 
ATOM     20  N   UNL     1      -3.755   1.641   1.219  0.00  0.00    +0.000 N 
ATOM     21  C   UNL     1      -2.480   1.358   0.863  0.00  0.00    +0.000 A 
ATOM     22  O   UNL     1      -1.524   2.136   1.156  0.00  0.00    +0.000 OA
ATOM     23  H   UNL     1      -3.939   2.228   1.988  0.00  0.00    +0.000 HD
BRANCH  12  24
ATOM     24  N   UNL     1      -2.902  -1.520  -1.368  0.00  0.00    +0.000 N 
ATOM     25  H   UNL     1      -1.972  -1.743  -1.604  0.00  0.00    +0.000 HD
ATOM     26  H   UNL     1      -3.633  -2.131  -1.615  0.00  0.00    +0.000 HD
ENDBRANCH  12  24
ENDBRANCH   6  11
BRANCH   1  31
ATOM     27  C   UNL     1       6.471   2.381   0.628  0.00  0.00    +0.000 C 
ATOM     28  N   UNL     1       7.126   1.143   0.284  0.00  0.00    +0.000 NA
ATOM     29  C   UNL     1       6.745   0.758  -1.061  0.00  0.00    +0.000 C 
ATOM     30  C   UNL     1       5.236   0.582  -1.106  0.00  0.00    +0.000 C 
ATOM     31  N   UNL     1       4.910  -0.400  -0.079  0.00  0.00    +0.000 N 
ATOM     32  C   UNL     1       6.028  -1.020   0.590  0.00  0.00    +0.000 C 
ATOM     33  C   UNL     1       6.840   0.083   1.248  0.00  0.00    +0.000 C 
ENDBRANCH   1  31
TORSDOF 3
