REMARK  Name = 24779724
REMARK  4 active torsions:
REMARK  status: ('A' for Active; 'I' for Inactive)
REMARK    1  A    between atoms: S_1  and  C_12
REMARK    2  A    between atoms: S_1  and  C_16
REMARK    3  A    between atoms: N_4  and  C_24
REMARK    4  A    between atoms: C_9  and  C_10
REMARK                            x       y       z     vdW  Elec       q    Type
REMARK                         _______ _______ _______ _____ _____    ______ ____
ROOT
ATOM      1  N   UNL     1       1.276  -0.905   0.079  0.00  0.00    +0.000 N 
ATOM      2  N   UNL     1       2.332  -0.055   0.044  0.00  0.00    +0.000 NA
ATOM      3  N   UNL     1       0.072  -2.742   0.080  0.00  0.00    +0.000 NA
ATOM      4  N   UNL     1      -0.778  -1.661   0.197  0.00  0.00    +0.000 NA
ATOM      5  C   UNL     1       3.485  -0.653  -0.063  0.00  0.00    +0.000 A 
ATOM      6  C   UNL     1       1.302  -2.278   0.010  0.00  0.00    +0.000 A 
ATOM      7  C   UNL     1      -0.043  -0.572   0.193  0.00  0.00    +0.000 A 
ATOM      8  C   UNL     1       3.664  -2.138  -0.166  0.00  0.00    +0.000 A 
ATOM      9  C   UNL     1       2.561  -2.896  -0.123  0.00  0.00    +0.000 A 
ENDROOT
BRANCH   5  12
ATOM     10  N   UNL     1       6.106   1.860  -0.109  0.00  0.00    +0.000 N 
ATOM     11  N   UNL     1       6.915   0.794  -0.234  0.00  0.00    +0.000 NA
ATOM     12  C   UNL     1       4.721   0.170  -0.106  0.00  0.00    +0.000 A 
ATOM     13  C   UNL     1       4.782   1.540  -0.029  0.00  0.00    +0.000 A 
ATOM     14  C   UNL     1       6.064  -0.235  -0.231  0.00  0.00    +0.000 A 
ATOM     15  C   UNL     1       6.670   3.188  -0.072  0.00  0.00    +0.000 C 
ENDBRANCH   5  12
BRANCH   7  16
ATOM     16  S   UNL     1      -0.628   1.111   0.318  0.00  0.00    +0.000 S 
BRANCH  16  19
ATOM     17  N   UNL     1      -6.501   0.277   0.763  0.00  0.00    +0.000 NA
ATOM     18  C   UNL     1      -4.558   0.625  -0.619  0.00  0.00    +0.000 A 
ATOM     19  C   UNL     1      -2.387   0.861   0.440  0.00  0.00    +0.000 A 
ATOM     20  C   UNL     1      -5.174   0.466   0.640  0.00  0.00    +0.000 A 
ATOM     21  C   UNL     1      -3.170   0.821  -0.710  0.00  0.00    +0.000 A 
ATOM     22  C   UNL     1      -2.987   0.706   1.683  0.00  0.00    +0.000 A 
ATOM     23  C   UNL     1      -4.367   0.511   1.774  0.00  0.00    +0.000 A 
ATOM     24  C   UNL     1      -5.370   0.580  -1.760  0.00  0.00    +0.000 A 
ATOM     25  C   UNL     1      -6.738   0.385  -1.637  0.00  0.00    +0.000 A 
ATOM     26  C   UNL     1      -7.249   0.240  -0.363  0.00  0.00    +0.000 A 
ENDBRANCH  16  19
ENDBRANCH   7  16
TORSDOF 3
