REMARK  Name = 11963557
REMARK  5 active torsions:
REMARK  status: ('A' for Active; 'I' for Inactive)
REMARK    1  A    between atoms: N_4  and  C_14
REMARK    2  A    between atoms: N_5  and  C_15
REMARK    3  A    between atoms: C_18  and  C_25
REMARK    4  A    between atoms: C_27  and  C_28
REMARK    5  A    between atoms: C_28  and  C_29
REMARK                            x       y       z     vdW  Elec       q    Type
REMARK                         _______ _______ _______ _____ _____    ______ ____
ROOT
ATOM      1  O   UNL     1       1.558  -3.588   0.038  0.00  0.00    +0.000 OA
ATOM      2  O   UNL     1      -4.857   1.847  -0.035  0.00  0.00    +0.000 OA
ATOM      3  N   UNL     1      -4.221  -0.321  -0.010  0.00  0.00    +0.000 N 
ATOM      4  N   UNL     1       0.252  -1.638   0.065  0.00  0.00    +0.000 N 
ATOM      5  N   UNL     1      -2.677  -3.566   0.037  0.00  0.00    +0.000 N 
ATOM      6  N   UNL     1      -1.303  -3.496   0.056  0.00  0.00    +0.000 NA
ATOM      7  C   UNL     1      -2.222  -1.324   0.026  0.00  0.00    +0.000 A 
ATOM      8  C   UNL     1      -3.175  -2.314   0.019  0.00  0.00    +0.000 A 
ATOM      9  C   UNL     1      -1.041  -2.144   0.049  0.00  0.00    +0.000 A 
ATOM     10  C   UNL     1      -2.813  -0.100   0.008  0.00  0.00    +0.000 A 
ATOM     11  C   UNL     1       1.459  -2.350   0.059  0.00  0.00    +0.000 C 
ATOM     12  C   UNL     1      -4.377  -1.721  -0.002  0.00  0.00    +0.000 A 
ATOM     13  C   UNL     1      -5.200   0.674  -0.032  0.00  0.00    +0.000 C 
ATOM     14  H   UNL     1       0.279  -0.623   0.025  0.00  0.00    +0.000 HD
ATOM     15  H   UNL     1      -3.158  -4.456   0.037  0.00  0.00    +0.000 HD
ENDROOT
BRANCH  11  19
ATOM     16  C   UNL     1       5.016   0.016   0.037  0.00  0.00    +0.000 A 
ATOM     17  C   UNL     1       3.818   0.511   0.591  0.00  0.00    +0.000 A 
ATOM     18  C   UNL     1       5.005  -1.283  -0.510  0.00  0.00    +0.000 A 
ATOM     19  C   UNL     1       2.669  -1.545   0.051  0.00  0.00    +0.000 A 
ATOM     20  C   UNL     1       2.657  -0.262   0.598  0.00  0.00    +0.000 A 
ATOM     21  C   UNL     1       3.843  -2.055  -0.503  0.00  0.00    +0.000 A 
BRANCH  16  22
ATOM     22  N   UNL     1       6.181   0.790   0.030  0.00  0.00    +0.000 N 
ATOM     23  N   UNL     1       8.422   2.556  -0.106  0.00  0.00    +0.000 NA
ATOM     24  C   UNL     1       6.790   1.109  -1.268  0.00  0.00    +0.000 C 
ATOM     25  C   UNL     1       6.408   1.772   1.095  0.00  0.00    +0.000 C 
ATOM     26  C   UNL     1       8.264   1.480  -1.092  0.00  0.00    +0.000 C 
ATOM     27  C   UNL     1       7.895   2.123   1.194  0.00  0.00    +0.000 C 
ATOM     28  C   UNL     1       9.829   2.940   0.014  0.00  0.00    +0.000 C 
ENDBRANCH  16  22
ENDBRANCH  11  19
BRANCH  13  29
ATOM     29  C   UNL     1      -6.616   0.187  -0.049  0.00  0.00    +0.000 C 
BRANCH  29  31
ATOM     30  S   UNL     1      -8.632   1.627   1.168  0.00  0.00    +0.000 S 
ATOM     31  C   UNL     1      -7.525   1.378  -0.102  0.00  0.00    +0.000 A 
ATOM     32  C   UNL     1      -7.594   2.336  -1.073  0.00  0.00    +0.000 A 
ATOM     33  C   UNL     1      -8.587   3.312  -0.771  0.00  0.00    +0.000 A 
ATOM     34  C   UNL     1      -9.227   3.048   0.420  0.00  0.00    +0.000 A 
ENDBRANCH  29  31
ENDBRANCH  13  29
TORSDOF 4
