REMARK  Name = 53338808
REMARK  2 active torsions:
REMARK  status: ('A' for Active; 'I' for Inactive)
REMARK    1  A    between atoms: C_8  and  C_11
REMARK    2  A    between atoms: C_10  and  C_12
REMARK                            x       y       z     vdW  Elec       q    Type
REMARK                         _______ _______ _______ _____ _____    ______ ____
ROOT
ATOM      1  N   UNL     1       3.187   0.467   0.196  0.00  0.00    +0.000 N 
ATOM      2  N   UNL     1       2.895  -0.861   0.139  0.00  0.00    +0.000 NA
ATOM      3  C   UNL     1       0.978   0.363  -0.076  0.00  0.00    +0.000 A 
ATOM      4  C   UNL     1       2.027   1.237   0.066  0.00  0.00    +0.000 A 
ATOM      5  C   UNL     1       1.572  -0.907  -0.024  0.00  0.00    +0.000 A 
ATOM      6  C   UNL     1       2.154   2.654   0.104  0.00  0.00    +0.000 A 
ATOM      7  C   UNL     1       4.447   1.054   0.358  0.00  0.00    +0.000 A 
ATOM      8  C   UNL     1       3.370   3.209   0.261  0.00  0.00    +0.000 A 
ATOM      9  C   UNL     1       4.563   2.391   0.393  0.00  0.00    +0.000 A 
ENDROOT
BRANCH   3  15
ATOM     10  N   UNL     1      -0.647   1.525  -1.331  0.00  0.00    +0.000 NA
ATOM     11  N   UNL     1      -4.151   1.876  -0.742  0.00  0.00    +0.000 N 
ATOM     12  N   UNL     1      -1.878   1.946  -1.581  0.00  0.00    +0.000 NA
ATOM     13  N   UNL     1      -4.848   1.354   0.285  0.00  0.00    +0.000 NA
ATOM     14  N   UNL     1      -4.144  -0.001   2.133  0.00  0.00    +0.000 N 
ATOM     15  C   UNL     1      -0.391   0.759  -0.238  0.00  0.00    +0.000 A 
ATOM     16  C   UNL     1      -1.341   0.354   0.690  0.00  0.00    +0.000 A 
ATOM     17  C   UNL     1      -2.633   0.799   0.424  0.00  0.00    +0.000 A 
ATOM     18  C   UNL     1      -2.824   1.573  -0.705  0.00  0.00    +0.000 A 
ATOM     19  C   UNL     1      -3.919   0.700   0.991  0.00  0.00    +0.000 A 
ATOM     20  H   UNL     1      -4.647   2.428  -1.430  0.00  0.00    +0.000 HD
ATOM     21  H   UNL     1      -3.410  -0.486   2.639  0.00  0.00    +0.000 HD
ATOM     22  H   UNL     1      -5.071  -0.074   2.542  0.00  0.00    +0.000 HD
ENDBRANCH   3  15
BRANCH   5  23
ATOM     23  C   UNL     1       0.907  -2.182  -0.125  0.00  0.00    +0.000 A 
ATOM     24  C   UNL     1       0.182  -2.500  -1.273  0.00  0.00    +0.000 A 
ATOM     25  C   UNL     1       0.989  -3.097   0.924  0.00  0.00    +0.000 A 
ATOM     26  C   UNL     1      -0.461  -3.734  -1.372  0.00  0.00    +0.000 A 
ATOM     27  C   UNL     1       0.346  -4.331   0.825  0.00  0.00    +0.000 A 
ATOM     28  C   UNL     1      -0.379  -4.649  -0.323  0.00  0.00    +0.000 A 
ENDBRANCH   5  23
TORSDOF 2
