REMARK  Name = 24905152
REMARK  5 active torsions:
REMARK  status: ('A' for Active; 'I' for Inactive)
REMARK    1  A    between atoms: N_1  and  C_7
REMARK    2  A    between atoms: N_5  and  C_14
REMARK    3  A    between atoms: C_7  and  C_12
REMARK    4  A    between atoms: C_7  and  C_13
REMARK    5  A    between atoms: C_10  and  C_11
REMARK                            x       y       z     vdW  Elec       q    Type
REMARK                         _______ _______ _______ _____ _____    ______ ____
ROOT
ATOM      1  N   UNL     1       2.646   1.038  -0.048  0.00  0.00    +0.000 N 
ATOM      2  N   UNL     1       1.362   1.400   0.128  0.00  0.00    +0.000 NA
ATOM      3  N   UNL     1       3.990  -0.963  -0.282  0.00  0.00    +0.000 NA
ATOM      4  N   UNL     1       2.626  -2.983  -0.171  0.00  0.00    +0.000 NA
ATOM      5  C   UNL     1       1.571  -0.874   0.030  0.00  0.00    +0.000 A 
ATOM      6  C   UNL     1       2.828  -0.312  -0.113  0.00  0.00    +0.000 A 
ATOM      7  C   UNL     1       0.712   0.232   0.174  0.00  0.00    +0.000 A 
ATOM      8  C   UNL     1       1.491  -2.262  -0.003  0.00  0.00    +0.000 A 
ATOM      9  C   UNL     1       3.788  -2.299  -0.298  0.00  0.00    +0.000 A 
ENDROOT
BRANCH   7  11
ATOM     10  N   UNL     1      -4.841   0.166   0.922  0.00  0.00    +0.000 NA
ATOM     11  C   UNL     1      -0.711   0.214   0.356  0.00  0.00    +0.000 A 
ATOM     12  C   UNL     1      -1.559   0.244  -0.748  0.00  0.00    +0.000 A 
ATOM     13  C   UNL     1      -1.253   0.169   1.635  0.00  0.00    +0.000 A 
ATOM     14  C   UNL     1      -2.953   0.229  -0.575  0.00  0.00    +0.000 A 
ATOM     15  C   UNL     1      -3.510   0.182   0.720  0.00  0.00    +0.000 A 
ATOM     16  C   UNL     1      -2.639   0.153   1.806  0.00  0.00    +0.000 A 
ATOM     17  C   UNL     1      -3.829   0.258  -1.669  0.00  0.00    +0.000 A 
ATOM     18  C   UNL     1      -5.201   0.241  -1.464  0.00  0.00    +0.000 A 
ATOM     19  C   UNL     1      -5.652   0.196  -0.161  0.00  0.00    +0.000 A 
ENDBRANCH   7  11
BRANCH   8  20
ATOM     20  N   UNL     1       0.259  -2.926   0.132  0.00  0.00    +0.000 N 
ATOM     21  H   UNL     1      -0.603  -2.416   0.257  0.00  0.00    +0.000 HD
ATOM     22  H   UNL     1       0.246  -3.937   0.102  0.00  0.00    +0.000 HD
ENDBRANCH   8  20
BRANCH   1  23
ATOM     23  C   UNL     1       3.666   2.055  -0.147  0.00  0.00    +0.000 C 
ATOM     24  C   UNL     1       3.763   2.881   1.138  0.00  0.00    +0.000 C 
ATOM     25  C   UNL     1       3.443   2.959  -1.361  0.00  0.00    +0.000 C 
ENDBRANCH   1  23
TORSDOF 3
