REMARK  Name = 46937162
REMARK  7 active torsions:
REMARK  status: ('A' for Active; 'I' for Inactive)
REMARK    1  A    between atoms: N_2  and  C_11
REMARK    2  A    between atoms: N_6  and  C_27
REMARK    3  A    between atoms: N_6  and  C_28
REMARK    4  A    between atoms: N_7  and  C_24
REMARK    5  A    between atoms: C_11  and  C_22
REMARK    6  A    between atoms: C_13  and  C_17
REMARK    7  A    between atoms: C_21  and  C_26
REMARK                            x       y       z     vdW  Elec       q    Type
REMARK                         _______ _______ _______ _____ _____    ______ ____
ROOT
ATOM      1  N   UNL     1      -2.819  -2.038   0.100  0.00  0.00    +0.000 N 
ATOM      2  N   UNL     1      -3.534  -3.193   0.203  0.00  0.00    +0.000 N 
ATOM      3  N   UNL     1      -4.045   2.592  -0.272  0.00  0.00    +0.000 NA
ATOM      4  N   UNL     1      -1.795   3.476  -0.191  0.00  0.00    +0.000 NA
ATOM      5  C   UNL     1      -3.703  -0.965  -0.032  0.00  0.00    +0.000 C 
ATOM      6  C   UNL     1      -3.476   0.346  -0.100  0.00  0.00    +0.000 C 
ATOM      7  C   UNL     1      -2.239   1.096  -0.071  0.00  0.00    +0.000 A 
ATOM      8  C   UNL     1      -0.902   0.781   0.028  0.00  0.00    +0.000 A 
ATOM      9  C   UNL     1       0.004   1.839   0.017  0.00  0.00    +0.000 A 
ATOM     10  C   UNL     1      -2.638   2.431  -0.177  0.00  0.00    +0.000 A 
ATOM     11  C   UNL     1      -5.041  -1.579  -0.074  0.00  0.00    +0.000 C 
ATOM     12  C   UNL     1      -4.528   1.381  -0.226  0.00  0.00    +0.000 C 
ATOM     13  C   UNL     1      -4.870  -2.909   0.061  0.00  0.00    +0.000 C 
ATOM     14  C   UNL     1      -0.483   3.144  -0.092  0.00  0.00    +0.000 A 
ATOM     15  H   UNL     1      -3.184  -4.096  -0.089  0.00  0.00    +0.000 HD
ENDROOT
BRANCH   9  16
ATOM     16  C   UNL     1       1.424   1.592   0.118  0.00  0.00    +0.000 A 
ATOM     17  C   UNL     1       1.963   0.406  -0.381  0.00  0.00    +0.000 A 
ATOM     18  C   UNL     1       3.334   0.167  -0.282  0.00  0.00    +0.000 A 
ATOM     19  C   UNL     1       2.256   2.539   0.715  0.00  0.00    +0.000 A 
ATOM     20  C   UNL     1       4.166   1.114   0.315  0.00  0.00    +0.000 A 
ATOM     21  C   UNL     1       3.627   2.300   0.814  0.00  0.00    +0.000 A 
BRANCH  18  24
ATOM     22  O   UNL     1       4.237  -1.072  -1.994  0.00  0.00    +0.000 OA
ATOM     23  N   UNL     1       3.942  -2.201   0.032  0.00  0.00    +0.000 N 
ATOM     24  C   UNL     1       3.867  -1.081  -0.814  0.00  0.00    +0.000 C 
ATOM     25  C   UNL     1       3.490  -2.159   1.421  0.00  0.00    +0.000 C 
ATOM     26  C   UNL     1       4.476  -3.479  -0.419  0.00  0.00    +0.000 C 
ENDBRANCH  18  24
BRANCH  20  27
ATOM     27  N   UNL     1       5.556   0.891   0.426  0.00  0.00    +0.000 N 
ATOM     28  H   UNL     1       5.971   0.038   0.078  0.00  0.00    +0.000 HD
ATOM     29  H   UNL     1       6.143   1.589   0.864  0.00  0.00    +0.000 HD
ENDBRANCH  20  27
ENDBRANCH   9  16
BRANCH   1  30
ATOM     30  C   UNL     1      -1.415  -2.006   0.419  0.00  0.00    +0.000 C 
ATOM     31  C   UNL     1      -0.854  -3.414   0.457  0.00  0.00    +0.000 C 
ENDBRANCH   1  30
TORSDOF 4
