REMARK  Name = 10366136
REMARK  6 active torsions:
REMARK  status: ('A' for Active; 'I' for Inactive)
REMARK    1  A    between atoms: O_2  and  C_11
REMARK    2  A    between atoms: O_2  and  C_21
REMARK    3  A    between atoms: N_3  and  C_18
REMARK    4  A    between atoms: N_4  and  C_12
REMARK    5  A    between atoms: C_8  and  C_11
REMARK    6  A    between atoms: C_8  and  C_13
REMARK                            x       y       z     vdW  Elec       q    Type
REMARK                         _______ _______ _______ _____ _____    ______ ____
ROOT
ATOM      1  N   UNL     1       2.357   0.754   0.099  0.00  0.00    +0.000 NA
ATOM      2  N   UNL     1       0.692   2.390   0.306  0.00  0.00    +0.000 N 
ATOM      3  N   UNL     1      -1.090   3.566   0.951  0.00  0.00    +0.000 NA
ATOM      4  C   UNL     1       4.012  -0.935  -0.107  0.00  0.00    +0.000 A 
ATOM      5  C   UNL     1       3.651   0.427  -0.083  0.00  0.00    +0.000 A 
ATOM      6  C   UNL     1       5.368  -1.286  -0.298  0.00  0.00    +0.000 A 
ATOM      7  C   UNL     1      -2.936   0.678  -0.540  0.00  0.00    +0.000 A 
ATOM      8  C   UNL     1       4.650   1.408  -0.252  0.00  0.00    +0.000 A 
ATOM      9  C   UNL     1       2.026   2.066   0.119  0.00  0.00    +0.000 A 
ATOM     10  C   UNL     1       6.347  -0.314  -0.463  0.00  0.00    +0.000 A 
ATOM     11  C   UNL     1      -0.404   1.647  -0.069  0.00  0.00    +0.000 A 
ATOM     12  C   UNL     1      -2.795   1.912   0.106  0.00  0.00    +0.000 A 
ATOM     13  C   UNL     1       5.990   1.031  -0.440  0.00  0.00    +0.000 A 
ATOM     14  C   UNL     1      -1.499   2.401   0.344  0.00  0.00    +0.000 A 
ATOM     15  C   UNL     1      -1.817  -0.056  -0.942  0.00  0.00    +0.000 A 
ATOM     16  C   UNL     1       4.264   2.755  -0.225  0.00  0.00    +0.000 A 
ATOM     17  C   UNL     1      -0.520   0.415  -0.714  0.00  0.00    +0.000 A 
ATOM     18  C   UNL     1       2.932   3.095  -0.036  0.00  0.00    +0.000 A 
ATOM     19  C   UNL     1       0.223   3.529   0.911  0.00  0.00    +0.000 A 
ENDROOT
BRANCH   4  20
ATOM     20  N   UNL     1       3.057  -1.946   0.057  0.00  0.00    +0.000 N 
ATOM     21  C   UNL     1       1.185  -4.107   0.471  0.00  0.00    +0.000 C 
ATOM     22  C   UNL     1       1.388  -3.015   1.520  0.00  0.00    +0.000 C 
ATOM     23  C   UNL     1       1.464  -3.548  -0.924  0.00  0.00    +0.000 C 
ATOM     24  C   UNL     1       2.785  -2.405   1.426  0.00  0.00    +0.000 C 
ATOM     25  C   UNL     1       2.860  -2.931  -1.012  0.00  0.00    +0.000 C 
BRANCH  21  26
ATOM     26  N   UNL     1      -0.150  -4.648   0.550  0.00  0.00    +0.000 NA
ATOM     27  H   UNL     1      -0.287  -5.349  -0.177  0.00  0.00    +0.000 HD
ATOM     28  H   UNL     1      -0.839  -3.918   0.370  0.00  0.00    +0.000 HD
ENDBRANCH  21  26
ENDBRANCH   4  20
BRANCH   7  29
ATOM     29  O   UNL     1      -4.185   0.187  -0.780  0.00  0.00    +0.000 OA
BRANCH  29  30
ATOM     30  C   UNL     1      -5.210   0.548   0.142  0.00  0.00    +0.000 C 
BRANCH  30  32
ATOM     31  O   UNL     1      -8.172  -0.313  -0.676  0.00  0.00    +0.000 OA
ATOM     32  C   UNL     1      -6.238  -0.566   0.184  0.00  0.00    +0.000 C 
ATOM     33  C   UNL     1      -6.912  -0.836  -1.154  0.00  0.00    +0.000 C 
ATOM     34  C   UNL     1      -7.617  -0.115   0.645  0.00  0.00    +0.000 C 
ATOM     35  C   UNL     1      -5.705  -1.790   0.883  0.00  0.00    +0.000 C 
ENDBRANCH  30  32
ENDBRANCH  29  30
ENDBRANCH   7  29
TORSDOF 5
