REMARK  Name = 10430360
REMARK  6 active torsions:
REMARK  status: ('A' for Active; 'I' for Inactive)
REMARK    1  A    between atoms: O_1  and  C_14
REMARK    2  A    between atoms: O_1  and  C_15
REMARK    3  A    between atoms: N_2  and  C_13
REMARK    4  A    between atoms: C_13  and  C_14
REMARK    5  A    between atoms: C_17  and  C_18
REMARK    6  A    between atoms: C_24  and  C_28
REMARK                            x       y       z     vdW  Elec       q    Type
REMARK                         _______ _______ _______ _____ _____    ______ ____
ROOT
ATOM      1  N   UNL     1       4.909  -0.512   0.530  0.00  0.00    +0.000 N 
ATOM      2  N   UNL     1       4.580   0.784   0.393  0.00  0.00    +0.000 NA
ATOM      3  C   UNL     1       2.760  -0.571   0.096  0.00  0.00    +0.000 A 
ATOM      4  C   UNL     1       3.269   0.748   0.128  0.00  0.00    +0.000 A 
ATOM      5  C   UNL     1       3.861  -1.377   0.363  0.00  0.00    +0.000 A 
ATOM      6  C   UNL     1       1.508  -1.169  -0.127  0.00  0.00    +0.000 A 
ATOM      7  C   UNL     1       1.414  -2.565  -0.071  0.00  0.00    +0.000 A 
ATOM      8  C   UNL     1       3.789  -2.770   0.423  0.00  0.00    +0.000 A 
ATOM      9  C   UNL     1       2.536  -3.350   0.199  0.00  0.00    +0.000 A 
ATOM     10  H   UNL     1       5.872  -0.740   0.738  0.00  0.00    +0.000 HD
ENDROOT
BRANCH   7  14
ATOM     11  N   UNL     1      -1.046  -2.610   0.013  0.00  0.00    +0.000 N 
ATOM     12  N   UNL     1      -0.077  -4.386  -0.812  0.00  0.00    +0.000 NA
ATOM     13  N   UNL     1      -2.079  -3.409  -0.296  0.00  0.00    +0.000 NA
ATOM     14  C   UNL     1       0.137  -3.200  -0.298  0.00  0.00    +0.000 A 
ATOM     15  C   UNL     1      -1.440  -4.470  -0.791  0.00  0.00    +0.000 A 
ATOM     16  H   UNL     1      -1.234  -1.705   0.428  0.00  0.00    +0.000 HD
ENDBRANCH   7  14
BRANCH   4  18
ATOM     17  C   UNL     1       0.489   3.221   0.048  0.00  0.00    +0.000 A 
ATOM     18  C   UNL     1       2.539   1.966  -0.084  0.00  0.00    +0.000 A 
ATOM     19  C   UNL     1       1.188   2.038   0.256  0.00  0.00    +0.000 A 
ATOM     20  C   UNL     1       1.122   4.333  -0.496  0.00  0.00    +0.000 A 
ATOM     21  C   UNL     1       3.181   3.077  -0.630  0.00  0.00    +0.000 A 
ATOM     22  C   UNL     1       2.473   4.261  -0.836  0.00  0.00    +0.000 A 
BRANCH  17  23
ATOM     23  O   UNL     1      -0.838   3.293   0.383  0.00  0.00    +0.000 OA
BRANCH  23  24
ATOM     24  C   UNL     1      -1.587   2.087   0.299  0.00  0.00    +0.000 C 
BRANCH  24  25
ATOM     25  C   UNL     1      -3.034   2.432  -0.014  0.00  0.00    +0.000 C 
BRANCH  25  26
ATOM     26  N   UNL     1      -3.841   1.217  -0.127  0.00  0.00    +0.000 NA
ATOM     27  C   UNL     1      -3.841   0.479   1.144  0.00  0.00    +0.000 C 
ATOM     28  C   UNL     1      -5.209   1.546  -0.551  0.00  0.00    +0.000 C 
ATOM     29  C   UNL     1      -4.641  -0.819   1.028  0.00  0.00    +0.000 C 
ATOM     30  C   UNL     1      -6.053   0.282  -0.722  0.00  0.00    +0.000 C 
ATOM     31  C   UNL     1      -6.065  -0.554   0.553  0.00  0.00    +0.000 C 
ENDBRANCH  25  26
ENDBRANCH  24  25
ENDBRANCH  23  24
ENDBRANCH  17  23
ENDBRANCH   4  18
TORSDOF 6
