REMARK  Name = 70798655
REMARK  2 active torsions:
REMARK  status: ('A' for Active; 'I' for Inactive)
REMARK    1  A    between atoms: C_13  and  C_14
REMARK    2  A    between atoms: C_16  and  C_19
REMARK                            x       y       z     vdW  Elec       q    Type
REMARK                         _______ _______ _______ _____ _____    ______ ____
ROOT
ATOM      1  N   UNL     1       1.842   1.467   0.163  0.00  0.00    +0.000 N 
ATOM      2  N   UNL     1       3.473   2.913  -0.336  0.00  0.00    +0.000 NA
ATOM      3  C   UNL     1       3.019   0.871   0.539  0.00  0.00    +0.000 A 
ATOM      4  C   UNL     1       2.172   2.710  -0.364  0.00  0.00    +0.000 A 
ATOM      5  C   UNL     1      -0.488   1.747  -0.178  0.00  0.00    +0.000 A 
ATOM      6  C   UNL     1       0.539   0.986   0.259  0.00  0.00    +0.000 A 
ATOM      7  C   UNL     1       4.003   1.777   0.222  0.00  0.00    +0.000 A 
ATOM      8  C   UNL     1       1.097   3.520  -0.825  0.00  0.00    +0.000 A 
ATOM      9  C   UNL     1      -0.168   3.065  -0.737  0.00  0.00    +0.000 A 
ENDROOT
BRANCH   5  13
ATOM     10  O   UNL     1      -5.611  -0.366   0.224  0.00  0.00    +0.000 OA
ATOM     11  N   UNL     1      -3.943  -1.873  -0.068  0.00  0.00    +0.000 NA
ATOM     12  N   UNL     1      -6.236  -2.575   0.131  0.00  0.00    +0.000 N 
ATOM     13  C   UNL     1      -1.867   1.234  -0.066  0.00  0.00    +0.000 A 
ATOM     14  C   UNL     1      -2.094  -0.148  -0.142  0.00  0.00    +0.000 A 
ATOM     15  C   UNL     1      -2.925   2.135   0.115  0.00  0.00    +0.000 A 
ATOM     16  C   UNL     1      -3.415  -0.606  -0.032  0.00  0.00    +0.000 A 
ATOM     17  C   UNL     1      -4.433   0.320   0.146  0.00  0.00    +0.000 A 
ATOM     18  C   UNL     1      -4.248   1.694   0.227  0.00  0.00    +0.000 A 
ATOM     19  C   UNL     1      -5.233  -1.668   0.088  0.00  0.00    +0.000 A 
ATOM     20  H   UNL     1      -6.062  -3.570   0.039  0.00  0.00    +0.000 HD
ATOM     21  H   UNL     1      -7.204  -2.297   0.256  0.00  0.00    +0.000 HD
ENDBRANCH   5  13
BRANCH   3  29
ATOM     22  O   UNL     1       2.835  -3.851  -1.255  0.00  0.00    +0.000 OA
ATOM     23  O   UNL     1       3.132  -0.501   2.377  0.00  0.00    +0.000 OA
ATOM     24  N   UNL     1       3.330  -1.556   0.302  0.00  0.00    +0.000 N 
ATOM     25  C   UNL     1       3.486  -2.894   0.870  0.00  0.00    +0.000 C 
ATOM     26  C   UNL     1       3.442  -1.502  -1.161  0.00  0.00    +0.000 C 
ATOM     27  C   UNL     1       2.548  -2.559  -1.797  0.00  0.00    +0.000 C 
ATOM     28  C   UNL     1       2.581  -3.884   0.152  0.00  0.00    +0.000 C 
ATOM     29  C   UNL     1       3.163  -0.458   1.148  0.00  0.00    +0.000 C 
ENDBRANCH   3  29
TORSDOF 2
