REMARK  Name = 54766013
REMARK  6 active torsions:
REMARK  status: ('A' for Active; 'I' for Inactive)
REMARK    1  A    between atoms: N_5  and  C_13
REMARK    2  A    between atoms: N_5  and  C_20
REMARK    3  A    between atoms: C_9  and  C_12
REMARK    4  A    between atoms: C_10  and  C_14
REMARK    5  A    between atoms: C_11  and  C_13
REMARK    6  A    between atoms: C_21  and  C_27
REMARK                            x       y       z     vdW  Elec       q    Type
REMARK                         _______ _______ _______ _____ _____    ______ ____
ROOT
ATOM      1  N   UNL     1      -0.776  -1.616  -0.553  0.00  0.00    +0.000 N 
ATOM      2  N   UNL     1      -0.553   0.558  -0.947  0.00  0.00    +0.000 NA
ATOM      3  C   UNL     1       0.665   0.007  -0.638  0.00  0.00    +0.000 A 
ATOM      4  C   UNL     1       0.552  -1.341  -0.390  0.00  0.00    +0.000 A 
ATOM      5  C   UNL     1      -1.400  -0.446  -0.887  0.00  0.00    +0.000 A 
ATOM      6  H   UNL     1      -1.226  -2.516  -0.439  0.00  0.00    +0.000 HD
ENDROOT
BRANCH   3  10
ATOM      7  N   UNL     1       3.095   2.682   0.293  0.00  0.00    +0.000 N 
ATOM      8  N   UNL     1       3.340   3.765   1.073  0.00  0.00    +0.000 NA
ATOM      9  N   UNL     1       5.138   3.347  -0.274  0.00  0.00    +0.000 NA
ATOM     10  C   UNL     1       1.887   0.834  -0.601  0.00  0.00    +0.000 A 
ATOM     11  C   UNL     1       1.951   1.881   0.248  0.00  0.00    +0.000 A 
ATOM     12  C   UNL     1       3.048   0.583  -1.460  0.00  0.00    +0.000 A 
ATOM     13  C   UNL     1       4.208   2.451  -0.519  0.00  0.00    +0.000 A 
ATOM     14  C   UNL     1       4.150   1.353  -1.418  0.00  0.00    +0.000 A 
ATOM     15  C   UNL     1       4.567   4.116   0.692  0.00  0.00    +0.000 A 
ENDBRANCH   3  10
BRANCH   4  17
ATOM     16  N   UNL     1       2.569  -1.890   0.687  0.00  0.00    +0.000 NA
ATOM     17  C   UNL     1       1.520  -2.347  -0.032  0.00  0.00    +0.000 A 
ATOM     18  C   UNL     1       1.355  -3.671  -0.408  0.00  0.00    +0.000 A 
ATOM     19  C   UNL     1       3.497  -2.806   1.044  0.00  0.00    +0.000 A 
ATOM     20  C   UNL     1       2.331  -4.583  -0.021  0.00  0.00    +0.000 A 
ATOM     21  C   UNL     1       3.425  -4.151   0.719  0.00  0.00    +0.000 A 
ATOM     22  C   UNL     1       4.659  -2.306   1.837  0.00  0.00    +0.000 C 
ENDBRANCH   4  17
BRANCH   5  23
ATOM     23  C   UNL     1      -2.852  -0.394  -1.136  0.00  0.00    +0.000 C 
BRANCH  23  24
ATOM     24  N   UNL     1      -3.566   0.191  -0.013  0.00  0.00    +0.000 N 
ATOM     25  H   UNL     1      -3.034   0.548   0.773  0.00  0.00    +0.000 HD
BRANCH  24  27
ATOM     26  F   UNL     1      -4.822   1.321   2.179  0.00  0.00    +0.000 F 
ATOM     27  C   UNL     1      -4.941   0.301   0.038  0.00  0.00    +0.000 A 
ATOM     28  C   UNL     1      -5.557   0.873   1.151  0.00  0.00    +0.000 A 
ATOM     29  C   UNL     1      -5.716  -0.163  -1.026  0.00  0.00    +0.000 A 
ATOM     30  C   UNL     1      -6.946   0.983   1.201  0.00  0.00    +0.000 A 
ATOM     31  C   UNL     1      -7.106  -0.053  -0.976  0.00  0.00    +0.000 A 
ATOM     32  C   UNL     1      -7.721   0.520   0.137  0.00  0.00    +0.000 A 
ENDBRANCH  24  27
ENDBRANCH  23  24
ENDBRANCH   5  23
TORSDOF 5
