REMARK  Name = 15479177
REMARK  7 active torsions:
REMARK  status: ('A' for Active; 'I' for Inactive)
REMARK    1  A    between atoms: O_1  and  C_16
REMARK    2  A    between atoms: O_1  and  C_24
REMARK    3  A    between atoms: O_3  and  C_20
REMARK    4  A    between atoms: O_3  and  C_27
REMARK    5  A    between atoms: C_7  and  C_16
REMARK    6  A    between atoms: C_9  and  C_15
REMARK    7  A    between atoms: C_15  and  C_20
REMARK                            x       y       z     vdW  Elec       q    Type
REMARK                         _______ _______ _______ _____ _____    ______ ____
ROOT
ATOM      1  N   UNL     1       1.036   1.667   0.110  0.00  0.00    +0.000 NA
ATOM      2  N   UNL     1      -2.360  -0.911   0.764  0.00  0.00    +0.000 N 
ATOM      3  C   UNL     1       1.183   0.249  -0.256  0.00  0.00    +0.000 C 
ATOM      4  C   UNL     1       0.138  -0.631   0.513  0.00  0.00    +0.000 C 
ATOM      5  C   UNL     1       1.483   0.580   2.281  0.00  0.00    +0.000 C 
ATOM      6  C   UNL     1       2.631  -0.158   0.174  0.00  0.00    +0.000 C 
ATOM      7  C   UNL     1       0.433  -0.522   2.034  0.00  0.00    +0.000 C 
ATOM      8  C   UNL     1       2.823   0.134   1.677  0.00  0.00    +0.000 C 
ATOM      9  C   UNL     1       1.016   1.865   1.567  0.00  0.00    +0.000 C 
ATOM     10  C   UNL     1      -1.294  -0.243   0.204  0.00  0.00    +0.000 A 
ATOM     11  C   UNL     1       0.058   2.470  -0.621  0.00  0.00    +0.000 C 
ATOM     12  C   UNL     1      -1.817   0.763  -0.596  0.00  0.00    +0.000 A 
ATOM     13  C   UNL     1      -1.023   1.727  -1.416  0.00  0.00    +0.000 C 
ATOM     14  C   UNL     1      -3.245   0.689  -0.504  0.00  0.00    +0.000 A 
ATOM     15  C   UNL     1      -3.551  -0.365   0.355  0.00  0.00    +0.000 A 
ATOM     16  C   UNL     1      -4.310   1.421  -1.073  0.00  0.00    +0.000 A 
ATOM     17  C   UNL     1      -4.864  -0.727   0.678  0.00  0.00    +0.000 A 
ATOM     18  C   UNL     1      -5.629   1.072  -0.760  0.00  0.00    +0.000 A 
ATOM     19  C   UNL     1      -5.900   0.014   0.103  0.00  0.00    +0.000 A 
ATOM     20  H   UNL     1      -2.277  -1.694   1.397  0.00  0.00    +0.000 HD
ENDROOT
BRANCH   4  22
ATOM     21  O   UNL     1       0.575  -2.996   0.786  0.00  0.00    +0.000 OA
ATOM     22  C   UNL     1       0.276  -2.065   0.051  0.00  0.00    +0.000 C 
BRANCH  22  23
ATOM     23  O   UNL     1       0.017  -2.140  -1.286  0.00  0.00    +0.000 OA
ATOM     24  C   UNL     1       0.112  -3.448  -1.858  0.00  0.00    +0.000 C 
ENDBRANCH  22  23
ENDBRANCH   4  22
BRANCH   6  25
ATOM     25  C   UNL     1       3.710   0.533  -0.664  0.00  0.00    +0.000 C 
BRANCH  25  26
ATOM     26  C   UNL     1       5.093   0.025  -0.310  0.00  0.00    +0.000 C 
BRANCH  26  27
ATOM     27  O   UNL     1       6.042   0.718  -1.109  0.00  0.00    +0.000 OA
ATOM     28  C   UNL     1       7.367   0.277  -0.844  0.00  0.00    +0.000 C 
ENDBRANCH  26  27
ENDBRANCH  25  26
ENDBRANCH   6  25
TORSDOF 5
