REMARK  Name = 5161
REMARK  6 active torsions:
REMARK  status: ('A' for Active; 'I' for Inactive)
REMARK    1  A    between atoms: O_1  and  C_6
REMARK    2  A    between atoms: O_1  and  C_11
REMARK    3  A    between atoms: O_2  and  C_9
REMARK    4  A    between atoms: O_4  and  C_19
REMARK    5  A    between atoms: C_7  and  C_11
REMARK    6  A    between atoms: C_8  and  C_19
REMARK                            x       y       z     vdW  Elec       q    Type
REMARK                         _______ _______ _______ _____ _____    ______ ____
ROOT
ATOM      1  O   UNL     1       0.253   0.636   0.570  0.00  0.00    +0.000 OA
ENDROOT
BRANCH   1   2
ATOM      2  C   UNL     1       1.614   0.699   0.261  0.00  0.00    +0.000 A 
ATOM      3  C   UNL     1       2.377  -0.447   0.310  0.00  0.00    +0.000 A 
ATOM      4  C   UNL     1       2.140   1.924  -0.086  0.00  0.00    +0.000 A 
ATOM      5  C   UNL     1       3.734  -0.364  -0.003  0.00  0.00    +0.000 A 
ATOM      6  C   UNL     1       3.497   2.007  -0.399  0.00  0.00    +0.000 A 
ATOM      7  C   UNL     1       4.294   0.863  -0.357  0.00  0.00    +0.000 A 
BRANCH   3   9
ATOM      8  O   UNL     1       0.859  -1.910   1.440  0.00  0.00    +0.000 OA
ATOM      9  C   UNL     1       1.812  -1.739   0.675  0.00  0.00    +0.000 C 
BRANCH   9  10
ATOM     10  O   UNL     1       2.455  -2.775   0.073  0.00  0.00    +0.000 OA
ATOM     11  H   UNL     1       2.068  -3.641   0.324  0.00  0.00    +0.000 HD
ENDBRANCH   9  10
ENDBRANCH   3   9
ENDBRANCH   1   2
BRANCH   1  13
ATOM     12  O   UNL     1      -0.164   0.207  -1.684  0.00  0.00    +0.000 OA
ATOM     13  C   UNL     1      -0.567   0.379  -0.526  0.00  0.00    +0.000 C 
BRANCH  13  14
ATOM     14  C   UNL     1      -1.967   0.328  -0.129  0.00  0.00    +0.000 A 
ATOM     15  C   UNL     1      -2.876  -0.482  -0.811  0.00  0.00    +0.000 A 
ATOM     16  C   UNL     1      -2.396   1.104   0.948  0.00  0.00    +0.000 A 
ATOM     17  C   UNL     1      -4.213  -0.515  -0.416  0.00  0.00    +0.000 A 
ATOM     18  C   UNL     1      -3.733   1.070   1.343  0.00  0.00    +0.000 A 
ATOM     19  C   UNL     1      -4.642   0.261   0.661  0.00  0.00    +0.000 A 
BRANCH  15  20
ATOM     20  O   UNL     1      -2.477  -1.246  -1.867  0.00  0.00    +0.000 OA
ATOM     21  H   UNL     1      -3.242  -1.737  -2.211  0.00  0.00    +0.000 HD
ENDBRANCH  15  20
ENDBRANCH  13  14
ENDBRANCH   1  13
TORSDOF 6
