REMARK  Name = 54755438
REMARK  7 active torsions:
REMARK  status: ('A' for Active; 'I' for Inactive)
REMARK    1  A    between atoms: O_3  and  C_26
REMARK    2  A    between atoms: O_3  and  C_29
REMARK    3  A    between atoms: N_4  and  C_10
REMARK    4  A    between atoms: N_6  and  C_18
REMARK    5  A    between atoms: N_9  and  C_19
REMARK    6  A    between atoms: C_17  and  C_23
REMARK    7  A    between atoms: C_27  and  C_28
REMARK                            x       y       z     vdW  Elec       q    Type
REMARK                         _______ _______ _______ _____ _____    ______ ____
ROOT
ATOM      1  O   UNL     1       1.470  -1.233  -1.019  0.00  0.00    +0.000 OA
ATOM      2  N   UNL     1       2.165   0.956  -0.484  0.00  0.00    +0.000 N 
ATOM      3  N   UNL     1      -0.035   0.449  -0.202  0.00  0.00    +0.000 N 
ATOM      4  N   UNL     1       2.075   3.292   0.267  0.00  0.00    +0.000 NA
ATOM      5  N   UNL     1      -0.115   3.992   1.033  0.00  0.00    +0.000 NA
ATOM      6  C   UNL     1       1.516   2.105  -0.007  0.00  0.00    +0.000 A 
ATOM      7  C   UNL     1       1.228  -0.105  -0.610  0.00  0.00    +0.000 A 
ATOM      8  C   UNL     1       0.178   1.792   0.176  0.00  0.00    +0.000 A 
ATOM      9  C   UNL     1      -0.607   2.768   0.732  0.00  0.00    +0.000 A 
ATOM     10  C   UNL     1       1.201   4.184   0.774  0.00  0.00    +0.000 A 
ENDROOT
BRANCH   2  13
ATOM     11  O   UNL     1       7.464  -1.609  -1.167  0.00  0.00    +0.000 OA
ATOM     12  N   UNL     1       5.449  -0.521  -0.815  0.00  0.00    +0.000 N 
ATOM     13  C   UNL     1       3.574   0.908  -0.781  0.00  0.00    +0.000 C 
ATOM     14  C   UNL     1       3.873   0.508  -2.225  0.00  0.00    +0.000 C 
ATOM     15  C   UNL     1       4.316  -0.150   0.029  0.00  0.00    +0.000 C 
ATOM     16  C   UNL     1       5.318   0.040  -2.151  0.00  0.00    +0.000 C 
ATOM     17  C   UNL     1       6.525  -1.305  -0.439  0.00  0.00    +0.000 C 
BRANCH  17  18
ATOM     18  C   UNL     1       6.535  -1.806   0.917  0.00  0.00    +0.000 C 
ATOM     19  C   UNL     1       6.543  -2.221   2.043  0.00  0.00    +0.000 C 
ATOM     20  C   UNL     1       6.553  -2.727   3.415  0.00  0.00    +0.000 C 
ENDBRANCH  17  18
ENDBRANCH   2  13
BRANCH   3  21
ATOM     21  C   UNL     1      -1.276  -0.232  -0.182  0.00  0.00    +0.000 A 
ATOM     22  C   UNL     1      -2.342   0.238  -0.950  0.00  0.00    +0.000 A 
ATOM     23  C   UNL     1      -1.434  -1.373   0.604  0.00  0.00    +0.000 A 
ATOM     24  C   UNL     1      -3.565  -0.432  -0.931  0.00  0.00    +0.000 A 
ATOM     25  C   UNL     1      -2.657  -2.043   0.623  0.00  0.00    +0.000 A 
ATOM     26  C   UNL     1      -3.722  -1.573  -0.144  0.00  0.00    +0.000 A 
BRANCH  26  27
ATOM     27  O   UNL     1      -4.916  -2.227  -0.126  0.00  0.00    +0.000 OA
BRANCH  27  28
ATOM     28  C   UNL     1      -6.066  -1.465  -0.011  0.00  0.00    +0.000 A 
ATOM     29  C   UNL     1      -6.127  -0.429   0.921  0.00  0.00    +0.000 A 
ATOM     30  C   UNL     1      -7.164  -1.733  -0.828  0.00  0.00    +0.000 A 
ATOM     31  C   UNL     1      -7.286   0.338   1.037  0.00  0.00    +0.000 A 
ATOM     32  C   UNL     1      -8.323  -0.965  -0.713  0.00  0.00    +0.000 A 
ATOM     33  C   UNL     1      -8.384   0.070   0.220  0.00  0.00    +0.000 A 
ENDBRANCH  27  28
ENDBRANCH  26  27
ENDBRANCH   3  21
BRANCH   9  34
ATOM     34  N   UNL     1      -1.968   2.509   0.994  0.00  0.00    +0.000 N 
ATOM     35  H   UNL     1      -2.213   1.594   1.352  0.00  0.00    +0.000 HD
ATOM     36  H   UNL     1      -2.500   3.287   1.368  0.00  0.00    +0.000 HD
ENDBRANCH   9  34
TORSDOF 6
