REMARK  Name = 10286462
REMARK  3 active torsions:
REMARK  status: ('A' for Active; 'I' for Inactive)
REMARK    1  A    between atoms: O_3  and  C_13
REMARK    2  A    between atoms: O_4  and  C_19
REMARK    3  A    between atoms: C_5  and  C_10
REMARK                            x       y       z     vdW  Elec       q    Type
REMARK                         _______ _______ _______ _____ _____    ______ ____
ROOT
ATOM      1 BR   UNL     1      -0.104   2.969  -0.035  0.00  0.00    +0.000 Br
ATOM      2  O   UNL     1       0.278  -2.251   0.013  0.00  0.00    +0.000 OA
ATOM      3  C   UNL     1      -0.319   0.102   0.022  0.00  0.00    +0.000 C 
ATOM      4  C   UNL     1       1.951  -0.558   0.004  0.00  0.00    +0.000 A 
ATOM      5  C   UNL     1       1.860   0.828   0.008  0.00  0.00    +0.000 A 
ATOM      6  C   UNL     1       0.592  -1.078   0.010  0.00  0.00    +0.000 C 
ATOM      7  C   UNL     1       0.451   1.208   0.013  0.00  0.00    +0.000 C 
ATOM      8  C   UNL     1       3.150  -1.246  -0.003  0.00  0.00    +0.000 A 
ATOM      9  C   UNL     1       3.022   1.584   0.004  0.00  0.00    +0.000 A 
ATOM     10  C   UNL     1       4.318  -0.485  -0.006  0.00  0.00    +0.000 A 
ATOM     11  C   UNL     1       4.255   0.919  -0.002  0.00  0.00    +0.000 A 
ENDROOT
BRANCH   3  12
ATOM     12  C   UNL     1      -1.778  -0.001   0.011  0.00  0.00    +0.000 A 
ATOM     13  C   UNL     1      -2.472  -0.067  -1.202  0.00  0.00    +0.000 A 
ATOM     14  C   UNL     1      -2.492  -0.033   1.214  0.00  0.00    +0.000 A 
ATOM     15  C   UNL     1      -3.864  -0.165  -1.212  0.00  0.00    +0.000 A 
ATOM     16  C   UNL     1      -3.883  -0.131   1.204  0.00  0.00    +0.000 A 
ATOM     17  C   UNL     1      -4.569  -0.197  -0.009  0.00  0.00    +0.000 A 
BRANCH  17  18
ATOM     18  O   UNL     1      -5.927  -0.293  -0.019  0.00  0.00    +0.000 OA
ATOM     19  H   UNL     1      -6.233  -0.328  -0.942  0.00  0.00    +0.000 HD
ENDBRANCH  17  18
ENDBRANCH   3  12
BRANCH  10  20
ATOM     20  O   UNL     1       5.531  -1.105  -0.017  0.00  0.00    +0.000 OA
ATOM     21  H   UNL     1       6.230  -0.429  -0.018  0.00  0.00    +0.000 HD
ENDBRANCH  10  20
TORSDOF 3
