REMARK  Name = 11160307
REMARK  4 active torsions:
REMARK  status: ('A' for Active; 'I' for Inactive)
REMARK    1  A    between atoms: O_1  and  C_8
REMARK    2  A    between atoms: O_2  and  C_9
REMARK    3  A    between atoms: O_4  and  C_14
REMARK    4  A    between atoms: C_6  and  C_7
REMARK                            x       y       z     vdW  Elec       q    Type
REMARK                         _______ _______ _______ _____ _____    ______ ____
ROOT
ATOM      1  C   UNL     1      -0.530   0.006  -0.448  0.00  0.00    +0.000 A 
ATOM      2  C   UNL     1      -1.184  -1.206  -0.226  0.00  0.00    +0.000 A 
ATOM      3  C   UNL     1      -1.193   1.210  -0.207  0.00  0.00    +0.000 A 
ATOM      4  C   UNL     1      -2.500  -1.215   0.236  0.00  0.00    +0.000 A 
ATOM      5  C   UNL     1      -2.509   1.201   0.255  0.00  0.00    +0.000 A 
ATOM      6  C   UNL     1      -3.162  -0.011   0.477  0.00  0.00    +0.000 A 
ENDROOT
BRANCH   1   9
ATOM      7  O   UNL     1       1.047   0.034  -2.150  0.00  0.00    +0.000 OA
ATOM      8  N   UNL     1       2.003   0.013  -0.116  0.00  0.00    +0.000 N 
ATOM      9  C   UNL     1       0.862   0.015  -0.937  0.00  0.00    +0.000 C 
ATOM     10  C   UNL     1       1.993   0.003   1.267  0.00  0.00    +0.000 A 
ATOM     11  C   UNL     1       3.323  -0.017  -0.522  0.00  0.00    +0.000 A 
ATOM     12  C   UNL     1       3.292  -0.006   1.724  0.00  0.00    +0.000 A 
ATOM     13  C   UNL     1       4.133  -0.019   0.592  0.00  0.00    +0.000 A 
ENDBRANCH   1   9
BRANCH   2  14
ATOM     14  O   UNL     1      -0.555  -2.394  -0.455  0.00  0.00    +0.000 OA
ATOM     15  H   UNL     1       0.343  -2.246  -0.793  0.00  0.00    +0.000 HD
ENDBRANCH   2  14
BRANCH   3  16
ATOM     16  O   UNL     1      -0.574   2.406  -0.418  0.00  0.00    +0.000 OA
ATOM     17  H   UNL     1      -1.188   3.126  -0.196  0.00  0.00    +0.000 HD
ENDBRANCH   3  16
BRANCH   6  18
ATOM     18  O   UNL     1      -4.446  -0.020   0.929  0.00  0.00    +0.000 OA
ATOM     19  H   UNL     1      -4.740  -0.942   1.026  0.00  0.00    +0.000 HD
ENDBRANCH   6  18
TORSDOF 4
