REMARK  Name = 131704311
REMARK  6 active torsions:
REMARK  status: ('A' for Active; 'I' for Inactive)
REMARK    1  A    between atoms: O_1  and  C_6
REMARK    2  A    between atoms: O_1  and  C_13
REMARK    3  A    between atoms: O_3  and  C_15
REMARK    4  A    between atoms: C_5  and  C_9
REMARK    5  A    between atoms: C_12  and  C_14
REMARK    6  A    between atoms: C_14  and  C_15
REMARK                            x       y       z     vdW  Elec       q    Type
REMARK                         _______ _______ _______ _____ _____    ______ ____
ROOT
ATOM      1  C   UNL     1       1.006  -0.030   0.731  0.00  0.00    +0.000 A 
ATOM      2  C   UNL     1       1.649   0.545  -0.365  0.00  0.00    +0.000 A 
ATOM      3  C   UNL     1       1.365  -1.309   1.158  0.00  0.00    +0.000 A 
ATOM      4  C   UNL     1       2.651  -0.158  -1.034  0.00  0.00    +0.000 A 
ATOM      5  C   UNL     1       2.366  -2.012   0.488  0.00  0.00    +0.000 A 
ATOM      6  C   UNL     1       3.010  -1.437  -0.607  0.00  0.00    +0.000 A 
ENDROOT
BRANCH   2   7
ATOM      7  O   UNL     1       1.317   1.793  -0.803  0.00  0.00    +0.000 OA
ATOM      8  C   UNL     1       2.031   2.889  -0.235  0.00  0.00    +0.000 C 
ENDBRANCH   2   7
BRANCH   1   9
ATOM      9  C   UNL     1      -0.043   0.683   1.446  0.00  0.00    +0.000 C 
ATOM     10  C   UNL     1      -1.357   0.645   1.141  0.00  0.00    +0.000 C 
BRANCH  10  12
ATOM     11  O   UNL     1      -1.114  -0.847  -0.720  0.00  0.00    +0.000 OA
ATOM     12  C   UNL     1      -1.835  -0.171  -0.004  0.00  0.00    +0.000 C 
BRANCH  12  14
ATOM     13  O   UNL     1      -4.112   0.495   0.392  0.00  0.00    +0.000 OA
ATOM     14  C   UNL     1      -3.324  -0.151  -0.268  0.00  0.00    +0.000 C 
BRANCH  14  15
ATOM     15  O   UNL     1      -3.610  -0.936  -1.318  0.00  0.00    +0.000 OA
ATOM     16  H   UNL     1      -2.843  -1.385  -1.735  0.00  0.00    +0.000 HD
ENDBRANCH  14  15
ENDBRANCH  12  14
ENDBRANCH  10  12
ENDBRANCH   1   9
TORSDOF 5
