REMARK  Name = 2202
REMARK  2 active torsions:
REMARK  status: ('A' for Active; 'I' for Inactive)
REMARK    1  A    between atoms: O_2  and  C_12
REMARK    2  A    between atoms: O_3  and  C_13
REMARK                            x       y       z     vdW  Elec       q    Type
REMARK                         _______ _______ _______ _____ _____    ______ ____
ROOT
ATOM      1  O   UNL     1       0.000  -2.183   0.001  0.00  0.00    +0.000 OA
ATOM      2  C   UNL     1       0.000   1.988   0.002  0.00  0.00    +0.000 C 
ATOM      3  C   UNL     1      -1.273   1.186   0.001  0.00  0.00    +0.000 A 
ATOM      4  C   UNL     1       1.273   1.186   0.000  0.00  0.00    +0.000 A 
ATOM      5  C   UNL     1      -1.277  -0.213   0.000  0.00  0.00    +0.000 A 
ATOM      6  C   UNL     1       1.277  -0.213   0.001  0.00  0.00    +0.000 A 
ATOM      7  C   UNL     1       0.000  -0.958   0.001  0.00  0.00    +0.000 C 
ATOM      8  C   UNL     1      -2.500   1.867   0.000  0.00  0.00    +0.000 A 
ATOM      9  C   UNL     1       2.500   1.867  -0.001  0.00  0.00    +0.000 A 
ATOM     10  C   UNL     1      -2.487  -0.919  -0.000  0.00  0.00    +0.000 A 
ATOM     11  C   UNL     1       2.487  -0.919   0.000  0.00  0.00    +0.000 A 
ATOM     12  C   UNL     1      -3.706   1.164  -0.001  0.00  0.00    +0.000 A 
ATOM     13  C   UNL     1       3.706   1.164  -0.001  0.00  0.00    +0.000 A 
ATOM     14  C   UNL     1      -3.698  -0.228  -0.002  0.00  0.00    +0.000 A 
ATOM     15  C   UNL     1       3.698  -0.228  -0.001  0.00  0.00    +0.000 A 
ENDROOT
BRANCH  10  16
ATOM     16  O   UNL     1      -2.553  -2.281  -0.000  0.00  0.00    +0.000 OA
ATOM     17  H   UNL     1      -3.484  -2.564  -0.001  0.00  0.00    +0.000 HD
ENDBRANCH  10  16
BRANCH  11  18
ATOM     18  O   UNL     1       2.553  -2.281  -0.000  0.00  0.00    +0.000 OA
ATOM     19  H   UNL     1       1.666  -2.669   0.002  0.00  0.00    +0.000 HD
ENDBRANCH  11  18
TORSDOF 2
