REMARK  Name = 969516
REMARK  12 active torsions:
REMARK  status: ('A' for Active; 'I' for Inactive)
REMARK    1  A    between atoms: O_1  and  C_12
REMARK    2  A    between atoms: O_1  and  C_26
REMARK    3  A    between atoms: O_2  and  C_13
REMARK    4  A    between atoms: O_2  and  C_27
REMARK    5  A    between atoms: O_3  and  C_18
REMARK    6  A    between atoms: O_4  and  C_19
REMARK    7  A    between atoms: C_7  and  C_16
REMARK    8  A    between atoms: C_8  and  C_17
REMARK    9  A    between atoms: C_9  and  C_20
REMARK   10  A    between atoms: C_9  and  C_21
REMARK   11  A    between atoms: C_20  and  C_24
REMARK   12  A    between atoms: C_21  and  C_25
REMARK                            x       y       z     vdW  Elec       q    Type
REMARK                         _______ _______ _______ _____ _____    ______ ____
ROOT
ATOM      1  C   UNL     1       0.033   2.788   0.601  0.00  0.00    +0.000 C 
ENDROOT
BRANCH   1   3
ATOM      2  O   UNL     1       2.077   3.918   0.008  0.00  0.00    +0.000 OA
ATOM      3  C   UNL     1       1.475   2.856   0.139  0.00  0.00    +0.000 C 
BRANCH   3   5
ATOM      4  C   UNL     1       3.463   1.410   0.062  0.00  0.00    +0.000 C 
ATOM      5  C   UNL     1       2.140   1.541  -0.104  0.00  0.00    +0.000 C 
BRANCH   4   6
ATOM      6  C   UNL     1       4.215   0.162  -0.162  0.00  0.00    +0.000 A 
ATOM      7  C   UNL     1       5.464   0.009   0.419  0.00  0.00    +0.000 A 
ATOM      8  C   UNL     1       6.175  -1.172   0.206  0.00  0.00    +0.000 A 
ATOM      9  C   UNL     1       3.659  -0.832  -0.950  0.00  0.00    +0.000 A 
ATOM     10  C   UNL     1       5.629  -2.182  -0.585  0.00  0.00    +0.000 A 
ATOM     11  C   UNL     1       4.371  -2.013  -1.163  0.00  0.00    +0.000 A 
BRANCH   8  12
ATOM     12  O   UNL     1       7.403  -1.326   0.776  0.00  0.00    +0.000 OA
ATOM     13  C   UNL     1       7.890  -0.246   1.570  0.00  0.00    +0.000 C 
ENDBRANCH   8  12
BRANCH  10  14
ATOM     14  O   UNL     1       6.314  -3.340  -0.799  0.00  0.00    +0.000 OA
ATOM     15  H   UNL     1       7.162  -3.286  -0.326  0.00  0.00    +0.000 HD
ENDBRANCH  10  14
ENDBRANCH   4   6
ENDBRANCH   3   5
ENDBRANCH   1   3
BRANCH   1  17
ATOM     16  O   UNL     1      -0.734   2.015  -1.550  0.00  0.00    +0.000 OA
ATOM     17  C   UNL     1      -0.916   2.066  -0.336  0.00  0.00    +0.000 C 
BRANCH  17  19
ATOM     18  C   UNL     1      -2.974   0.721  -0.427  0.00  0.00    +0.000 C 
ATOM     19  C   UNL     1      -2.069   1.376   0.314  0.00  0.00    +0.000 C 
BRANCH  18  20
ATOM     20  C   UNL     1      -4.150   0.019   0.115  0.00  0.00    +0.000 A 
ATOM     21  C   UNL     1      -5.220  -0.258  -0.720  0.00  0.00    +0.000 A 
ATOM     22  C   UNL     1      -6.334  -0.922  -0.206  0.00  0.00    +0.000 A 
ATOM     23  C   UNL     1      -4.163  -0.350   1.451  0.00  0.00    +0.000 A 
ATOM     24  C   UNL     1      -6.362  -1.300   1.136  0.00  0.00    +0.000 A 
ATOM     25  C   UNL     1      -5.277  -1.014   1.965  0.00  0.00    +0.000 A 
BRANCH  22  26
ATOM     26  O   UNL     1      -7.387  -1.197  -1.025  0.00  0.00    +0.000 OA
ATOM     27  C   UNL     1      -7.279  -0.777  -2.384  0.00  0.00    +0.000 C 
ENDBRANCH  22  26
BRANCH  24  28
ATOM     28  O   UNL     1      -7.443  -1.951   1.650  0.00  0.00    +0.000 OA
ATOM     29  H   UNL     1      -7.285  -2.132   2.592  0.00  0.00    +0.000 HD
ENDBRANCH  24  28
ENDBRANCH  18  20
ENDBRANCH  17  19
ENDBRANCH   1  17
TORSDOF 10
