REMARK  Name = 119032
REMARK  9 active torsions:
REMARK  status: ('A' for Active; 'I' for Inactive)
REMARK    1  A    between atoms: O_1  and  C_10
REMARK    2  A    between atoms: O_1  and  C_18
REMARK    3  A    between atoms: O_2  and  C_15
REMARK    4  A    between atoms: O_2  and  C_23
REMARK    5  A    between atoms: O_3  and  N_8
REMARK    6  A    between atoms: O_3  and  C_14
REMARK    7  A    between atoms: C_9  and  C_14
REMARK    8  A    between atoms: C_12  and  C_18
REMARK    9  A    between atoms: C_23  and  C_24
REMARK                            x       y       z     vdW  Elec       q    Type
REMARK                         _______ _______ _______ _____ _____    ______ ____
ROOT
ATOM      1  O   UNL     1      -0.716  -1.556   0.444  0.00  0.00    +0.000 OA
ENDROOT
BRANCH   1   3
ATOM      2  C   UNL     1       2.919  -1.174   0.273  0.00  0.00    +0.000 A 
ATOM      3  C   UNL     1       0.622  -1.792   0.114  0.00  0.00    +0.000 A 
ATOM      4  C   UNL     1       1.584  -0.938   0.603  0.00  0.00    +0.000 A 
ATOM      5  C   UNL     1       3.256  -2.259  -0.537  0.00  0.00    +0.000 A 
ATOM      6  C   UNL     1       0.924  -2.871  -0.688  0.00  0.00    +0.000 A 
ATOM      7  C   UNL     1       2.258  -3.107  -1.017  0.00  0.00    +0.000 A 
BRANCH   2   8
ATOM      8  C   UNL     1       3.986  -0.267   0.786  0.00  0.00    +0.000 C 
BRANCH   8   9
ATOM      9  O   UNL     1       4.190   0.793  -0.140  0.00  0.00    +0.000 OA
BRANCH   9  12
ATOM     10  O   UNL     1       5.703   1.422   1.348  0.00  0.00    +0.000 OA
ATOM     11  O   UNL     1       5.434   2.665  -0.484  0.00  0.00    +0.000 OA
ATOM     12  N   UNL     1       5.195   1.714   0.265  0.00  0.00    +0.000 N 
ENDBRANCH   9  12
ENDBRANCH   8   9
ENDBRANCH   2   8
ENDBRANCH   1   3
BRANCH   1  14
ATOM     13  O   UNL     1      -0.872  -0.216  -1.458  0.00  0.00    +0.000 OA
ATOM     14  C   UNL     1      -1.383  -0.728  -0.455  0.00  0.00    +0.000 C 
BRANCH  14  15
ATOM     15  C   UNL     1      -2.767  -0.528  -0.046  0.00  0.00    +0.000 A 
ATOM     16  C   UNL     1      -3.435   0.661  -0.339  0.00  0.00    +0.000 A 
ATOM     17  C   UNL     1      -3.424  -1.544   0.647  0.00  0.00    +0.000 A 
ATOM     18  C   UNL     1      -4.760   0.833   0.062  0.00  0.00    +0.000 A 
ATOM     19  C   UNL     1      -4.748  -1.372   1.048  0.00  0.00    +0.000 A 
ATOM     20  C   UNL     1      -5.417  -0.183   0.756  0.00  0.00    +0.000 A 
BRANCH  16  21
ATOM     21  O   UNL     1      -2.810   1.667  -1.014  0.00  0.00    +0.000 OA
BRANCH  21  23
ATOM     22  O   UNL     1      -2.099   2.544   1.037  0.00  0.00    +0.000 OA
ATOM     23  C   UNL     1      -2.147   2.586  -0.185  0.00  0.00    +0.000 C 
ATOM     24  C   UNL     1      -1.495   3.649  -1.019  0.00  0.00    +0.000 C 
ENDBRANCH  21  23
ENDBRANCH  16  21
ENDBRANCH  14  15
ENDBRANCH   1  14
TORSDOF 8
