REMARK  Name = 51039119
REMARK  13 active torsions:
REMARK  status: ('A' for Active; 'I' for Inactive)
REMARK    1  A    between atoms: N_3  and  C_11
REMARK    2  A    between atoms: N_4  and  C_13
REMARK    3  A    between atoms: N_4  and  C_21
REMARK    4  A    between atoms: N_5  and  C_12
REMARK    5  A    between atoms: N_6  and  C_18
REMARK    6  A    between atoms: C_21  and  C_22
REMARK    7  A    between atoms: C_21  and  C_23
REMARK    8  A    between atoms: C_21  and  C_24
REMARK    9  A    between atoms: C_25  and  C_27
REMARK   10  A    between atoms: C_29  and  C_30
REMARK   11  A    between atoms: C_29  and  C_33
REMARK   12  A    between atoms: C_29  and  C_34
REMARK   13  A    between atoms: C_29  and  C_35
REMARK                            x       y       z     vdW  Elec       q    Type
REMARK                         _______ _______ _______ _____ _____    ______ ____
ROOT
ATOM      1  O   UNL     1       0.154   2.430  -2.341  0.00  0.00    +0.000 OA
ATOM      2  N   UNL     1       1.286   2.142  -0.299  0.00  0.00    +0.000 N 
ATOM      3  C   UNL     1       0.948   2.146   1.104  0.00  0.00    +0.000 C 
ATOM      4  C   UNL     1      -0.980   2.718  -0.215  0.00  0.00    +0.000 C 
ATOM      5  C   UNL     1      -0.340   2.950   1.152  0.00  0.00    +0.000 C 
ATOM      6  C   UNL     1       0.199   2.437  -1.120  0.00  0.00    +0.000 C 
ENDROOT
BRANCH   4   7
ATOM      7  N   UNL     1      -1.836   1.557  -0.210  0.00  0.00    +0.000 N 
ATOM      8  N   UNL     1      -3.849   0.409   0.152  0.00  0.00    +0.000 N 
ATOM      9  N   UNL     1      -3.747   2.653   0.615  0.00  0.00    +0.000 NA
ATOM     10  N   UNL     1      -3.334  -0.763  -0.262  0.00  0.00    +0.000 NA
ATOM     11  N   UNL     1      -5.795   1.451   0.977  0.00  0.00    +0.000 NA
ATOM     12  C   UNL     1      -3.122   1.593   0.190  0.00  0.00    +0.000 A 
ATOM     13  C   UNL     1      -5.160   0.338   0.538  0.00  0.00    +0.000 A 
ATOM     14  C   UNL     1      -4.364  -1.605  -0.132  0.00  0.00    +0.000 A 
ATOM     15  C   UNL     1      -5.525  -0.976   0.360  0.00  0.00    +0.000 A 
ATOM     16  C   UNL     1      -5.072   2.534   0.995  0.00  0.00    +0.000 A 
ATOM     17  H   UNL     1      -1.416   0.670  -0.476  0.00  0.00    +0.000 HD
BRANCH  14  18
ATOM     18  C   UNL     1      -4.198  -3.023  -0.495  0.00  0.00    +0.000 C 
ATOM     19  C   UNL     1      -2.775  -3.439  -1.020  0.00  0.00    +0.000 C 
ATOM     20  C   UNL     1      -4.467  -3.973   0.722  0.00  0.00    +0.000 C 
ATOM     21  C   UNL     1      -5.184  -3.454  -1.635  0.00  0.00    +0.000 C 
ENDBRANCH  14  18
ENDBRANCH   4   7
BRANCH   2  22
ATOM     22  C   UNL     1       2.586   1.714  -0.760  0.00  0.00    +0.000 C 
ATOM     23  C   UNL     1       2.651   0.187  -0.936  0.00  0.00    +0.000 C 
ATOM     24  C   UNL     1       5.201   0.291  -0.520  0.00  0.00    +0.000 C 
ATOM     25  C   UNL     1       3.694   2.247   0.154  0.00  0.00    +0.000 C 
ATOM     26  C   UNL     1       4.052  -0.258  -1.384  0.00  0.00    +0.000 C 
ATOM     27  C   UNL     1       5.075   1.808  -0.333  0.00  0.00    +0.000 C 
BRANCH  23  29
ATOM     28  O   UNL     1       0.397  -1.623  -0.673  0.00  0.00    +0.000 OA
ATOM     29  N   UNL     1       2.231  -0.525   0.248  0.00  0.00    +0.000 N 
ATOM     30  C   UNL     1       1.135  -1.371   0.275  0.00  0.00    +0.000 C 
ATOM     31  C   UNL     1       0.935  -2.002   1.627  0.00  0.00    +0.000 C 
ATOM     32  H   UNL     1       2.778  -0.393   1.094  0.00  0.00    +0.000 HD
ENDBRANCH  23  29
BRANCH  24  33
ATOM     33  N   UNL     1       5.271  -0.380   0.780  0.00  0.00    +0.000 NA
ATOM     34  H   UNL     1       5.859   0.178   1.400  0.00  0.00    +0.000 HD
BRANCH  33  35
ATOM     35  C   UNL     1       5.839  -1.712   0.643  0.00  0.00    +0.000 C 
ATOM     36  C   UNL     1       6.820  -1.728  -0.535  0.00  0.00    +0.000 C 
ATOM     37  C   UNL     1       4.699  -2.705   0.393  0.00  0.00    +0.000 C 
ATOM     38  C   UNL     1       6.570  -2.067   1.942  0.00  0.00    +0.000 C 
ENDBRANCH  33  35
ENDBRANCH  24  33
ENDBRANCH   2  22
TORSDOF 6
