REMARK  Name = 160254
REMARK  3 active torsions:
REMARK  status: ('A' for Active; 'I' for Inactive)
REMARK    1  A    between atoms: C_4  and  C_11
REMARK    2  A    between atoms: C_4  and  C_12
REMARK    3  A    between atoms: C_17  and  C_22
REMARK                            x       y       z     vdW  Elec       q    Type
REMARK                         _______ _______ _______ _____ _____    ______ ____
ROOT
ATOM      1  O   UNL     1       2.623   2.220   0.146  0.00  0.00    +0.000 OA
ATOM      2  O   UNL     1       0.492  -2.732  -0.371  0.00  0.00    +0.000 OA
ATOM      3  O   UNL     1       3.030  -2.411   0.338  0.00  0.00    +0.000 OA
ATOM      4  C   UNL     1      -3.804   0.585  -0.090  0.00  0.00    +0.000 C 
ATOM      5  C   UNL     1      -4.323  -0.832  -0.429  0.00  0.00    +0.000 C 
ATOM      6  C   UNL     1      -2.268   0.633  -0.041  0.00  0.00    +0.000 A 
ATOM      7  C   UNL     1      -1.470  -0.540  -0.005  0.00  0.00    +0.000 A 
ATOM      8  C   UNL     1      -3.604  -1.900   0.372  0.00  0.00    +0.000 C 
ATOM      9  C   UNL     1      -2.126  -1.905   0.012  0.00  0.00    +0.000 C 
ATOM     10  C   UNL     1      -0.053  -0.413  -0.004  0.00  0.00    +0.000 A 
ATOM     11  C   UNL     1      -4.370   1.530  -1.177  0.00  0.00    +0.000 C 
ATOM     12  C   UNL     1      -4.362   1.030   1.280  0.00  0.00    +0.000 C 
ATOM     13  C   UNL     1       0.561   0.857   0.045  0.00  0.00    +0.000 A 
ATOM     14  C   UNL     1      -1.628   1.886   0.008  0.00  0.00    +0.000 A 
ATOM     15  C   UNL     1       2.016   0.973   0.088  0.00  0.00    +0.000 C 
ATOM     16  C   UNL     1       2.844  -0.062   0.144  0.00  0.00    +0.000 C 
ATOM     17  C   UNL     1       4.238   0.410   0.267  0.00  0.00    +0.000 C 
ATOM     18  C   UNL     1      -0.241   1.998   0.056  0.00  0.00    +0.000 A 
ATOM     19  C   UNL     1       0.856  -1.603  -0.084  0.00  0.00    +0.000 C 
ATOM     20  C   UNL     1       4.028   1.911  -0.002  0.00  0.00    +0.000 C 
ATOM     21  C   UNL     1       2.334  -1.426   0.156  0.00  0.00    +0.000 C 
ATOM     22  C   UNL     1       5.226  -0.209  -0.711  0.00  0.00    +0.000 C 
ENDROOT
TORSDOF 0
