REMARK  Name = 6279
REMARK  8 active torsions:
REMARK  status: ('A' for Active; 'I' for Inactive)
REMARK    1  A    between atoms: O_1  and  C_9
REMARK    2  A    between atoms: O_1  and  C_27
REMARK    3  A    between atoms: C_5  and  C_18
REMARK    4  A    between atoms: C_9  and  C_21
REMARK    5  A    between atoms: C_10  and  C_20
REMARK    6  A    between atoms: C_16  and  C_24
REMARK    7  A    between atoms: C_21  and  C_26
REMARK    8  A    between atoms: C_27  and  C_28
REMARK                            x       y       z     vdW  Elec       q    Type
REMARK                         _______ _______ _______ _____ _____    ______ ____
ROOT
ATOM      1  O   UNL     1       6.425   0.528   1.651  0.00  0.00    +0.000 OA
ATOM      2  C   UNL     1      -1.692   0.383  -0.687  0.00  0.00    +0.000 C 
ATOM      3  C   UNL     1      -0.858  -0.826  -0.202  0.00  0.00    +0.000 C 
ATOM      4  C   UNL     1       0.611  -0.759  -0.640  0.00  0.00    +0.000 C 
ATOM      5  C   UNL     1       1.253   0.537  -0.066  0.00  0.00    +0.000 C 
ATOM      6  C   UNL     1      -3.089  -0.044  -0.169  0.00  0.00    +0.000 C 
ATOM      7  C   UNL     1       2.783   0.675  -0.427  0.00  0.00    +0.000 C 
ATOM      8  C   UNL     1      -1.083   1.645  -0.056  0.00  0.00    +0.000 C 
ATOM      9  C   UNL     1       0.408   1.796  -0.406  0.00  0.00    +0.000 C 
ATOM     10  C   UNL     1      -1.695  -2.029  -0.627  0.00  0.00    +0.000 C 
ATOM     11  C   UNL     1       1.393  -1.989  -0.162  0.00  0.00    +0.000 C 
ATOM     12  C   UNL     1      -3.154  -1.560  -0.458  0.00  0.00    +0.000 C 
ATOM     13  C   UNL     1       2.865  -1.920  -0.591  0.00  0.00    +0.000 C 
ATOM     14  C   UNL     1       3.521  -0.635  -0.077  0.00  0.00    +0.000 C 
ATOM     15  C   UNL     1      -1.716   0.531  -2.234  0.00  0.00    +0.000 C 
ATOM     16  C   UNL     1       3.360   1.865   0.399  0.00  0.00    +0.000 C 
ATOM     17  C   UNL     1       2.999   0.969  -1.929  0.00  0.00    +0.000 C 
ATOM     18  C   UNL     1       4.877   1.895   0.445  0.00  0.00    +0.000 C 
ATOM     19  C   UNL     1       4.682  -0.652   0.605  0.00  0.00    +0.000 C 
ATOM     20  C   UNL     1       3.554  -3.238  -0.207  0.00  0.00    +0.000 C 
ATOM     21  C   UNL     1       5.396   0.591   0.981  0.00  0.00    +0.000 C 
ENDROOT
BRANCH   6  23
ATOM     22  O   UNL     1      -5.122   0.151  -1.403  0.00  0.00    +0.000 OA
ATOM     23  C   UNL     1      -4.238   0.716  -0.760  0.00  0.00    +0.000 C 
ATOM     24  C   UNL     1      -4.257   2.202  -0.528  0.00  0.00    +0.000 C 
ENDBRANCH   6  23
BRANCH   6  25
ATOM     25  O   UNL     1      -3.204   0.175   1.234  0.00  0.00    +0.000 OA
BRANCH  25  27
ATOM     26  O   UNL     1      -5.300  -0.796   1.230  0.00  0.00    +0.000 OA
ATOM     27  C   UNL     1      -4.369  -0.252   1.807  0.00  0.00    +0.000 C 
ATOM     28  C   UNL     1      -4.349   0.042   3.277  0.00  0.00    +0.000 C 
ENDBRANCH  25  27
ENDBRANCH   6  25
TORSDOF 3
