REMARK  Name = 5311221
REMARK  19 active torsions:
REMARK  status: ('A' for Active; 'I' for Inactive)
REMARK    1  A    between atoms: O_1  and  C_8
REMARK    2  A    between atoms: O_2  and  C_9
REMARK    3  A    between atoms: O_3  and  C_14
REMARK    4  A    between atoms: O_4  and  C_27
REMARK    5  A    between atoms: O_4  and  C_29
REMARK    6  A    between atoms: C_6  and  C_11
REMARK    7  A    between atoms: C_7  and  C_12
REMARK    8  A    between atoms: C_11  and  C_13
REMARK    9  A    between atoms: C_12  and  C_15
REMARK   10  A    between atoms: C_13  and  C_14
REMARK   11  A    between atoms: C_14  and  C_16
REMARK   12  A    between atoms: C_16  and  C_18
REMARK   13  A    between atoms: C_17  and  C_19
REMARK   14  A    between atoms: C_18  and  C_20
REMARK   15  A    between atoms: C_19  and  C_21
REMARK   16  A    between atoms: C_21  and  C_22
REMARK   17  A    between atoms: C_22  and  C_27
REMARK   18  A    between atoms: C_29  and  C_30
REMARK   19  A    between atoms: C_29  and  C_31
REMARK                            x       y       z     vdW  Elec       q    Type
REMARK                         _______ _______ _______ _____ _____    ______ ____
ROOT
ATOM      1  C   UNL     1      -2.415   1.895  -0.019  0.00  0.00    +0.000 C 
ATOM      2  C   UNL     1      -3.209   0.585  -0.113  0.00  0.00    +0.000 C 
ATOM      3  C   UNL     1      -2.281   2.330  -1.486  0.00  0.00    +0.000 C 
ATOM      4  C   UNL     1      -4.259   0.921  -1.180  0.00  0.00    +0.000 C 
ATOM      5  C   UNL     1      -3.482   1.721  -2.227  0.00  0.00    +0.000 C 
ENDROOT
BRANCH   3   6
ATOM      6  O   UNL     1      -2.292   3.747  -1.570  0.00  0.00    +0.000 OA
ATOM      7  H   UNL     1      -2.244   3.982  -2.513  0.00  0.00    +0.000 HD
ENDBRANCH   3   6
BRANCH   4   8
ATOM      8  O   UNL     1      -5.293   1.751  -0.661  0.00  0.00    +0.000 OA
ATOM      9  H   UNL     1      -5.910   1.938  -1.389  0.00  0.00    +0.000 HD
ENDBRANCH   4   8
BRANCH   1  10
ATOM     10  C   UNL     1      -1.061   1.746   0.665  0.00  0.00    +0.000 C 
BRANCH  10  11
ATOM     11  C   UNL     1      -0.334   3.089   0.758  0.00  0.00    +0.000 C 
BRANCH  11  12
ATOM     12  C   UNL     1       1.013   2.965   1.482  0.00  0.00    +0.000 C 
BRANCH  12  13
ATOM     13  O   UNL     1       0.795   2.536   2.824  0.00  0.00    +0.000 OA
ATOM     14  H   UNL     1       1.649   2.563   3.287  0.00  0.00    +0.000 HD
ENDBRANCH  12  13
BRANCH  12  15
ATOM     15  C   UNL     1       1.937   1.971   0.767  0.00  0.00    +0.000 C 
BRANCH  15  16
ATOM     16  C   UNL     1       3.405   2.161   1.164  0.00  0.00    +0.000 C 
BRANCH  16  17
ATOM     17  C   UNL     1       4.300   1.159   0.480  0.00  0.00    +0.000 A 
ATOM     18  C   UNL     1       4.562  -0.070   1.086  0.00  0.00    +0.000 A 
ATOM     19  C   UNL     1       4.865   1.460  -0.760  0.00  0.00    +0.000 A 
ATOM     20  C   UNL     1       5.390  -0.997   0.453  0.00  0.00    +0.000 A 
ATOM     21  C   UNL     1       5.692   0.532  -1.393  0.00  0.00    +0.000 A 
ATOM     22  C   UNL     1       5.954  -0.697  -0.786  0.00  0.00    +0.000 A 
ENDBRANCH  16  17
ENDBRANCH  15  16
ENDBRANCH  12  15
ENDBRANCH  11  12
ENDBRANCH  10  11
ENDBRANCH   1  10
BRANCH   2  23
ATOM     23  C   UNL     1      -3.788   0.132   1.220  0.00  0.00    +0.000 C 
BRANCH  23  24
ATOM     24  C   UNL     1      -4.590  -1.126   1.064  0.00  0.00    +0.000 C 
ATOM     25  C   UNL     1      -4.067  -2.359   1.142  0.00  0.00    +0.000 C 
BRANCH  25  26
ATOM     26  C   UNL     1      -2.612  -2.630   1.395  0.00  0.00    +0.000 C 
BRANCH  26  27
ATOM     27  C   UNL     1      -2.120  -3.930   0.747  0.00  0.00    +0.000 C 
BRANCH  27  28
ATOM     28  C   UNL     1      -0.627  -4.208   0.932  0.00  0.00    +0.000 C 
BRANCH  28  30
ATOM     29  O   UNL     1       0.998  -2.413   1.062  0.00  0.00    +0.000 OA
ATOM     30  C   UNL     1       0.244  -3.101   0.386  0.00  0.00    +0.000 C 
BRANCH  30  31
ATOM     31  O   UNL     1       0.078  -3.016  -0.966  0.00  0.00    +0.000 OA
BRANCH  31  32
ATOM     32  C   UNL     1       0.872  -2.023  -1.623  0.00  0.00    +0.000 C 
ATOM     33  C   UNL     1       2.211  -2.630  -2.014  0.00  0.00    +0.000 C 
ATOM     34  C   UNL     1       0.114  -1.497  -2.833  0.00  0.00    +0.000 C 
ENDBRANCH  31  32
ENDBRANCH  30  31
ENDBRANCH  28  30
ENDBRANCH  27  28
ENDBRANCH  26  27
ENDBRANCH  25  26
ENDBRANCH  23  24
ENDBRANCH   2  23
TORSDOF 17
