REMARK  Name = 
REMARK  19 active torsions:
REMARK  status: ('A' for Active; 'I' for Inactive)
REMARK    1  A    between atoms: C_1  and  C_2
REMARK    2  A    between atoms: C_3  and  O_4
REMARK    3  A    between atoms: C_5  and  C_6
REMARK    4  A    between atoms: C_21  and  O_22
REMARK    5  A    between atoms: O_22  and  C_23
REMARK    6  A    between atoms: C_25  and  C_26
REMARK    7  A    between atoms: C_27  and  O_28
REMARK    8  A    between atoms: C_29  and  N_30
REMARK    9  A    between atoms: C_31  and  O_32
REMARK   10  A    between atoms: C_36  and  O_37
REMARK   11  A    between atoms: C_39  and  O_40
REMARK   12  A    between atoms: C_42  and  O_43
REMARK   13  A    between atoms: C_44  and  O_45
REMARK   14  A    between atoms: C_48  and  O_49
REMARK   15  A    between atoms: C_51  and  O_52
REMARK   16  A    between atoms: C_57  and  C_58
REMARK   17  A    between atoms: C_60  and  O_61
REMARK   18  A    between atoms: C_62  and  C_63
REMARK   19  A    between atoms: C_63  and  O_65
REMARK                            x       y       z     vdW  Elec       q    Type
REMARK                         _______ _______ _______ _____ _____    ______ ____
ROOT
ATOM      1  C   UNL     1      -9.037   3.056   0.155  0.00  0.00    +0.000 C 
ATOM      2  C   UNL     1      -8.223   2.087   1.140  0.00  0.00    +0.000 C 
ATOM      3  C   UNL     1      -6.859   3.070   1.338  0.00  0.00    +0.000 C 
ATOM      4  C   UNL     1      -6.743   3.513  -0.305  0.00  0.00    +0.000 C 
ATOM      5  C   UNL     1      -7.241   5.052  -0.203  0.00  0.00    +0.000 C 
ATOM      6  C   UNL     1      -5.209   3.905  -0.141  0.00  0.00    +0.000 C 
ATOM      7  C   UNL     1      -4.880   4.727   0.819  0.00  0.00    +0.000 C 
ATOM      8  C   UNL     1      -4.292   6.028   0.493  0.00  0.00    +0.000 C 
ATOM      9  C   UNL     1      -3.689   6.100  -0.710  0.00  0.00    +0.000 C 
ATOM     10  C   UNL     1      -2.323   5.561  -0.710  0.00  0.00    +0.000 C 
ATOM     11  C   UNL     1      -1.507   5.856   0.303  0.00  0.00    +0.000 C 
ATOM     12  C   UNL     1      -0.453   4.862   0.621  0.00  0.00    +0.000 C 
ATOM     13  C   UNL     1       0.453   5.042  -0.383  0.00  0.00    +0.000 C 
ATOM     14  C   UNL     1       1.815   5.231   0.032  0.00  0.00    +0.000 C 
ATOM     15  C   UNL     1       2.382   4.295   0.734  0.00  0.00    +0.000 C 
ATOM     16  C   UNL     1       2.147   2.876   0.829  0.00  0.00    +0.000 C 
ATOM     17  C   UNL     1       1.569   2.384  -0.243  0.00  0.00    +0.000 C 
ATOM     18  C   UNL     1       2.358   1.429  -0.989  0.00  0.00    +0.000 C 
ATOM     19  C   UNL     1       3.329   0.678  -0.589  0.00  0.00    +0.000 C 
ATOM     20  C   UNL     1       3.937   0.946   0.882  0.00  0.00    +0.000 C 
ATOM     21  C   UNL     1       3.700  -0.600   1.401  0.00  0.00    +0.000 C 
ATOM     22  C   UNL     1       4.035  -1.525   0.096  0.00  0.00    +0.000 C 
ATOM     23  O   UNL     1       2.615  -2.054   0.186  0.00  0.00    +0.000 OA
ATOM     24  C   UNL     1       2.558  -3.129  -0.685  0.00  0.00    +0.000 C 
ATOM     25  C   UNL     1       1.227  -3.325  -1.205  0.00  0.00    +0.000 C 
ATOM     26  C   UNL     1       0.871  -4.897  -1.514  0.00  0.00    +0.000 C 
ATOM     27  C   UNL     1       0.607  -5.189   0.097  0.00  0.00    +0.000 C 
ATOM     28  C   UNL     1      -0.981  -4.932  -0.244  0.00  0.00    +0.000 C 
ATOM     29  C   UNL     1      -1.471  -4.553   1.365  0.00  0.00    +0.000 C 
ATOM     30  C   UNL     1      -2.870  -5.385   1.189  0.00  0.00    +0.000 C 
ATOM     31  C   UNL     1      -3.420  -4.963  -0.177  0.00  0.00    +0.000 C 
ATOM     32  C   UNL     1      -4.961  -4.664   0.295  0.00  0.00    +0.000 C 
ATOM     33  C   UNL     1      -5.184  -3.495  -0.841  0.00  0.00    +0.000 C 
ATOM     34  C   UNL     1      -6.812  -3.275  -0.724  0.00  0.00    +0.000 C 
ATOM     35  C   UNL     1      -6.659  -1.647  -0.552  0.00  0.00    +0.000 C 
ATOM     36  C   UNL     1      -7.925  -1.323   0.159  0.00  0.00    +0.000 C 
ATOM     37  O   UNL     1      -8.709  -2.175   0.681  0.00  0.00    +0.000 OA
ATOM     38  O   UNL     1      -7.821  -0.111   0.821  0.00  0.00    +0.000 OA
ATOM     39  C   UNL     1      -7.462   1.110  -0.020  0.00  0.00    +0.000 C 
ATOM     40  C   UNL     1      -8.790   0.964  -0.964  0.00  0.00    +0.000 C 
ATOM     41  C   UNL     1       3.101  -4.179   0.249  0.00  0.00    +0.000 C 
ATOM     42  C   UNL     1       4.700  -3.967  -0.037  0.00  0.00    +0.000 C 
ATOM     43  C   UNL     1       4.808  -2.689   1.064  0.00  0.00    +0.000 C 
ENDROOT
BRANCH   3  44
ATOM     44  O   UNL     1      -7.705   4.202   1.830  0.00  0.00    +0.000 OA
ATOM     45  H   UNL     1      -8.463   4.321   1.237  0.00  0.00    +0.000 HD
ENDBRANCH   3  44
BRANCH  24  46
ATOM     46  O   UNL     1       3.438  -2.820  -1.756  0.00  0.00    +0.000 OA
ATOM     47  H   UNL     1       3.035  -2.141  -2.320  0.00  0.00    +0.000 HD
ENDBRANCH  24  46
BRANCH  26  48
ATOM     48  O   UNL     1       2.288  -5.431  -1.499  0.00  0.00    +0.000 OA
ATOM     49  H   UNL     1       2.759  -5.077  -0.728  0.00  0.00    +0.000 HD
ENDBRANCH  26  48
BRANCH  28  50
ATOM     50  O   UNL     1      -1.280  -6.409  -0.180  0.00  0.00    +0.000 OA
ATOM     51  H   UNL     1      -0.894  -6.782   0.628  0.00  0.00    +0.000 HD
ENDBRANCH  28  50
BRANCH  29  52
ATOM     52  O   UNL     1      -0.779  -5.717   2.024  0.00  0.00    +0.000 OA
ATOM     53  H   UNL     1      -0.960  -6.527   1.523  0.00  0.00    +0.000 HD
ENDBRANCH  29  52
BRANCH  32  54
ATOM     54  O   UNL     1      -4.519  -3.620   1.307  0.00  0.00    +0.000 OA
ATOM     55  H   UNL     1      -3.878  -3.021   0.894  0.00  0.00    +0.000 HD
ENDBRANCH  32  54
BRANCH  34  56
ATOM     56  O   UNL     1      -6.841  -3.463   0.782  0.00  0.00    +0.000 OA
ATOM     57  H   UNL     1      -6.130  -2.943   1.187  0.00  0.00    +0.000 HD
ENDBRANCH  34  56
BRANCH  42  58
ATOM     58  O   UNL     1       5.038  -4.982   1.041  0.00  0.00    +0.000 OA
ATOM     59  H   UNL     1       4.511  -4.799   1.835  0.00  0.00    +0.000 HD
ENDBRANCH  42  58
BRANCH  43  60
ATOM     60  C   UNL     1       6.246  -2.236   0.586  0.00  0.00    +0.000 C 
ATOM     61  O   UNL     1       6.999  -2.027   1.596  0.00  0.00    +0.000 OA
BRANCH  60  62
ATOM     62  O   UNL     1       6.949  -2.878  -0.387  0.00  0.00    +0.000 OA
ATOM     63  H   UNL     1       6.532  -3.103  -1.195  0.00  0.00    +0.000 HD
ENDBRANCH  60  62
ENDBRANCH  43  60
BRANCH  20  64
ATOM     64  O   UNL     1       5.369   0.634   0.513  0.00  0.00    +0.000 OA
BRANCH  64  65
ATOM     65  C   UNL     1       5.728   1.696  -0.506  0.00  0.00    +0.000 C 
ATOM     66  O   UNL     1       7.144   1.171  -0.574  0.00  0.00    +0.000 OA
ATOM     67  C   UNL     1       7.471   2.190  -1.614  0.00  0.00    +0.000 C 
ATOM     68  C   UNL     1       8.908   1.438  -1.936  0.00  0.00    +0.000 C 
ATOM     69  C   UNL     1       8.287   3.308  -0.632  0.00  0.00    +0.000 C 
ATOM     70  C   UNL     1       7.630   3.043   0.904  0.00  0.00    +0.000 C 
ATOM     71  C   UNL     1       5.976   3.013   0.567  0.00  0.00    +0.000 C 
BRANCH  70  72
ATOM     72  N   UNL     1       7.943   1.541   1.129  0.00  0.00    +0.000 NA
ATOM     73  H   UNL     1       7.603   1.000   0.334  0.00  0.00    +0.000 HD
ATOM     74  H   UNL     1       7.481   1.221   1.981  0.00  0.00    +0.000 HD
ENDBRANCH  70  72
BRANCH  69  75
ATOM     75  O   UNL     1       7.268   4.374  -0.953  0.00  0.00    +0.000 OA
ATOM     76  H   UNL     1       6.377   4.030  -0.788  0.00  0.00    +0.000 HD
ENDBRANCH  69  75
BRANCH  71  77
ATOM     77  O   UNL     1       5.749   2.280   1.867  0.00  0.00    +0.000 OA
ATOM     78  H   UNL     1       6.326   1.501   1.904  0.00  0.00    +0.000 HD
ENDBRANCH  71  77
ENDBRANCH  64  65
ENDBRANCH  20  64
TORSDOF 15
