REMARK  Name = 5311412
REMARK  8 active torsions:
REMARK  status: ('A' for Active; 'I' for Inactive)
REMARK    1  A    between atoms: O_1  and  C_12
REMARK    2  A    between atoms: C_4  and  C_15
REMARK    3  A    between atoms: C_6  and  C_16
REMARK    4  A    between atoms: C_6  and  C_17
REMARK    5  A    between atoms: C_9  and  C_20
REMARK    6  A    between atoms: C_13  and  C_21
REMARK    7  A    between atoms: C_17  and  C_23
REMARK    8  A    between atoms: C_23  and  C_27
REMARK                            x       y       z     vdW  Elec       q    Type
REMARK                         _______ _______ _______ _____ _____    ______ ____
ROOT
ATOM      1  O   UNL     1      -6.230  -0.101   1.755  0.00  0.00    +0.000 OA
ATOM      2  C   UNL     1       1.752  -0.178  -0.249  0.00  0.00    +0.000 C 
ATOM      3  C   UNL     1       0.842   1.040   0.017  0.00  0.00    +0.000 C 
ATOM      4  C   UNL     1       3.076   0.302   0.457  0.00  0.00    +0.000 C 
ATOM      5  C   UNL     1      -0.553   0.926  -0.620  0.00  0.00    +0.000 C 
ATOM      6  C   UNL     1      -1.274  -0.343  -0.043  0.00  0.00    +0.000 C 
ATOM      7  C   UNL     1       3.157   1.811   0.022  0.00  0.00    +0.000 C 
ATOM      8  C   UNL     1       1.714   2.238  -0.350  0.00  0.00    +0.000 C 
ATOM      9  C   UNL     1       1.053  -1.417   0.352  0.00  0.00    +0.000 C 
ATOM     10  C   UNL     1      -0.389  -1.623  -0.165  0.00  0.00    +0.000 C 
ATOM     11  C   UNL     1      -2.760  -0.476  -0.565  0.00  0.00    +0.000 C 
ATOM     12  C   UNL     1      -1.374   2.200  -0.350  0.00  0.00    +0.000 C 
ATOM     13  C   UNL     1       2.016  -0.405  -1.769  0.00  0.00    +0.000 C 
ATOM     14  C   UNL     1       3.096   0.101   1.983  0.00  0.00    +0.000 C 
ATOM     15  C   UNL     1      -2.807   2.085  -0.856  0.00  0.00    +0.000 C 
ATOM     16  C   UNL     1      -3.464   0.856  -0.283  0.00  0.00    +0.000 C 
ATOM     17  C   UNL     1       3.787   2.769   1.029  0.00  0.00    +0.000 C 
ATOM     18  C   UNL     1      -2.871  -0.767  -2.079  0.00  0.00    +0.000 C 
ATOM     19  C   UNL     1      -3.460  -1.628   0.141  0.00  0.00    +0.000 C 
ATOM     20  C   UNL     1      -4.574   0.970   0.463  0.00  0.00    +0.000 C 
ATOM     21  C   UNL     1      -4.564  -1.521   0.886  0.00  0.00    +0.000 C 
ATOM     22  C   UNL     1      -5.207  -0.210   1.087  0.00  0.00    +0.000 C 
ENDROOT
BRANCH  10  23
ATOM     23  O   UNL     1      -0.356  -2.107  -1.500  0.00  0.00    +0.000 OA
ATOM     24  H   UNL     1      -0.435  -1.364  -2.115  0.00  0.00    +0.000 HD
ENDBRANCH  10  23
BRANCH   4  26
ATOM     25  O   UNL     1       5.159   0.128  -0.698  0.00  0.00    +0.000 OA
ATOM     26  C   UNL     1       4.286  -0.445  -0.048  0.00  0.00    +0.000 C 
BRANCH  26  27
ATOM     27  C   UNL     1       4.351  -1.922   0.295  0.00  0.00    +0.000 C 
ATOM     28  C   UNL     1       5.593  -2.284   1.089  0.00  0.00    +0.000 C 
ENDBRANCH  26  27
ENDBRANCH   4  26
TORSDOF 3
