REMARK  Name = 5311181
REMARK  14 active torsions:
REMARK  status: ('A' for Active; 'I' for Inactive)
REMARK    1  A    between atoms: O_1  and  C_9
REMARK    2  A    between atoms: O_2  and  C_17
REMARK    3  A    between atoms: O_3  and  C_23
REMARK    4  A    between atoms: C_7  and  C_13
REMARK    5  A    between atoms: C_14  and  C_16
REMARK    6  A    between atoms: C_15  and  C_17
REMARK    7  A    between atoms: C_16  and  C_18
REMARK    8  A    between atoms: C_17  and  C_19
REMARK    9  A    between atoms: C_18  and  C_20
REMARK   10  A    between atoms: C_19  and  C_21
REMARK   11  A    between atoms: C_19  and  C_22
REMARK   12  A    between atoms: C_20  and  C_23
REMARK   13  A    between atoms: C_21  and  C_24
REMARK   14  A    between atoms: C_25  and  C_26
REMARK                            x       y       z     vdW  Elec       q    Type
REMARK                         _______ _______ _______ _____ _____    ______ ____
ROOT
ATOM      1  C   UNL     1      -0.312  -1.093  -1.249  0.00  0.00    +0.000 C 
ATOM      2  C   UNL     1       0.832  -2.092  -1.445  0.00  0.00    +0.000 C 
ATOM      3  C   UNL     1      -1.147  -1.731  -0.129  0.00  0.00    +0.000 C 
ATOM      4  C   UNL     1       0.227  -3.470  -1.169  0.00  0.00    +0.000 C 
ATOM      5  C   UNL     1      -1.135  -3.216  -0.507  0.00  0.00    +0.000 C 
ATOM      6  C   UNL     1       0.369   0.226  -0.895  0.00  0.00    +0.000 C 
ATOM      7  C   UNL     1       1.894  -1.671  -0.422  0.00  0.00    +0.000 C 
ATOM      8  C   UNL     1       1.676  -0.192  -0.281  0.00  0.00    +0.000 C 
ATOM      9  C   UNL     1       2.535   0.647   0.308  0.00  0.00    +0.000 C 
ENDROOT
BRANCH   5  10
ATOM     10  O   UNL     1      -1.272  -4.040   0.641  0.00  0.00    +0.000 OA
ATOM     11  H   UNL     1      -0.548  -3.827   1.254  0.00  0.00    +0.000 HD
ENDBRANCH   5  10
BRANCH   3  12
ATOM     12  C   UNL     1      -2.529  -1.169  -0.035  0.00  0.00    +0.000 C 
ATOM     13  C   UNL     1      -3.035  -0.613   1.076  0.00  0.00    +0.000 C 
BRANCH  13  14
ATOM     14  C   UNL     1      -4.426  -0.048   1.170  0.00  0.00    +0.000 C 
BRANCH  14  15
ATOM     15  O   UNL     1      -5.124  -0.846   2.127  0.00  0.00    +0.000 OA
ATOM     16  H   UNL     1      -5.167  -1.754   1.781  0.00  0.00    +0.000 HD
ENDBRANCH  14  15
BRANCH  14  17
ATOM     17  C   UNL     1      -4.436   1.438   1.613  0.00  0.00    +0.000 C 
ATOM     18  C   UNL     1      -5.864   1.983   1.761  0.00  0.00    +0.000 C 
BRANCH  17  19
ATOM     19  C   UNL     1      -3.592   2.354   0.699  0.00  0.00    +0.000 C 
BRANCH  19  20
ATOM     20  C   UNL     1      -4.078   2.408  -0.688  0.00  0.00    +0.000 C 
ATOM     21  C   UNL     1      -4.471   2.451  -1.822  0.00  0.00    +0.000 C 
ATOM     22  C   UNL     1      -4.953   2.500  -3.202  0.00  0.00    +0.000 C 
ENDBRANCH  19  20
ENDBRANCH  17  19
ENDBRANCH  14  17
ENDBRANCH  13  14
ENDBRANCH   3  12
BRANCH   9  23
ATOM     23  C   UNL     1       3.843   0.223   0.911  0.00  0.00    +0.000 C 
BRANCH  23  24
ATOM     24  C   UNL     1       5.017   0.968   0.269  0.00  0.00    +0.000 C 
BRANCH  24  25
ATOM     25  C   UNL     1       6.361   0.564   0.868  0.00  0.00    +0.000 C 
BRANCH  25  27
ATOM     26  O   UNL     1       7.397   2.119  -0.662  0.00  0.00    +0.000 OA
ATOM     27  C   UNL     1       7.516   1.311   0.250  0.00  0.00    +0.000 C 
BRANCH  27  28
ATOM     28  O   UNL     1       8.707   0.989   0.811  0.00  0.00    +0.000 OA
ATOM     29  H   UNL     1       9.451   1.479   0.400  0.00  0.00    +0.000 HD
ENDBRANCH  27  28
ENDBRANCH  25  27
ENDBRANCH  24  25
ENDBRANCH  23  24
ENDBRANCH   9  23
TORSDOF 12
