REMARK  Name = 6918155
REMARK  11 active torsions:
REMARK  status: ('A' for Active; 'I' for Inactive)
REMARK    1  A    between atoms: O_3  and  C_16
REMARK    2  A    between atoms: O_5  and  C_27
REMARK    3  A    between atoms: O_5  and  C_36
REMARK    4  A    between atoms: C_8  and  C_19
REMARK    5  A    between atoms: C_11  and  C_21
REMARK    6  A    between atoms: C_17  and  C_24
REMARK    7  A    between atoms: C_20  and  C_25
REMARK    8  A    between atoms: C_21  and  C_27
REMARK    9  A    between atoms: C_36  and  C_37
REMARK   10  A    between atoms: C_37  and  C_38
REMARK   11  A    between atoms: C_37  and  C_39
REMARK                            x       y       z     vdW  Elec       q    Type
REMARK                         _______ _______ _______ _____ _____    ______ ____
ROOT
ATOM      1  O   UNL     1       1.618  -0.984   0.062  0.00  0.00    +0.000 OA
ATOM      2  O   UNL     1       1.581  -2.373   1.951  0.00  0.00    +0.000 OA
ATOM      3  O   UNL     1      -7.105   0.050  -2.589  0.00  0.00    +0.000 OA
ATOM      4  C   UNL     1       0.214   0.775   1.083  0.00  0.00    +0.000 C 
ATOM      5  C   UNL     1      -0.889  -0.276   1.344  0.00  0.00    +0.000 C 
ATOM      6  C   UNL     1      -2.303   0.320   1.380  0.00  0.00    +0.000 C 
ATOM      7  C   UNL     1       1.465  -0.131   1.193  0.00  0.00    +0.000 C 
ATOM      8  C   UNL     1      -2.606   0.986  -0.009  0.00  0.00    +0.000 C 
ATOM      9  C   UNL     1       1.158  -1.075   2.360  0.00  0.00    +0.000 C 
ATOM     10  C   UNL     1      -0.372  -1.043   2.563  0.00  0.00    +0.000 C 
ATOM     11  C   UNL     1      -0.053   1.384  -0.307  0.00  0.00    +0.000 C 
ATOM     12  C   UNL     1      -1.476   1.968  -0.455  0.00  0.00    +0.000 C 
ATOM     13  C   UNL     1      -4.085   1.535  -0.092  0.00  0.00    +0.000 C 
ATOM     14  C   UNL     1      -3.337  -0.772   1.710  0.00  0.00    +0.000 C 
ATOM     15  C   UNL     1       0.280   1.882   2.170  0.00  0.00    +0.000 C 
ATOM     16  C   UNL     1       1.966  -2.265   0.582  0.00  0.00    +0.000 C 
ATOM     17  C   UNL     1      -4.769  -0.261   1.627  0.00  0.00    +0.000 C 
ATOM     18  C   UNL     1      -5.019   0.378   0.284  0.00  0.00    +0.000 C 
ATOM     19  C   UNL     1      -4.379   2.713   0.864  0.00  0.00    +0.000 C 
ATOM     20  C   UNL     1      -4.375   2.040  -1.498  0.00  0.00    +0.000 C 
ATOM     21  C   UNL     1      -5.983  -0.095  -0.521  0.00  0.00    +0.000 C 
ATOM     22  C   UNL     1      -5.332   1.573  -2.305  0.00  0.00    +0.000 C 
ATOM     23  C   UNL     1      -6.213   0.477  -1.864  0.00  0.00    +0.000 C 
ENDROOT
BRANCH  16  24
ATOM     24  C   UNL     1       1.276  -3.356  -0.236  0.00  0.00    +0.000 C 
ATOM     25  C   UNL     1       1.696  -3.274  -1.710  0.00  0.00    +0.000 C 
ATOM     26  C   UNL     1       1.583  -4.743   0.343  0.00  0.00    +0.000 C 
ATOM     27  C   UNL     1       1.060  -4.388  -2.539  0.00  0.00    +0.000 C 
ATOM     28  C   UNL     1       0.948  -5.854  -0.490  0.00  0.00    +0.000 C 
ATOM     29  C   UNL     1       1.360  -5.765  -1.956  0.00  0.00    +0.000 C 
ENDBRANCH  16  24
BRANCH  12  30
ATOM     30  O   UNL     1      -1.529   3.199   0.252  0.00  0.00    +0.000 OA
ATOM     31  H   UNL     1      -0.855   3.789  -0.125  0.00  0.00    +0.000 HD
ENDBRANCH  12  30
BRANCH   7  33
ATOM     32  O   UNL     1       3.496   0.437   2.304  0.00  0.00    +0.000 OA
ATOM     33  C   UNL     1       2.767   0.603   1.327  0.00  0.00    +0.000 C 
BRANCH  33  34
ATOM     34  C   UNL     1       3.122   1.551   0.201  0.00  0.00    +0.000 C 
BRANCH  34  35
ATOM     35  O   UNL     1       4.523   1.633   0.042  0.00  0.00    +0.000 OA
BRANCH  35  37
ATOM     36  O   UNL     1       4.257   3.126  -1.696  0.00  0.00    +0.000 OA
ATOM     37  C   UNL     1       4.973   2.466  -0.955  0.00  0.00    +0.000 C 
BRANCH  37  38
ATOM     38  C   UNL     1       6.490   2.440  -1.012  0.00  0.00    +0.000 C 
ATOM     39  C   UNL     1       6.951   1.328  -1.948  0.00  0.00    +0.000 C 
ATOM     40  C   UNL     1       7.038   3.793  -1.459  0.00  0.00    +0.000 C 
ENDBRANCH  37  38
ENDBRANCH  35  37
ENDBRANCH  34  35
ENDBRANCH  33  34
ENDBRANCH   7  33
TORSDOF 7
