REMARK  Name = 
REMARK  22 active torsions:
REMARK  status: ('A' for Active; 'I' for Inactive)
REMARK    1  A    between atoms: C_1  and  O_2
REMARK    2  A    between atoms: O_2  and  C_3
REMARK    3  A    between atoms: C_5  and  C_6
REMARK    4  A    between atoms: C_6  and  C_7
REMARK    5  A    between atoms: C_7  and  C_8
REMARK    6  A    between atoms: C_7  and  C_9
REMARK    7  A    between atoms: C_13  and  C_14
REMARK    8  A    between atoms: C_16  and  C_17
REMARK    9  A    between atoms: C_18  and  O_19
REMARK   10  A    between atoms: C_20  and  O_21
REMARK   11  A    between atoms: O_21  and  C_22
REMARK   12  A    between atoms: C_25  and  C_26
REMARK   13  A    between atoms: C_28  and  C_29
REMARK   14  A    between atoms: C_35  and  C_36
REMARK   15  A    between atoms: C_37  and  O_38
REMARK   16  A    between atoms: O_38  and  C_39
REMARK   17  A    between atoms: C_44  and  C_45
REMARK   18  A    between atoms: C_46  and  O_47
REMARK   19  A    between atoms: C_64  and  O_65
REMARK   20  A    between atoms: O_65  and  C_66
REMARK   21  A    between atoms: C_66  and  C_67
REMARK   22  A    between atoms: C_67  and  O_68
REMARK                            x       y       z     vdW  Elec       q    Type
REMARK                         _______ _______ _______ _____ _____    ______ ____
ROOT
ATOM      1  C   UNL     1       1.602   0.553  -1.649  0.00  0.00    +0.000 C 
ATOM      2  C   UNL     1       1.830   1.295  -0.199  0.00  0.00    +0.000 C 
ATOM      3  C   UNL     1       1.141   2.620  -0.330  0.00  0.00    +0.000 C 
ATOM      4  O   UNL     1       1.671   3.694  -0.191  0.00  0.00    +0.000 OA
ATOM      5  C   UNL     1      -0.368   2.731   0.211  0.00  0.00    +0.000 C 
ATOM      6  C   UNL     1      -0.849   1.429  -0.657  0.00  0.00    +0.000 C 
ATOM      7  C   UNL     1      -0.801   3.766  -0.951  0.00  0.00    +0.000 C 
ATOM      8  C   UNL     1      -1.489   4.811  -0.589  0.00  0.00    +0.000 C 
ATOM      9  C   UNL     1      -0.948   6.182  -0.900  0.00  0.00    +0.000 C 
ATOM     10  C   UNL     1      -3.056   4.905  -0.962  0.00  0.00    +0.000 C 
ATOM     11  C   UNL     1      -3.461   5.041   0.712  0.00  0.00    +0.000 C 
ATOM     12  C   UNL     1      -5.037   4.847   0.469  0.00  0.00    +0.000 C 
ATOM     13  O   UNL     1      -5.414   4.162  -0.433  0.00  0.00    +0.000 OA
ATOM     14  C   UNL     1      -5.769   4.252   1.768  0.00  0.00    +0.000 C 
ATOM     15  C   UNL     1      -5.113   5.342   2.792  0.00  0.00    +0.000 C 
ATOM     16  C   UNL     1      -4.614   3.135   2.068  0.00  0.00    +0.000 C 
ATOM     17  C   UNL     1      -5.612   1.925   2.527  0.00  0.00    +0.000 C 
ATOM     18  C   UNL     1      -4.412   1.111   3.282  0.00  0.00    +0.000 C 
ATOM     19  C   UNL     1      -5.383   1.125   1.156  0.00  0.00    +0.000 C 
ATOM     20  C   UNL     1      -6.487   0.754   0.553  0.00  0.00    +0.000 C 
ATOM     21  C   UNL     1      -7.185  -0.491   0.778  0.00  0.00    +0.000 C 
ATOM     22  C   UNL     1      -6.869  -1.202   1.849  0.00  0.00    +0.000 C 
ATOM     23  C   UNL     1      -6.872  -2.638   1.535  0.00  0.00    +0.000 C 
ATOM     24  C   UNL     1      -5.877  -3.048   0.738  0.00  0.00    +0.000 C 
ATOM     25  C   UNL     1      -6.066  -4.483   0.389  0.00  0.00    +0.000 C 
ATOM     26  C   UNL     1      -4.431  -2.599   1.320  0.00  0.00    +0.000 C 
ATOM     27  C   UNL     1      -3.564  -3.822   0.630  0.00  0.00    +0.000 C 
ATOM     28  C   UNL     1      -2.416  -2.956  -0.179  0.00  0.00    +0.000 C 
ATOM     29  C   UNL     1      -2.606  -3.951  -1.483  0.00  0.00    +0.000 C 
ATOM     30  C   UNL     1      -2.223  -5.289  -1.024  0.00  0.00    +0.000 C 
ATOM     31  C   UNL     1      -0.600  -5.390  -1.071  0.00  0.00    +0.000 C 
ATOM     32  C   UNL     1      -0.568  -5.009  -2.658  0.00  0.00    +0.000 C 
ATOM     33  C   UNL     1      -0.249  -3.883  -0.482  0.00  0.00    +0.000 C 
ATOM     34  O   UNL     1      -1.295  -3.747   0.458  0.00  0.00    +0.000 OA
ATOM     35  C   UNL     1       0.863  -4.336   0.325  0.00  0.00    +0.000 C 
ATOM     36  O   UNL     1       0.696  -4.972   1.416  0.00  0.00    +0.000 OA
ATOM     37  C   UNL     1       2.096  -4.678  -0.399  0.00  0.00    +0.000 C 
ATOM     38  O   UNL     1       2.859  -5.645  -0.086  0.00  0.00    +0.000 OA
ATOM     39  N   UNL     1       2.389  -3.773  -1.479  0.00  0.00    +0.000 N 
ATOM     40  C   UNL     1       3.563  -4.070  -2.184  0.00  0.00    +0.000 C 
ATOM     41  C   UNL     1       4.689  -3.866  -1.175  0.00  0.00    +0.000 C 
ATOM     42  C   UNL     1       4.521  -2.375  -0.889  0.00  0.00    +0.000 C 
ATOM     43  C   UNL     1       3.310  -2.168  -0.053  0.00  0.00    +0.000 C 
ATOM     44  C   UNL     1       1.976  -2.330  -1.013  0.00  0.00    +0.000 C 
ATOM     45  C   UNL     1       2.655  -1.530  -2.225  0.00  0.00    +0.000 C 
ATOM     46  O   UNL     1       2.967  -2.013  -3.270  0.00  0.00    +0.000 OA
ATOM     47  O   UNL     1       2.874  -0.280  -1.703  0.00  0.00    +0.000 OA
ENDROOT
BRANCH   1  48
ATOM     48  C   UNL     1       2.217   1.948  -2.438  0.00  0.00    +0.000 C 
ATOM     49  C   UNL     1       1.980   1.233  -3.884  0.00  0.00    +0.000 C 
BRANCH  48  50
ATOM     50  C   UNL     1       3.798   1.682  -2.492  0.00  0.00    +0.000 C 
BRANCH  50  53
ATOM     51  C   UNL     1       6.212   0.120  -0.143  0.00  0.00    +0.000 C 
ATOM     52  C   UNL     1       5.728   0.773  -1.558  0.00  0.00    +0.000 C 
ATOM     53  C   UNL     1       4.329   1.406  -0.991  0.00  0.00    +0.000 C 
ATOM     54  C   UNL     1       5.095   2.822  -0.709  0.00  0.00    +0.000 C 
ATOM     55  C   UNL     1       5.638   2.358   0.649  0.00  0.00    +0.000 C 
ATOM     56  C   UNL     1       7.032   1.561   0.335  0.00  0.00    +0.000 C 
BRANCH  51  58
ATOM     57  C   UNL     1       7.878   0.356  -1.474  0.00  0.00    +0.000 C 
ATOM     58  O   UNL     1       7.484  -0.401  -0.769  0.00  0.00    +0.000 OA
ENDBRANCH  51  58
BRANCH  56  59
ATOM     59  O   UNL     1       7.118   0.996   1.728  0.00  0.00    +0.000 OA
BRANCH  59  60
ATOM     60  C   UNL     1       7.582   1.952   2.579  0.00  0.00    +0.000 C 
BRANCH  60  61
ATOM     61  C   UNL     1       7.348   1.313   3.947  0.00  0.00    +0.000 C 
BRANCH  61  62
ATOM     62  O   UNL     1       8.072   1.901   4.951  0.00  0.00    +0.000 OA
ATOM     63  H   UNL     1       9.019   1.801   4.768  0.00  0.00    +0.000 HD
ENDBRANCH  61  62
ENDBRANCH  60  61
ENDBRANCH  59  60
ENDBRANCH  56  59
ENDBRANCH  50  53
ENDBRANCH  48  50
ENDBRANCH   1  48
BRANCH  10  64
ATOM     64  O   UNL     1      -3.261   3.409  -0.910  0.00  0.00    +0.000 OA
ATOM     65  H   UNL     1      -2.833   3.052  -0.117  0.00  0.00    +0.000 HD
ENDBRANCH  10  64
BRANCH  11  66
ATOM     66  O   UNL     1      -3.553   6.546   0.600  0.00  0.00    +0.000 OA
ATOM     67  C   UNL     1      -4.308   6.862  -0.487  0.00  0.00    +0.000 C 
ENDBRANCH  11  66
BRANCH  26  68
ATOM     68  O   UNL     1      -4.648  -3.416   2.585  0.00  0.00    +0.000 OA
ATOM     69  C   UNL     1      -3.394  -3.506   3.135  0.00  0.00    +0.000 C 
ENDBRANCH  26  68
BRANCH  33  70
ATOM     70  O   UNL     1      -0.416  -3.050  -1.395  0.00  0.00    +0.000 OA
ATOM     71  H   UNL     1      -1.345  -3.055  -1.671  0.00  0.00    +0.000 HD
ENDBRANCH  33  70
TORSDOF 12
