REMARK  Name = 
REMARK  21 active torsions:
REMARK  status: ('A' for Active; 'I' for Inactive)
REMARK    1  A    between atoms: C_1  and  C_2
REMARK    2  A    between atoms: C_2  and  C_3
REMARK    3  A    between atoms: C_5  and  C_6
REMARK    4  A    between atoms: C_7  and  O_8
REMARK    5  A    between atoms: C_9  and  C_10
REMARK    6  A    between atoms: C_12  and  O_13
REMARK    7  A    between atoms: O_13  and  C_14
REMARK    8  A    between atoms: C_17  and  O_18
REMARK    9  A    between atoms: C_32  and  C_33
REMARK   10  A    between atoms: C_33  and  C_34
REMARK   11  A    between atoms: C_35  and  C_36
REMARK   12  A    between atoms: C_39  and  O_40
REMARK   13  A    between atoms: O_40  and  C_41
REMARK   14  A    between atoms: N_48  and  C_49
REMARK   15  A    between atoms: C_51  and  O_52
REMARK   16  A    between atoms: O_52  and  C_53
REMARK   17  A    between atoms: C_55  and  C_56
REMARK   18  A    between atoms: C_57  and  O_58
REMARK   19  A    between atoms: C_62  and  C_63
REMARK   20  A    between atoms: C_65  and  O_66
REMARK   21  A    between atoms: O_66  and  C_67
REMARK                            x       y       z     vdW  Elec       q    Type
REMARK                         _______ _______ _______ _____ _____    ______ ____
ROOT
ATOM      1  C   UNL     1      -2.349   2.975  -2.351  0.00  0.00    +0.000 C 
ATOM      2  C   UNL     1      -3.195   1.917  -1.473  0.00  0.00    +0.000 C 
ATOM      3  C   UNL     1      -4.145   1.244  -2.095  0.00  0.00    +0.000 C 
ATOM      4  C   UNL     1      -4.013  -0.042  -2.812  0.00  0.00    +0.000 C 
ATOM      5  C   UNL     1      -5.645   1.794  -1.846  0.00  0.00    +0.000 C 
ATOM      6  C   UNL     1      -6.335   0.249  -1.609  0.00  0.00    +0.000 C 
ATOM      7  C   UNL     1      -7.818   0.793  -1.950  0.00  0.00    +0.000 C 
ATOM      8  C   UNL     1      -6.512   0.492  -0.022  0.00  0.00    +0.000 C 
ATOM      9  C   UNL     1      -7.189  -0.973   0.275  0.00  0.00    +0.000 C 
ATOM     10  C   UNL     1      -5.664  -1.760   0.194  0.00  0.00    +0.000 C 
ATOM     11  O   UNL     1      -5.122  -1.325   1.511  0.00  0.00    +0.000 OA
ATOM     12  C   UNL     1      -3.757  -1.619   1.351  0.00  0.00    +0.000 C 
ATOM     13  C   UNL     1      -3.291  -1.461   2.670  0.00  0.00    +0.000 C 
ATOM     14  O   UNL     1      -3.736  -2.259   3.570  0.00  0.00    +0.000 OA
ATOM     15  C   UNL     1      -3.076  -0.121   3.239  0.00  0.00    +0.000 C 
ATOM     16  O   UNL     1      -3.244   0.135   4.471  0.00  0.00    +0.000 OA
ATOM     17  N   UNL     1      -1.983   0.517   2.613  0.00  0.00    +0.000 N 
ATOM     18  C   UNL     1      -1.354   1.715   3.089  0.00  0.00    +0.000 C 
ATOM     19  C   UNL     1      -2.293   2.858   2.700  0.00  0.00    +0.000 C 
ATOM     20  C   UNL     1      -2.895   2.395   1.370  0.00  0.00    +0.000 C 
ATOM     21  C   UNL     1      -1.794   1.710   0.637  0.00  0.00    +0.000 C 
ATOM     22  C   UNL     1      -1.722   0.137   1.114  0.00  0.00    +0.000 C 
ATOM     23  C   UNL     1      -0.120   0.198   1.271  0.00  0.00    +0.000 C 
ATOM     24  O   UNL     1       0.380  -0.264   2.296  0.00  0.00    +0.000 OA
ATOM     25  O   UNL     1       0.499   0.519   0.086  0.00  0.00    +0.000 OA
ATOM     26  C   UNL     1       0.185  -0.456  -1.054  0.00  0.00    +0.000 C 
ATOM     27  C   UNL     1      -0.255   0.759  -2.166  0.00  0.00    +0.000 C 
ATOM     28  C   UNL     1       0.238  -0.097  -3.427  0.00  0.00    +0.000 C 
ATOM     29  C   UNL     1       1.095   1.757  -1.925  0.00  0.00    +0.000 C 
ATOM     30  C   UNL     1       0.208   3.124  -2.124  0.00  0.00    +0.000 C 
ATOM     31  C   UNL     1      -1.068   2.944  -1.382  0.00  0.00    +0.000 C 
ATOM     32  O   UNL     1      -1.155   3.351  -0.264  0.00  0.00    +0.000 OA
ATOM     33  C   UNL     1      -3.637  -3.277   1.312  0.00  0.00    +0.000 C 
ATOM     34  C   UNL     1      -3.758  -3.537  -0.303  0.00  0.00    +0.000 C 
ATOM     35  C   UNL     1      -5.121  -3.675   1.759  0.00  0.00    +0.000 C 
ATOM     36  C   UNL     1      -6.353  -3.175   0.866  0.00  0.00    +0.000 C 
ENDROOT
BRANCH  26  37
ATOM     37  C   UNL     1       1.707  -0.576  -1.564  0.00  0.00    +0.000 C 
ATOM     38  C   UNL     1       1.879  -1.923  -2.205  0.00  0.00    +0.000 C 
ATOM     39  C   UNL     1       2.677  -0.148  -0.840  0.00  0.00    +0.000 C 
BRANCH  39  40
ATOM     40  C   UNL     1       4.084  -0.905  -0.920  0.00  0.00    +0.000 C 
ATOM     41  C   UNL     1       4.378  -0.670   0.670  0.00  0.00    +0.000 C 
ATOM     42  C   UNL     1       4.327   0.783   0.942  0.00  0.00    +0.000 C 
ATOM     43  C   UNL     1       5.810   1.420   0.679  0.00  0.00    +0.000 C 
ATOM     44  C   UNL     1       6.260   0.305  -0.549  0.00  0.00    +0.000 C 
ATOM     45  C   UNL     1       4.860   0.460  -1.379  0.00  0.00    +0.000 C 
BRANCH  44  46
ATOM     46  O   UNL     1       6.934   1.397  -1.338  0.00  0.00    +0.000 OA
ATOM     47  C   UNL     1       6.060   2.469  -1.408  0.00  0.00    +0.000 C 
ENDBRANCH  44  46
BRANCH  43  48
ATOM     48  O   UNL     1       6.421   0.562   1.782  0.00  0.00    +0.000 OA
BRANCH  48  49
ATOM     49  C   UNL     1       7.612  -0.078   1.561  0.00  0.00    +0.000 A 
ATOM     50  C   UNL     1       7.546  -1.469   1.474  0.00  0.00    +0.000 A 
ATOM     51  C   UNL     1       8.335  -2.201   0.616  0.00  0.00    +0.000 A 
ATOM     52  C   UNL     1       9.531  -1.633   0.202  0.00  0.00    +0.000 A 
ATOM     53  C   UNL     1       9.677  -0.261   0.351  0.00  0.00    +0.000 A 
ATOM     54  C   UNL     1      10.725   0.149  -0.428  0.00  0.00    +0.000 A 
ATOM     55  C   UNL     1      11.099  -0.953  -1.156  0.00  0.00    +0.000 A 
ATOM     56  N   UNL     1      10.258  -1.960  -0.878  0.00  0.00    +0.000 N 
ATOM     57  C   UNL     1      10.302  -3.227  -1.601  0.00  0.00    +0.000 C 
ATOM     58  C   UNL     1       8.738   0.513   1.015  0.00  0.00    +0.000 A 
ENDBRANCH  48  49
ENDBRANCH  43  48
ENDBRANCH  39  40
ENDBRANCH  26  37
BRANCH   1  60
ATOM     59  C   UNL     1      -3.352   4.032  -0.679  0.00  0.00    +0.000 C 
ATOM     60  C   UNL     1      -3.044   4.260  -1.615  0.00  0.00    +0.000 C 
ENDBRANCH   1  60
BRANCH   5  61
ATOM     61  O   UNL     1      -5.981   1.741  -3.319  0.00  0.00    +0.000 OA
ATOM     62  H   UNL     1      -5.706   0.884  -3.682  0.00  0.00    +0.000 HD
ENDBRANCH   5  61
BRANCH   9  63
ATOM     63  O   UNL     1      -7.223  -0.724   1.757  0.00  0.00    +0.000 OA
ATOM     64  C   UNL     1      -8.428  -1.168   2.246  0.00  0.00    +0.000 C 
ENDBRANCH   9  63
BRANCH  12  65
ATOM     65  O   UNL     1      -3.494  -1.344   0.144  0.00  0.00    +0.000 OA
ATOM     66  H   UNL     1      -3.528  -0.383   0.017  0.00  0.00    +0.000 HD
ENDBRANCH  12  65
BRANCH  29  67
ATOM     67  O   UNL     1       1.542   1.820  -3.367  0.00  0.00    +0.000 OA
ATOM     68  H   UNL     1       0.777   2.000  -3.935  0.00  0.00    +0.000 HD
ENDBRANCH  29  67
BRANCH  36  69
ATOM     69  O   UNL     1      -6.030  -4.058  -0.329  0.00  0.00    +0.000 OA
ATOM     70  C   UNL     1      -7.219  -4.156  -1.046  0.00  0.00    +0.000 C 
ENDBRANCH  36  69
TORSDOF 11
