REMARK  Name = 449169
REMARK  18 active torsions:
REMARK  status: ('A' for Active; 'I' for Inactive)
REMARK    1  A    between atoms: O_1  and  C_10
REMARK    2  A    between atoms: O_1  and  C_28
REMARK    3  A    between atoms: O_2  and  C_24
REMARK    4  A    between atoms: O_5  and  C_41
REMARK    5  A    between atoms: O_5  and  C_44
REMARK    6  A    between atoms: O_6  and  C_43
REMARK    7  A    between atoms: N_7  and  C_27
REMARK    8  A    between atoms: C_8  and  C_12
REMARK    9  A    between atoms: C_11  and  C_21
REMARK   10  A    between atoms: C_12  and  C_15
REMARK   11  A    between atoms: C_15  and  C_17
REMARK   12  A    between atoms: C_16  and  C_23
REMARK   13  A    between atoms: C_27  and  C_30
REMARK   14  A    between atoms: C_28  and  C_29
REMARK   15  A    between atoms: C_29  and  C_31
REMARK   16  A    between atoms: C_29  and  C_32
REMARK   17  A    between atoms: C_31  and  C_36
REMARK   18  A    between atoms: C_39  and  C_43
REMARK                            x       y       z     vdW  Elec       q    Type
REMARK                         _______ _______ _______ _____ _____    ______ ____
ROOT
ATOM      1  O   UNL     1       0.816   2.856  -1.849  0.00  0.00    +0.000 OA
ATOM      2  N   UNL     1       0.502   0.592  -1.445  0.00  0.00    +0.000 N 
ATOM      3  C   UNL     1       0.167  -0.730  -1.981  0.00  0.00    +0.000 C 
ATOM      4  C   UNL     1       0.827  -0.900  -3.350  0.00  0.00    +0.000 C 
ATOM      5  C   UNL     1       0.396   0.180  -4.337  0.00  0.00    +0.000 C 
ATOM      6  C   UNL     1       0.095   1.533  -3.694  0.00  0.00    +0.000 C 
ATOM      7  C   UNL     1       0.527   1.726  -2.249  0.00  0.00    +0.000 C 
ENDROOT
BRANCH   5   8
ATOM      8  O   UNL     1      -0.780  -0.251  -5.025  0.00  0.00    +0.000 OA
ATOM      9  H   UNL     1      -0.994   0.425  -5.691  0.00  0.00    +0.000 HD
ENDBRANCH   5   8
BRANCH   3  10
ATOM     10  C   UNL     1      -1.342  -0.969  -1.991  0.00  0.00    +0.000 C 
BRANCH  10  11
ATOM     11  C   UNL     1      -1.863  -1.234  -0.585  0.00  0.00    +0.000 C 
BRANCH  11  12
ATOM     12  C   UNL     1      -3.380  -1.449  -0.592  0.00  0.00    +0.000 C 
ATOM     13  C   UNL     1      -3.975  -1.610   0.839  0.00  0.00    +0.000 C 
ATOM     14  C   UNL     1      -3.584  -0.462   1.798  0.00  0.00    +0.000 C 
ATOM     15  C   UNL     1      -3.788  -2.639  -1.509  0.00  0.00    +0.000 C 
ATOM     16  C   UNL     1      -5.488  -1.804   0.776  0.00  0.00    +0.000 C 
ATOM     17  C   UNL     1      -4.346  -0.561   3.123  0.00  0.00    +0.000 C 
ATOM     18  C   UNL     1      -5.875  -0.575   2.949  0.00  0.00    +0.000 C 
ATOM     19  C   UNL     1      -6.317  -1.334   1.726  0.00  0.00    +0.000 C 
ATOM     20  C   UNL     1      -5.261  -2.932  -1.392  0.00  0.00    +0.000 C 
ATOM     21  C   UNL     1      -6.018  -2.534  -0.361  0.00  0.00    +0.000 C 
ATOM     22  C   UNL     1      -3.001  -3.931  -1.263  0.00  0.00    +0.000 C 
ATOM     23  C   UNL     1      -6.466   0.838   2.928  0.00  0.00    +0.000 C 
BRANCH  14  24
ATOM     24  O   UNL     1      -3.820   0.801   1.185  0.00  0.00    +0.000 OA
BRANCH  24  26
ATOM     25  O   UNL     1      -2.062   1.714   2.367  0.00  0.00    +0.000 OA
ATOM     26  C   UNL     1      -2.979   1.813   1.562  0.00  0.00    +0.000 C 
BRANCH  26  27
ATOM     27  C   UNL     1      -3.369   3.099   0.852  0.00  0.00    +0.000 C 
ATOM     28  C   UNL     1      -3.069   4.271   1.783  0.00  0.00    +0.000 C 
BRANCH  27  29
ATOM     29  C   UNL     1      -2.623   3.252  -0.481  0.00  0.00    +0.000 C 
ATOM     30  C   UNL     1      -2.995   4.534  -1.215  0.00  0.00    +0.000 C 
ENDBRANCH  27  29
ENDBRANCH  26  27
ENDBRANCH  24  26
ENDBRANCH  14  24
ENDBRANCH  11  12
ENDBRANCH  10  11
ENDBRANCH   3  10
BRANCH   2  31
ATOM     31  C   UNL     1       0.804   0.680  -0.023  0.00  0.00    +0.000 C 
BRANCH  31  32
ATOM     32  C   UNL     1       2.274   0.540   0.249  0.00  0.00    +0.000 A 
ATOM     33  C   UNL     1       2.824  -0.722   0.477  0.00  0.00    +0.000 A 
ATOM     34  C   UNL     1       3.087   1.669   0.273  0.00  0.00    +0.000 A 
ATOM     35  C   UNL     1       4.197  -0.869   0.733  0.00  0.00    +0.000 A 
ATOM     36  C   UNL     1       4.453   1.541   0.525  0.00  0.00    +0.000 A 
ATOM     37  C   UNL     1       5.024   0.279   0.757  0.00  0.00    +0.000 A 
ATOM     38  C   UNL     1       6.396   0.132   1.013  0.00  0.00    +0.000 A 
ATOM     39  C   UNL     1       4.767  -2.131   0.965  0.00  0.00    +0.000 A 
ATOM     40  C   UNL     1       6.947  -1.130   1.242  0.00  0.00    +0.000 A 
ATOM     41  C   UNL     1       6.133  -2.260   1.218  0.00  0.00    +0.000 A 
BRANCH  40  42
ATOM     42  O   UNL     1       8.278  -1.280   1.492  0.00  0.00    +0.000 OA
ATOM     43  C   UNL     1       8.750  -2.607   1.714  0.00  0.00    +0.000 C 
ENDBRANCH  40  42
BRANCH  38  44
ATOM     44  C   UNL     1       7.313   1.318   1.050  0.00  0.00    +0.000 C 
BRANCH  44  45
ATOM     45  O   UNL     1       7.827   1.548  -0.253  0.00  0.00    +0.000 OA
ATOM     46  H   UNL     1       8.428   2.310  -0.193  0.00  0.00    +0.000 HD
ENDBRANCH  44  45
ENDBRANCH  38  44
ENDBRANCH  31  32
ENDBRANCH   2  31
TORSDOF 13
