REMARK  Name = 6918835
REMARK  11 active torsions:
REMARK  status: ('A' for Active; 'I' for Inactive)
REMARK    1  A    between atoms: O_2  and  C_10
REMARK    2  A    between atoms: O_3  and  C_12
REMARK    3  A    between atoms: C_8  and  C_14
REMARK    4  A    between atoms: C_8  and  C_15
REMARK    5  A    between atoms: C_9  and  C_17
REMARK    6  A    between atoms: C_13  and  C_18
REMARK    7  A    between atoms: C_22  and  C_27
REMARK    8  A    between atoms: C_25  and  C_28
REMARK    9  A    between atoms: C_27  and  C_29
REMARK   10  A    between atoms: C_30  and  C_31
REMARK   11  A    between atoms: C_33  and  C_34
REMARK                            x       y       z     vdW  Elec       q    Type
REMARK                         _______ _______ _______ _____ _____    ______ ____
ROOT
ATOM      1  O   UNL     1       3.377   2.073   1.726  0.00  0.00    +0.000 OA
ATOM      2  O   UNL     1       0.382  -1.266  -1.358  0.00  0.00    +0.000 OA
ATOM      3  O   UNL     1       1.696  -2.067  -3.084  0.00  0.00    +0.000 OA
ATOM      4  C   UNL     1       3.475   1.619  -0.646  0.00  0.00    +0.000 C 
ATOM      5  C   UNL     1       1.197   1.668   0.790  0.00  0.00    +0.000 C 
ATOM      6  C   UNL     1       2.729   0.740  -1.690  0.00  0.00    +0.000 C 
ATOM      7  C   UNL     1       2.732   1.776   0.712  0.00  0.00    +0.000 C 
ATOM      8  C   UNL     1       0.721   1.441   2.254  0.00  0.00    +0.000 C 
ATOM      9  C   UNL     1       1.136   0.082   2.884  0.00  0.00    +0.000 C 
ATOM     10  C   UNL     1       3.716   3.044  -1.206  0.00  0.00    +0.000 C 
ATOM     11  C   UNL     1       4.867   1.022  -0.344  0.00  0.00    +0.000 C 
ATOM     12  C   UNL     1       2.679  -0.746  -1.321  0.00  0.00    +0.000 C 
ATOM     13  C   UNL     1       0.571   2.943   0.213  0.00  0.00    +0.000 C 
ATOM     14  C   UNL     1       0.736   0.017   4.365  0.00  0.00    +0.000 C 
ATOM     15  C   UNL     1       0.552  -1.124   2.180  0.00  0.00    +0.000 C 
ATOM     16  C   UNL     1       1.551  -1.447  -2.038  0.00  0.00    +0.000 C 
ATOM     17  C   UNL     1       1.263  -2.218   1.857  0.00  0.00    +0.000 C 
ATOM     18  C   UNL     1      -0.811  -1.860  -1.915  0.00  0.00    +0.000 C 
ATOM     19  C   UNL     1       0.769  -3.483   1.198  0.00  0.00    +0.000 C 
ATOM     20  C   UNL     1      -0.922  -3.325  -1.459  0.00  0.00    +0.000 C 
ATOM     21  C   UNL     1      -0.732  -3.635   1.088  0.00  0.00    +0.000 C 
ATOM     22  C   UNL     1      -1.435  -3.538  -0.057  0.00  0.00    +0.000 C 
ATOM     23  C   UNL     1      -1.445  -3.963   2.378  0.00  0.00    +0.000 C 
ENDROOT
BRANCH  18  24
ATOM     24  C   UNL     1      -1.976  -1.005  -1.529  0.00  0.00    +0.000 C 
ATOM     25  C   UNL     1      -3.297  -1.477  -2.077  0.00  0.00    +0.000 C 
ATOM     26  C   UNL     1      -1.917   0.088  -0.742  0.00  0.00    +0.000 C 
BRANCH  26  29
ATOM     27  S   UNL     1      -4.910   2.002   0.900  0.00  0.00    +0.000 S 
ATOM     28  N   UNL     1      -3.320   2.008  -1.139  0.00  0.00    +0.000 NA
ATOM     29  C   UNL     1      -2.997   0.945  -0.339  0.00  0.00    +0.000 A 
ATOM     30  C   UNL     1      -3.727   0.764   0.801  0.00  0.00    +0.000 A 
ATOM     31  C   UNL     1      -4.326   2.645  -0.580  0.00  0.00    +0.000 A 
ATOM     32  C   UNL     1      -4.967   3.854  -1.141  0.00  0.00    +0.000 C 
ENDBRANCH  26  29
ENDBRANCH  18  24
BRANCH   6  33
ATOM     33  O   UNL     1       3.337   0.859  -2.982  0.00  0.00    +0.000 OA
ATOM     34  H   UNL     1       4.208   0.430  -2.952  0.00  0.00    +0.000 HD
ENDBRANCH   6  33
BRANCH   8  35
ATOM     35  O   UNL     1      -0.705   1.565   2.300  0.00  0.00    +0.000 OA
ATOM     36  H   UNL     1      -0.919   2.512   2.344  0.00  0.00    +0.000 HD
ENDBRANCH   8  35
TORSDOF 4
