REMARK  Name = 64715
REMARK  11 active torsions:
REMARK  status: ('A' for Active; 'I' for Inactive)
REMARK    1  A    between atoms: O_1  and  C_9
REMARK    2  A    between atoms: O_1  and  C_22
REMARK    3  A    between atoms: O_3  and  C_21
REMARK    4  A    between atoms: C_6  and  C_10
REMARK    5  A    between atoms: C_8  and  C_19
REMARK    6  A    between atoms: C_10  and  C_13
REMARK    7  A    between atoms: C_13  and  C_18
REMARK    8  A    between atoms: C_22  and  C_25
REMARK    9  A    between atoms: C_25  and  C_26
REMARK   10  A    between atoms: C_25  and  C_27
REMARK   11  A    between atoms: C_26  and  C_28
REMARK                            x       y       z     vdW  Elec       q    Type
REMARK                         _______ _______ _______ _____ _____    ______ ____
ROOT
ATOM      1  C   UNL     1      -0.286  -1.335  -0.494  0.00  0.00    +0.000 C 
ATOM      2  C   UNL     1      -1.455  -1.509   0.520  0.00  0.00    +0.000 C 
ATOM      3  C   UNL     1       0.179  -2.709  -1.059  0.00  0.00    +0.000 C 
ATOM      4  C   UNL     1      -1.942  -0.174   1.133  0.00  0.00    +0.000 C 
ATOM      5  C   UNL     1      -2.603  -2.291  -0.116  0.00  0.00    +0.000 C 
ATOM      6  C   UNL     1      -3.209  -0.386   1.964  0.00  0.00    +0.000 C 
ATOM      7  C   UNL     1      -1.000  -3.548  -1.483  0.00  0.00    +0.000 C 
ATOM      8  C   UNL     1      -4.345  -0.973   1.127  0.00  0.00    +0.000 C 
ATOM      9  C   UNL     1      -2.253  -3.336  -1.060  0.00  0.00    +0.000 C 
ATOM     10  C   UNL     1      -3.893  -2.033   0.169  0.00  0.00    +0.000 C 
ATOM     11  C   UNL     1       1.053  -3.531  -0.105  0.00  0.00    +0.000 C 
ENDROOT
BRANCH   4  12
ATOM     12  O   UNL     1      -2.240   0.791   0.125  0.00  0.00    +0.000 OA
BRANCH  12  14
ATOM     13  O   UNL     1      -2.425   2.512   1.650  0.00  0.00    +0.000 OA
ATOM     14  C   UNL     1      -2.706   1.994   0.577  0.00  0.00    +0.000 C 
BRANCH  14  15
ATOM     15  C   UNL     1      -3.659   2.591  -0.445  0.00  0.00    +0.000 C 
ATOM     16  C   UNL     1      -4.731   3.380   0.301  0.00  0.00    +0.000 C 
BRANCH  15  17
ATOM     17  C   UNL     1      -2.917   3.485  -1.449  0.00  0.00    +0.000 C 
ATOM     18  C   UNL     1      -1.845   2.729  -2.224  0.00  0.00    +0.000 C 
ENDBRANCH  15  17
ENDBRANCH  14  15
ENDBRANCH  12  14
ENDBRANCH   4  12
BRANCH   1  19
ATOM     19  C   UNL     1       0.895  -0.547   0.090  0.00  0.00    +0.000 C 
BRANCH  19  20
ATOM     20  C   UNL     1       1.969  -0.314  -0.963  0.00  0.00    +0.000 C 
BRANCH  20  23
ATOM     21  O   UNL     1       3.655  -0.252   0.734  0.00  0.00    +0.000 OA
ATOM     22  O   UNL     1       5.191  -0.409   2.369  0.00  0.00    +0.000 OA
ATOM     23  C   UNL     1       3.130   0.488  -0.391  0.00  0.00    +0.000 C 
ATOM     24  C   UNL     1       4.189   0.757  -1.450  0.00  0.00    +0.000 C 
ATOM     25  C   UNL     1       5.390   1.421  -0.803  0.00  0.00    +0.000 C 
ATOM     26  C   UNL     1       5.933   0.547   0.311  0.00  0.00    +0.000 C 
ATOM     27  C   UNL     1       4.892  -0.037   1.236  0.00  0.00    +0.000 C 
BRANCH  25  28
ATOM     28  O   UNL     1       5.033   2.690  -0.264  0.00  0.00    +0.000 OA
ATOM     29  H   UNL     1       4.525   2.555   0.553  0.00  0.00    +0.000 HD
ENDBRANCH  25  28
ENDBRANCH  20  23
ENDBRANCH  19  20
ENDBRANCH   1  19
TORSDOF 8
