REMARK  Name = 656615
REMARK  7 active torsions:
REMARK  status: ('A' for Active; 'I' for Inactive)
REMARK    1  A    between atoms: O_1  and  C_8
REMARK    2  A    between atoms: O_3  and  C_26
REMARK    3  A    between atoms: C_5  and  C_15
REMARK    4  A    between atoms: C_8  and  C_16
REMARK    5  A    between atoms: C_14  and  C_20
REMARK    6  A    between atoms: C_16  and  C_22
REMARK    7  A    between atoms: C_22  and  C_26
REMARK                            x       y       z     vdW  Elec       q    Type
REMARK                         _______ _______ _______ _____ _____    ______ ____
ROOT
ATOM      1  O   UNL     1       6.430  -1.935  -0.265  0.00  0.00    +0.000 OA
ATOM      2  C   UNL     1      -1.495   1.164   0.624  0.00  0.00    +0.000 C 
ATOM      3  C   UNL     1      -0.802   0.811  -0.716  0.00  0.00    +0.000 C 
ATOM      4  C   UNL     1       0.714   1.053  -0.673  0.00  0.00    +0.000 C 
ATOM      5  C   UNL     1      -2.990   0.931   0.243  0.00  0.00    +0.000 C 
ATOM      6  C   UNL     1       1.315   0.132   0.439  0.00  0.00    +0.000 C 
ATOM      7  C   UNL     1      -0.905   0.263   1.724  0.00  0.00    +0.000 C 
ATOM      8  C   UNL     1      -1.641   1.557  -1.750  0.00  0.00    +0.000 C 
ATOM      9  C   UNL     1       0.631   0.380   1.806  0.00  0.00    +0.000 C 
ATOM     10  C   UNL     1      -3.079   1.497  -1.200  0.00  0.00    +0.000 C 
ATOM     11  C   UNL     1       2.886   0.188   0.451  0.00  0.00    +0.000 C 
ATOM     12  C   UNL     1      -1.300   2.649   1.052  0.00  0.00    +0.000 C 
ATOM     13  C   UNL     1       1.398   0.803  -1.991  0.00  0.00    +0.000 C 
ATOM     14  C   UNL     1       3.403  -0.183  -0.947  0.00  0.00    +0.000 C 
ATOM     15  C   UNL     1       3.433  -0.840   1.478  0.00  0.00    +0.000 C 
ATOM     16  C   UNL     1       3.404   1.598   0.819  0.00  0.00    +0.000 C 
ATOM     17  C   UNL     1       2.607   0.234  -2.093  0.00  0.00    +0.000 C 
ATOM     18  C   UNL     1       4.939  -1.048   1.381  0.00  0.00    +0.000 C 
ATOM     19  C   UNL     1       4.529  -0.886  -1.156  0.00  0.00    +0.000 C 
ATOM     20  C   UNL     1       5.373  -1.351  -0.030  0.00  0.00    +0.000 C 
ENDROOT
BRANCH   5  21
ATOM     21  O   UNL     1      -3.859   1.662   1.105  0.00  0.00    +0.000 OA
ATOM     22  H   UNL     1      -3.814   2.606   0.882  0.00  0.00    +0.000 HD
ENDBRANCH   5  21
BRANCH   5  23
ATOM     23  C   UNL     1      -3.459  -0.529   0.282  0.00  0.00    +0.000 C 
BRANCH  23  24
ATOM     24  C   UNL     1      -4.902  -0.686  -0.164  0.00  0.00    +0.000 C 
BRANCH  24  26
ATOM     25  O   UNL     1      -4.668  -3.041   0.313  0.00  0.00    +0.000 OA
ATOM     26  C   UNL     1      -5.352  -2.125  -0.126  0.00  0.00    +0.000 C 
BRANCH  26  27
ATOM     27  O   UNL     1      -6.609  -2.298  -0.605  0.00  0.00    +0.000 OA
ATOM     28  H   UNL     1      -6.891  -3.236  -0.563  0.00  0.00    +0.000 HD
ENDBRANCH  26  27
ENDBRANCH  24  26
ENDBRANCH  23  24
ENDBRANCH   5  23
TORSDOF 5
