REMARK  Name = 
REMARK  27 active torsions:
REMARK  status: ('A' for Active; 'I' for Inactive)
REMARK    1  A    between atoms: O_1  and  C_2
REMARK    2  A    between atoms: O_1  and  C_58
REMARK    3  A    between atoms: C_3  and  O_55
REMARK    4  A    between atoms: C_4  and  O_25
REMARK    5  A    between atoms: C_5  and  C_6
REMARK    6  A    between atoms: C_6  and  C_7
REMARK    7  A    between atoms: C_10  and  C_24
REMARK    8  A    between atoms: C_17  and  C_22
REMARK    9  A    between atoms: O_25  and  C_26
REMARK   10  A    between atoms: C_28  and  C_53
REMARK   11  A    between atoms: C_29  and  O_30
REMARK   12  A    between atoms: O_30  and  C_31
REMARK   13  A    between atoms: C_33  and  C_45
REMARK   14  A    between atoms: C_34  and  O_39
REMARK   15  A    between atoms: C_35  and  O_37
REMARK   16  A    between atoms: C_35  and  C_38
REMARK   17  A    between atoms: O_39  and  C_40
REMARK   18  A    between atoms: C_40  and  C_41
REMARK   19  A    between atoms: C_41  and  C_42
REMARK   20  A    between atoms: C_42  and  C_43
REMARK   21  A    between atoms: C_42  and  C_57
REMARK   22  A    between atoms: C_47  and  N_50
REMARK   23  A    between atoms: C_48  and  O_49
REMARK   24  A    between atoms: N_50  and  C_51
REMARK   25  A    between atoms: N_50  and  C_52
REMARK   26  A    between atoms: O_55  and  C_56
REMARK   27  A    between atoms: C_58  and  C_60
REMARK                            x       y       z     vdW  Elec       q    Type
REMARK                         _______ _______ _______ _____ _____    ______ ____
ROOT
ATOM      1  O   UNL     1       1.932   0.793   0.000  0.00  0.00    +0.000 OA
ENDROOT
BRANCH   1   4
ATOM      2  C   UNL     1      -0.531   0.447   0.000  0.00  0.00    +0.000 C 
ATOM      3  C   UNL     1      -0.531   1.254   0.000  0.00  0.00    +0.000 C 
ATOM      4  C   UNL     1       0.182   1.669   0.000  0.00  0.00    +0.000 C 
ATOM      5  C   UNL     1       0.182   2.486   0.000  0.00  0.00    +0.000 C 
ATOM      6  C   UNL     1      -0.527   2.904   0.000  0.00  0.00    +0.000 C 
ATOM      7  C   UNL     1      -0.527   3.705   0.000  0.00  0.00    +0.000 C 
ATOM      8  C   UNL     1      -1.240   4.121   0.000  0.00  0.00    +0.000 C 
ATOM      9  C   UNL     1      -1.926   3.709   0.000  0.00  0.00    +0.000 C 
ATOM     10  C   UNL     1      -1.926   2.904   0.000  0.00  0.00    +0.000 C 
ATOM     11  C   UNL     1      -2.639   2.487   0.000  0.00  0.00    +0.000 C 
ATOM     12  C   UNL     1      -2.639   1.733   0.000  0.00  0.00    +0.000 C 
ATOM     13  C   UNL     1      -3.375   1.319   0.000  0.00  0.00    +0.000 C 
ATOM     14  C   UNL     1      -3.375   0.493   0.000  0.00  0.00    +0.000 C 
ATOM     15  O   UNL     1      -2.666   0.078   0.000  0.00  0.00    +0.000 OA
ATOM     16  C   UNL     1      -1.973   0.468   0.000  0.00  0.00    +0.000 C 
ATOM     17  C   UNL     1      -1.263   0.055   0.000  0.00  0.00    +0.000 C 
ATOM     18  O   UNL     1      -1.973   1.218   0.000  0.00  0.00    +0.000 OA
ATOM     19  C   UNL     1      -4.089   0.079   0.000  0.00  0.00    +0.000 C 
ATOM     20  O   UNL     1      -1.240   4.924   0.000  0.00  0.00    +0.000 OA
ATOM     21  C   UNL     1       0.112   4.074   0.000  0.00  0.00    +0.000 C 
ATOM     22  O   UNL     1      -3.225   2.237   0.000  0.00  0.00    +0.000 OA
BRANCH   3  23
ATOM     23  O   UNL     1      -1.295   1.693   0.000  0.00  0.00    +0.000 OA
ATOM     24  C   UNL     1      -1.295   2.494   0.000  0.00  0.00    +0.000 C 
ENDBRANCH   3  23
BRANCH   2  25
ATOM     25  O   UNL     1      -0.160  -0.205   0.000  0.00  0.00    +0.000 OA
BRANCH  25  26
ATOM     26  C   UNL     1      -0.744  -0.726   0.000  0.00  0.00    +0.000 C 
ATOM     27  O   UNL     1      -0.096  -1.023   0.000  0.00  0.00    +0.000 OA
ATOM     28  C   UNL     1      -1.446  -0.920   0.000  0.00  0.00    +0.000 C 
ENDBRANCH  25  26
ENDBRANCH   2  25
BRANCH   5  29
ATOM     29  C   UNL     1       0.900   2.852   0.000  0.00  0.00    +0.000 C 
BRANCH  29  30
ATOM     30  C   UNL     1       1.526   2.488   0.000  0.00  0.00    +0.000 C 
ATOM     31  O   UNL     1       2.147   2.852   0.000  0.00  0.00    +0.000 OA
ENDBRANCH  29  30
ENDBRANCH   5  29
ENDBRANCH   1   4
BRANCH   1  32
ATOM     32  C   UNL     1       1.932  -0.038   0.000  0.00  0.00    +0.000 C 
ATOM     33  O   UNL     1       1.247  -0.448   0.000  0.00  0.00    +0.000 OA
ATOM     34  C   UNL     1       1.247  -1.277   0.000  0.00  0.00    +0.000 C 
ATOM     35  C   UNL     1       1.935  -1.669   0.000  0.00  0.00    +0.000 C 
ATOM     36  C   UNL     1       2.668  -1.258   0.000  0.00  0.00    +0.000 C 
ATOM     37  C   UNL     1       2.668  -0.424   0.000  0.00  0.00    +0.000 C 
ATOM     38  C   UNL     1       0.534  -1.688   0.000  0.00  0.00    +0.000 C 
BRANCH  36  39
ATOM     39  N   UNL     1       3.379  -1.646   0.000  0.00  0.00    +0.000 NA
ATOM     40  C   UNL     1       3.379  -2.463   0.000  0.00  0.00    +0.000 C 
ATOM     41  C   UNL     1       4.089  -1.227   0.000  0.00  0.00    +0.000 C 
ENDBRANCH  36  39
BRANCH  37  42
ATOM     42  O   UNL     1       3.303  -0.106   0.000  0.00  0.00    +0.000 OA
ATOM     43  H   UNL     1       4.113  -0.640   0.000  0.00  0.00    +0.000 HD
ENDBRANCH  37  42
BRANCH  35  44
ATOM     44  O   UNL     1       1.935  -2.494   0.000  0.00  0.00    +0.000 OA
BRANCH  44  45
ATOM     45  C   UNL     1       1.211  -2.913   0.000  0.00  0.00    +0.000 C 
ATOM     46  O   UNL     1       0.471  -2.475   0.000  0.00  0.00    +0.000 OA
ATOM     47  C   UNL     1      -0.271  -2.895   0.000  0.00  0.00    +0.000 C 
ATOM     48  C   UNL     1      -0.271  -3.750   0.000  0.00  0.00    +0.000 C 
ATOM     49  C   UNL     1       0.455  -4.188   0.000  0.00  0.00    +0.000 C 
ATOM     50  C   UNL     1       1.211  -3.767   0.000  0.00  0.00    +0.000 C 
ATOM     51  C   UNL     1       0.876  -4.924   0.000  0.00  0.00    +0.000 C 
ATOM     52  C   UNL     1      -1.006  -2.456   0.000  0.00  0.00    +0.000 C 
BRANCH  49  53
ATOM     53  O   UNL     1       0.019  -4.924   0.000  0.00  0.00    +0.000 OA
ATOM     54  H   UNL     1      -0.951  -4.914   0.000  0.00  0.00    +0.000 HD
ENDBRANCH  49  53
BRANCH  48  55
ATOM     55  O   UNL     1      -1.033  -4.168   0.000  0.00  0.00    +0.000 OA
BRANCH  55  56
ATOM     56  C   UNL     1      -1.780  -3.737   0.000  0.00  0.00    +0.000 C 
ATOM     57  O   UNL     1      -1.780  -2.880   0.000  0.00  0.00    +0.000 OA
BRANCH  56  58
ATOM     58  C   UNL     1      -2.524  -4.161   0.000  0.00  0.00    +0.000 C 
BRANCH  58  59
ATOM     59  C   UNL     1      -3.273  -3.733   0.000  0.00  0.00    +0.000 C 
ATOM     60  C   UNL     1      -4.017  -4.157   0.000  0.00  0.00    +0.000 C 
ATOM     61  C   UNL     1      -3.273  -2.897   0.000  0.00  0.00    +0.000 C 
ENDBRANCH  58  59
ENDBRANCH  56  58
ENDBRANCH  55  56
ENDBRANCH  48  55
ENDBRANCH  44  45
ENDBRANCH  35  44
ENDBRANCH   1  32
TORSDOF 16
