REMARK  Name = 
REMARK  28 active torsions:
REMARK  status: ('A' for Active; 'I' for Inactive)
REMARK    1  A    between atoms: C_1  and  C_2
REMARK    2  A    between atoms: C_2  and  C_3
REMARK    3  A    between atoms: C_3  and  N_4
REMARK    4  A    between atoms: C_6  and  C_7
REMARK    5  A    between atoms: C_8  and  O_9
REMARK    6  A    between atoms: C_10  and  C_11
REMARK    7  A    between atoms: C_10  and  O_12
REMARK    8  A    between atoms: C_13  and  C_14
REMARK    9  A    between atoms: C_14  and  C_15
REMARK   10  A    between atoms: C_19  and  C_20
REMARK   11  A    between atoms: C_21  and  O_22
REMARK   12  A    between atoms: O_22  and  C_23
REMARK   13  A    between atoms: C_25  and  C_26
REMARK   14  A    between atoms: C_25  and  O_27
REMARK   15  A    between atoms: O_27  and  C_28
REMARK   16  A    between atoms: C_29  and  O_30
REMARK   17  A    between atoms: C_31  and  C_32
REMARK   18  A    between atoms: C_34  and  C_35
REMARK   19  A    between atoms: C_36  and  O_37
REMARK   20  A    between atoms: O_37  and  C_38
REMARK   21  A    between atoms: C_40  and  C_41
REMARK   22  A    between atoms: C_43  and  N_44
REMARK   23  A    between atoms: N_44  and  C_45
REMARK   24  A    between atoms: N_44  and  C_46
REMARK   25  A    between atoms: C_47  and  O_48
REMARK   26  A    between atoms: C_49  and  C_50
REMARK   27  A    between atoms: C_49  and  O_51
REMARK   28  A    between atoms: C_53  and  C_54
REMARK                            x       y       z     vdW  Elec       q    Type
REMARK                         _______ _______ _______ _____ _____    ______ ____
ROOT
ATOM      1  N   UNL     1       4.551   1.542   1.022  0.00  0.00    +0.000 NA
ATOM      2  C   UNL     1       4.636   0.789  -0.018  0.00  0.00    +0.000 C 
ATOM      3  C   UNL     1       4.707  -0.819   0.167  0.00  0.00    +0.000 C 
ATOM      4  C   UNL     1       6.089  -0.974  -0.652  0.00  0.00    +0.000 C 
ATOM      5  C   UNL     1       3.595  -0.930  -1.129  0.00  0.00    +0.000 C 
ATOM      6  C   UNL     1       3.709  -2.508  -1.473  0.00  0.00    +0.000 C 
ATOM      7  C   UNL     1       4.812  -3.223  -1.070  0.00  0.00    +0.000 C 
ATOM      8  C   UNL     1       2.223  -3.087  -1.074  0.00  0.00    +0.000 C 
ATOM      9  O   UNL     1       1.596  -1.695  -0.875  0.00  0.00    +0.000 OA
ATOM     10  C   UNL     1       0.953  -1.089  -1.932  0.00  0.00    +0.000 C 
ATOM     11  O   UNL     1       1.048  -0.048  -2.499  0.00  0.00    +0.000 OA
ATOM     12  C   UNL     1      -0.372  -1.945  -1.811  0.00  0.00    +0.000 C 
ATOM     13  C   UNL     1      -1.054  -1.322  -3.153  0.00  0.00    +0.000 C 
ATOM     14  C   UNL     1      -1.280  -0.935  -0.762  0.00  0.00    +0.000 C 
ATOM     15  C   UNL     1      -0.047  -0.285   0.191  0.00  0.00    +0.000 C 
ATOM     16  C   UNL     1      -1.035  -0.301   1.472  0.00  0.00    +0.000 C 
ATOM     17  C   UNL     1      -0.204   1.342  -0.274  0.00  0.00    +0.000 C 
ATOM     18  C   UNL     1       0.838   1.850   0.874  0.00  0.00    +0.000 C 
ATOM     19  C   UNL     1       0.416   1.599   2.216  0.00  0.00    +0.000 C 
ATOM     20  C   UNL     1       2.221   1.443   0.438  0.00  0.00    +0.000 C 
ATOM     21  C   UNL     1       3.225   2.260   1.438  0.00  0.00    +0.000 C 
ATOM     22  C   UNL     1       3.003   1.127   2.611  0.00  0.00    +0.000 C 
ENDROOT
BRANCH   5  23
ATOM     23  O   UNL     1       4.531  -0.481  -2.229  0.00  0.00    +0.000 OA
ATOM     24  H   UNL     1       5.352  -0.996  -2.186  0.00  0.00    +0.000 HD
ENDBRANCH   5  23
BRANCH   6  25
ATOM     25  O   UNL     1       3.380  -2.489  -2.849  0.00  0.00    +0.000 OA
ATOM     26  H   UNL     1       4.138  -2.162  -3.359  0.00  0.00    +0.000 HD
ENDBRANCH   6  25
BRANCH   8  27
ATOM     27  C   UNL     1       2.595  -3.235   0.522  0.00  0.00    +0.000 C 
ATOM     28  C   UNL     1       3.284  -4.590   0.629  0.00  0.00    +0.000 C 
ENDBRANCH   8  27
BRANCH  18  29
ATOM     29  O   UNL     1       0.812   3.267   0.788  0.00  0.00    +0.000 OA
ATOM     30  H   UNL     1      -0.061   3.592   1.059  0.00  0.00    +0.000 HD
ENDBRANCH  18  29
BRANCH   1  31
ATOM     31  C   UNL     1       5.385   1.571   2.165  0.00  0.00    +0.000 C 
BRANCH  31  33
ATOM     32  C   UNL     1       5.495   2.803   4.357  0.00  0.00    +0.000 C 
ATOM     33  C   UNL     1       5.115   2.882   2.904  0.00  0.00    +0.000 C 
ENDBRANCH  31  33
ENDBRANCH   1  31
BRANCH  14  34
ATOM     34  O   UNL     1      -1.202  -2.141   0.140  0.00  0.00    +0.000 OA
BRANCH  34  35
ATOM     35  C   UNL     1      -2.487  -2.885  -0.156  0.00  0.00    +0.000 C 
ATOM     36  C   UNL     1      -2.452  -3.429   1.422  0.00  0.00    +0.000 C 
ATOM     37  C   UNL     1      -3.581  -4.418   1.415  0.00  0.00    +0.000 C 
ATOM     38  C   UNL     1      -3.161  -5.753   0.954  0.00  0.00    +0.000 C 
ATOM     39  C   UNL     1      -4.518  -3.724   0.269  0.00  0.00    +0.000 C 
ATOM     40  C   UNL     1      -4.388  -2.218   1.110  0.00  0.00    +0.000 C 
ATOM     41  C   UNL     1      -5.605  -1.571   0.221  0.00  0.00    +0.000 C 
ATOM     42  O   UNL     1      -3.339  -1.666   0.182  0.00  0.00    +0.000 OA
BRANCH  37  43
ATOM     43  O   UNL     1      -4.172  -4.305   2.625  0.00  0.00    +0.000 OA
ATOM     44  C   UNL     1      -3.211  -4.486   3.596  0.00  0.00    +0.000 C 
ENDBRANCH  37  43
BRANCH  39  45
ATOM     45  O   UNL     1      -5.819  -4.049   0.964  0.00  0.00    +0.000 OA
ATOM     46  H   UNL     1      -5.740  -3.847   1.910  0.00  0.00    +0.000 HD
ENDBRANCH  39  45
ENDBRANCH  34  35
ENDBRANCH  14  34
BRANCH  17  47
ATOM     47  O   UNL     1      -1.418   1.725   0.510  0.00  0.00    +0.000 OA
BRANCH  47  48
ATOM     48  C   UNL     1      -2.429   2.257  -0.503  0.00  0.00    +0.000 C 
ATOM     49  O   UNL     1      -1.436   2.327  -1.628  0.00  0.00    +0.000 OA
ATOM     50  C   UNL     1      -2.075   3.144  -2.728  0.00  0.00    +0.000 C 
ATOM     51  C   UNL     1      -1.116   4.445  -2.332  0.00  0.00    +0.000 C 
ATOM     52  C   UNL     1      -3.490   3.549  -2.055  0.00  0.00    +0.000 C 
ATOM     53  C   UNL     1      -3.508   4.453  -0.748  0.00  0.00    +0.000 C 
ATOM     54  C   UNL     1      -2.046   3.889  -0.077  0.00  0.00    +0.000 C 
BRANCH  53  55
ATOM     55  N   UNL     1      -2.959   5.768  -1.421  0.00  0.00    +0.000 NA
ATOM     56  C   UNL     1      -3.908   6.004  -2.517  0.00  0.00    +0.000 C 
ATOM     57  C   UNL     1      -3.204   6.839  -0.488  0.00  0.00    +0.000 C 
ENDBRANCH  53  55
BRANCH  54  58
ATOM     58  O   UNL     1      -2.703   3.726   1.251  0.00  0.00    +0.000 OA
ATOM     59  H   UNL     1      -3.561   3.288   1.136  0.00  0.00    +0.000 HD
ENDBRANCH  54  58
ENDBRANCH  47  48
ENDBRANCH  17  47
TORSDOF 14
