REMARK  Name = 4632
REMARK  5 active torsions:
REMARK  status: ('A' for Active; 'I' for Inactive)
REMARK    1  A    between atoms: O_1  and  C_9
REMARK    2  A    between atoms: O_1  and  C_17
REMARK    3  A    between atoms: O_2  and  C_7
REMARK    4  A    between atoms: C_4  and  C_5
REMARK    5  A    between atoms: C_5  and  C_6
REMARK                            x       y       z     vdW  Elec       q    Type
REMARK                         _______ _______ _______ _____ _____    ______ ____
ROOT
ATOM      1  C   UNL     1       0.500  -0.595  -0.298  0.00  0.00    +0.000 A 
ATOM      2  C   UNL     1       1.095  -0.888   0.916  0.00  0.00    +0.000 A 
ATOM      3  C   UNL     1       1.174   0.103  -1.286  0.00  0.00    +0.000 A 
ATOM      4  C   UNL     1       3.099   0.236   0.168  0.00  0.00    +0.000 A 
ATOM      5  C   UNL     1       2.405  -0.469   1.151  0.00  0.00    +0.000 A 
ATOM      6  C   UNL     1       2.484   0.522  -1.051  0.00  0.00    +0.000 A 
ENDROOT
BRANCH   4   7
ATOM      7  O   UNL     1       4.377   0.646   0.398  0.00  0.00    +0.000 OA
ATOM      8  C   UNL     1       5.027   1.363  -0.650  0.00  0.00    +0.000 C 
ENDBRANCH   4   7
BRANCH   2   9
ATOM      9  O   UNL     1       0.435  -1.577   1.889  0.00  0.00    +0.000 OA
ATOM     10  H   UNL     1       1.020  -1.679   2.659  0.00  0.00    +0.000 HD
ENDBRANCH   2   9
BRANCH   1  12
ATOM     11  O   UNL     1      -1.102  -2.135  -1.096  0.00  0.00    +0.000 OA
ATOM     12  C   UNL     1      -0.885  -1.033  -0.570  0.00  0.00    +0.000 C 
BRANCH  12  13
ATOM     13  C   UNL     1      -2.016  -0.180  -0.243  0.00  0.00    +0.000 A 
ATOM     14  C   UNL     1      -1.803   1.065   0.348  0.00  0.00    +0.000 A 
ATOM     15  C   UNL     1      -3.315  -0.607  -0.520  0.00  0.00    +0.000 A 
ATOM     16  C   UNL     1      -2.888   1.883   0.662  0.00  0.00    +0.000 A 
ATOM     17  C   UNL     1      -4.400   0.211  -0.206  0.00  0.00    +0.000 A 
ATOM     18  C   UNL     1      -4.187   1.456   0.385  0.00  0.00    +0.000 A 
ENDBRANCH  12  13
ENDBRANCH   1  12
TORSDOF 4
