REMARK  Name = 
REMARK  29 active torsions:
REMARK  status: ('A' for Active; 'I' for Inactive)
REMARK    1  A    between atoms: C_1  and  C_2
REMARK    2  A    between atoms: C_2  and  O_4
REMARK    3  A    between atoms: O_4  and  C_5
REMARK    4  A    between atoms: C_7  and  C_8
REMARK    5  A    between atoms: C_9  and  O_10
REMARK    6  A    between atoms: O_10  and  C_11
REMARK    7  A    between atoms: C_11  and  C_13
REMARK    8  A    between atoms: C_13  and  O_14
REMARK    9  A    between atoms: C_13  and  C_15
REMARK   10  A    between atoms: C_15  and  C_16
REMARK   11  A    between atoms: C_15  and  N_20
REMARK   12  A    between atoms: C_16  and  C_17
REMARK   13  A    between atoms: C_17  and  C_18
REMARK   14  A    between atoms: C_17  and  C_19
REMARK   15  A    between atoms: C_21  and  O_23
REMARK   16  A    between atoms: O_23  and  C_24
REMARK   17  A    between atoms: C_24  and  C_25
REMARK   18  A    between atoms: C_24  and  C_26
REMARK   19  A    between atoms: C_24  and  C_27
REMARK   20  A    between atoms: C_34  and  O_35
REMARK   21  A    between atoms: O_35  and  C_36
REMARK   22  A    between atoms: C_36  and  C_38
REMARK   23  A    between atoms: C_45  and  O_46
REMARK   24  A    between atoms: O_46  and  C_47
REMARK   25  A    between atoms: C_47  and  C_48
REMARK   26  A    between atoms: C_54  and  O_55
REMARK   27  A    between atoms: C_56  and  C_57
REMARK   28  A    between atoms: C_60  and  C_61
REMARK   29  A    between atoms: C_60  and  C_62
REMARK                            x       y       z     vdW  Elec       q    Type
REMARK                         _______ _______ _______ _____ _____    ______ ____
ROOT
ATOM      1  C   UNL     1       0.313   3.218   0.000  0.00  0.00    +0.000 C 
ATOM      2  C   UNL     1      -0.322   1.859   0.000  0.00  0.00    +0.000 C 
ATOM      3  C   UNL     1      -1.311   0.718   0.000  0.00  0.00    +0.000 C 
ATOM      4  C   UNL     1      -2.741   1.170   0.000  0.00  0.00    +0.000 C 
ATOM      5  C   UNL     1      -0.988  -0.747   0.000  0.00  0.00    +0.000 C 
ATOM      6  C   UNL     1       0.443  -1.199   0.000  0.00  0.00    +0.000 C 
ATOM      7  O   UNL     1       1.064  -2.564   0.000  0.00  0.00    +0.000 OA
ATOM      8  C   UNL     1       2.554  -2.395   0.000  0.00  0.00    +0.000 C 
ATOM      9  O   UNL     1       3.567  -3.502   0.000  0.00  0.00    +0.000 OA
ATOM     10  O   UNL     1       2.854  -0.926   0.000  0.00  0.00    +0.000 OA
ATOM     11  C   UNL     1       1.549  -0.186   0.000  0.00  0.00    +0.000 C 
ATOM     12  C   UNL     1       2.959   0.326   0.000  0.00  0.00    +0.000 C 
ATOM     13  C   UNL     1       3.594   1.685   0.000  0.00  0.00    +0.000 C 
ATOM     14  C   UNL     1       5.071   1.423   0.000  0.00  0.00    +0.000 C 
ATOM     15  C   UNL     1       6.220   0.458   0.000  0.00  0.00    +0.000 C 
ATOM     16  O   UNL     1       7.185   1.607   0.000  0.00  0.00    +0.000 OA
ATOM     17  C   UNL     1       6.036   2.572   0.000  0.00  0.00    +0.000 C 
ATOM     18  C   UNL     1       5.524   3.982   0.000  0.00  0.00    +0.000 C 
ATOM     19  C   UNL     1       4.047   4.243   0.000  0.00  0.00    +0.000 C 
ATOM     20  C   UNL     1       3.082   3.095   0.000  0.00  0.00    +0.000 C 
ATOM     21  C   UNL     1       2.759   4.559   0.000  0.00  0.00    +0.000 C 
ATOM     22  C   UNL     1       1.723   3.730   0.000  0.00  0.00    +0.000 C 
ATOM     23  O   UNL     1       1.790   5.228   0.000  0.00  0.00    +0.000 OA
ATOM     24  C   UNL     1       0.190   0.449   0.000  0.00  0.00    +0.000 C 
ATOM     25  C   UNL     1      -1.228  -0.039   0.000  0.00  0.00    +0.000 C 
ATOM     26  C   UNL     1      -0.421  -0.921   0.000  0.00  0.00    +0.000 C 
ENDROOT
BRANCH  19  27
ATOM     27  O   UNL     1       3.535   5.653   0.000  0.00  0.00    +0.000 OA
ATOM     28  H   UNL     1       4.159   6.396   0.000  0.00  0.00    +0.000 HD
ENDBRANCH  19  27
BRANCH   1  29
ATOM     29  O   UNL     1      -0.699   4.324   0.000  0.00  0.00    +0.000 OA
BRANCH  29  31
ATOM     30  C   UNL     1      -1.260   6.861   0.000  0.00  0.00    +0.000 C 
ATOM     31  C   UNL     1      -0.247   5.755   0.000  0.00  0.00    +0.000 C 
ATOM     32  O   UNL     1       1.218   6.078   0.000  0.00  0.00    +0.000 OA
ENDBRANCH  29  31
ENDBRANCH   1  29
BRANCH   5  33
ATOM     33  O   UNL     1      -2.094  -1.759   0.000  0.00  0.00    +0.000 OA
BRANCH  33  34
ATOM     34  C   UNL     1      -3.524  -1.307   0.000  0.00  0.00    +0.000 C 
ATOM     35  O   UNL     1      -3.848   0.158   0.000  0.00  0.00    +0.000 OA
BRANCH  34  36
ATOM     36  C   UNL     1      -4.631  -2.320   0.000  0.00  0.00    +0.000 C 
BRANCH  36  37
ATOM     37  O   UNL     1      -4.308  -3.784   0.000  0.00  0.00    +0.000 OA
ATOM     38  H   UNL     1      -5.023  -4.439   0.000  0.00  0.00    +0.000 HD
ENDBRANCH  36  37
BRANCH  36  39
ATOM     39  C   UNL     1      -6.061  -1.868   0.000  0.00  0.00    +0.000 C 
BRANCH  39  40
ATOM     40  N   UNL     1      -6.385  -0.403   0.000  0.00  0.00    +0.000 N 
ATOM     41  C   UNL     1      -7.815   0.049   0.000  0.00  0.00    +0.000 C 
ATOM     42  O   UNL     1      -8.922  -0.963   0.000  0.00  0.00    +0.000 OA
ATOM     43  H   UNL     1      -5.659   0.262   0.000  0.00  0.00    +0.000 HD
BRANCH  41  44
ATOM     44  O   UNL     1      -8.139   1.514   0.000  0.00  0.00    +0.000 OA
BRANCH  44  45
ATOM     45  C   UNL     1      -9.569   1.966   0.000  0.00  0.00    +0.000 C 
ATOM     46  C   UNL     1      -9.117   3.396   0.000  0.00  0.00    +0.000 C 
ATOM     47  C   UNL     1     -10.021   0.536   0.000  0.00  0.00    +0.000 C 
ATOM     48  C   UNL     1     -10.999   2.418   0.000  0.00  0.00    +0.000 C 
ENDBRANCH  44  45
ENDBRANCH  41  44
ENDBRANCH  39  40
BRANCH  39  49
ATOM     49  C   UNL     1      -7.168  -2.880   0.000  0.00  0.00    +0.000 C 
BRANCH  49  50
ATOM     50  C   UNL     1      -6.844  -4.345   0.000  0.00  0.00    +0.000 C 
ATOM     51  C   UNL     1      -7.951  -5.357   0.000  0.00  0.00    +0.000 C 
ATOM     52  C   UNL     1      -5.414  -4.797   0.000  0.00  0.00    +0.000 C 
ENDBRANCH  49  50
ENDBRANCH  39  49
ENDBRANCH  36  39
ENDBRANCH  34  36
ENDBRANCH  33  34
ENDBRANCH   5  33
BRANCH  12  53
ATOM     53  O   UNL     1       3.972  -0.781   0.000  0.00  0.00    +0.000 OA
BRANCH  53  54
ATOM     54  C   UNL     1       3.520  -2.211   0.000  0.00  0.00    +0.000 C 
ATOM     55  O   UNL     1       2.806  -2.566   0.000  0.00  0.00    +0.000 OA
BRANCH  54  56
ATOM     56  C   UNL     1       4.532  -3.318   0.000  0.00  0.00    +0.000 A 
ATOM     57  C   UNL     1       5.997  -2.994   0.000  0.00  0.00    +0.000 A 
ATOM     58  C   UNL     1       7.010  -4.101   0.000  0.00  0.00    +0.000 A 
ATOM     59  C   UNL     1       6.558  -5.531   0.000  0.00  0.00    +0.000 A 
ATOM     60  C   UNL     1       5.093  -5.855   0.000  0.00  0.00    +0.000 A 
ATOM     61  C   UNL     1       4.080  -4.748   0.000  0.00  0.00    +0.000 A 
ENDBRANCH  54  56
ENDBRANCH  53  54
ENDBRANCH  12  53
BRANCH  14  62
ATOM     62  O   UNL     1       4.436   0.064   0.000  0.00  0.00    +0.000 OA
BRANCH  62  63
ATOM     63  C   UNL     1       5.296  -1.165   0.000  0.00  0.00    +0.000 C 
ATOM     64  C   UNL     1       4.661  -2.524   0.000  0.00  0.00    +0.000 C 
ATOM     65  O   UNL     1       6.790  -1.035   0.000  0.00  0.00    +0.000 OA
ENDBRANCH  62  63
ENDBRANCH  14  62
TORSDOF 18
