REMARK  Name = 
REMARK  28 active torsions:
REMARK  status: ('A' for Active; 'I' for Inactive)
REMARK    1  A    between atoms: C_1  and  C_2
REMARK    2  A    between atoms: C_2  and  C_3
REMARK    3  A    between atoms: C_3  and  O_5
REMARK    4  A    between atoms: O_5  and  C_6
REMARK    5  A    between atoms: C_9  and  O_58
REMARK    6  A    between atoms: C_13  and  C_57
REMARK    7  A    between atoms: C_16  and  O_56
REMARK    8  A    between atoms: C_18  and  C_55
REMARK    9  A    between atoms: C_19  and  O_36
REMARK   10  A    between atoms: C_21  and  O_35
REMARK   11  A    between atoms: C_22  and  O_23
REMARK   12  A    between atoms: O_23  and  C_24
REMARK   13  A    between atoms: C_24  and  C_26
REMARK   14  A    between atoms: C_32  and  C_33
REMARK   15  A    between atoms: C_32  and  C_34
REMARK   16  A    between atoms: O_36  and  C_37
REMARK   17  A    between atoms: C_37  and  C_39
REMARK   18  A    between atoms: C_39  and  C_40
REMARK   19  A    between atoms: C_39  and  O_54
REMARK   20  A    between atoms: C_40  and  C_41
REMARK   21  A    between atoms: C_40  and  N_46
REMARK   22  A    between atoms: C_47  and  O_49
REMARK   23  A    between atoms: O_49  and  C_50
REMARK   24  A    between atoms: C_50  and  C_51
REMARK   25  A    between atoms: C_50  and  C_52
REMARK   26  A    between atoms: C_50  and  C_53
REMARK   27  A    between atoms: O_58  and  C_59
REMARK   28  A    between atoms: C_59  and  C_61
REMARK                            x       y       z     vdW  Elec       q    Type
REMARK                         _______ _______ _______ _____ _____    ______ ____
ROOT
ATOM      1  C   UNL     1       4.561   2.836   0.000  0.00  0.00    +0.000 C 
ATOM      2  C   UNL     1       5.320   2.512   0.000  0.00  0.00    +0.000 C 
ATOM      3  C   UNL     1       5.418   1.692   0.000  0.00  0.00    +0.000 C 
ATOM      4  C   UNL     1       4.757   1.198   0.000  0.00  0.00    +0.000 C 
ATOM      5  C   UNL     1       5.252   0.538   0.000  0.00  0.00    +0.000 C 
ATOM      6  O   UNL     1       5.912   1.032   0.000  0.00  0.00    +0.000 OA
ATOM      7  C   UNL     1       3.999   1.523   0.000  0.00  0.00    +0.000 C 
ATOM      8  C   UNL     1       3.901   2.342   0.000  0.00  0.00    +0.000 C 
ATOM      9  C   UNL     1       3.219   2.853   0.000  0.00  0.00    +0.000 C 
ATOM     10  O   UNL     1       3.405   3.656   0.000  0.00  0.00    +0.000 OA
ATOM     11  C   UNL     1       2.377   2.695   0.000  0.00  0.00    +0.000 C 
ATOM     12  C   UNL     1       1.826   2.018   0.000  0.00  0.00    +0.000 C 
ATOM     13  C   UNL     1       1.099   1.546   0.000  0.00  0.00    +0.000 C 
ATOM     14  C   UNL     1       1.075   0.701   0.000  0.00  0.00    +0.000 C 
ATOM     15  C   UNL     1       1.824   0.310   0.000  0.00  0.00    +0.000 C 
ATOM     16  C   UNL     1       2.590   0.715   0.000  0.00  0.00    +0.000 C 
ATOM     17  C   UNL     1       3.450   0.866   0.000  0.00  0.00    +0.000 C 
ATOM     18  C   UNL     1       2.266   1.400   0.000  0.00  0.00    +0.000 C 
ATOM     19  C   UNL     1       3.082   1.518   0.000  0.00  0.00    +0.000 C 
ATOM     20  C   UNL     1       2.767   2.055   0.000  0.00  0.00    +0.000 C 
ATOM     21  C   UNL     1       0.380   1.950   0.000  0.00  0.00    +0.000 C 
ATOM     22  C   UNL     1       3.901   3.167   0.000  0.00  0.00    +0.000 C 
ENDROOT
BRANCH  16  23
ATOM     23  O   UNL     1       2.857  -0.066   0.000  0.00  0.00    +0.000 OA
ATOM     24  H   UNL     1       2.220  -0.797   0.000  0.00  0.00    +0.000 HD
ENDBRANCH  16  23
BRANCH  11  25
ATOM     25  O   UNL     1       1.956   3.404   0.000  0.00  0.00    +0.000 OA
ATOM     26  H   UNL     1       2.430   4.250   0.000  0.00  0.00    +0.000 HD
ENDBRANCH  11  25
BRANCH   1  27
ATOM     27  O   UNL     1       4.463   3.655   0.000  0.00  0.00    +0.000 OA
BRANCH  27  28
ATOM     28  C   UNL     1       5.123   4.150   0.000  0.00  0.00    +0.000 C 
ATOM     29  O   UNL     1       5.882   3.825   0.000  0.00  0.00    +0.000 OA
BRANCH  28  31
ATOM     30  C   UNL     1       5.686   5.464   0.000  0.00  0.00    +0.000 C 
ATOM     31  C   UNL     1       5.025   4.969   0.000  0.00  0.00    +0.000 C 
ENDBRANCH  28  31
ENDBRANCH  27  28
ENDBRANCH   1  27
BRANCH  17  32
ATOM     32  O   UNL     1       3.863   0.152   0.000  0.00  0.00    +0.000 OA
BRANCH  32  33
ATOM     33  C   UNL     1       3.452  -0.563   0.000  0.00  0.00    +0.000 C 
ATOM     34  O   UNL     1       2.627  -0.564   0.000  0.00  0.00    +0.000 OA
BRANCH  33  35
ATOM     35  C   UNL     1       3.865  -1.277   0.000  0.00  0.00    +0.000 A 
ATOM     36  C   UNL     1       4.690  -1.277   0.000  0.00  0.00    +0.000 A 
ATOM     37  C   UNL     1       5.103  -1.991   0.000  0.00  0.00    +0.000 A 
ATOM     38  C   UNL     1       4.691  -2.705   0.000  0.00  0.00    +0.000 A 
ATOM     39  C   UNL     1       3.866  -2.706   0.000  0.00  0.00    +0.000 A 
ATOM     40  C   UNL     1       3.453  -1.992   0.000  0.00  0.00    +0.000 A 
ENDBRANCH  33  35
ENDBRANCH  32  33
ENDBRANCH  17  32
BRANCH  14  41
ATOM     41  O   UNL     1       0.363   0.284   0.000  0.00  0.00    +0.000 OA
BRANCH  41  42
ATOM     42  C   UNL     1       0.369  -0.541   0.000  0.00  0.00    +0.000 C 
ATOM     43  O   UNL     1       1.086  -0.949   0.000  0.00  0.00    +0.000 OA
BRANCH  42  44
ATOM     44  C   UNL     1      -0.343  -0.959   0.000  0.00  0.00    +0.000 C 
BRANCH  44  45
ATOM     45  O   UNL     1      -1.060  -0.551   0.000  0.00  0.00    +0.000 OA
ATOM     46  H   UNL     1      -1.067   0.419   0.000  0.00  0.00    +0.000 HD
ENDBRANCH  44  45
BRANCH  44  47
ATOM     47  C   UNL     1      -0.337  -1.784   0.000  0.00  0.00    +0.000 C 
BRANCH  47  48
ATOM     48  C   UNL     1       0.380  -2.191   0.000  0.00  0.00    +0.000 A 
ATOM     49  C   UNL     1       1.131  -1.850   0.000  0.00  0.00    +0.000 A 
ATOM     50  C   UNL     1       1.688  -2.460   0.000  0.00  0.00    +0.000 A 
ATOM     51  C   UNL     1       1.280  -3.177   0.000  0.00  0.00    +0.000 A 
ATOM     52  O   UNL     1       0.472  -3.011   0.000  0.00  0.00    +0.000 OA
ENDBRANCH  47  48
BRANCH  47  53
ATOM     53  N   UNL     1      -1.049  -2.201   0.000  0.00  0.00    +0.000 N 
ATOM     54  C   UNL     1      -1.043  -3.026   0.000  0.00  0.00    +0.000 C 
ATOM     55  O   UNL     1      -0.326  -3.434   0.000  0.00  0.00    +0.000 OA
ATOM     56  H   UNL     1      -1.905  -1.715   0.000  0.00  0.00    +0.000 HD
BRANCH  54  57
ATOM     57  O   UNL     1      -1.755  -3.443   0.000  0.00  0.00    +0.000 OA
BRANCH  57  58
ATOM     58  C   UNL     1      -1.749  -4.269   0.000  0.00  0.00    +0.000 C 
ATOM     59  C   UNL     1      -1.743  -5.093   0.000  0.00  0.00    +0.000 C 
ATOM     60  C   UNL     1      -2.574  -4.274   0.000  0.00  0.00    +0.000 C 
ATOM     61  C   UNL     1      -0.924  -4.263   0.000  0.00  0.00    +0.000 C 
ENDBRANCH  57  58
ENDBRANCH  54  57
ENDBRANCH  47  53
ENDBRANCH  44  47
ENDBRANCH  42  44
ENDBRANCH  41  42
ENDBRANCH  14  41
BRANCH   4  62
ATOM     62  O   UNL     1       4.247   0.549   0.000  0.00  0.00    +0.000 OA
BRANCH  62  63
ATOM     63  C   UNL     1       4.554  -0.216   0.000  0.00  0.00    +0.000 C 
ATOM     64  O   UNL     1       4.044  -0.865   0.000  0.00  0.00    +0.000 OA
ATOM     65  C   UNL     1       5.371  -0.334   0.000  0.00  0.00    +0.000 C 
ENDBRANCH  62  63
ENDBRANCH   4  62
TORSDOF 19
