REMARK  Name = 638278
REMARK  6 active torsions:
REMARK  status: ('A' for Active; 'I' for Inactive)
REMARK    1  A    between atoms: O_1  and  C_7
REMARK    2  A    between atoms: O_2  and  C_14
REMARK    3  A    between atoms: O_4  and  C_19
REMARK    4  A    between atoms: C_5  and  C_8
REMARK    5  A    between atoms: C_6  and  C_10
REMARK    6  A    between atoms: C_8  and  C_11
REMARK                            x       y       z     vdW  Elec       q    Type
REMARK                         _______ _______ _______ _____ _____    ______ ____
ROOT
ATOM      1  O   UNL     1      -1.098  -2.332  -0.774  0.00  0.00    +0.000 OA
ATOM      2  C   UNL     1      -1.074  -1.143  -0.474  0.00  0.00    +0.000 C 
ENDROOT
BRANCH   2   3
ATOM      3  C   UNL     1      -2.347  -0.408  -0.280  0.00  0.00    +0.000 A 
ATOM      4  C   UNL     1      -2.944  -0.379   0.966  0.00  0.00    +0.000 A 
ATOM      5  C   UNL     1      -2.899   0.238  -1.369  0.00  0.00    +0.000 A 
ATOM      6  C   UNL     1      -4.139   0.322   1.129  0.00  0.00    +0.000 A 
ATOM      7  C   UNL     1      -4.094   0.939  -1.207  0.00  0.00    +0.000 A 
ATOM      8  C   UNL     1      -4.714   0.981   0.042  0.00  0.00    +0.000 A 
BRANCH   4   9
ATOM      9  O   UNL     1      -2.396  -1.014   2.041  0.00  0.00    +0.000 OA
ATOM     10  H   UNL     1      -1.589  -1.487   1.781  0.00  0.00    +0.000 HD
ENDBRANCH   4   9
BRANCH   8  11
ATOM     11  O   UNL     1      -5.881   1.663   0.200  0.00  0.00    +0.000 OA
ATOM     12  H   UNL     1      -6.168   1.586   1.126  0.00  0.00    +0.000 HD
ENDBRANCH   8  11
ENDBRANCH   2   3
BRANCH   2  14
ATOM     13  C   UNL     1       1.388  -1.020  -0.393  0.00  0.00    +0.000 C 
ATOM     14  C   UNL     1       0.196  -0.395  -0.260  0.00  0.00    +0.000 C 
BRANCH  13  15
ATOM     15  C   UNL     1       2.687  -0.399  -0.192  0.00  0.00    +0.000 A 
ATOM     16  C   UNL     1       2.814   0.989  -0.249  0.00  0.00    +0.000 A 
ATOM     17  C   UNL     1       3.808  -1.192   0.057  0.00  0.00    +0.000 A 
ATOM     18  C   UNL     1       4.061   1.584  -0.057  0.00  0.00    +0.000 A 
ATOM     19  C   UNL     1       5.054  -0.597   0.249  0.00  0.00    +0.000 A 
ATOM     20  C   UNL     1       5.181   0.791   0.192  0.00  0.00    +0.000 A 
BRANCH  20  21
ATOM     21  O   UNL     1       6.397   1.372   0.380  0.00  0.00    +0.000 OA
ATOM     22  H   UNL     1       6.300   2.337   0.307  0.00  0.00    +0.000 HD
ENDBRANCH  20  21
ENDBRANCH  13  15
ENDBRANCH   2  14
TORSDOF 6
