REMARK  Name = 
REMARK  25 active torsions:
REMARK  status: ('A' for Active; 'I' for Inactive)
REMARK    1  A    between atoms: C_1  and  C_2
REMARK    2  A    between atoms: C_2  and  C_3
REMARK    3  A    between atoms: C_7  and  C_8
REMARK    4  A    between atoms: C_9  and  O_10
REMARK    5  A    between atoms: O_10  and  C_11
REMARK    6  A    between atoms: C_13  and  C_14
REMARK    7  A    between atoms: C_13  and  O_15
REMARK    8  A    between atoms: O_15  and  C_16
REMARK    9  A    between atoms: C_17  and  O_18
REMARK   10  A    between atoms: C_19  and  C_20
REMARK   11  A    between atoms: C_22  and  C_23
REMARK   12  A    between atoms: C_24  and  O_25
REMARK   13  A    between atoms: O_25  and  C_26
REMARK   14  A    between atoms: C_28  and  C_29
REMARK   15  A    between atoms: C_31  and  N_32
REMARK   16  A    between atoms: N_32  and  C_33
REMARK   17  A    between atoms: N_32  and  C_34
REMARK   18  A    between atoms: C_35  and  O_36
REMARK   19  A    between atoms: C_37  and  C_38
REMARK   20  A    between atoms: C_37  and  O_39
REMARK   21  A    between atoms: C_41  and  C_42
REMARK   22  A    between atoms: C_46  and  C_47
REMARK   23  A    between atoms: C_48  and  O_49
REMARK   24  A    between atoms: C_50  and  C_51
REMARK   25  A    between atoms: C_50  and  O_52
REMARK                            x       y       z     vdW  Elec       q    Type
REMARK                         _______ _______ _______ _____ _____    ______ ____
ROOT
ATOM      1  C   UNL     1       2.000   3.977   1.160  0.00  0.00    +0.000 C 
ATOM      2  O   UNL     1       1.129   2.887   0.512  0.00  0.00    +0.000 OA
ATOM      3  C   UNL     1       2.056   1.974  -0.019  0.00  0.00    +0.000 C 
ATOM      4  O   UNL     1       1.942   1.628  -1.205  0.00  0.00    +0.000 OA
ATOM      5  C   UNL     1       1.513   1.004   1.146  0.00  0.00    +0.000 C 
ATOM      6  C   UNL     1       3.024   0.639   1.610  0.00  0.00    +0.000 C 
ATOM      7  C   UNL     1       1.207  -0.315   0.067  0.00  0.00    +0.000 C 
ATOM      8  C   UNL     1      -0.276  -0.576   0.865  0.00  0.00    +0.000 C 
ATOM      9  C   UNL     1      -0.059  -2.108   1.296  0.00  0.00    +0.000 C 
ATOM     10  C   UNL     1      -1.156  -1.077  -0.527  0.00  0.00    +0.000 C 
ATOM     11  C   UNL     1      -1.658   0.419  -1.001  0.00  0.00    +0.000 C 
ATOM     12  C   UNL     1      -3.115   0.280  -1.400  0.00  0.00    +0.000 C 
ATOM     13  C   UNL     1      -1.616   1.404   0.003  0.00  0.00    +0.000 C 
ATOM     14  C   UNL     1      -2.001   2.745  -0.624  0.00  0.00    +0.000 C 
ATOM     15  C   UNL     1      -3.487   2.841  -0.900  0.00  0.00    +0.000 C 
ATOM     16  F   UNL     1      -1.395   2.879  -1.851  0.00  0.00    +0.000 F 
ATOM     17  C   UNL     1      -1.699   3.813   0.318  0.00  0.00    +0.000 C 
ATOM     18  O   UNL     1      -2.552   4.138   1.138  0.00  0.00    +0.000 OA
ATOM     19  C   UNL     1      -0.924   5.155  -0.092  0.00  0.00    +0.000 C 
ATOM     20  C   UNL     1      -1.815   5.331  -1.449  0.00  0.00    +0.000 C 
ATOM     21  C   UNL     1       0.407   4.373  -0.880  0.00  0.00    +0.000 C 
ATOM     22  C   UNL     1       1.584   5.097   0.015  0.00  0.00    +0.000 C 
ATOM     23  C   UNL     1       1.185   6.323   0.551  0.00  0.00    +0.000 C 
ENDROOT
BRANCH   1  25
ATOM     24  C   UNL     1       1.024   5.023   2.719  0.00  0.00    +0.000 C 
ATOM     25  C   UNL     1       0.803   4.499   2.196  0.00  0.00    +0.000 C 
ENDBRANCH   1  25
BRANCH  11  26
ATOM     26  O   UNL     1      -1.000   0.570  -2.203  0.00  0.00    +0.000 OA
ATOM     27  H   UNL     1      -1.152  -0.213  -2.755  0.00  0.00    +0.000 HD
ENDBRANCH  11  26
BRANCH  21  28
ATOM     28  O   UNL     1       0.535   5.460  -1.939  0.00  0.00    +0.000 OA
ATOM     29  H   UNL     1       0.530   6.330  -1.511  0.00  0.00    +0.000 HD
ENDBRANCH  21  28
BRANCH  22  30
ATOM     30  O   UNL     1       2.654   4.933  -0.816  0.00  0.00    +0.000 OA
ATOM     31  H   UNL     1       2.571   5.536  -1.572  0.00  0.00    +0.000 HD
ENDBRANCH  22  30
BRANCH   7  32
ATOM     32  O   UNL     1       2.060  -1.337   0.797  0.00  0.00    +0.000 OA
BRANCH  32  33
ATOM     33  C   UNL     1       2.716  -1.788  -0.550  0.00  0.00    +0.000 C 
ATOM     34  C   UNL     1       4.295  -1.405  -0.084  0.00  0.00    +0.000 C 
ATOM     35  C   UNL     1       5.121  -2.442  -0.717  0.00  0.00    +0.000 C 
ATOM     36  C   UNL     1       4.561  -3.001  -1.980  0.00  0.00    +0.000 C 
ATOM     37  C   UNL     1       5.119  -3.656   0.396  0.00  0.00    +0.000 C 
ATOM     38  C   UNL     1       3.660  -3.088   1.162  0.00  0.00    +0.000 C 
ATOM     39  C   UNL     1       3.273  -4.597   1.702  0.00  0.00    +0.000 C 
ATOM     40  O   UNL     1       2.855  -3.270  -0.107  0.00  0.00    +0.000 OA
BRANCH  35  41
ATOM     41  O   UNL     1       6.422  -2.065  -0.889  0.00  0.00    +0.000 OA
ATOM     42  C   UNL     1       6.759  -0.886  -0.204  0.00  0.00    +0.000 C 
ENDBRANCH  35  41
BRANCH  37  43
ATOM     43  O   UNL     1       5.971  -2.845   1.358  0.00  0.00    +0.000 OA
ATOM     44  H   UNL     1       5.615  -1.945   1.427  0.00  0.00    +0.000 HD
ENDBRANCH  37  43
ENDBRANCH  32  33
ENDBRANCH   7  32
BRANCH  10  45
ATOM     45  O   UNL     1      -2.405  -1.333   0.312  0.00  0.00    +0.000 OA
BRANCH  45  46
ATOM     46  C   UNL     1      -2.554  -2.851   0.067  0.00  0.00    +0.000 C 
ATOM     47  O   UNL     1      -3.330  -2.626  -1.249  0.00  0.00    +0.000 OA
ATOM     48  C   UNL     1      -3.464  -4.111  -1.597  0.00  0.00    +0.000 C 
ATOM     49  C   UNL     1      -4.127  -3.760  -3.085  0.00  0.00    +0.000 C 
ATOM     50  C   UNL     1      -4.964  -4.166  -0.870  0.00  0.00    +0.000 C 
ATOM     51  C   UNL     1      -4.325  -4.510   0.604  0.00  0.00    +0.000 C 
ATOM     52  C   UNL     1      -4.043  -2.855   0.968  0.00  0.00    +0.000 C 
BRANCH  51  53
ATOM     53  N   UNL     1      -5.726  -4.491   1.314  0.00  0.00    +0.000 NA
ATOM     54  C   UNL     1      -6.413  -3.313   0.875  0.00  0.00    +0.000 C 
ATOM     55  C   UNL     1      -6.423  -5.672   0.855  0.00  0.00    +0.000 C 
ENDBRANCH  51  53
BRANCH  52  56
ATOM     56  O   UNL     1      -3.346  -3.248   2.237  0.00  0.00    +0.000 OA
ATOM     57  H   UNL     1      -2.727  -3.972   2.055  0.00  0.00    +0.000 HD
ENDBRANCH  52  56
ENDBRANCH  45  46
ENDBRANCH  10  45
TORSDOF 12
