REMARK  Name = 
REMARK  27 active torsions:
REMARK  status: ('A' for Active; 'I' for Inactive)
REMARK    1  A    between atoms: C_1  and  C_2
REMARK    2  A    between atoms: C_2  and  C_3
REMARK    3  A    between atoms: C_3  and  O_5
REMARK    4  A    between atoms: O_5  and  C_6
REMARK    5  A    between atoms: C_11  and  C_12
REMARK    6  A    between atoms: C_18  and  O_19
REMARK    7  A    between atoms: C_20  and  C_21
REMARK    8  A    between atoms: C_23  and  C_24
REMARK    9  A    between atoms: C_24  and  C_25
REMARK   10  A    between atoms: C_27  and  O_28
REMARK   11  A    between atoms: O_28  and  C_29
REMARK   12  A    between atoms: C_31  and  C_32
REMARK   13  A    between atoms: C_33  and  O_34
REMARK   14  A    between atoms: O_34  and  C_35
REMARK   15  A    between atoms: C_37  and  C_38
REMARK   16  A    between atoms: C_37  and  O_39
REMARK   17  A    between atoms: C_40  and  O_41
REMARK   18  A    between atoms: O_41  and  C_42
REMARK   19  A    between atoms: C_42  and  C_44
REMARK   20  A    between atoms: C_44  and  C_45
REMARK   21  A    between atoms: C_46  and  C_47
REMARK   22  A    between atoms: C_49  and  N_50
REMARK   23  A    between atoms: N_50  and  C_51
REMARK   24  A    between atoms: N_50  and  C_52
REMARK   25  A    between atoms: C_53  and  O_54
REMARK   26  A    between atoms: C_55  and  O_56
REMARK   27  A    between atoms: O_56  and  C_57
REMARK                            x       y       z     vdW  Elec       q    Type
REMARK                         _______ _______ _______ _____ _____    ______ ____
ROOT
ATOM      1  C   UNL     1      -3.825   1.246   1.308  0.00  0.00    +0.000 C 
ATOM      2  C   UNL     1      -4.492   0.312   2.483  0.00  0.00    +0.000 C 
ATOM      3  C   UNL     1      -5.891   0.298   1.940  0.00  0.00    +0.000 C 
ATOM      4  O   UNL     1      -6.596   1.274   2.298  0.00  0.00    +0.000 OA
ATOM      5  O   UNL     1      -6.041  -0.402   0.733  0.00  0.00    +0.000 OA
ATOM      6  C   UNL     1      -6.043  -1.870   1.206  0.00  0.00    +0.000 C 
ATOM      7  C   UNL     1      -4.469  -2.099   0.789  0.00  0.00    +0.000 C 
ATOM      8  C   UNL     1      -6.587  -2.501  -0.208  0.00  0.00    +0.000 C 
ATOM      9  C   UNL     1      -6.343  -1.694  -1.330  0.00  0.00    +0.000 C 
ATOM     10  C   UNL     1      -7.079  -1.257  -2.314  0.00  0.00    +0.000 C 
ATOM     11  C   UNL     1      -6.151  -1.075  -3.414  0.00  0.00    +0.000 C 
ATOM     12  C   UNL     1      -5.274  -0.549  -3.877  0.00  0.00    +0.000 C 
ATOM     13  C   UNL     1      -3.919   0.197  -3.469  0.00  0.00    +0.000 C 
ATOM     14  C   UNL     1      -4.654   0.652  -1.981  0.00  0.00    +0.000 C 
ATOM     15  C   UNL     1      -4.504   2.245  -2.368  0.00  0.00    +0.000 C 
ATOM     16  C   UNL     1      -3.455   0.732  -1.046  0.00  0.00    +0.000 C 
ATOM     17  C   UNL     1      -2.108   0.030  -0.818  0.00  0.00    +0.000 C 
ATOM     18  C   UNL     1      -1.730   1.439   0.098  0.00  0.00    +0.000 C 
ATOM     19  C   UNL     1      -2.184   0.857   1.635  0.00  0.00    +0.000 C 
ENDROOT
BRANCH  13  20
ATOM     20  O   UNL     1      -3.345  -1.082  -2.899  0.00  0.00    +0.000 OA
ATOM     21  H   UNL     1      -4.021  -1.529  -2.366  0.00  0.00    +0.000 HD
ENDBRANCH  13  20
BRANCH  19  22
ATOM     22  O   UNL     1      -1.774   2.150   2.247  0.00  0.00    +0.000 OA
ATOM     23  C   UNL     1      -1.487   1.888   3.591  0.00  0.00    +0.000 C 
ENDBRANCH  19  22
BRANCH   1  24
ATOM     24  O   UNL     1      -3.929   2.569   2.071  0.00  0.00    +0.000 OA
BRANCH  24  25
ATOM     25  C   UNL     1      -4.357   3.515   1.201  0.00  0.00    +0.000 C 
ATOM     26  O   UNL     1      -5.220   3.222   0.307  0.00  0.00    +0.000 OA
BRANCH  25  28
ATOM     27  C   UNL     1      -4.506   5.089   0.265  0.00  0.00    +0.000 C 
ATOM     28  C   UNL     1      -3.746   4.771   0.716  0.00  0.00    +0.000 C 
ENDBRANCH  25  28
ENDBRANCH  24  25
ENDBRANCH   1  24
BRANCH  17  29
ATOM     29  C   UNL     1      -2.607  -0.921   0.397  0.00  0.00    +0.000 C 
BRANCH  29  30
ATOM     30  C   UNL     1      -2.618  -2.276   0.140  0.00  0.00    +0.000 C 
ATOM     31  O   UNL     1      -2.213  -3.304   0.556  0.00  0.00    +0.000 OA
ENDBRANCH  29  30
ENDBRANCH  17  29
BRANCH  18  32
ATOM     32  O   UNL     1      -0.260   1.240   0.213  0.00  0.00    +0.000 OA
BRANCH  32  33
ATOM     33  C   UNL     1      -0.033  -0.248   0.326  0.00  0.00    +0.000 C 
ATOM     34  O   UNL     1       0.990  -0.139   1.403  0.00  0.00    +0.000 OA
ATOM     35  C   UNL     1       2.289   0.526   1.224  0.00  0.00    +0.000 C 
ATOM     36  C   UNL     1       2.012   1.604   0.002  0.00  0.00    +0.000 C 
ATOM     37  C   UNL     1       3.103  -0.580   0.168  0.00  0.00    +0.000 C 
ATOM     38  C   UNL     1       1.792  -1.638  -0.030  0.00  0.00    +0.000 C 
ATOM     39  C   UNL     1       1.111  -0.401  -0.975  0.00  0.00    +0.000 C 
BRANCH  38  40
ATOM     40  N   UNL     1       2.490  -2.454  -1.128  0.00  0.00    +0.000 NA
ATOM     41  C   UNL     1       2.668  -3.635  -0.249  0.00  0.00    +0.000 C 
ATOM     42  C   UNL     1       1.590  -3.099  -2.027  0.00  0.00    +0.000 C 
ENDBRANCH  38  40
BRANCH  39  43
ATOM     43  O   UNL     1       0.209  -1.270  -1.780  0.00  0.00    +0.000 OA
ATOM     44  H   UNL     1      -0.214  -1.923  -1.200  0.00  0.00    +0.000 HD
ENDBRANCH  39  43
BRANCH  37  45
ATOM     45  O   UNL     1       3.642  -1.371   1.305  0.00  0.00    +0.000 OA
BRANCH  45  46
ATOM     46  C   UNL     1       5.163  -1.157   1.216  0.00  0.00    +0.000 C 
ATOM     47  C   UNL     1       5.250  -1.203  -0.455  0.00  0.00    +0.000 C 
ATOM     48  C   UNL     1       6.731  -1.351  -0.528  0.00  0.00    +0.000 C 
ATOM     49  C   UNL     1       7.119  -2.627   0.199  0.00  0.00    +0.000 C 
ATOM     50  C   UNL     1       7.220  -0.212   0.526  0.00  0.00    +0.000 C 
ATOM     51  C   UNL     1       5.899   0.823   0.137  0.00  0.00    +0.000 C 
ATOM     52  C   UNL     1       6.551   2.030   1.033  0.00  0.00    +0.000 C 
ATOM     53  O   UNL     1       5.041   0.366   1.285  0.00  0.00    +0.000 OA
BRANCH  48  54
ATOM     54  O   UNL     1       7.345  -1.306  -1.691  0.00  0.00    +0.000 OA
ATOM     55  H   UNL     1       7.003  -2.011  -2.263  0.00  0.00    +0.000 HD
ENDBRANCH  48  54
BRANCH  50  56
ATOM     56  O   UNL     1       8.103   0.537  -0.474  0.00  0.00    +0.000 OA
BRANCH  56  57
ATOM     57  C   UNL     1       9.383   0.802  -0.056  0.00  0.00    +0.000 C 
ATOM     58  O   UNL     1       9.673   0.831   1.171  0.00  0.00    +0.000 OA
BRANCH  57  59
ATOM     59  C   UNL     1      10.555   0.748  -0.979  0.00  0.00    +0.000 C 
ATOM     60  C   UNL     1      11.509  -0.268  -0.366  0.00  0.00    +0.000 C 
ENDBRANCH  57  59
ENDBRANCH  56  57
ENDBRANCH  50  56
ENDBRANCH  45  46
ENDBRANCH  37  45
ENDBRANCH  32  33
ENDBRANCH  18  32
TORSDOF 17
