REMARK  Name = 9870520
REMARK  11 active torsions:
REMARK  status: ('A' for Active; 'I' for Inactive)
REMARK    1  A    between atoms: N_4  and  C_11
REMARK    2  A    between atoms: N_6  and  C_18
REMARK    3  A    between atoms: N_8  and  C_29
REMARK    4  A    between atoms: N_9  and  C_34
REMARK    5  A    between atoms: N_9  and  C_37
REMARK    6  A    between atoms: C_10  and  C_12
REMARK    7  A    between atoms: C_10  and  C_13
REMARK    8  A    between atoms: C_10  and  C_14
REMARK    9  A    between atoms: C_10  and  C_15
REMARK   10  A    between atoms: C_11  and  C_12
REMARK   11  A    between atoms: C_20  and  C_24
REMARK                            x       y       z     vdW  Elec       q    Type
REMARK                         _______ _______ _______ _____ _____    ______ ____
ROOT
ATOM      1  O   UNL     1      -0.030   0.587   2.094  0.00  0.00    +0.000 OA
ATOM      2  N   UNL     1       1.537   1.246   0.507  0.00  0.00    +0.000 N 
ATOM      3  N   UNL     1       1.358  -1.786   0.451  0.00  0.00    +0.000 NA
ATOM      4  C   UNL     1       2.343   0.949  -0.645  0.00  0.00    +0.000 A 
ATOM      5  C   UNL     1       0.571   0.376   1.037  0.00  0.00    +0.000 C 
ATOM      6  C   UNL     1       0.273  -0.859   0.204  0.00  0.00    +0.000 C 
ATOM      7  C   UNL     1       2.757  -0.357  -0.979  0.00  0.00    +0.000 A 
ATOM      8  C   UNL     1       2.499  -1.532  -0.095  0.00  0.00    +0.000 C 
ATOM      9  C   UNL     1       2.765   2.000  -1.483  0.00  0.00    +0.000 A 
ATOM     10  C   UNL     1       3.497  -0.594  -2.152  0.00  0.00    +0.000 A 
ATOM     11  C   UNL     1       3.517   1.760  -2.636  0.00  0.00    +0.000 A 
ATOM     12  C   UNL     1       3.872   0.462  -2.977  0.00  0.00    +0.000 A 
ENDROOT
BRANCH   6  14
ATOM     13  O   UNL     1      -2.342  -0.256  -0.795  0.00  0.00    +0.000 OA
ATOM     14  N   UNL     1      -0.970  -1.430   0.650  0.00  0.00    +0.000 N 
ATOM     15  N   UNL     1      -3.239  -1.793   0.736  0.00  0.00    +0.000 N 
ATOM     16  C   UNL     1      -2.214  -1.080   0.107  0.00  0.00    +0.000 C 
ATOM     17  H   UNL     1      -0.941  -2.096   1.415  0.00  0.00    +0.000 HD
ATOM     18  H   UNL     1      -2.960  -2.441   1.468  0.00  0.00    +0.000 HD
BRANCH  15  19
ATOM     19  C   UNL     1      -4.628  -1.726   0.477  0.00  0.00    +0.000 A 
ATOM     20  C   UNL     1      -5.095  -0.870  -0.506  0.00  0.00    +0.000 A 
ATOM     21  C   UNL     1      -5.494  -2.519   1.213  0.00  0.00    +0.000 A 
ATOM     22  C   UNL     1      -6.465  -0.803  -0.760  0.00  0.00    +0.000 A 
ATOM     23  C   UNL     1      -6.863  -2.453   0.959  0.00  0.00    +0.000 A 
ATOM     24  C   UNL     1      -7.349  -1.595  -0.028  0.00  0.00    +0.000 A 
BRANCH  22  25
ATOM     25  N   UNL     1      -6.956   0.064  -1.758  0.00  0.00    +0.000 N 
ATOM     26  C   UNL     1      -6.311   1.293  -2.105  0.00  0.00    +0.000 C 
ATOM     27  H   UNL     1      -7.941  -0.026  -1.983  0.00  0.00    +0.000 HD
ENDBRANCH  22  25
ENDBRANCH  15  19
ENDBRANCH   6  14
BRANCH   8  29
ATOM     28  N   UNL     1       4.847  -1.925   0.198  0.00  0.00    +0.000 NA
ATOM     29  C   UNL     1       3.617  -2.475   0.198  0.00  0.00    +0.000 A 
ATOM     30  C   UNL     1       3.346  -3.805   0.444  0.00  0.00    +0.000 A 
ATOM     31  C   UNL     1       4.425  -4.641   0.711  0.00  0.00    +0.000 A 
ATOM     32  C   UNL     1       5.870  -2.768   0.461  0.00  0.00    +0.000 A 
ATOM     33  C   UNL     1       5.715  -4.120   0.722  0.00  0.00    +0.000 A 
ENDBRANCH   8  29
BRANCH   2  34
ATOM     34  C   UNL     1       1.690   2.562   1.130  0.00  0.00    +0.000 C 
BRANCH  34  36
ATOM     35  O   UNL     1       0.022   3.184  -0.475  0.00  0.00    +0.000 OA
ATOM     36  C   UNL     1       0.727   3.536   0.474  0.00  0.00    +0.000 C 
BRANCH  36  37
ATOM     37  C   UNL     1       0.686   4.982   1.011  0.00  0.00    +0.000 C 
ATOM     38  C   UNL     1       2.074   5.616   0.853  0.00  0.00    +0.000 C 
ATOM     39  C   UNL     1       0.314   4.968   2.504  0.00  0.00    +0.000 C 
ATOM     40  C   UNL     1      -0.367   5.803   0.254  0.00  0.00    +0.000 C 
ENDBRANCH  36  37
ENDBRANCH  34  36
ENDBRANCH   2  34
TORSDOF 7
