REMARK  Name = 102232
REMARK  13 active torsions:
REMARK  status: ('A' for Active; 'I' for Inactive)
REMARK    1  A    between atoms: O_1  and  C_10
REMARK    2  A    between atoms: O_1  and  C_23
REMARK    3  A    between atoms: O_2  and  C_14
REMARK    4  A    between atoms: O_2  and  C_24
REMARK    5  A    between atoms: O_4  and  C_26
REMARK    6  A    between atoms: O_4  and  C_31
REMARK    7  A    between atoms: C_7  and  C_17
REMARK    8  A    between atoms: C_23  and  C_27
REMARK    9  A    between atoms: C_24  and  C_28
REMARK   10  A    between atoms: C_27  and  C_29
REMARK   11  A    between atoms: C_28  and  C_30
REMARK   12  A    between atoms: C_31  and  C_32
REMARK   13  A    between atoms: C_32  and  C_33
REMARK                            x       y       z     vdW  Elec       q    Type
REMARK                         _______ _______ _______ _____ _____    ______ ____
ROOT
ATOM      1  C   UNL     1      -1.601  -0.967   0.211  0.00  0.00    +0.000 C 
ATOM      2  C   UNL     1      -1.119   0.440  -0.199  0.00  0.00    +0.000 C 
ATOM      3  C   UNL     1       0.388   0.615  -0.003  0.00  0.00    +0.000 C 
ATOM      4  C   UNL     1      -3.110  -0.790  -0.045  0.00  0.00    +0.000 C 
ATOM      5  C   UNL     1       1.132  -0.415  -0.906  0.00  0.00    +0.000 C 
ATOM      6  C   UNL     1      -2.082   1.379   0.530  0.00  0.00    +0.000 C 
ATOM      7  C   UNL     1      -0.911  -1.990  -0.700  0.00  0.00    +0.000 C 
ATOM      8  C   UNL     1      -3.421   0.613   0.521  0.00  0.00    +0.000 C 
ATOM      9  C   UNL     1       0.624  -1.860  -0.650  0.00  0.00    +0.000 C 
ATOM     10  C   UNL     1       0.867   2.024  -0.358  0.00  0.00    +0.000 C 
ATOM     11  C   UNL     1      -1.340  -1.339   1.693  0.00  0.00    +0.000 C 
ATOM     12  C   UNL     1       2.645  -0.237  -0.816  0.00  0.00    +0.000 A 
ATOM     13  C   UNL     1       2.344   2.173  -0.006  0.00  0.00    +0.000 C 
ATOM     14  C   UNL     1       3.199   1.004  -0.431  0.00  0.00    +0.000 A 
ATOM     15  C   UNL     1       3.524  -1.267  -1.196  0.00  0.00    +0.000 A 
ATOM     16  C   UNL     1       4.595   1.165  -0.386  0.00  0.00    +0.000 A 
ATOM     17  C   UNL     1       4.909  -1.091  -1.155  0.00  0.00    +0.000 A 
ATOM     18  C   UNL     1       5.445   0.123  -0.746  0.00  0.00    +0.000 A 
ENDROOT
BRANCH   4  19
ATOM     19  O   UNL     1      -3.910  -1.770   0.592  0.00  0.00    +0.000 OA
BRANCH  19  21
ATOM     20  O   UNL     1      -5.548  -1.502  -1.010  0.00  0.00    +0.000 OA
ATOM     21  C   UNL     1      -5.120  -2.038   0.003  0.00  0.00    +0.000 C 
BRANCH  21  22
ATOM     22  C   UNL     1      -5.844  -3.098   0.799  0.00  0.00    +0.000 C 
ATOM     23  C   UNL     1      -7.204  -3.428   0.208  0.00  0.00    +0.000 C 
ENDBRANCH  21  22
ENDBRANCH  19  21
ENDBRANCH   4  19
BRANCH   8  24
ATOM     24  O   UNL     1      -4.362   1.258  -0.328  0.00  0.00    +0.000 OA
BRANCH  24  26
ATOM     25  O   UNL     1      -5.154   2.482   1.460  0.00  0.00    +0.000 OA
ATOM     26  C   UNL     1      -5.177   2.180   0.275  0.00  0.00    +0.000 C 
BRANCH  26  27
ATOM     27  C   UNL     1      -6.111   2.769  -0.756  0.00  0.00    +0.000 C 
ATOM     28  C   UNL     1      -7.059   3.789  -0.152  0.00  0.00    +0.000 C 
ENDBRANCH  26  27
ENDBRANCH  24  26
ENDBRANCH   8  24
BRANCH  18  29
ATOM     29  O   UNL     1       6.794   0.295  -0.702  0.00  0.00    +0.000 OA
BRANCH  29  31
ATOM     30  O   UNL     1       6.777  -0.468   1.508  0.00  0.00    +0.000 OA
ATOM     31  C   UNL     1       7.381  -0.047   0.531  0.00  0.00    +0.000 C 
BRANCH  31  32
ATOM     32  C   UNL     1       8.874   0.185   0.458  0.00  0.00    +0.000 C 
ATOM     33  C   UNL     1       9.572  -0.186   1.754  0.00  0.00    +0.000 C 
ENDBRANCH  31  32
ENDBRANCH  29  31
ENDBRANCH  18  29
TORSDOF 9
