REMARK  Name = 219100
REMARK  3 active torsions:
REMARK  status: ('A' for Active; 'I' for Inactive)
REMARK    1  A    between atoms: O_2  and  C_14
REMARK    2  A    between atoms: O_3  and  C_18
REMARK    3  A    between atoms: C_4  and  C_9
REMARK                            x       y       z     vdW  Elec       q    Type
REMARK                         _______ _______ _______ _____ _____    ______ ____
ROOT
ATOM      1  O   UNL     1      -1.447   1.746  -0.477  0.00  0.00    +0.000 OA
ATOM      2  C   UNL     1       0.485   0.237   0.007  0.00  0.00    +0.000 C 
ATOM      3  C   UNL     1      -0.087   1.635  -0.021  0.00  0.00    +0.000 C 
ATOM      4  C   UNL     1      -1.773  -0.589   0.091  0.00  0.00    +0.000 A 
ATOM      5  C   UNL     1      -0.334  -0.823   0.074  0.00  0.00    +0.000 C 
ATOM      6  C   UNL     1      -2.266   0.690  -0.186  0.00  0.00    +0.000 A 
ATOM      7  C   UNL     1      -2.671  -1.632   0.341  0.00  0.00    +0.000 A 
ATOM      8  C   UNL     1      -3.641   0.923  -0.229  0.00  0.00    +0.000 A 
ATOM      9  C   UNL     1      -4.531  -0.119   0.028  0.00  0.00    +0.000 A 
ATOM     10  C   UNL     1      -4.047  -1.395   0.314  0.00  0.00    +0.000 A 
ENDROOT
BRANCH   2  11
ATOM     11  C   UNL     1       1.960   0.079   0.007  0.00  0.00    +0.000 A 
ATOM     12  C   UNL     1       2.542  -1.069  -0.533  0.00  0.00    +0.000 A 
ATOM     13  C   UNL     1       2.771   1.078   0.550  0.00  0.00    +0.000 A 
ATOM     14  C   UNL     1       3.929  -1.218  -0.532  0.00  0.00    +0.000 A 
ATOM     15  C   UNL     1       4.158   0.929   0.551  0.00  0.00    +0.000 A 
ATOM     16  C   UNL     1       4.737  -0.219   0.010  0.00  0.00    +0.000 A 
BRANCH  16  17
ATOM     17  O   UNL     1       6.090  -0.364   0.012  0.00  0.00    +0.000 OA
ATOM     18  H   UNL     1       6.316  -1.216  -0.400  0.00  0.00    +0.000 HD
ENDBRANCH  16  17
ENDBRANCH   2  11
BRANCH   9  19
ATOM     19  O   UNL     1      -5.873   0.108  -0.006  0.00  0.00    +0.000 OA
ATOM     20  H   UNL     1      -6.338  -0.723   0.193  0.00  0.00    +0.000 HD
ENDBRANCH   9  19
TORSDOF 3
