REMARK  Name = 3792
REMARK  13 active torsions:
REMARK  status: ('A' for Active; 'I' for Inactive)
REMARK    1  A    between atoms: O_1  and  C_9
REMARK    2  A    between atoms: O_1  and  C_11
REMARK    3  A    between atoms: O_2  and  C_22
REMARK    4  A    between atoms: O_2  and  C_25
REMARK    5  A    between atoms: O_3  and  C_23
REMARK    6  A    between atoms: O_3  and  C_26
REMARK    7  A    between atoms: N_5  and  C_7
REMARK    8  A    between atoms: N_5  and  C_18
REMARK    9  A    between atoms: N_5  and  C_19
REMARK   10  A    between atoms: N_6  and  C_10
REMARK   11  A    between atoms: C_7  and  C_9
REMARK   12  A    between atoms: C_8  and  C_10
REMARK   13  A    between atoms: C_16  and  C_17
REMARK                            x       y       z     vdW  Elec       q    Type
REMARK                         _______ _______ _______ _____ _____    ______ ____
ROOT
ATOM      1  O   UNL     1       1.496   1.358   1.763  0.00  0.00    +0.000 OA
ATOM      2  N   UNL     1       1.220   2.076  -0.425  0.00  0.00    +0.000 N 
ATOM      3  C   UNL     1       1.811   1.318   0.576  0.00  0.00    +0.000 C 
ATOM      4  H   UNL     1       1.563   2.034  -1.379  0.00  0.00    +0.000 HD
ENDROOT
BRANCH   3   5
ATOM      5  C   UNL     1       2.916   0.421   0.148  0.00  0.00    +0.000 A 
ATOM      6  C   UNL     1       3.915   0.064   1.053  0.00  0.00    +0.000 A 
ATOM      7  C   UNL     1       2.954  -0.063  -1.160  0.00  0.00    +0.000 A 
ATOM      8  C   UNL     1       4.953  -0.776   0.651  0.00  0.00    +0.000 A 
ATOM      9  C   UNL     1       4.991  -1.260  -0.657  0.00  0.00    +0.000 A 
ATOM     10  C   UNL     1       3.992  -0.903  -1.562  0.00  0.00    +0.000 A 
BRANCH   8  11
ATOM     11  O   UNL     1       5.923  -1.118   1.544  0.00  0.00    +0.000 OA
ATOM     12  C   UNL     1       5.810  -0.581   2.861  0.00  0.00    +0.000 C 
ENDBRANCH   8  11
BRANCH   9  13
ATOM     13  O   UNL     1       5.999  -2.083  -1.061  0.00  0.00    +0.000 OA
ATOM     14  C   UNL     1       5.964  -2.534  -2.414  0.00  0.00    +0.000 C 
ENDBRANCH   9  13
ENDBRANCH   3   5
BRANCH   2  15
ATOM     15  C   UNL     1       0.154   3.010  -0.164  0.00  0.00    +0.000 C 
BRANCH  15  16
ATOM     16  C   UNL     1      -1.192   2.377  -0.273  0.00  0.00    +0.000 A 
ATOM     17  C   UNL     1      -3.711   1.195  -0.476  0.00  0.00    +0.000 A 
ATOM     18  C   UNL     1      -1.861   2.366  -1.497  0.00  0.00    +0.000 A 
ATOM     19  C   UNL     1      -1.783   1.798   0.850  0.00  0.00    +0.000 A 
ATOM     20  C   UNL     1      -3.120   1.774  -1.599  0.00  0.00    +0.000 A 
ATOM     21  C   UNL     1      -3.042   1.207   0.749  0.00  0.00    +0.000 A 
BRANCH  17  22
ATOM     22  O   UNL     1      -4.948   0.614  -0.575  0.00  0.00    +0.000 OA
BRANCH  22  23
ATOM     23  C   UNL     1      -5.219  -0.471   0.303  0.00  0.00    +0.000 C 
BRANCH  23  24
ATOM     24  C   UNL     1      -6.215  -1.404  -0.367  0.00  0.00    +0.000 C 
BRANCH  24  25
ATOM     25  N   UNL     1      -6.511  -2.548   0.496  0.00  0.00    +0.000 NA
ATOM     26  C   UNL     1      -7.472  -2.171   1.532  0.00  0.00    +0.000 C 
ATOM     27  C   UNL     1      -7.025  -3.665  -0.296  0.00  0.00    +0.000 C 
ENDBRANCH  24  25
ENDBRANCH  23  24
ENDBRANCH  22  23
ENDBRANCH  17  22
ENDBRANCH  15  16
ENDBRANCH   2  15
TORSDOF 9
