REMARK  Name = 6918546
REMARK  18 active torsions:
REMARK  status: ('A' for Active; 'I' for Inactive)
REMARK    1  A    between atoms: P_1  and  O_3
REMARK    2  A    between atoms: P_1  and  O_9
REMARK    3  A    between atoms: P_1  and  O_10
REMARK    4  A    between atoms: P_2  and  O_4
REMARK    5  A    between atoms: P_2  and  O_11
REMARK    6  A    between atoms: P_2  and  O_12
REMARK    7  A    between atoms: O_3  and  C_16
REMARK    8  A    between atoms: O_4  and  C_17
REMARK    9  A    between atoms: O_5  and  C_21
REMARK   10  A    between atoms: O_5  and  C_29
REMARK   11  A    between atoms: O_6  and  C_26
REMARK   12  A    between atoms: O_6  and  C_30
REMARK   13  A    between atoms: O_7  and  C_27
REMARK   14  A    between atoms: O_7  and  C_31
REMARK   15  A    between atoms: O_8  and  C_28
REMARK   16  A    between atoms: O_8  and  C_32
REMARK   17  A    between atoms: C_15  and  C_19
REMARK   18  A    between atoms: C_18  and  C_22
REMARK                            x       y       z     vdW  Elec       q    Type
REMARK                         _______ _______ _______ _____ _____    ______ ____
ROOT
ATOM      1  C   UNL     1       1.451   0.486   1.963  0.00  0.00    +0.000 A 
ATOM      2  C   UNL     1       1.500   0.609   0.574  0.00  0.00    +0.000 A 
ATOM      3  C   UNL     1       2.292  -0.262  -0.175  0.00  0.00    +0.000 A 
ATOM      4  C   UNL     1       2.192  -0.508   2.602  0.00  0.00    +0.000 A 
ATOM      5  C   UNL     1       3.034  -1.255   0.464  0.00  0.00    +0.000 A 
ATOM      6  C   UNL     1       2.984  -1.378   1.853  0.00  0.00    +0.000 A 
ENDROOT
BRANCH   5   7
ATOM      7  O   UNL     1       3.811  -2.111  -0.256  0.00  0.00    +0.000 OA
ATOM      8  C   UNL     1       4.538  -3.097   0.475  0.00  0.00    +0.000 C 
ENDBRANCH   5   7
BRANCH   1   9
ATOM      9  C   UNL     1       0.633   1.382   2.769  0.00  0.00    +0.000 C 
ATOM     10  C   UNL     1      -0.713   1.493   2.688  0.00  0.00    +0.000 C 
BRANCH  10  11
ATOM     11  C   UNL     1      -1.572   0.725   1.771  0.00  0.00    +0.000 A 
ATOM     12  C   UNL     1      -1.597  -0.668   1.841  0.00  0.00    +0.000 A 
ATOM     13  C   UNL     1      -2.361   1.389   0.832  0.00  0.00    +0.000 A 
ATOM     14  C   UNL     1      -3.175   0.661  -0.036  0.00  0.00    +0.000 A 
ATOM     15  C   UNL     1      -2.410  -1.396   0.973  0.00  0.00    +0.000 A 
ATOM     16  C   UNL     1      -3.199  -0.731   0.034  0.00  0.00    +0.000 A 
BRANCH  14  17
ATOM     17  O   UNL     1      -3.941   1.323  -0.947  0.00  0.00    +0.000 OA
ATOM     18  C   UNL     1      -3.356   1.579  -2.223  0.00  0.00    +0.000 C 
ENDBRANCH  14  17
BRANCH  15  19
ATOM     19  O   UNL     1      -2.425  -2.756   1.051  0.00  0.00    +0.000 OA
ATOM     20  C   UNL     1      -1.482  -3.462   0.248  0.00  0.00    +0.000 C 
ENDBRANCH  15  19
BRANCH  16  21
ATOM     21  O   UNL     1      -3.993  -1.444  -0.815  0.00  0.00    +0.000 OA
ATOM     22  C   UNL     1      -5.321  -1.723  -0.378  0.00  0.00    +0.000 C 
ENDBRANCH  16  21
ENDBRANCH  10  11
ENDBRANCH   1   9
BRANCH   2  23
ATOM     23  O   UNL     1       0.777   1.575  -0.064  0.00  0.00    +0.000 OA
BRANCH  23  24
ATOM     24  P   UNL     1       1.304   3.068  -0.388  0.00  0.00    +0.000 P 
ATOM     25  O   UNL     1       1.691   3.887   0.810  0.00  0.00    +0.000 OA
BRANCH  24  26
ATOM     26  O   UNL     1       0.091   3.691  -1.259  0.00  0.00    +0.000 OA
ATOM     27  H   UNL     1       0.119   4.641  -1.500  0.00  0.00    +0.000 HD
ENDBRANCH  24  26
BRANCH  24  28
ATOM     28  O   UNL     1       2.466   2.848  -1.492  0.00  0.00    +0.000 OA
ATOM     29  H   UNL     1       2.978   3.625  -1.803  0.00  0.00    +0.000 HD
ENDBRANCH  24  28
ENDBRANCH  23  24
ENDBRANCH   2  23
BRANCH   3  30
ATOM     30  O   UNL     1       2.341  -0.144  -1.533  0.00  0.00    +0.000 OA
BRANCH  30  31
ATOM     31  P   UNL     1       1.353  -0.897  -2.569  0.00  0.00    +0.000 P 
ATOM     32  O   UNL     1       1.385  -2.396  -2.512  0.00  0.00    +0.000 OA
BRANCH  31  33
ATOM     33  O   UNL     1       1.793  -0.273  -3.996  0.00  0.00    +0.000 OA
ATOM     34  H   UNL     1       1.403  -0.644  -4.816  0.00  0.00    +0.000 HD
ENDBRANCH  31  33
BRANCH  31  35
ATOM     35  O   UNL     1      -0.090  -0.216  -2.305  0.00  0.00    +0.000 OA
ATOM     36  H   UNL     1      -0.873  -0.564  -2.781  0.00  0.00    +0.000 HD
ENDBRANCH  31  35
ENDBRANCH  30  31
ENDBRANCH   3  30
TORSDOF 14
