REMARK  Name = 9803828
REMARK  18 active torsions:
REMARK  status: ('A' for Active; 'I' for Inactive)
REMARK    1  A    between atoms: S_1  and  C_15
REMARK    2  A    between atoms: S_1  and  C_19
REMARK    3  A    between atoms: O_2  and  C_10
REMARK    4  A    between atoms: O_4  and  C_17
REMARK    5  A    between atoms: O_5  and  C_28
REMARK    6  A    between atoms: O_5  and  C_31
REMARK    7  A    between atoms: O_6  and  C_29
REMARK    8  A    between atoms: O_6  and  C_30
REMARK    9  A    between atoms: C_8  and  C_14
REMARK   10  A    between atoms: C_9  and  C_13
REMARK   11  A    between atoms: C_13  and  C_15
REMARK   12  A    between atoms: C_16  and  C_17
REMARK   13  A    between atoms: C_17  and  C_18
REMARK   14  A    between atoms: C_18  and  C_20
REMARK   15  A    between atoms: C_19  and  C_21
REMARK   16  A    between atoms: C_21  and  C_22
REMARK   17  A    between atoms: C_22  and  C_28
REMARK   18  A    between atoms: C_25  and  C_29
REMARK                            x       y       z     vdW  Elec       q    Type
REMARK                         _______ _______ _______ _____ _____    ______ ____
ROOT
ATOM      1  O   UNL     1       2.232   4.546  -0.824  0.00  0.00    +0.000 OA
ATOM      2  C   UNL     1       3.570   1.311  -0.332  0.00  0.00    +0.000 C 
ATOM      3  C   UNL     1       2.287   2.146  -0.462  0.00  0.00    +0.000 C 
ATOM      4  C   UNL     1       4.486   1.872  -1.428  0.00  0.00    +0.000 C 
ATOM      5  C   UNL     1       4.270   3.383  -1.371  0.00  0.00    +0.000 C 
ATOM      6  C   UNL     1       2.852   3.490  -0.875  0.00  0.00    +0.000 C 
ENDROOT
BRANCH   4   7
ATOM      7  O   UNL     1       5.838   1.552  -1.146  0.00  0.00    +0.000 OA
ATOM      8  H   UNL     1       6.388   1.992  -1.817  0.00  0.00    +0.000 HD
ENDBRANCH   4   7
BRANCH   2   9
ATOM      9  C   UNL     1       3.319  -0.156  -0.477  0.00  0.00    +0.000 C 
ATOM     10  C   UNL     1       3.626  -1.062   0.462  0.00  0.00    +0.000 C 
BRANCH  10  11
ATOM     11  C   UNL     1       3.371  -2.537   0.312  0.00  0.00    +0.000 C 
BRANCH  11  12
ATOM     12  O   UNL     1       4.629  -3.212   0.326  0.00  0.00    +0.000 OA
ATOM     13  H   UNL     1       5.017  -3.107   1.212  0.00  0.00    +0.000 HD
ENDBRANCH  11  12
BRANCH  11  14
ATOM     14  C   UNL     1       2.487  -3.059   1.454  0.00  0.00    +0.000 C 
BRANCH  14  15
ATOM     15  C   UNL     1       1.018  -2.818   1.193  0.00  0.00    +0.000 A 
ATOM     16  C   UNL     1       0.262  -3.777   0.521  0.00  0.00    +0.000 A 
ATOM     17  C   UNL     1       0.419  -1.635   1.625  0.00  0.00    +0.000 A 
ATOM     18  C   UNL     1      -1.094  -3.554   0.281  0.00  0.00    +0.000 A 
ATOM     19  C   UNL     1      -0.937  -1.411   1.386  0.00  0.00    +0.000 A 
ATOM     20  C   UNL     1      -1.693  -2.372   0.714  0.00  0.00    +0.000 A 
BRANCH  18  21
ATOM     21  C   UNL     1      -1.903  -4.581  -0.436  0.00  0.00    +0.000 C 
BRANCH  21  22
ATOM     22  O   UNL     1      -1.858  -4.325  -1.835  0.00  0.00    +0.000 OA
ATOM     23  C   UNL     1      -2.617  -5.280  -2.564  0.00  0.00    +0.000 C 
ENDBRANCH  21  22
ENDBRANCH  18  21
ENDBRANCH  14  15
ENDBRANCH  11  14
ENDBRANCH  10  11
ENDBRANCH   2   9
BRANCH   3  24
ATOM     24  C   UNL     1       1.484   2.222   0.825  0.00  0.00    +0.000 C 
BRANCH  24  25
ATOM     25  C   UNL     1       0.064   2.714   0.561  0.00  0.00    +0.000 C 
BRANCH  25  26
ATOM     26  S   UNL     1      -0.882   2.793   2.108  0.00  0.00    +0.000 S 
BRANCH  26  27
ATOM     27  C   UNL     1      -2.446   3.392   1.428  0.00  0.00    +0.000 C 
BRANCH  27  28
ATOM     28  C   UNL     1      -3.287   2.286   0.790  0.00  0.00    +0.000 C 
BRANCH  28  29
ATOM     29  C   UNL     1      -4.640   2.764   0.260  0.00  0.00    +0.000 C 
BRANCH  29  31
ATOM     30  O   UNL     1      -5.125   0.446  -0.300  0.00  0.00    +0.000 OA
ATOM     31  C   UNL     1      -5.476   1.617  -0.263  0.00  0.00    +0.000 C 
BRANCH  31  32
ATOM     32  O   UNL     1      -6.677   2.107  -0.696  0.00  0.00    +0.000 OA
ATOM     33  C   UNL     1      -7.580   1.136  -1.236  0.00  0.00    +0.000 C 
ENDBRANCH  31  32
ENDBRANCH  29  31
ENDBRANCH  28  29
ENDBRANCH  27  28
ENDBRANCH  26  27
ENDBRANCH  25  26
ENDBRANCH  24  25
ENDBRANCH   3  24
TORSDOF 16
