REMARK  Name = 3869
REMARK  11 active torsions:
REMARK  status: ('A' for Active; 'I' for Inactive)
REMARK    1  A    between atoms: O_1  and  C_10
REMARK    2  A    between atoms: O_2  and  C_20
REMARK    3  A    between atoms: N_4  and  C_6
REMARK    4  A    between atoms: N_4  and  C_8
REMARK    5  A    between atoms: C_6  and  C_7
REMARK    6  A    between atoms: C_6  and  C_11
REMARK    7  A    between atoms: C_7  and  C_9
REMARK    8  A    between atoms: C_8  and  C_10
REMARK    9  A    between atoms: C_9  and  C_13
REMARK   10  A    between atoms: C_10  and  C_12
REMARK   11  A    between atoms: C_18  and  C_24
REMARK                            x       y       z     vdW  Elec       q    Type
REMARK                         _______ _______ _______ _____ _____    ______ ____
ROOT
ATOM      1  C   UNL     1      -2.294  -2.004   1.271  0.00  0.00    +0.000 C 
ENDROOT
BRANCH   1   2
ATOM      2  C   UNL     1      -2.535  -0.745   0.468  0.00  0.00    +0.000 A 
ATOM      3  C   UNL     1      -1.730   0.360   0.685  0.00  0.00    +0.000 A 
ATOM      4  C   UNL     1      -3.556  -0.725  -0.466  0.00  0.00    +0.000 A 
ATOM      5  C   UNL     1      -1.953   1.521  -0.055  0.00  0.00    +0.000 A 
ATOM      6  C   UNL     1      -3.779   0.436  -1.206  0.00  0.00    +0.000 A 
ATOM      7  C   UNL     1      -2.978   1.559  -1.001  0.00  0.00    +0.000 A 
BRANCH   5  10
ATOM      8  O   UNL     1      -1.396   3.534   1.034  0.00  0.00    +0.000 OA
ATOM      9  N   UNL     1       0.053   2.798  -0.585  0.00  0.00    +0.000 N 
ATOM     10  C   UNL     1      -1.106   2.683   0.176  0.00  0.00    +0.000 C 
ATOM     11  H   UNL     1       0.684   3.583  -0.459  0.00  0.00    +0.000 HD
ATOM     12  H   UNL     1       0.310   2.108  -1.283  0.00  0.00    +0.000 HD
ENDBRANCH   5  10
BRANCH   7  13
ATOM     13  O   UNL     1      -3.214   2.686  -1.731  0.00  0.00    +0.000 OA
ATOM     14  H   UNL     1      -2.584   3.384  -1.490  0.00  0.00    +0.000 HD
ENDBRANCH   7  13
ENDBRANCH   1   2
BRANCH   1  15
ATOM     15  O   UNL     1      -2.539  -1.710   2.646  0.00  0.00    +0.000 OA
ATOM     16  H   UNL     1      -2.377  -2.524   3.153  0.00  0.00    +0.000 HD
ENDBRANCH   1  15
BRANCH   1  17
ATOM     17  C   UNL     1      -0.863  -2.524   1.086  0.00  0.00    +0.000 C 
BRANCH  17  18
ATOM     18  N   UNL     1      -0.602  -2.833  -0.310  0.00  0.00    +0.000 NA
ATOM     19  H   UNL     1      -1.266  -3.530  -0.644  0.00  0.00    +0.000 HD
BRANCH  18  20
ATOM     20  C   UNL     1       0.764  -3.327  -0.484  0.00  0.00    +0.000 C 
ATOM     21  C   UNL     1       1.014  -3.633  -1.961  0.00  0.00    +0.000 C 
BRANCH  20  22
ATOM     22  C   UNL     1       1.790  -2.301   0.033  0.00  0.00    +0.000 C 
BRANCH  22  23
ATOM     23  C   UNL     1       1.824  -0.973  -0.738  0.00  0.00    +0.000 C 
BRANCH  23  24
ATOM     24  C   UNL     1       2.881  -0.013  -0.254  0.00  0.00    +0.000 A 
ATOM     25  C   UNL     1       2.570   0.895   0.747  0.00  0.00    +0.000 A 
ATOM     26  C   UNL     1       4.148  -0.054  -0.818  0.00  0.00    +0.000 A 
ATOM     27  C   UNL     1       3.548   1.783   1.194  0.00  0.00    +0.000 A 
ATOM     28  C   UNL     1       5.126   0.834  -0.370  0.00  0.00    +0.000 A 
ATOM     29  C   UNL     1       4.826   1.753   0.636  0.00  0.00    +0.000 A 
ENDBRANCH  23  24
ENDBRANCH  22  23
ENDBRANCH  20  22
ENDBRANCH  18  20
ENDBRANCH  17  18
ENDBRANCH   1  17
TORSDOF 10
