REMARK  Name = 6047
REMARK  7 active torsions:
REMARK  status: ('A' for Active; 'I' for Inactive)
REMARK    1  A    between atoms: O_1  and  C_11
REMARK    2  A    between atoms: O_2  and  C_12
REMARK    3  A    between atoms: O_3  and  C_14
REMARK    4  A    between atoms: N_5  and  CA_7
REMARK    5  A    between atoms: C_6  and  CA_7
REMARK    6  A    between atoms: C_6  and  C_8
REMARK    7  A    between atoms: CA_7  and  C_12
REMARK                            x       y       z     vdW  Elec       q    Type
REMARK                         _______ _______ _______ _____ _____    ______ ____
ROOT
ATOM      1  C   UNL     1       0.132   0.699   0.477  0.00  0.00    +0.000 A 
ATOM      2  C   UNL     1       0.666  -0.559   0.699  0.00  0.00    +0.000 A 
ATOM      3  C   UNL     1       0.881   1.711  -0.098  0.00  0.00    +0.000 A 
ATOM      4  C   UNL     1       1.989  -0.812   0.337  0.00  0.00    +0.000 A 
ATOM      5  C   UNL     1       2.204   1.459  -0.460  0.00  0.00    +0.000 A 
ATOM      6  C   UNL     1       2.758   0.197  -0.243  0.00  0.00    +0.000 A 
ENDROOT
BRANCH   4   7
ATOM      7  O   UNL     1       2.519  -2.048   0.553  0.00  0.00    +0.000 OA
ATOM      8  H   UNL     1       3.441  -2.045   0.242  0.00  0.00    +0.000 HD
ENDBRANCH   4   7
BRANCH   6   9
ATOM      9  O   UNL     1       4.051  -0.038  -0.603  0.00  0.00    +0.000 OA
ATOM     10  H   UNL     1       4.425   0.773  -0.987  0.00  0.00    +0.000 HD
ENDBRANCH   6   9
BRANCH   1  11
ATOM     11  C   UNL     1      -1.302   0.973   0.871  0.00  0.00    +0.000 C 
BRANCH  11  12
ATOM     12  CA  UNL     1      -2.299   0.670  -0.259  0.00  0.00    +0.000 C 
BRANCH  12  13
ATOM     13  N   UNL     1      -3.553   1.381  -0.014  0.00  0.00    +0.000 NA
ATOM     14  H1  UNL     1      -3.378   2.385  -0.000  0.00  0.00    +0.000 HD
ATOM     15  H2  UNL     1      -3.907   1.148   0.913  0.00  0.00    +0.000 HD
ENDBRANCH  12  13
BRANCH  12  17
ATOM     16  OXT UNL     1      -3.550  -1.347   0.288  0.00  0.00    +0.000 OA
ATOM     17  C   UNL     1      -2.645  -0.807  -0.336  0.00  0.00    +0.000 C 
BRANCH  17  18
ATOM     18  O   UNL     1      -1.853  -1.478  -1.211  0.00  0.00    +0.000 OA
ATOM     19  H   UNL     1      -2.090  -2.428  -1.265  0.00  0.00    +0.000 HD
ENDBRANCH  17  18
ENDBRANCH  12  17
ENDBRANCH  11  12
ENDBRANCH   1  11
TORSDOF 7
