REMARK  Name = 6918558
REMARK  18 active torsions:
REMARK  status: ('A' for Active; 'I' for Inactive)
REMARK    1  A    between atoms: O_1  and  C_16
REMARK    2  A    between atoms: O_1  and  C_27
REMARK    3  A    between atoms: O_2  and  C_25
REMARK    4  A    between atoms: N_4  and  C_5
REMARK    5  A    between atoms: N_4  and  C_8
REMARK    6  A    between atoms: N_4  and  C_9
REMARK    7  A    between atoms: C_5  and  C_6
REMARK    8  A    between atoms: C_6  and  C_7
REMARK    9  A    between atoms: C_7  and  C_10
REMARK   10  A    between atoms: C_7  and  C_11
REMARK   11  A    between atoms: C_8  and  C_12
REMARK   12  A    between atoms: C_8  and  C_13
REMARK   13  A    between atoms: C_9  and  C_14
REMARK   14  A    between atoms: C_9  and  C_15
REMARK   15  A    between atoms: C_20  and  C_25
REMARK   16  A    between atoms: C_27  and  C_28
REMARK   17  A    between atoms: C_28  and  C_29
REMARK   18  A    between atoms: C_28  and  C_30
REMARK                            x       y       z     vdW  Elec       q    Type
REMARK                         _______ _______ _______ _____ _____    ______ ____
ROOT
ATOM      1  C   UNL     1      -0.884  -0.636   0.524  0.00  0.00    +0.000 C 
ENDROOT
BRANCH   1   2
ATOM      2  C   UNL     1      -1.195   0.617  -0.226  0.00  0.00    +0.000 A 
ATOM      3  C   UNL     1      -0.802   1.860   0.269  0.00  0.00    +0.000 A 
ATOM      4  C   UNL     1      -1.885   0.535  -1.436  0.00  0.00    +0.000 A 
ATOM      5  C   UNL     1      -2.182   1.696  -2.149  0.00  0.00    +0.000 A 
ATOM      6  C   UNL     1      -1.100   3.022  -0.444  0.00  0.00    +0.000 A 
ATOM      7  C   UNL     1      -1.790   2.939  -1.653  0.00  0.00    +0.000 A 
BRANCH   3   8
ATOM      8  O   UNL     1      -0.110   1.962   1.478  0.00  0.00    +0.000 OA
BRANCH   8  10
ATOM      9  O   UNL     1       1.641   2.966   0.299  0.00  0.00    +0.000 OA
ATOM     10  C   UNL     1       1.145   2.551   1.338  0.00  0.00    +0.000 C 
BRANCH  10  11
ATOM     11  C   UNL     1       1.807   2.612   2.705  0.00  0.00    +0.000 C 
ATOM     12  C   UNL     1       2.722   3.828   2.779  0.00  0.00    +0.000 C 
ATOM     13  C   UNL     1       2.581   1.327   2.987  0.00  0.00    +0.000 C 
ENDBRANCH  10  11
ENDBRANCH   8  10
ENDBRANCH   3   8
BRANCH   5  14
ATOM     14  C   UNL     1      -2.920   1.608  -3.442  0.00  0.00    +0.000 C 
BRANCH  14  15
ATOM     15  O   UNL     1      -1.989   1.475  -4.509  0.00  0.00    +0.000 OA
ATOM     16  H   UNL     1      -2.504   1.421  -5.332  0.00  0.00    +0.000 HD
ENDBRANCH  14  15
ENDBRANCH   5  14
ENDBRANCH   1   2
BRANCH   1  17
ATOM     17  C   UNL     1      -2.153  -1.359   1.004  0.00  0.00    +0.000 A 
ATOM     18  C   UNL     1      -2.647  -2.450   0.290  0.00  0.00    +0.000 A 
ATOM     19  C   UNL     1      -2.811  -0.923   2.154  0.00  0.00    +0.000 A 
ATOM     20  C   UNL     1      -3.798  -3.106   0.726  0.00  0.00    +0.000 A 
ATOM     21  C   UNL     1      -3.962  -1.578   2.590  0.00  0.00    +0.000 A 
ATOM     22  C   UNL     1      -4.456  -2.670   1.876  0.00  0.00    +0.000 A 
ENDBRANCH   1  17
BRANCH   1  23
ATOM     23  C   UNL     1       0.096  -1.595  -0.227  0.00  0.00    +0.000 C 
BRANCH  23  24
ATOM     24  C   UNL     1       1.512  -1.015  -0.321  0.00  0.00    +0.000 C 
BRANCH  24  25
ATOM     25  N   UNL     1       2.386  -1.935  -1.042  0.00  0.00    +0.000 NA
BRANCH  25  26
ATOM     26  C   UNL     1       2.836  -3.013  -0.161  0.00  0.00    +0.000 C 
ATOM     27  C   UNL     1       3.988  -2.533   0.718  0.00  0.00    +0.000 C 
ATOM     28  C   UNL     1       3.254  -4.215  -1.003  0.00  0.00    +0.000 C 
ENDBRANCH  25  26
BRANCH  25  29
ATOM     29  C   UNL     1       3.535  -1.220  -1.600  0.00  0.00    +0.000 C 
ATOM     30  C   UNL     1       3.136  -0.568  -2.919  0.00  0.00    +0.000 C 
ATOM     31  C   UNL     1       4.045  -0.180  -0.606  0.00  0.00    +0.000 C 
ENDBRANCH  25  29
ENDBRANCH  24  25
ENDBRANCH  23  24
ENDBRANCH   1  23
TORSDOF 12
