REMARK  Name = 46937041
REMARK  10 active torsions:
REMARK  status: ('A' for Active; 'I' for Inactive)
REMARK    1  A    between atoms: O_1  and  C_11
REMARK    2  A    between atoms: O_2  and  C_14
REMARK    3  A    between atoms: O_3  and  C_15
REMARK    4  A    between atoms: N_5  and  CA_9
REMARK    5  A    between atoms: N_6  and  C_12
REMARK    6  A    between atoms: C_7  and  C_8
REMARK    7  A    between atoms: C_7  and  CA_9
REMARK    8  A    between atoms: CA_9  and  C_15
REMARK    9  A    between atoms: C_16  and  C_17
REMARK   10  A    between atoms: C_16  and  C_18
REMARK                            x       y       z     vdW  Elec       q    Type
REMARK                         _______ _______ _______ _____ _____    ______ ____
ROOT
ATOM      1  C   UNL     1      -2.589   0.212   0.491  0.00  0.00    +0.000 A 
ATOM      2  C   UNL     1      -1.251   0.473   0.784  0.00  0.00    +0.000 A 
ATOM      3  C   UNL     1      -3.371   1.188  -0.128  0.00  0.00    +0.000 A 
ATOM      4  C   UNL     1      -0.694   1.710   0.459  0.00  0.00    +0.000 A 
ATOM      5  C   UNL     1      -2.814   2.425  -0.453  0.00  0.00    +0.000 A 
ATOM      6  C   UNL     1      -1.475   2.686  -0.160  0.00  0.00    +0.000 A 
ENDROOT
BRANCH   3   7
ATOM      7  O   UNL     1      -4.680   0.949  -0.420  0.00  0.00    +0.000 OA
ATOM      8  H   UNL     1      -5.059   1.737  -0.846  0.00  0.00    +0.000 HD
ENDBRANCH   3   7
BRANCH   6   9
ATOM      9  O   UNL     1      -0.947   3.899  -0.485  0.00  0.00    +0.000 OA
ATOM     10  H   UNL     1      -1.635   4.443  -0.905  0.00  0.00    +0.000 HD
ENDBRANCH   6   9
BRANCH   4  11
ATOM     11  N   UNL     1       0.651   1.958   0.757  0.00  0.00    +0.000 NA
ATOM     12  C   UNL     1       1.504   1.645  -0.166  0.00  0.00    +0.000 C 
BRANCH  12  13
ATOM     13  C   UNL     1       2.975   1.883   0.034  0.00  0.00    +0.000 C 
BRANCH  13  14
ATOM     14  C   UNL     1       3.740   0.589   0.002  0.00  0.00    +0.000 A 
ATOM     15  C   UNL     1       3.952  -0.125   1.181  0.00  0.00    +0.000 A 
ATOM     16  C   UNL     1       4.239   0.102  -1.206  0.00  0.00    +0.000 A 
ATOM     17  C   UNL     1       4.663  -1.326   1.152  0.00  0.00    +0.000 A 
ATOM     18  C   UNL     1       4.949  -1.098  -1.236  0.00  0.00    +0.000 A 
ATOM     19  C   UNL     1       5.161  -1.812  -0.056  0.00  0.00    +0.000 A 
ENDBRANCH  13  14
ENDBRANCH  12  13
ENDBRANCH   4  11
BRANCH   1  20
ATOM     20  C   UNL     1      -3.176  -1.133   0.852  0.00  0.00    +0.000 C 
BRANCH  20  21
ATOM     21  CA  UNL     1      -3.033  -2.169  -0.274  0.00  0.00    +0.000 C 
BRANCH  21  22
ATOM     22  N   UNL     1      -4.001  -3.246  -0.081  0.00  0.00    +0.000 NA
ATOM     23  H1  UNL     1      -3.959  -3.891  -0.869  0.00  0.00    +0.000 HD
ATOM     24  H2  UNL     1      -4.946  -2.863  -0.082  0.00  0.00    +0.000 HD
ENDBRANCH  21  22
BRANCH  21  26
ATOM     25  OXT UNL     1      -1.352  -3.816   0.353  0.00  0.00    +0.000 OA
ATOM     26  C   UNL     1      -1.659  -2.816  -0.284  0.00  0.00    +0.000 C 
BRANCH  26  27
ATOM     27  O   UNL     1      -0.794  -2.179  -1.116  0.00  0.00    +0.000 OA
ATOM     28  H   UNL     1       0.088  -2.610  -1.125  0.00  0.00    +0.000 HD
ENDBRANCH  26  27
ENDBRANCH  21  26
ENDBRANCH  20  21
ENDBRANCH   1  20
TORSDOF 10
