REMARK  Name = 5282230
REMARK  9 active torsions:
REMARK  status: ('A' for Active; 'I' for Inactive)
REMARK    1  A    between atoms: O_1  and  C_9
REMARK    2  A    between atoms: O_1  and  C_23
REMARK    3  A    between atoms: O_2  and  C_11
REMARK    4  A    between atoms: O_2  and  C_24
REMARK    5  A    between atoms: O_4  and  C_22
REMARK    6  A    between atoms: N_6  and  C_8
REMARK    7  A    between atoms: C_7  and  C_15
REMARK    8  A    between atoms: C_13  and  C_22
REMARK    9  A    between atoms: C_17  and  C_19
REMARK                            x       y       z     vdW  Elec       q    Type
REMARK                         _______ _______ _______ _____ _____    ______ ____
ROOT
ATOM      1  O   UNL     1       1.515   2.430  -0.119  0.00  0.00    +0.000 OA
ATOM      2  N   UNL     1       2.272   0.212   0.013  0.00  0.00    +0.000 N 
ATOM      3  C   UNL     1       1.322   1.223  -0.036  0.00  0.00    +0.000 C 
ATOM      4  H   UNL     1       1.935  -0.745   0.078  0.00  0.00    +0.000 HD
ENDROOT
BRANCH   2   5
ATOM      5  C   UNL     1       3.681   0.355  -0.020  0.00  0.00    +0.000 A 
ATOM      6  C   UNL     1       4.500  -0.761   0.038  0.00  0.00    +0.000 A 
ATOM      7  C   UNL     1       4.210   1.633  -0.111  0.00  0.00    +0.000 A 
ATOM      8  C   UNL     1       5.885  -0.595   0.004  0.00  0.00    +0.000 A 
ATOM      9  C   UNL     1       5.595   1.799  -0.145  0.00  0.00    +0.000 A 
ATOM     10  C   UNL     1       6.432   0.684  -0.088  0.00  0.00    +0.000 A 
BRANCH   6  12
ATOM     11  O   UNL     1       2.896  -2.416   0.679  0.00  0.00    +0.000 OA
ATOM     12  C   UNL     1       3.961  -2.111   0.136  0.00  0.00    +0.000 C 
BRANCH  12  13
ATOM     13  O   UNL     1       4.771  -3.035  -0.448  0.00  0.00    +0.000 OA
ATOM     14  H   UNL     1       4.401  -3.941  -0.378  0.00  0.00    +0.000 HD
ENDBRANCH  12  13
ENDBRANCH   6  12
ENDBRANCH   2   5
BRANCH   3  16
ATOM     15  C   UNL     1      -1.141   1.474   0.002  0.00  0.00    +0.000 C 
ATOM     16  C   UNL     1      -0.062   0.660   0.023  0.00  0.00    +0.000 C 
BRANCH  15  17
ATOM     17  C   UNL     1      -2.526   1.033   0.065  0.00  0.00    +0.000 A 
ATOM     18  C   UNL     1      -4.183  -0.705  -0.202  0.00  0.00    +0.000 A 
ATOM     19  C   UNL     1      -2.855  -0.283  -0.262  0.00  0.00    +0.000 A 
ATOM     20  C   UNL     1      -5.182   0.188   0.184  0.00  0.00    +0.000 A 
ATOM     21  C   UNL     1      -3.526   1.926   0.451  0.00  0.00    +0.000 A 
ATOM     22  C   UNL     1      -4.853   1.504   0.511  0.00  0.00    +0.000 A 
BRANCH  18  23
ATOM     23  O   UNL     1      -4.491  -1.993  -0.523  0.00  0.00    +0.000 OA
ATOM     24  C   UNL     1      -4.475  -2.947   0.536  0.00  0.00    +0.000 C 
ENDBRANCH  18  23
BRANCH  20  25
ATOM     25  O   UNL     1      -6.482  -0.213   0.247  0.00  0.00    +0.000 OA
ATOM     26  C   UNL     1      -7.265  -0.062  -0.936  0.00  0.00    +0.000 C 
ENDBRANCH  20  25
ENDBRANCH  15  17
ENDBRANCH   3  16
TORSDOF 7
