REMARK  Name = 6477182
REMARK  14 active torsions:
REMARK  status: ('A' for Active; 'I' for Inactive)
REMARK    1  A    between atoms: O_1  and  C_9
REMARK    2  A    between atoms: O_1  and  C_26
REMARK    3  A    between atoms: O_2  and  C_11
REMARK    4  A    between atoms: O_2  and  C_27
REMARK    5  A    between atoms: O_3  and  C_12
REMARK    6  A    between atoms: O_3  and  C_28
REMARK    7  A    between atoms: O_4  and  C_14
REMARK    8  A    between atoms: O_4  and  C_29
REMARK    9  A    between atoms: O_5  and  C_23
REMARK   10  A    between atoms: C_7  and  C_19
REMARK   11  A    between atoms: C_8  and  C_20
REMARK   12  A    between atoms: C_21  and  C_23
REMARK   13  A    between atoms: C_22  and  C_24
REMARK   14  A    between atoms: C_24  and  C_25
REMARK                            x       y       z     vdW  Elec       q    Type
REMARK                         _______ _______ _______ _____ _____    ______ ____
ROOT
ATOM      1  C   UNL     1       1.178  -1.876   0.043  0.00  0.00    +0.000 C 
ATOM      2  C   UNL     1      -0.014  -1.254   0.033  0.00  0.00    +0.000 C 
ENDROOT
BRANCH   1   3
ATOM      3  O   UNL     1       1.270  -3.256   0.046  0.00  0.00    +0.000 OA
ATOM      4  H   UNL     1       2.141  -3.531   0.371  0.00  0.00    +0.000 HD
ENDBRANCH   1   3
BRANCH   2   6
ATOM      5  O   UNL     1      -1.407  -3.203   0.066  0.00  0.00    +0.000 OA
ATOM      6  C   UNL     1      -1.317  -1.982   0.046  0.00  0.00    +0.000 C 
BRANCH   6   8
ATOM      7  C   UNL     1      -3.739  -1.612   0.028  0.00  0.00    +0.000 C 
ATOM      8  C   UNL     1      -2.506  -1.085   0.034  0.00  0.00    +0.000 C 
BRANCH   7   9
ATOM      9  C   UNL     1      -4.986  -0.826   0.005  0.00  0.00    +0.000 A 
ATOM     10  C   UNL     1      -6.138   1.245   0.379  0.00  0.00    +0.000 A 
ATOM     11  C   UNL     1      -4.958   0.501   0.401  0.00  0.00    +0.000 A 
ATOM     12  C   UNL     1      -7.329   0.651  -0.038  0.00  0.00    +0.000 A 
ATOM     13  C   UNL     1      -6.160  -1.430  -0.412  0.00  0.00    +0.000 A 
ATOM     14  C   UNL     1      -7.340  -0.687  -0.434  0.00  0.00    +0.000 A 
BRANCH  10  15
ATOM     15  O   UNL     1      -6.115   2.550   0.768  0.00  0.00    +0.000 OA
ATOM     16  C   UNL     1      -4.858   3.082   1.181  0.00  0.00    +0.000 C 
ENDBRANCH  10  15
BRANCH  12  17
ATOM     17  O   UNL     1      -8.488   1.367  -0.066  0.00  0.00    +0.000 OA
ATOM     18  C   UNL     1      -8.794   2.058  -1.275  0.00  0.00    +0.000 C 
ENDBRANCH  12  17
ENDBRANCH   7   9
ENDBRANCH   6   8
ENDBRANCH   2   6
BRANCH   1  20
ATOM     19  C   UNL     1       3.667  -1.606   0.018  0.00  0.00    +0.000 C 
ATOM     20  C   UNL     1       2.418  -1.111   0.013  0.00  0.00    +0.000 C 
BRANCH  19  21
ATOM     21  C   UNL     1       4.891  -0.785  -0.011  0.00  0.00    +0.000 A 
ATOM     22  C   UNL     1       5.976   1.302  -0.486  0.00  0.00    +0.000 A 
ATOM     23  C   UNL     1       4.818   0.524  -0.459  0.00  0.00    +0.000 A 
ATOM     24  C   UNL     1       7.190   0.759  -0.066  0.00  0.00    +0.000 A 
ATOM     25  C   UNL     1       6.089  -1.338   0.410  0.00  0.00    +0.000 A 
ATOM     26  C   UNL     1       7.247  -0.560   0.382  0.00  0.00    +0.000 A 
BRANCH  22  27
ATOM     27  O   UNL     1       5.909   2.589  -0.927  0.00  0.00    +0.000 OA
ATOM     28  C   UNL     1       5.642   3.595   0.049  0.00  0.00    +0.000 C 
ENDBRANCH  22  27
BRANCH  24  29
ATOM     29  O   UNL     1       8.327   1.509  -0.086  0.00  0.00    +0.000 OA
ATOM     30  C   UNL     1       9.527   0.880   0.360  0.00  0.00    +0.000 C 
ENDBRANCH  24  29
ENDBRANCH  19  21
ENDBRANCH   1  20
TORSDOF 10
