REMARK  Name = 178103
REMARK  14 active torsions:
REMARK  status: ('A' for Active; 'I' for Inactive)
REMARK    1  A    between atoms: O_1  and  C_16
REMARK    2  A    between atoms: O_3  and  C_20
REMARK    3  A    between atoms: O_3  and  C_31
REMARK    4  A    between atoms: O_4  and  C_19
REMARK    5  A    between atoms: O_4  and  C_33
REMARK    6  A    between atoms: O_7  and  C_30
REMARK    7  A    between atoms: O_7  and  C_36
REMARK    8  A    between atoms: O_8  and  C_35
REMARK    9  A    between atoms: C_9  and  C_16
REMARK   10  A    between atoms: C_10  and  C_14
REMARK   11  A    between atoms: C_11  and  C_15
REMARK   12  A    between atoms: C_31  and  C_34
REMARK   13  A    between atoms: C_33  and  C_35
REMARK   14  A    between atoms: C_34  and  C_37
REMARK                            x       y       z     vdW  Elec       q    Type
REMARK                         _______ _______ _______ _____ _____    ______ ____
ROOT
ATOM      1  C   UNL     1      -0.688   1.079   0.366  0.00  0.00    +0.000 C 
ATOM      2  C   UNL     1       0.718   0.507   0.707  0.00  0.00    +0.000 C 
ATOM      3  C   UNL     1      -1.738   0.099   0.963  0.00  0.00    +0.000 C 
ATOM      4  C   UNL     1       0.422  -0.954   0.930  0.00  0.00    +0.000 A 
ATOM      5  C   UNL     1      -0.951  -1.182   1.073  0.00  0.00    +0.000 A 
ATOM      6  C   UNL     1       1.332  -1.995   1.064  0.00  0.00    +0.000 A 
ATOM      7  C   UNL     1      -1.434  -2.455   1.352  0.00  0.00    +0.000 A 
ATOM      8  C   UNL     1       0.850  -3.279   1.323  0.00  0.00    +0.000 A 
ATOM      9  C   UNL     1      -0.525  -3.508   1.466  0.00  0.00    +0.000 A 
ENDROOT
BRANCH   3  12
ATOM     10  O   UNL     1      -6.638   0.450   0.298  0.00  0.00    +0.000 OA
ATOM     11  O   UNL     1      -6.492  -0.201  -2.017  0.00  0.00    +0.000 OA
ATOM     12  C   UNL     1      -2.999   0.008   0.129  0.00  0.00    +0.000 A 
ATOM     13  C   UNL     1      -4.236   0.302   0.709  0.00  0.00    +0.000 A 
ATOM     14  C   UNL     1      -2.914  -0.373  -1.221  0.00  0.00    +0.000 A 
ATOM     15  C   UNL     1      -5.357   0.205  -0.090  0.00  0.00    +0.000 A 
ATOM     16  C   UNL     1      -4.065  -0.463  -2.008  0.00  0.00    +0.000 A 
ATOM     17  C   UNL     1      -5.274  -0.167  -1.412  0.00  0.00    +0.000 A 
ATOM     18  C   UNL     1      -7.352   0.191  -0.928  0.00  0.00    +0.000 C 
ENDBRANCH   3  12
BRANCH   2  19
ATOM     19  C   UNL     1       1.748   0.797  -0.365  0.00  0.00    +0.000 A 
ATOM     20  C   UNL     1       2.918   1.493  -0.060  0.00  0.00    +0.000 A 
ATOM     21  C   UNL     1       1.516   0.360  -1.670  0.00  0.00    +0.000 A 
ATOM     22  C   UNL     1       3.856   1.753  -1.060  0.00  0.00    +0.000 A 
ATOM     23  C   UNL     1       2.454   0.620  -2.669  0.00  0.00    +0.000 A 
ATOM     24  C   UNL     1       3.623   1.316  -2.364  0.00  0.00    +0.000 A 
BRANCH  24  25
ATOM     25  O   UNL     1       4.541   1.565  -3.338  0.00  0.00    +0.000 OA
ATOM     26  C   UNL     1       4.242   1.087  -4.649  0.00  0.00    +0.000 C 
ENDBRANCH  24  25
BRANCH  20  27
ATOM     27  O   UNL     1       3.162   1.923   1.209  0.00  0.00    +0.000 OA
BRANCH  27  28
ATOM     28  C   UNL     1       3.327   3.326   1.398  0.00  0.00    +0.000 C 
BRANCH  28  29
ATOM     29  C   UNL     1       2.834   3.702   2.782  0.00  0.00    +0.000 C 
BRANCH  29  30
ATOM     30  O   UNL     1       3.018   5.099   2.977  0.00  0.00    +0.000 OA
ATOM     31  H   UNL     1       2.692   5.306   3.869  0.00  0.00    +0.000 HD
ENDBRANCH  29  30
ENDBRANCH  28  29
ENDBRANCH  27  28
ENDBRANCH  20  27
ENDBRANCH   2  19
BRANCH   1  33
ATOM     32  O   UNL     1      -1.288   2.697   2.063  0.00  0.00    +0.000 OA
ATOM     33  C   UNL     1      -0.856   2.455   0.946  0.00  0.00    +0.000 C 
BRANCH  33  34
ATOM     34  O   UNL     1      -0.463   3.400   0.058  0.00  0.00    +0.000 OA
ATOM     35  H   UNL     1      -0.563   4.306   0.419  0.00  0.00    +0.000 HD
ENDBRANCH  33  34
ENDBRANCH   1  33
BRANCH   8  36
ATOM     36  O   UNL     1       1.724  -4.317   1.451  0.00  0.00    +0.000 OA
BRANCH  36  37
ATOM     37  C   UNL     1       2.934  -4.241   0.700  0.00  0.00    +0.000 C 
BRANCH  37  38
ATOM     38  C   UNL     1       3.377  -5.651   0.339  0.00  0.00    +0.000 C 
ATOM     39  C   UNL     1       4.674  -5.650  -0.451  0.00  0.00    +0.000 C 
ENDBRANCH  37  38
ENDBRANCH  36  37
ENDBRANCH   8  36
TORSDOF 12
