REMARK  Name = 7175
REMARK  6 active torsions:
REMARK  status: ('A' for Active; 'I' for Inactive)
REMARK    1  A    between atoms: O_1  and  C_5
REMARK    2  A    between atoms: O_1  and  C_8
REMARK    3  A    between atoms: O_3  and  C_13
REMARK    4  A    between atoms: C_4  and  C_5
REMARK    5  A    between atoms: C_4  and  C_7
REMARK    6  A    between atoms: C_6  and  C_8
REMARK                            x       y       z     vdW  Elec       q    Type
REMARK                         _______ _______ _______ _____ _____    ______ ____
ROOT
ATOM      1  C   UNL     1       0.594   0.395   0.001  0.00  0.00    +0.000 A 
ATOM      2  C   UNL     1       1.637   1.321  -0.001  0.00  0.00    +0.000 A 
ATOM      3  C   UNL     1       0.874  -0.971   0.001  0.00  0.00    +0.000 A 
ATOM      4  C   UNL     1       2.961   0.880  -0.002  0.00  0.00    +0.000 A 
ATOM      5  C   UNL     1       2.197  -1.412   0.001  0.00  0.00    +0.000 A 
ATOM      6  C   UNL     1       3.241  -0.486  -0.001  0.00  0.00    +0.000 A 
ENDROOT
BRANCH   1   8
ATOM      7  O   UNL     1      -1.105   2.045   0.000  0.00  0.00    +0.000 OA
ATOM      8  C   UNL     1      -0.786   0.854   0.001  0.00  0.00    +0.000 C 
BRANCH   8   9
ATOM      9  O   UNL     1      -1.702  -0.168   0.003  0.00  0.00    +0.000 OA
BRANCH   9  10
ATOM     10  C   UNL     1      -3.082   0.214   0.003  0.00  0.00    +0.000 C 
BRANCH  10  11
ATOM     11  C   UNL     1      -3.940  -1.042   0.005  0.00  0.00    +0.000 C 
ATOM     12  C   UNL     1      -5.422  -0.714  -0.009  0.00  0.00    +0.000 C 
ENDBRANCH  10  11
ENDBRANCH   9  10
ENDBRANCH   8   9
ENDBRANCH   1   8
BRANCH   6  13
ATOM     13  O   UNL     1       4.532  -0.916  -0.002  0.00  0.00    +0.000 OA
ATOM     14  H   UNL     1       5.122  -0.142  -0.003  0.00  0.00    +0.000 HD
ENDBRANCH   6  13
TORSDOF 5
