REMARK  Name = 6274
REMARK  5 active torsions:
REMARK  status: ('A' for Active; 'I' for Inactive)
REMARK    1  A    between atoms: O_1  and  C_9
REMARK    2  A    between atoms: N_4  and  CA_7
REMARK    3  A    between atoms: CB_6  and  CA_7
REMARK    4  A    between atoms: CB_6  and  CG_8
REMARK    5  A    between atoms: CA_7  and  C_9
REMARK                            x       y       z     vdW  Elec       q    Type
REMARK                         _______ _______ _______ _____ _____    ______ ____
ROOT
ATOM      1  CA  HIS A   1      -1.506   0.640  -0.457  0.00  0.00    +0.000 C 
ENDROOT
BRANCH   1   2
ATOM      2  N   HIS A   1      -2.749   1.369  -0.218  0.00  0.00    +0.000 NA
ATOM      3  H1  HIS A   1      -2.642   2.335  -0.528  0.00  0.00    +0.000 HD
ATOM      4  H2  HIS A   1      -2.936   1.420   0.783  0.00  0.00    +0.000 HD
ENDBRANCH   1   2
BRANCH   1   6
ATOM      5  OXT HIS A   1      -2.495  -1.122   0.904  0.00  0.00    +0.000 OA
ATOM      6  C   HIS A   1      -1.750  -0.792  -0.010  0.00  0.00    +0.000 C 
BRANCH   6   7
ATOM      7  O   HIS A   1      -1.069  -1.692  -0.766  0.00  0.00    +0.000 OA
ATOM      8  H   HIS A   1      -1.242  -2.614  -0.480  0.00  0.00    +0.000 HD
ENDBRANCH   6   7
ENDBRANCH   1   6
BRANCH   1   9
ATOM      9  CB  HIS A   1      -0.358   1.300   0.322  0.00  0.00    +0.000 C 
BRANCH   9  12
ATOM     10  ND1 HIS A   1       1.680   0.141   1.162  0.00  0.00    +0.000 N 
ATOM     11  NE2 HIS A   1       2.820  -0.337  -0.682  0.00  0.00    +0.000 NA
ATOM     12  CG  HIS A   1       0.967   0.602   0.119  0.00  0.00    +0.000 A 
ATOM     13  CD2 HIS A   1       1.656   0.315  -1.003  0.00  0.00    +0.000 A 
ATOM     14  CE1 HIS A   1       2.804  -0.425   0.629  0.00  0.00    +0.000 A 
ATOM     15  HD1 HIS A   1       1.444   0.194   2.145  0.00  0.00    +0.000 HD
ENDBRANCH   9  12
ENDBRANCH   1   9
TORSDOF 5
