REMARK  Name = 5950
REMARK  4 active torsions:
REMARK  status: ('A' for Active; 'I' for Inactive)
REMARK    1  A    between atoms: O_1  and  C_6
REMARK    2  A    between atoms: N_3  and  CA_4
REMARK    3  A    between atoms: CA_4  and  CB_5
REMARK    4  A    between atoms: CA_4  and  C_6
REMARK                            x       y       z     vdW  Elec       q    Type
REMARK                         _______ _______ _______ _____ _____    ______ ____
ROOT
ATOM      1  CA  ALA A   1      -0.709  -0.114   0.394  0.00  0.00    +0.000 C 
ATOM      2  CB  ALA A   1      -1.335  -1.200  -0.470  0.00  0.00    +0.000 C 
ENDROOT
BRANCH   1   3
ATOM      3  N   ALA A   1      -1.411   1.151   0.182  0.00  0.00    +0.000 NA
ATOM      4  H1  ALA A   1      -2.392   1.042   0.438  0.00  0.00    +0.000 HD
ATOM      5  H2  ALA A   1      -1.407   1.387  -0.810  0.00  0.00    +0.000 HD
ENDBRANCH   1   3
BRANCH   1   7
ATOM      6  OXT ALA A   1       1.249   1.117  -0.405  0.00  0.00    +0.000 OA
ATOM      7  C   ALA A   1       0.747   0.090   0.031  0.00  0.00    +0.000 C 
BRANCH   7   8
ATOM      8  O   ALA A   1       1.457  -1.044   0.268  0.00  0.00    +0.000 OA
ATOM      9  H   ALA A   1       2.406  -0.934   0.045  0.00  0.00    +0.000 HD
ENDBRANCH   7   8
ENDBRANCH   1   7
TORSDOF 3
