REMARK  Name = 439524
REMARK  7 active torsions:
REMARK  status: ('A' for Active; 'I' for Inactive)
REMARK    1  A    between atoms: O_1  and  C_9
REMARK    2  A    between atoms: N_3  and  CA_6
REMARK    3  A    between atoms: CG_4  and  CB_5
REMARK    4  A    between atoms: CG_4  and  CD1_7
REMARK    5  A    between atoms: CG_4  and  CD2_8
REMARK    6  A    between atoms: CB_5  and  CA_6
REMARK    7  A    between atoms: CA_6  and  C_9
REMARK                            x       y       z     vdW  Elec       q    Type
REMARK                         _______ _______ _______ _____ _____    ______ ____
ROOT
ATOM      1  CA  LEU A   1       0.410   0.102  -0.391  0.00  0.00    +0.000 C 
ENDROOT
BRANCH   1   2
ATOM      2  N   LEU A   1       0.215   1.543  -0.551  0.00  0.00    +0.000 NA
ATOM      3  H1  LEU A   1       0.860   1.905  -1.252  0.00  0.00    +0.000 HD
ATOM      4  H2  LEU A   1       0.431   2.024   0.321  0.00  0.00    +0.000 HD
ENDBRANCH   1   2
BRANCH   1   6
ATOM      5  OXT LEU A   1       2.698   0.759   0.162  0.00  0.00    +0.000 OA
ATOM      6  C   LEU A   1       1.869  -0.121  -0.026  0.00  0.00    +0.000 C 
BRANCH   6   7
ATOM      7  O   LEU A   1       2.171  -1.444   0.063  0.00  0.00    +0.000 OA
ATOM      8  H   LEU A   1       3.113  -1.588   0.295  0.00  0.00    +0.000 HD
ENDBRANCH   6   7
ENDBRANCH   1   6
BRANCH   1   9
ATOM      9  CB  LEU A   1      -0.491  -0.473   0.713  0.00  0.00    +0.000 C 
BRANCH   9  10
ATOM     10  CG  LEU A   1      -2.010  -0.383   0.455  0.00  0.00    +0.000 C 
ATOM     11  CD1 LEU A   1      -2.421  -1.070  -0.847  0.00  0.00    +0.000 C 
ATOM     12  CD2 LEU A   1      -2.441   1.087   0.423  0.00  0.00    +0.000 C 
ENDBRANCH   9  10
ENDBRANCH   1   9
TORSDOF 5
