REMARK  Name = 17753823
REMARK  13 active torsions:
REMARK  status: ('A' for Active; 'I' for Inactive)
REMARK    1  A    between atoms: OD1_1  and  CB_9
REMARK    2  A    between atoms: OD1_1  and  CG_11
REMARK    3  A    between atoms: OD2_2  and  CG_11
REMARK    4  A    between atoms: O_3  and  C_15
REMARK    5  A    between atoms: O_4  and  C_16
REMARK    6  A    between atoms: N_7  and  CA_12
REMARK    7  A    between atoms: N_8  and  CA_13
REMARK    8  A    between atoms: CB_9  and  CA_12
REMARK    9  A    between atoms: CB_9  and  CG2_14
REMARK   10  A    between atoms: CB_10  and  CG_11
REMARK   11  A    between atoms: CB_10  and  CA_13
REMARK   12  A    between atoms: CA_12  and  C_15
REMARK   13  A    between atoms: CA_13  and  C_16
REMARK                            x       y       z     vdW  Elec       q    Type
REMARK                         _______ _______ _______ _____ _____    ______ ____
ROOT
ATOM      1  CG  ASP A   1       0.533   1.440  -0.445  0.00  0.00    +0.000 C 
ENDROOT
BRANCH   1   2
ATOM      2  OD2 ASP A   1       0.356   2.799  -0.839  0.00  0.00    +0.000 OA
ATOM      3  HD2 ASP A   1      -0.130   2.800  -1.681  0.00  0.00    +0.000 HD
ENDBRANCH   1   2
BRANCH   1   4
ATOM      4  OD1 ASP A   1      -0.454   1.026   0.500  0.00  0.00    +0.000 OA
BRANCH   4   5
ATOM      5  CB  ASP A   1      -1.773   1.100  -0.024  0.00  0.00    +0.000 C 
ATOM      6  CG2 ASP A   1      -2.707   1.485   1.117  0.00  0.00    +0.000 C 
BRANCH   5   7
ATOM      7  CA  ASP A   1      -2.167  -0.219  -0.707  0.00  0.00    +0.000 C 
BRANCH   7   8
ATOM      8  N   ASP A   1      -3.524  -0.115  -1.253  0.00  0.00    +0.000 NA
ATOM      9  H1  ASP A   1      -3.744  -0.957  -1.783  0.00  0.00    +0.000 HD
ATOM     10  H2  ASP A   1      -3.565   0.656  -1.918  0.00  0.00    +0.000 HD
ENDBRANCH   7   8
BRANCH   7  12
ATOM     11  OXT ASP A   1      -3.156  -2.057   0.557  0.00  0.00    +0.000 OA
ATOM     12  C   ASP A   1      -2.170  -1.395   0.256  0.00  0.00    +0.000 C 
BRANCH  12  13
ATOM     13  O   ASP A   1      -0.932  -1.662   0.746  0.00  0.00    +0.000 OA
ATOM     14  H   ASP A   1      -0.938  -2.426   1.361  0.00  0.00    +0.000 HD
ENDBRANCH  12  13
ENDBRANCH   7  12
ENDBRANCH   5   7
ENDBRANCH   4   5
ENDBRANCH   1   4
BRANCH   1  15
ATOM     15  CB  ASP A   1       1.913   1.338   0.219  0.00  0.00    +0.000 C 
BRANCH  15  16
ATOM     16  CA  ASP A   1       2.277  -0.087   0.664  0.00  0.00    +0.000 C 
BRANCH  16  17
ATOM     17  N   ASP A   1       3.369  -0.035   1.634  0.00  0.00    +0.000 NA
ATOM     18  H1  ASP A   1       3.558  -0.973   1.988  0.00  0.00    +0.000 HD
ATOM     19  H2  ASP A   1       3.085   0.518   2.442  0.00  0.00    +0.000 HD
ENDBRANCH  16  17
BRANCH  16  21
ATOM     20  OXT ASP A   1       3.923  -1.024  -0.869  0.00  0.00    +0.000 OA
ATOM     21  C   ASP A   1       2.761  -0.943  -0.492  0.00  0.00    +0.000 C 
BRANCH  21  22
ATOM     22  O   ASP A   1       1.751  -1.651  -1.064  0.00  0.00    +0.000 OA
ATOM     23  H   ASP A   1       2.070  -2.212  -1.803  0.00  0.00    +0.000 HD
ENDBRANCH  21  22
ENDBRANCH  16  21
ENDBRANCH  15  16
ENDBRANCH   1  15
TORSDOF 12
