REMARK  Name = 6971051
REMARK  6 active torsions:
REMARK  status: ('A' for Active; 'I' for Inactive)
REMARK    1  A    between atoms: O_1  and  C_7
REMARK    2  A    between atoms: O_1  and  C_9
REMARK    3  A    between atoms: N_5  and  C_6
REMARK    4  A    between atoms: C_6  and  C_7
REMARK    5  A    between atoms: C_6  and  C_8
REMARK    6  A    between atoms: C_9  and  C_10
REMARK                            x       y       z     vdW  Elec       q    Type
REMARK                         _______ _______ _______ _____ _____    ______ ____
ROOT
ATOM      1  C   UNK     1       1.282   0.753   0.450  0.00  0.00    +0.000 C 
ENDROOT
BRANCH   1   2
ATOM      2  N   UNK     1       1.399   1.790  -0.624  0.00  0.00    +0.000 N 
ATOM      3  H   UNK     1       0.915   1.496  -1.484  0.00  0.00    +0.000 HD
ATOM      4  H   UNK     1       2.383   1.963  -0.868  0.00  0.00    +0.000 HD
ATOM      5  H   UNK     1       0.994   2.689  -0.331  0.00  0.00    +0.000 HD
ENDBRANCH   1   2
BRANCH   1   8
ATOM      6  O   UNK     1       2.933  -0.481  -0.749  0.00  0.00    +0.000 OA
ATOM      7  O   UNK     1       1.546  -1.584   0.688  0.00  0.00    +0.000 OA
ATOM      8  C   UNK     1       1.998  -0.562   0.096  0.00  0.00    +0.000 C 
ENDBRANCH   1   8
BRANCH   1   9
ATOM      9  C   UNK     1      -0.194   0.623   0.814  0.00  0.00    +0.000 C 
BRANCH   9  10
ATOM     10  O   UNK     1      -0.923   0.067  -0.273  0.00  0.00    +0.000 OA
BRANCH  10  12
ATOM     11  O   UNK     1      -2.877   0.185   0.954  0.00  0.00    +0.000 OA
ATOM     12  C   UNK     1      -2.264  -0.100  -0.067  0.00  0.00    +0.000 C 
ATOM     13  C   UNK     1      -2.899  -0.691  -1.289  0.00  0.00    +0.000 C 
ENDBRANCH  10  12
ENDBRANCH   9  10
ENDBRANCH   1   9
TORSDOF 5
