REMARK  Name = 25245776
REMARK  10 active torsions:
REMARK  status: ('A' for Active; 'I' for Inactive)
REMARK    1  A    between atoms: S_1  and  C_13
REMARK    2  A    between atoms: S_1  and  C_14
REMARK    3  A    between atoms: O_3  and  C_10
REMARK    4  A    between atoms: O_4  and  C_11
REMARK    5  A    between atoms: O_5  and  C_12
REMARK    6  A    between atoms: N_8  and  C_16
REMARK    7  A    between atoms: C_9  and  C_13
REMARK    8  A    between atoms: C_14  and  C_15
REMARK    9  A    between atoms: C_15  and  C_16
REMARK   10  A    between atoms: C_16  and  C_17
REMARK                            x       y       z     vdW  Elec       q    Type
REMARK                         _______ _______ _______ _____ _____    ______ ____
ROOT
ATOM      1  C   UNK     1      -0.500  -0.130  -0.102  0.00  0.00    +0.000 C 
ENDROOT
BRANCH   1   3
ATOM      2  O   UNK     1      -2.608  -1.229   0.337  0.00  0.00    +0.000 OA
ATOM      3  C   UNK     1      -1.974  -0.209  -0.455  0.00  0.00    +0.000 C 
ATOM      4  C   UNK     1      -2.733   1.075  -0.163  0.00  0.00    +0.000 C 
ATOM      5  C   UNK     1      -4.140   0.557   0.057  0.00  0.00    +0.000 C 
ATOM      6  C   UNK     1      -3.866  -0.725   0.829  0.00  0.00    +0.000 C 
BRANCH   4   7
ATOM      7  O   UNK     1      -2.636   2.000  -1.225  0.00  0.00    +0.000 OA
ATOM      8  H   UNK     1      -3.234   2.740  -1.022  0.00  0.00    +0.000 HD
ENDBRANCH   4   7
BRANCH   5   9
ATOM      9  O   UNK     1      -4.740   0.236  -1.195  0.00  0.00    +0.000 OA
ATOM     10  H   UNK     1      -5.613  -0.149  -1.008  0.00  0.00    +0.000 HD
ENDBRANCH   5   9
BRANCH   6  11
ATOM     11  O   UNK     1      -3.772  -0.422   2.216  0.00  0.00    +0.000 OA
ATOM     12  H   UNK     1      -3.933  -1.249   2.700  0.00  0.00    +0.000 HD
ENDBRANCH   6  11
ENDBRANCH   1   3
BRANCH   1  13
ATOM     13  S   UNK     1       0.331  -1.694  -0.490  0.00  0.00    +0.000 S 
BRANCH  13  14
ATOM     14  C   UNK     1       2.001  -1.246   0.041  0.00  0.00    +0.000 C 
BRANCH  14  15
ATOM     15  C   UNK     1       2.713  -0.444  -1.051  0.00  0.00    +0.000 C 
BRANCH  15  16
ATOM     16  C   UNK     1       4.138  -0.008  -0.676  0.00  0.00    +0.000 C 
BRANCH  16  17
ATOM     17  N   UNK     1       4.975  -1.245  -0.573  0.00  0.00    +0.000 N 
ATOM     18  H   UNK     1       4.890  -1.837  -1.409  0.00  0.00    +0.000 HD
ATOM     19  H   UNK     1       4.719  -1.815   0.244  0.00  0.00    +0.000 HD
ATOM     20  H   UNK     1       5.971  -1.005  -0.472  0.00  0.00    +0.000 HD
ENDBRANCH  16  17
BRANCH  16  23
ATOM     21  O   UNK     1       5.323   0.868   1.191  0.00  0.00    +0.000 OA
ATOM     22  O   UNK     1       3.245   1.685   0.723  0.00  0.00    +0.000 OA
ATOM     23  C   UNK     1       4.244   0.933   0.537  0.00  0.00    +0.000 C 
ENDBRANCH  16  23
ENDBRANCH  15  16
ENDBRANCH  14  15
ENDBRANCH  13  14
ENDBRANCH   1  13
TORSDOF 10
