REMARK  Name = 
REMARK  5 active torsions:
REMARK  status: ('A' for Active; 'I' for Inactive)
REMARK    1  A    between atoms: C_1  and  CA_2
REMARK    2  A    between atoms: C_1  and  SE_9
REMARK    3  A    between atoms: CA_2  and  C_3
REMARK    4  A    between atoms: CA_2  and  N_4
REMARK    5  A    between atoms: C_3  and  OXT_6
REMARK                            x       y       z     vdW  Elec       q    Type
REMARK                         _______ _______ _______ _____ _____    ______ ____
ROOT
ATOM      1  CA  UNL     1       1.238   0.715   0.000  0.00  0.00    +0.000 C 
ENDROOT
BRANCH   1   2
ATOM      2  N   UNL     1       1.238  -0.111   0.000  0.00  0.00    +0.000 NA
ATOM      3  H1  UNL     1       0.354  -0.621   0.000  0.00  0.00    +0.000 HD
ATOM      4  H2  UNL     1       2.121  -0.620   0.000  0.00  0.00    +0.000 HD
ENDBRANCH   1   2
BRANCH   1   5
ATOM      5  C   UNL     1       0.523   1.127   0.000  0.00  0.00    +0.000 C 
ATOM      6  O   UNL     1      -0.191   0.715   0.000  0.00  0.00    +0.000 OA
BRANCH   5   7
ATOM      7  OXT UNL     1       0.523   1.952   0.000  0.00  0.00    +0.000 OA
ATOM      8  HXT UNL     1       1.334   2.421   0.000  0.00  0.00    +0.000 HD
ENDBRANCH   5   7
ENDBRANCH   1   5
BRANCH   1   9
ATOM      9  C   UNL     1       1.952   1.127   0.000  0.00  0.00    +0.000 C 
BRANCH   9  12
ATOM     10  O   UNL     1       3.381   1.127   0.000  0.00  0.00    +0.000 OA
ATOM     11  O   UNL     1       2.666  -0.111   0.000  0.00  0.00    +0.000 OA
ATOM     12 SE   UNL     1       2.666   0.715   0.000  0.00  0.00    +0.000 Se
ATOM     13  H   UNL     1       3.974  -0.041   0.000  0.00  0.00    +0.000 HD
ENDBRANCH   9  12
ENDBRANCH   1   9
TORSDOF 5
