REMARK  Name = 91825600
REMARK  6 active torsions:
REMARK  status: ('A' for Active; 'I' for Inactive)
REMARK    1  A    between atoms: O_4  and  N_6
REMARK    2  A    between atoms: N_5  and  CA_7
REMARK    3  A    between atoms: CA_7  and  C_8
REMARK    4  A    between atoms: CA_7  and  C_10
REMARK    5  A    between atoms: C_8  and  C_9
REMARK    6  A    between atoms: C_9  and  C_11
REMARK                            x       y       z     vdW  Elec       q    Type
REMARK                         _______ _______ _______ _____ _____    ______ ____
ROOT
ATOM      1  CA  UNL     1       1.752  -0.772  -0.011  0.00  0.00    +0.000 C 
ENDROOT
BRANCH   1   2
ATOM      2  N   UNL     1       2.480  -1.535   1.053  0.00  0.00    +0.000 N 
ATOM      3  H1  UNL     1       3.487  -1.585   0.849  0.00  0.00    +0.000 HD
ATOM      4  H2  UNL     1       2.137  -2.502   1.129  0.00  0.00    +0.000 HD
ATOM      5  H3  UNL     1       2.375  -1.093   1.976  0.00  0.00    +0.000 HD
ENDBRANCH   1   2
BRANCH   1   8
ATOM      6  O   UNL     1       2.184   1.415   0.820  0.00  0.00    +0.000 OA
ATOM      7  OXT UNL     1       2.857   0.872  -1.295  0.00  0.00    +0.000 OA
ATOM      8  C   UNL     1       2.324   0.645  -0.171  0.00  0.00    +0.000 C 
ENDBRANCH   1   8
BRANCH   1   9
ATOM      9  C   UNL     1       0.264  -0.819   0.351  0.00  0.00    +0.000 C 
BRANCH   9  10
ATOM     10  C   UNL     1      -0.612  -0.162  -0.718  0.00  0.00    +0.000 C 
BRANCH  10  13
ATOM     11  O   UNL     1      -2.817  -1.162  -0.717  0.00  0.00    +0.000 OA
ATOM     12  N   UNL     1      -2.495   0.862   0.349  0.00  0.00    +0.000 N 
ATOM     13  C   UNL     1      -2.090  -0.232  -0.378  0.00  0.00    +0.000 C 
ATOM     14  H   UNL     1      -1.950   1.693   0.545  0.00  0.00    +0.000 HD
BRANCH  12  15
ATOM     15  O   UNL     1      -3.847   0.887   0.717  0.00  0.00    +0.000 OA
ATOM     16  H   UNL     1      -3.788   0.515   1.613  0.00  0.00    +0.000 HD
ENDBRANCH  12  15
ENDBRANCH  10  13
ENDBRANCH   9  10
ENDBRANCH   1   9
TORSDOF 6
