REMARK  Name = 192579
REMARK  9 active torsions:
REMARK  status: ('A' for Active; 'I' for Inactive)
REMARK    1  A    between atoms: S_1  and  C_10
REMARK    2  A    between atoms: S_1  and  C_11
REMARK    3  A    between atoms: P_2  and  O_3
REMARK    4  A    between atoms: P_2  and  O_4
REMARK    5  A    between atoms: P_2  and  C_11
REMARK    6  A    between atoms: O_6  and  C_12
REMARK    7  A    between atoms: N_8  and  C_9
REMARK    8  A    between atoms: C_9  and  C_10
REMARK    9  A    between atoms: C_9  and  C_12
REMARK                            x       y       z     vdW  Elec       q    Type
REMARK                         _______ _______ _______ _____ _____    ______ ____
ROOT
ATOM      1  C   UNK     1      -1.061  -1.163  -0.061  0.00  0.00    +0.000 C 
ENDROOT
BRANCH   1   2
ATOM      2  S   UNK     1       0.267  -0.040   0.477  0.00  0.00    +0.000 S 
BRANCH   2   3
ATOM      3  C   UNK     1       1.649  -0.870  -0.334  0.00  0.00    +0.000 C 
BRANCH   3   4
ATOM      4  P   UNK     1       3.104   0.077   0.065  0.00  0.00    +0.000 P 
ATOM      5  O   UNK     1       3.419   0.191   1.528  0.00  0.00    +0.000 OA
BRANCH   4   6
ATOM      6  O   UNK     1       2.890   1.482  -0.706  0.00  0.00    +0.000 OA
ATOM      7  H   UNK     1       3.569   2.184  -0.612  0.00  0.00    +0.000 HD
ENDBRANCH   4   6
BRANCH   4   8
ATOM      8  O   UNK     1       4.253  -0.645  -0.815  0.00  0.00    +0.000 OA
ATOM      9  H   UNK     1       5.178  -0.326  -0.741  0.00  0.00    +0.000 HD
ENDBRANCH   4   8
ENDBRANCH   3   4
ENDBRANCH   2   3
ENDBRANCH   1   2
BRANCH   1  10
ATOM     10  C   UNK     1      -2.437  -0.693   0.416  0.00  0.00    +0.000 C 
BRANCH  10  11
ATOM     11  N   UNK     1      -3.474  -1.611  -0.060  0.00  0.00    +0.000 NA
ATOM     12  H   UNK     1      -4.372  -1.351   0.346  0.00  0.00    +0.000 HD
ATOM     13  H   UNK     1      -3.274  -2.553   0.273  0.00  0.00    +0.000 HD
ENDBRANCH  10  11
BRANCH  10  15
ATOM     14  O   UNK     1      -2.810   0.980  -1.291  0.00  0.00    +0.000 OA
ATOM     15  C   UNK     1      -2.781   0.692  -0.100  0.00  0.00    +0.000 C 
BRANCH  15  16
ATOM     16  O   UNK     1      -3.021   1.598   0.881  0.00  0.00    +0.000 OA
ATOM     17  H   UNK     1      -3.224   2.486   0.517  0.00  0.00    +0.000 HD
ENDBRANCH  15  16
ENDBRANCH  10  15
ENDBRANCH   1  10
TORSDOF 9
