REMARK  Name = 441123
REMARK  7 active torsions:
REMARK  status: ('A' for Active; 'I' for Inactive)
REMARK    1  A    between atoms: O_2  and  C_14
REMARK    2  A    between atoms: N_4  and  C_8
REMARK    3  A    between atoms: N_5  and  C_15
REMARK    4  A    between atoms: C_8  and  C_11
REMARK    5  A    between atoms: C_8  and  C_14
REMARK    6  A    between atoms: C_11  and  C_13
REMARK    7  A    between atoms: C_13  and  C_15
REMARK                            x       y       z     vdW  Elec       q    Type
REMARK                         _______ _______ _______ _____ _____    ______ ____
ROOT
ATOM      1  C   UNL     1       0.088  -0.830  -0.529  0.00  0.00    +0.000 C 
ENDROOT
BRANCH   1   2
ATOM      2  C   UNL     1      -1.441  -0.693  -0.581  0.00  0.00    +0.000 C 
BRANCH   2   4
ATOM      3  O   UNL     1      -2.990   1.963  -1.316  0.00  0.00    +0.000 OA
ATOM      4  N   UNL     1      -1.856   0.512   0.133  0.00  0.00    +0.000 N 
ATOM      5  C   UNL     1      -1.668   0.877   1.505  0.00  0.00    +0.000 C 
ATOM      6  C   UNL     1      -2.421   2.177   1.163  0.00  0.00    +0.000 C 
ATOM      7  C   UNL     1      -2.519   1.604  -0.261  0.00  0.00    +0.000 C 
ENDBRANCH   2   4
BRANCH   2   9
ATOM      8  O   UNL     1      -3.224  -1.773   0.681  0.00  0.00    +0.000 OA
ATOM      9  C   UNL     1      -2.147  -1.849   0.104  0.00  0.00    +0.000 C 
BRANCH   9  10
ATOM     10  O   UNL     1      -1.455  -3.013  -0.012  0.00  0.00    +0.000 OA
ATOM     11  H   UNL     1      -1.920  -3.759   0.422  0.00  0.00    +0.000 HD
ENDBRANCH   9  10
ENDBRANCH   2   9
ENDBRANCH   1   2
BRANCH   1  12
ATOM     12  C   UNL     1       0.798   0.334  -1.237  0.00  0.00    +0.000 C 
BRANCH  12  13
ATOM     13  C   UNL     1       2.317   0.193  -1.207  0.00  0.00    +0.000 C 
BRANCH  13  14
ATOM     14  N   UNL     1       2.790   0.195   0.178  0.00  0.00    +0.000 NA
ATOM     15  N   UNL     1       4.598   0.124   1.627  0.00  0.00    +0.000 N 
ATOM     16  N   UNL     1       5.057   0.051  -0.604  0.00  0.00    +0.000 N 
ATOM     17  C   UNL     1       4.073   0.127   0.356  0.00  0.00    +0.000 C 
ATOM     18  H   UNL     1       3.996   0.175   2.442  0.00  0.00    +0.000 HD
ATOM     19  H   UNL     1       5.598   0.072   1.788  0.00  0.00    +0.000 HD
ATOM     20  H   UNL     1       6.037   0.002  -0.345  0.00  0.00    +0.000 HD
ATOM     21  H   UNL     1       4.846   0.040  -1.595  0.00  0.00    +0.000 HD
ENDBRANCH  13  14
ENDBRANCH  12  13
ENDBRANCH   1  12
TORSDOF 7
