REMARK  Name = 5321765
REMARK  11 active torsions:
REMARK  status: ('A' for Active; 'I' for Inactive)
REMARK    1  A    between atoms: O_1  and  C_7
REMARK    2  A    between atoms: O_1  and  C_20
REMARK    3  A    between atoms: O_2  and  C_10
REMARK    4  A    between atoms: O_4  and  C_25
REMARK    5  A    between atoms: C_5  and  C_6
REMARK    6  A    between atoms: C_6  and  C_11
REMARK    7  A    between atoms: C_9  and  C_14
REMARK    8  A    between atoms: C_13  and  C_15
REMARK    9  A    between atoms: C_13  and  C_16
REMARK   10  A    between atoms: C_14  and  C_17
REMARK   11  A    between atoms: C_18  and  C_19
REMARK                            x       y       z     vdW  Elec       q    Type
REMARK                         _______ _______ _______ _____ _____    ______ ____
ROOT
ATOM      1  C   UNL     1      -2.826   0.183  -0.608  0.00  0.00    +0.000 A 
ATOM      2  C   UNL     1      -3.172   1.526  -0.620  0.00  0.00    +0.000 A 
ATOM      3  C   UNL     1      -1.669  -0.253   0.021  0.00  0.00    +0.000 A 
ATOM      4  C   UNL     1      -0.839   0.675   0.650  0.00  0.00    +0.000 A 
ATOM      5  C   UNL     1      -1.177   2.029   0.645  0.00  0.00    +0.000 A 
ATOM      6  C   UNL     1      -2.343   2.454   0.010  0.00  0.00    +0.000 A 
ENDROOT
BRANCH   2   7
ATOM      7  O   UNL     1      -4.308   1.959  -1.237  0.00  0.00    +0.000 OA
ATOM      8  C   UNL     1      -4.575   3.359  -1.194  0.00  0.00    +0.000 C 
ENDBRANCH   2   7
BRANCH   5   9
ATOM      9  O   UNL     1      -0.380   2.950   1.255  0.00  0.00    +0.000 OA
ATOM     10  H   UNL     1      -0.770   3.834   1.149  0.00  0.00    +0.000 HD
ENDBRANCH   5   9
BRANCH   4  12
ATOM     11  O   UNL     1       0.366  -0.100   2.508  0.00  0.00    +0.000 OA
ATOM     12  C   UNL     1       0.374   0.210   1.308  0.00  0.00    +0.000 C 
BRANCH  12  13
ATOM     13  C   UNL     1       1.643   0.143   0.508  0.00  0.00    +0.000 C 
ATOM     14  C   UNL     1       2.790  -0.253   1.081  0.00  0.00    +0.000 C 
BRANCH  14  15
ATOM     15  C   UNL     1       4.086  -0.337   0.385  0.00  0.00    +0.000 A 
ATOM     16  C   UNL     1       4.110  -0.404  -0.999  0.00  0.00    +0.000 A 
ATOM     17  C   UNL     1       5.255  -0.348   1.128  0.00  0.00    +0.000 A 
ATOM     18  C   UNL     1       5.337  -0.483  -1.657  0.00  0.00    +0.000 A 
ATOM     19  C   UNL     1       6.482  -0.428   0.469  0.00  0.00    +0.000 A 
ATOM     20  C   UNL     1       6.523  -0.496  -0.923  0.00  0.00    +0.000 A 
BRANCH  20  21
ATOM     21  O   UNL     1       7.720  -0.574  -1.566  0.00  0.00    +0.000 OA
ATOM     22  H   UNL     1       8.433  -0.571  -0.905  0.00  0.00    +0.000 HD
ENDBRANCH  20  21
ENDBRANCH  14  15
ENDBRANCH  12  13
ENDBRANCH   4  12
BRANCH   1  23
ATOM     23  C   UNL     1      -3.711  -0.834  -1.285  0.00  0.00    +0.000 C 
BRANCH  23  24
ATOM     24  C   UNL     1      -4.754  -1.391  -0.357  0.00  0.00    +0.000 C 
ATOM     25  C   UNL     1      -4.925  -2.672   0.022  0.00  0.00    +0.000 C 
ATOM     26  C   UNL     1      -5.992  -3.165   0.957  0.00  0.00    +0.000 C 
ATOM     27  C   UNL     1      -4.013  -3.749  -0.502  0.00  0.00    +0.000 C 
ENDBRANCH  23  24
ENDBRANCH   1  23
TORSDOF 8
