REMARK  Name = 84815
REMARK  7 active torsions:
REMARK  status: ('A' for Active; 'I' for Inactive)
REMARK    1  A    between atoms: SD_1  and  CG_7
REMARK    2  A    between atoms: SD_1  and  CE_9
REMARK    3  A    between atoms: O_2  and  C_8
REMARK    4  A    between atoms: N_4  and  CA_6
REMARK    5  A    between atoms: CB_5  and  CA_6
REMARK    6  A    between atoms: CB_5  and  CG_7
REMARK    7  A    between atoms: CA_6  and  C_8
REMARK                            x       y       z     vdW  Elec       q    Type
REMARK                         _______ _______ _______ _____ _____    ______ ____
ROOT
ATOM      1  CA  MET A   1       0.569   0.648  -0.366  0.00  0.00    +0.000 C 
ENDROOT
BRANCH   1   2
ATOM      2  N   MET A   1       1.333   1.895  -0.476  0.00  0.00    +0.000 NA
ATOM      3  H1  MET A   1       1.782   2.108   0.415  0.00  0.00    +0.000 HD
ATOM      4  H2  MET A   1       0.694   2.669  -0.657  0.00  0.00    +0.000 HD
ENDBRANCH   1   2
BRANCH   1   6
ATOM      5  OXT MET A   1       2.617  -0.333   0.518  0.00  0.00    +0.000 OA
ATOM      6  C   MET A   1       1.581  -0.457  -0.122  0.00  0.00    +0.000 C 
BRANCH   6   7
ATOM      7  O   MET A   1       1.199  -1.638  -0.675  0.00  0.00    +0.000 OA
ATOM      8  H   MET A   1       1.850  -2.350  -0.501  0.00  0.00    +0.000 HD
ENDBRANCH   6   7
ENDBRANCH   1   6
BRANCH   1   9
ATOM      9  CB  MET A   1      -0.420   0.763   0.802  0.00  0.00    +0.000 C 
BRANCH   9  10
ATOM     10  CG  MET A   1      -1.264  -0.485   1.078  0.00  0.00    +0.000 C 
BRANCH  10  11
ATOM     11  SD  MET A   1      -2.322  -0.957  -0.322  0.00  0.00    +0.000 S 
ATOM     12  CE  MET A   1      -3.294   0.562  -0.437  0.00  0.00    +0.000 C 
ENDBRANCH  10  11
ENDBRANCH   9  10
ENDBRANCH   1   9
TORSDOF 6
