REMARK  Name = 9543429
REMARK  12 active torsions:
REMARK  status: ('A' for Active; 'I' for Inactive)
REMARK    1  A    between atoms: S_1  and  O_5
REMARK    2  A    between atoms: S_1  and  N_10
REMARK    3  A    between atoms: P_2  and  N_9
REMARK    4  A    between atoms: P_2  and  N_10
REMARK    5  A    between atoms: P_2  and  N_12
REMARK    6  A    between atoms: O_4  and  C_17
REMARK    7  A    between atoms: N_9  and  C_15
REMARK    8  A    between atoms: N_11  and  CA_16
REMARK    9  A    between atoms: C_13  and  C_14
REMARK   10  A    between atoms: C_13  and  C_15
REMARK   11  A    between atoms: C_14  and  CA_16
REMARK   12  A    between atoms: CA_16  and  C_17
REMARK                            x       y       z     vdW  Elec       q    Type
REMARK                         _______ _______ _______ _____ _____    ______ ____
ROOT
ATOM      1  N   UNL     1      -0.411   0.603   0.738  0.00  0.00    +0.000 NA
ATOM      2  H   UNL     1      -0.291   0.390   1.728  0.00  0.00    +0.000 HD
ENDROOT
BRANCH   1   3
ATOM      3  P   UNL     1      -1.968   0.907   0.236  0.00  0.00    +0.000 P 
ATOM      4  O   UNL     1      -2.097   1.373  -1.194  0.00  0.00    +0.000 OA
BRANCH   3   5
ATOM      5  N   UNL     1      -2.616   1.955   1.353  0.00  0.00    +0.000 NA
ATOM      6  H   UNL     1      -3.607   2.173   1.257  0.00  0.00    +0.000 HD
ATOM      7  H   UNL     1      -2.147   2.853   1.461  0.00  0.00    +0.000 HD
ENDBRANCH   3   5
BRANCH   3   8
ATOM      8  N   UNL     1      -2.847  -0.605   0.500  0.00  0.00    +0.000 NA
ATOM      9  H   UNL     1      -2.761  -1.030   1.432  0.00  0.00    +0.000 HD
BRANCH   8  10
ATOM     10  S   UNL     1      -4.400  -0.700  -0.224  0.00  0.00    +0.000 S 
ATOM     11  O   UNL     1      -5.116  -1.813   0.369  0.00  0.00    +0.000 OA
ATOM     12  O   UNL     1      -4.244  -0.612  -1.664  0.00  0.00    +0.000 OA
BRANCH  10  13
ATOM     13  O   UNL     1      -5.127   0.673   0.273  0.00  0.00    +0.000 OA
ATOM     14  H   UNL     1      -5.282   0.738   1.245  0.00  0.00    +0.000 HD
ENDBRANCH  10  13
ENDBRANCH   8  10
ENDBRANCH   3   8
ENDBRANCH   1   3
BRANCH   1  15
ATOM     15  C   UNL     1       0.424  -0.295  -0.051  0.00  0.00    +0.000 C 
BRANCH  15  16
ATOM     16  C   UNL     1       1.887  -0.175   0.379  0.00  0.00    +0.000 C 
BRANCH  16  17
ATOM     17  C   UNL     1       2.781  -1.109  -0.449  0.00  0.00    +0.000 C 
BRANCH  17  18
ATOM     18  CA  UNL     1       4.281  -1.020  -0.132  0.00  0.00    +0.000 C 
BRANCH  18  19
ATOM     19  N   UNL     1       4.597  -1.453   1.229  0.00  0.00    +0.000 NA
ATOM     20  H1  UNL     1       4.170  -0.823   1.907  0.00  0.00    +0.000 HD
ATOM     21  H2  UNL     1       5.603  -1.403   1.383  0.00  0.00    +0.000 HD
ENDBRANCH  18  19
BRANCH  18  23
ATOM     22  OXT UNL     1       5.349   1.065   0.554  0.00  0.00    +0.000 OA
ATOM     23  C   UNL     1       4.828   0.384  -0.320  0.00  0.00    +0.000 C 
BRANCH  23  24
ATOM     24  O   UNL     1       4.679   0.821  -1.598  0.00  0.00    +0.000 OA
ATOM     25  H   UNL     1       5.032   1.728  -1.717  0.00  0.00    +0.000 HD
ENDBRANCH  23  24
ENDBRANCH  18  23
ENDBRANCH  17  18
ENDBRANCH  16  17
ENDBRANCH  15  16
ENDBRANCH   1  15
TORSDOF 12
