REMARK  Name = 
REMARK  6 active torsions:
REMARK  status: ('A' for Active; 'I' for Inactive)
REMARK    1  A    between atoms: N_1  and  C_2
REMARK    2  A    between atoms: C_2  and  C_3
REMARK    3  A    between atoms: C_2  and  C_6
REMARK    4  A    between atoms: C_3  and  S_4
REMARK    5  A    between atoms: S_4  and  SE_5
REMARK    6  A    between atoms: C_6  and  O_7
REMARK                            x       y       z     vdW  Elec       q    Type
REMARK                         _______ _______ _______ _____ _____    ______ ____
ROOT
ATOM      1  C   UNK     1       1.952   1.127   0.000  0.00  0.00    +0.000 C 
ENDROOT
BRANCH   1   2
ATOM      2  N   UNK     1       1.952   1.952   0.000  0.00  0.00    +0.000 NA
ATOM      3  H   UNK     1       2.835   2.462   0.000  0.00  0.00    +0.000 HD
ATOM      4  H   UNK     1       1.069   2.462   0.000  0.00  0.00    +0.000 HD
ENDBRANCH   1   2
BRANCH   1   5
ATOM      5  C   UNK     1       2.666   0.715   0.000  0.00  0.00    +0.000 C 
ATOM      6  O   UNK     1       2.666  -0.111   0.000  0.00  0.00    +0.000 OA
BRANCH   5   7
ATOM      7  O   UNK     1       3.381   1.127   0.000  0.00  0.00    +0.000 OA
ATOM      8  H   UNK     1       4.192   0.658   0.000  0.00  0.00    +0.000 HD
ENDBRANCH   5   7
ENDBRANCH   1   5
BRANCH   1   9
ATOM      9  C   UNK     1       1.238   0.715   0.000  0.00  0.00    +0.000 C 
BRANCH   9  10
ATOM     10  S   UNK     1       0.523   1.127   0.000  0.00  0.00    +0.000 S 
BRANCH  10  11
ATOM     11 SE   UNK     1      -0.191   0.715   0.000  0.00  0.00    +0.000 Se
ATOM     12  H   UNK     1      -1.499   1.469   0.000  0.00  0.00    +0.000 HD
ENDBRANCH  10  11
ENDBRANCH   9  10
ENDBRANCH   1   9
TORSDOF 6
