REMARK  Name = 5287587
REMARK  7 active torsions:
REMARK  status: ('A' for Active; 'I' for Inactive)
REMARK    1  A    between atoms: O_1  and  C_8
REMARK    2  A    between atoms: O_2  and  C_9
REMARK    3  A    between atoms: N_4  and  CA_6
REMARK    4  A    between atoms: C_5  and  CA_6
REMARK    5  A    between atoms: C_5  and  C_7
REMARK    6  A    between atoms: CA_6  and  C_9
REMARK    7  A    between atoms: C_7  and  C_8
REMARK                            x       y       z     vdW  Elec       q    Type
REMARK                         _______ _______ _______ _____ _____    ______ ____
ROOT
ATOM      1  CA  UNL     1       1.068   0.655   0.502  0.00  0.00    +0.000 C 
ENDROOT
BRANCH   1   2
ATOM      2  N   UNL     1       2.051   1.679   0.140  0.00  0.00    +0.000 NA
ATOM      3  H1  UNL     1       1.756   2.580   0.514  0.00  0.00    +0.000 HD
ATOM      4  H2  UNL     1       2.075   1.794  -0.874  0.00  0.00    +0.000 HD
ENDBRANCH   1   2
BRANCH   1   6
ATOM      5  OXT UNL     1       2.197  -0.793  -1.101  0.00  0.00    +0.000 OA
ATOM      6  C   UNL     1       1.566  -0.666  -0.059  0.00  0.00    +0.000 C 
BRANCH   6   7
ATOM      7  O   UNL     1       1.256  -1.717   0.743  0.00  0.00    +0.000 OA
ATOM      8  H   UNL     1       1.588  -2.565   0.380  0.00  0.00    +0.000 HD
ENDBRANCH   6   7
ENDBRANCH   1   6
BRANCH   1   9
ATOM      9  C   UNL     1      -0.298   1.034  -0.083  0.00  0.00    +0.000 C 
BRANCH   9  10
ATOM     10  C   UNL     1      -1.387  -0.001   0.230  0.00  0.00    +0.000 C 
BRANCH  10  11
ATOM     11  C   UNL     1      -2.744   0.403  -0.335  0.00  0.00    +0.000 C 
BRANCH  11  12
ATOM     12  O   UNL     1      -3.710  -0.595  -0.036  0.00  0.00    +0.000 OA
ATOM     13  H   UNL     1      -3.758  -0.674   0.932  0.00  0.00    +0.000 HD
ENDBRANCH  11  12
ENDBRANCH  10  11
ENDBRANCH   9  10
ENDBRANCH   1   9
TORSDOF 7
