REMARK  Name = 123895
REMARK  8 active torsions:
REMARK  status: ('A' for Active; 'I' for Inactive)
REMARK    1  A    between atoms: O_1  and  C_12
REMARK    2  A    between atoms: O_3  and  N_6
REMARK    3  A    between atoms: N_4  and  C_10
REMARK    4  A    between atoms: N_5  and  C_11
REMARK    5  A    between atoms: C_8  and  C_9
REMARK    6  A    between atoms: C_8  and  C_10
REMARK    7  A    between atoms: C_9  and  C_11
REMARK    8  A    between atoms: C_10  and  C_12
REMARK                            x       y       z     vdW  Elec       q    Type
REMARK                         _______ _______ _______ _____ _____    ______ ____
ROOT
ATOM      1  C   UNK     1      -0.418  -0.725  -0.541  0.00  0.00    +0.000 C 
ENDROOT
BRANCH   1   2
ATOM      2  C   UNK     1      -0.971   0.408   0.336  0.00  0.00    +0.000 C 
BRANCH   2   3
ATOM      3  C   UNK     1      -2.369   0.859  -0.113  0.00  0.00    +0.000 C 
BRANCH   3   4
ATOM      4  N   UNK     1      -2.874   1.886   0.794  0.00  0.00    +0.000 NA
ATOM      5  H   UNK     1      -3.755   2.256   0.438  0.00  0.00    +0.000 HD
ATOM      6  H   UNK     1      -2.226   2.673   0.816  0.00  0.00    +0.000 HD
ENDBRANCH   3   4
BRANCH   3   8
ATOM      7  O   UNK     1      -3.676  -0.914   0.930  0.00  0.00    +0.000 OA
ATOM      8  C   UNK     1      -3.381  -0.271  -0.070  0.00  0.00    +0.000 C 
BRANCH   8   9
ATOM      9  O   UNK     1      -3.962  -0.485  -1.280  0.00  0.00    +0.000 OA
ATOM     10  H   UNK     1      -4.623  -1.209  -1.245  0.00  0.00    +0.000 HD
ENDBRANCH   8   9
ENDBRANCH   3   8
ENDBRANCH   2   3
ENDBRANCH   1   2
BRANCH   1  11
ATOM     11  C   UNK     1       0.962  -1.191  -0.087  0.00  0.00    +0.000 C 
BRANCH  11  12
ATOM     12  N   UNK     1       1.917  -0.086  -0.181  0.00  0.00    +0.000 NA
ATOM     13  N   UNK     1       4.137   0.619   0.084  0.00  0.00    +0.000 N 
ATOM     14  N   UNK     1       3.665  -1.554   0.549  0.00  0.00    +0.000 N 
ATOM     15  C   UNK     1       3.150  -0.344   0.131  0.00  0.00    +0.000 C 
ATOM     16  H   UNK     1       5.121   0.415   0.218  0.00  0.00    +0.000 HD
ATOM     17  H   UNK     1       4.649  -1.651   0.773  0.00  0.00    +0.000 HD
ATOM     18  H   UNK     1       3.089  -2.382   0.651  0.00  0.00    +0.000 HD
BRANCH  13  19
ATOM     19  O   UNK     1       3.821   1.800  -0.553  0.00  0.00    +0.000 OA
ATOM     20  H   UNK     1       4.378   2.438  -0.076  0.00  0.00    +0.000 HD
ENDBRANCH  13  19
ENDBRANCH  11  12
ENDBRANCH   1  11
TORSDOF 8
