REMARK  Name = 446873
REMARK  7 active torsions:
REMARK  status: ('A' for Active; 'I' for Inactive)
REMARK    1  A    between atoms: P_1  and  O_2
REMARK    2  A    between atoms: P_1  and  O_3
REMARK    3  A    between atoms: P_1  and  C_8
REMARK    4  A    between atoms: O_5  and  C_10
REMARK    5  A    between atoms: N_7  and  CA_9
REMARK    6  A    between atoms: C_8  and  CA_9
REMARK    7  A    between atoms: CA_9  and  C_10
REMARK                            x       y       z     vdW  Elec       q    Type
REMARK                         _______ _______ _______ _____ _____    ______ ____
ROOT
ATOM      1  CA  UNL     1      -0.967   0.838   0.359  0.00  0.00    +0.000 C 
ENDROOT
BRANCH   1   2
ATOM      2  N   UNL     1      -1.956   1.851  -0.010  0.00  0.00    +0.000 NA
ATOM      3  H1  UNL     1      -2.846   1.647   0.442  0.00  0.00    +0.000 HD
ATOM      4  H2  UNL     1      -2.125   1.829  -1.014  0.00  0.00    +0.000 HD
ENDBRANCH   1   2
BRANCH   1   6
ATOM      5  OXT UNL     1      -1.794  -0.849  -1.195  0.00  0.00    +0.000 OA
ATOM      6  C   UNL     1      -1.530  -0.510  -0.048  0.00  0.00    +0.000 C 
BRANCH   6   7
ATOM      7  O   UNL     1      -1.743  -1.321   1.022  0.00  0.00    +0.000 OA
ATOM      8  H   UNL     1      -2.116  -2.188   0.754  0.00  0.00    +0.000 HD
ENDBRANCH   6   7
ENDBRANCH   1   6
BRANCH   1   9
ATOM      9  C   UNL     1       0.346   1.108  -0.367  0.00  0.00    +0.000 C 
BRANCH   9  10
ATOM     10  P   UNL     1       1.613  -0.145  -0.044  0.00  0.00    +0.000 P 
ATOM     11  O   UNL     1       1.211  -1.515  -0.459  0.00  0.00    +0.000 OA
BRANCH  10  12
ATOM     12  O   UNL     1       1.916   0.069   1.521  0.00  0.00    +0.000 OA
ATOM     13  H   UNL     1       2.566  -0.515   1.967  0.00  0.00    +0.000 HD
ENDBRANCH  10  12
BRANCH  10  14
ATOM     14  O   UNL     1       2.903   0.475  -0.781  0.00  0.00    +0.000 OA
ATOM     15  H   UNL     1       3.744  -0.031  -0.779  0.00  0.00    +0.000 HD
ENDBRANCH  10  14
ENDBRANCH   9  10
ENDBRANCH   1   9
TORSDOF 7
