REMARK  Name = 59093801
REMARK  5 active torsions:
REMARK  status: ('A' for Active; 'I' for Inactive)
REMARK    1  A    between atoms: O_1  and  C_7
REMARK    2  A    between atoms: N_3  and  CA_5
REMARK    3  A    between atoms: N_4  and  C_6
REMARK    4  A    between atoms: CA_5  and  C_6
REMARK    5  A    between atoms: CA_5  and  C_7
REMARK                            x       y       z     vdW  Elec       q    Type
REMARK                         _______ _______ _______ _____ _____    ______ ____
ROOT
ATOM      1  CA  UNL     1      -0.267  -0.570  -0.451  0.00  0.00    +0.000 C 
ENDROOT
BRANCH   1   2
ATOM      2  N   UNL     1       0.020  -1.972  -0.143  0.00  0.00    +0.000 NA
ATOM      3  H1  UNL     1       0.843  -2.275  -0.662  0.00  0.00    +0.000 HD
ATOM      4  H2  UNL     1      -0.750  -2.557  -0.467  0.00  0.00    +0.000 HD
ENDBRANCH   1   2
BRANCH   1   6
ATOM      5  OXT UNL     1       1.232   0.299   1.264  0.00  0.00    +0.000 OA
ATOM      6  C   UNL     1       0.904   0.231   0.088  0.00  0.00    +0.000 C 
BRANCH   6   7
ATOM      7  O   UNL     1       1.573   0.910  -0.940  0.00  0.00    +0.000 OA
ATOM      8  H1  UNL     1       2.540   0.694  -0.943  0.00  0.00    +0.000 HD
ATOM      9  H2  UNL     1       1.420   1.887  -0.884  0.00  0.00    +0.000 HD
ENDBRANCH   6   7
ENDBRANCH   1   6
BRANCH   1  10
ATOM     10  C   UNL     1      -1.579  -0.151   0.221  0.00  0.00    +0.000 C 
BRANCH  10  11
ATOM     11  N   UNL     1      -1.882   1.254  -0.039  0.00  0.00    +0.000 NA
ATOM     12  H   UNL     1      -1.164   1.847   0.375  0.00  0.00    +0.000 HD
ATOM     13  H   UNL     1      -2.754   1.501   0.427  0.00  0.00    +0.000 HD
ENDBRANCH  10  11
ENDBRANCH   1  10
TORSDOF 5
