REMARK  Name = 49867129
REMARK  12 active torsions:
REMARK  status: ('A' for Active; 'I' for Inactive)
REMARK    1  A    between atoms: SG_1  and  C_10
REMARK    2  A    between atoms: SG_1  and  CB_12
REMARK    3  A    between atoms: O_2  and  C_10
REMARK    4  A    between atoms: O_3  and  C_14
REMARK    5  A    between atoms: O_5  and  C_15
REMARK    6  A    between atoms: N_7  and  CA_11
REMARK    7  A    between atoms: N_8  and  CA_13
REMARK    8  A    between atoms: C_9  and  C_10
REMARK    9  A    between atoms: C_9  and  CA_11
REMARK   10  A    between atoms: CA_11  and  C_14
REMARK   11  A    between atoms: CB_12  and  CA_13
REMARK   12  A    between atoms: CA_13  and  C_15
REMARK                            x       y       z     vdW  Elec       q    Type
REMARK                         _______ _______ _______ _____ _____    ______ ____
ROOT
ATOM      1  C   CYS A   1      -1.753  -1.692  -0.356  0.00  0.00    +0.000 C 
ENDROOT
BRANCH   1   2
ATOM      2  O   CYS A   1      -1.681  -2.994   0.228  0.00  0.00    +0.000 OA
ATOM      3  H   CYS A   1      -2.573  -3.230   0.535  0.00  0.00    +0.000 HD
ENDBRANCH   1   2
BRANCH   1   4
ATOM      4  SG  CYS A   1      -0.172  -1.254  -1.162  0.00  0.00    +0.000 S 
BRANCH   4   5
ATOM      5  CB  CYS A   1       0.935  -1.251   0.271  0.00  0.00    +0.000 C 
BRANCH   5   6
ATOM      6  CA  CYS A   1       2.373  -0.905  -0.119  0.00  0.00    +0.000 C 
BRANCH   6   7
ATOM      7  N   CYS A   1       3.295  -1.341   0.931  0.00  0.00    +0.000 NA
ATOM      8  H1  CYS A   1       4.256  -1.184   0.630  0.00  0.00    +0.000 HD
ATOM      9  H2  CYS A   1       3.204  -2.347   1.072  0.00  0.00    +0.000 HD
ENDBRANCH   6   7
BRANCH   6  11
ATOM     10  OXT CYS A   1       2.860   1.352   0.602  0.00  0.00    +0.000 OA
ATOM     11  C   CYS A   1       2.573   0.587  -0.312  0.00  0.00    +0.000 C 
BRANCH  11  12
ATOM     12  O   CYS A   1       2.371   1.006  -1.586  0.00  0.00    +0.000 OA
ATOM     13  H   CYS A   1       2.490   1.976  -1.676  0.00  0.00    +0.000 HD
ENDBRANCH  11  12
ENDBRANCH   6  11
ENDBRANCH   5   6
ENDBRANCH   4   5
ENDBRANCH   1   4
BRANCH   1  14
ATOM     14  C   CYS A   1      -2.243  -0.717   0.730  0.00  0.00    +0.000 C 
BRANCH  14  15
ATOM     15  CA  CYS A   1      -2.523   0.740   0.325  0.00  0.00    +0.000 C 
BRANCH  15  16
ATOM     16  N   CYS A   1      -3.101   0.830  -1.016  0.00  0.00    +0.000 NA
ATOM     17  H1  CYS A   1      -3.389   1.790  -1.201  0.00  0.00    +0.000 HD
ATOM     18  H2  CYS A   1      -3.950   0.267  -1.059  0.00  0.00    +0.000 HD
ENDBRANCH  15  16
BRANCH  15  20
ATOM     19  OXT CYS A   1      -0.835   2.265  -0.560  0.00  0.00    +0.000 OA
ATOM     20  C   CYS A   1      -1.307   1.646   0.384  0.00  0.00    +0.000 C 
BRANCH  20  21
ATOM     21  O   CYS A   1      -0.792   1.727   1.640  0.00  0.00    +0.000 OA
ATOM     22  H   CYS A   1      -0.011   2.319   1.677  0.00  0.00    +0.000 HD
ENDBRANCH  20  21
ENDBRANCH  15  20
ENDBRANCH  14  15
ENDBRANCH   1  14
TORSDOF 12
