REMARK  Name = 6950577
REMARK  5 active torsions:
REMARK  status: ('A' for Active; 'I' for Inactive)
REMARK    1  A    between atoms: O_1  and  C_11
REMARK    2  A    between atoms: N_4  and  CA_5
REMARK    3  A    between atoms: CA_5  and  C_6
REMARK    4  A    between atoms: CA_5  and  C_10
REMARK    5  A    between atoms: C_6  and  C_7
REMARK                            x       y       z     vdW  Elec       q    Type
REMARK                         _______ _______ _______ _____ _____    ______ ____
ROOT
ATOM      1  C   UNL     1      -1.020   1.016   0.906  0.00  0.00    +0.000 C 
ENDROOT
BRANCH   1   2
ATOM      2  C   UNL     1       0.382   0.734   0.422  0.00  0.00    +0.000 A 
ATOM      3  C   UNL     1       0.949  -0.506   0.670  0.00  0.00    +0.000 A 
ATOM      4  C   UNL     1       1.075   1.720  -0.262  0.00  0.00    +0.000 A 
ATOM      5  C   UNL     1       2.244  -0.766   0.223  0.00  0.00    +0.000 A 
ATOM      6  C   UNL     1       2.370   1.459  -0.710  0.00  0.00    +0.000 A 
ATOM      7  C   UNL     1       2.954   0.216  -0.468  0.00  0.00    +0.000 A 
BRANCH   5   8
ATOM      8  O   UNL     1       2.815  -1.979   0.458  0.00  0.00    +0.000 OA
ATOM      9  H   UNL     1       3.711  -1.985   0.079  0.00  0.00    +0.000 HD
ENDBRANCH   5   8
ENDBRANCH   1   2
BRANCH   1  10
ATOM     10  CA  UNL     1      -2.088   0.643  -0.129  0.00  0.00    +0.000 C 
BRANCH  10  11
ATOM     11  N   UNL     1      -3.405   1.106   0.413  0.00  0.00    +0.000 N 
ATOM     12  H1  UNL     1      -4.168   0.906  -0.247  0.00  0.00    +0.000 HD
ATOM     13  H2  UNL     1      -3.408   2.120   0.585  0.00  0.00    +0.000 HD
ATOM     14  H3  UNL     1      -3.635   0.639   1.300  0.00  0.00    +0.000 HD
ENDBRANCH  10  11
BRANCH  10  17
ATOM     15  O   UNL     1      -2.259  -1.608   0.568  0.00  0.00    +0.000 OA
ATOM     16  OXT UNL     1      -1.930  -1.172  -1.652  0.00  0.00    +0.000 OA
ATOM     17  C   UNL     1      -2.089  -0.862  -0.438  0.00  0.00    +0.000 C 
ENDBRANCH  10  17
ENDBRANCH   1  10
TORSDOF 5
