REMARK  Name = 7006471
REMARK  3 active torsions:
REMARK  status: ('A' for Active; 'I' for Inactive)
REMARK    1  A    between atoms: N_6  and  CA_7
REMARK    2  A    between atoms: CA_7  and  C_8
REMARK    3  A    between atoms: CA_7  and  C_9
REMARK                            x       y       z     vdW  Elec       q    Type
REMARK                         _______ _______ _______ _____ _____    ______ ____
ROOT
ATOM      1  CA  UNL     1      -0.189  -0.496  -0.476  0.00  0.00    +0.000 C 
ENDROOT
BRANCH   1   5
ATOM      2  F   UNL     1       1.272   1.364  -0.518  0.00  0.00    +0.000 F 
ATOM      3  F   UNL     1       2.172  -0.612  -0.390  0.00  0.00    +0.000 F 
ATOM      4  F   UNL     1       1.151   0.235   1.346  0.00  0.00    +0.000 F 
ATOM      5  C   UNL     1       1.108   0.125   0.001  0.00  0.00    +0.000 C 
ENDBRANCH   1   5
BRANCH   1   6
ATOM      6  N   UNL     1      -0.192  -1.910   0.015  0.00  0.00    +0.000 N 
ATOM      7  H1  UNL     1       0.639  -2.424  -0.307  0.00  0.00    +0.000 HD
ATOM      8  H2  UNL     1      -1.018  -2.421  -0.327  0.00  0.00    +0.000 HD
ATOM      9  H3  UNL     1      -0.207  -1.953   1.042  0.00  0.00    +0.000 HD
ENDBRANCH   1   6
BRANCH   1  12
ATOM     10  O   UNL     1      -1.376   1.515   0.009  0.00  0.00    +0.000 OA
ATOM     11  OXT UNL     1      -2.477  -0.481   0.099  0.00  0.00    +0.000 OA
ATOM     12  C   UNL     1      -1.469   0.261  -0.086  0.00  0.00    +0.000 C 
ENDBRANCH   1  12
TORSDOF 3
