REMARK  Name = 449471
REMARK  15 active torsions:
REMARK  status: ('A' for Active; 'I' for Inactive)
REMARK    1  A    between atoms: SG_1  and  CB_12
REMARK    2  A    between atoms: SG_1  and  C_18
REMARK    3  A    between atoms: O_4  and  C_26
REMARK    4  A    between atoms: O_6  and  C_31
REMARK    5  A    between atoms: N_8  and  CA_11
REMARK    6  A    between atoms: N_9  and  CA_29
REMARK    7  A    between atoms: N_10  and  CA_15
REMARK    8  A    between atoms: CA_11  and  CB_12
REMARK    9  A    between atoms: CA_11  and  C_19
REMARK   10  A    between atoms: C_13  and  C_14
REMARK   11  A    between atoms: C_13  and  CA_15
REMARK   12  A    between atoms: C_14  and  C_16
REMARK   13  A    between atoms: CA_15  and  C_26
REMARK   14  A    between atoms: C_17  and  C_18
REMARK   15  A    between atoms: CA_29  and  C_31
REMARK                            x       y       z     vdW  Elec       q    Type
REMARK                         _______ _______ _______ _____ _____    ______ ____
ROOT
ATOM      1  CA  UNL     1      -2.723   0.826  -0.612  0.00  0.00    +0.000 C 
ENDROOT
BRANCH   1   3
ATOM      2  O   UNL     1      -2.116   3.547  -1.358  0.00  0.00    +0.000 OA
ATOM      3  N   UNL     1      -2.212   1.869   0.246  0.00  0.00    +0.000 N 
ATOM      4  C   UNL     1      -1.950   3.154  -0.207  0.00  0.00    +0.000 C 
ATOM      5  H   UNL     1      -2.057   1.642   1.224  0.00  0.00    +0.000 HD
BRANCH   4   6
ATOM      6  C   UNL     1      -1.412   4.039   0.905  0.00  0.00    +0.000 C 
BRANCH   6   7
ATOM      7  C   UNL     1      -0.107   3.503   1.498  0.00  0.00    +0.000 C 
BRANCH   7   8
ATOM      8  CA  UNL     1       0.994   3.323   0.448  0.00  0.00    +0.000 C 
BRANCH   8   9
ATOM      9  N   UNL     1       2.206   2.810   1.092  0.00  0.00    +0.000 NA
ATOM     10  H1  UNL     1       2.011   1.900   1.509  0.00  0.00    +0.000 HD
ATOM     11  H2  UNL     1       2.924   2.652   0.386  0.00  0.00    +0.000 HD
ENDBRANCH   8   9
BRANCH   8  13
ATOM     12  OXT UNL     1       2.194   5.436   0.256  0.00  0.00    +0.000 OA
ATOM     13  C   UNL     1       1.369   4.649  -0.191  0.00  0.00    +0.000 C 
BRANCH  13  14
ATOM     14  O   UNL     1       0.661   4.893  -1.324  0.00  0.00    +0.000 OA
ATOM     15  H   UNL     1       0.898   5.756  -1.724  0.00  0.00    +0.000 HD
ENDBRANCH  13  14
ENDBRANCH   8  13
ENDBRANCH   7   8
ENDBRANCH   6   7
ENDBRANCH   4   6
ENDBRANCH   1   3
BRANCH   1  18
ATOM     16  O   UNL     1      -3.826   0.062   1.410  0.00  0.00    +0.000 OA
ATOM     17  N   UNL     1      -4.282  -1.026  -0.588  0.00  0.00    +0.000 N 
ATOM     18  C   ACE A   1      -3.665  -0.063   0.197  0.00  0.00    +0.000 C 
ATOM     19  H   UNL     1      -4.108  -1.050  -1.588  0.00  0.00    +0.000 HD
BRANCH  17  20
ATOM     20  CA  UNL     1      -5.199  -2.002  -0.047  0.00  0.00    +0.000 C 
BRANCH  20  22
ATOM     21  OXT UNL     1      -5.111  -4.221   0.884  0.00  0.00    +0.000 OA
ATOM     22  C   UNL     1      -4.512  -3.266   0.404  0.00  0.00    +0.000 C 
BRANCH  22  23
ATOM     23  O   UNL     1      -3.170  -3.244   0.229  0.00  0.00    +0.000 OA
ATOM     24  H   UNL     1      -2.746  -4.076   0.530  0.00  0.00    +0.000 HD
ENDBRANCH  22  23
ENDBRANCH  20  22
ENDBRANCH  17  20
ENDBRANCH   1  18
BRANCH   1  25
ATOM     25  CB  UNL     1      -1.607   0.049  -1.313  0.00  0.00    +0.000 C 
BRANCH  25  26
ATOM     26  SG  UNL     1      -0.508  -0.850  -0.169  0.00  0.00    +0.000 S 
BRANCH  26  27
ATOM     27  C   UNL     1       0.646  -1.513  -1.391  0.00  0.00    +0.000 C 
BRANCH  27  28
ATOM     28  C   UNL     1       1.729  -2.342  -0.758  0.00  0.00    +0.000 A 
ATOM     29  C   UNL     1       2.943  -1.780  -0.331  0.00  0.00    +0.000 A 
ATOM     30  C   UNL     1       3.923  -2.615   0.258  0.00  0.00    +0.000 A 
ATOM     31  C   UNL     1       1.484  -3.707  -0.606  0.00  0.00    +0.000 A 
ATOM     32  C   UNL     1       3.207  -0.408  -0.476  0.00  0.00    +0.000 A 
ATOM     33  C   UNL     1       3.659  -3.986   0.403  0.00  0.00    +0.000 A 
ATOM     34  C   UNL     1       2.447  -4.527  -0.026  0.00  0.00    +0.000 A 
ATOM     35  C   UNL     1       5.137  -2.053   0.684  0.00  0.00    +0.000 A 
ATOM     36  C   UNL     1       4.419   0.133  -0.047  0.00  0.00    +0.000 A 
ATOM     37  C   UNL     1       5.383  -0.688   0.532  0.00  0.00    +0.000 A 
ENDBRANCH  27  28
ENDBRANCH  26  27
ENDBRANCH  25  26
ENDBRANCH   1  25
TORSDOF 15
