REMARK  Name = 8249
REMARK  4 active torsions:
REMARK  status: ('A' for Active; 'I' for Inactive)
REMARK    1  A    between atoms: N_1  and  C_8
REMARK    2  A    between atoms: N_2  and  C_14
REMARK    3  A    between atoms: C_6  and  C_7
REMARK    4  A    between atoms: C_6  and  C_8
REMARK                            x       y       z     vdW  Elec       q    Type
REMARK                         _______ _______ _______ _____ _____    ______ ____
ROOT
ATOM      1  N   UNL     1      -0.903  -1.035  -0.477  0.00  0.00    +0.000 NA
ATOM      2  N   UNL     1      -2.711  -1.849   0.866  0.00  0.00    +0.000 N 
ATOM      3  C   UNL     1      -2.120  -0.991  -0.036  0.00  0.00    +0.000 C 
ATOM      4  H   UNL     1      -2.210  -2.623   1.288  0.00  0.00    +0.000 HD
ATOM      5  H   UNL     1      -3.681  -1.727   1.137  0.00  0.00    +0.000 HD
ENDROOT
BRANCH   3   6
ATOM      6  N   UNL     1      -2.885   0.028  -0.568  0.00  0.00    +0.000 NA
ATOM      7  N   UNL     1      -3.628   2.234  -0.417  0.00  0.00    +0.000 N 
ATOM      8  N   UNL     1      -2.193   1.502   1.202  0.00  0.00    +0.000 N 
ATOM      9  C   UNL     1      -2.885   1.178   0.056  0.00  0.00    +0.000 C 
ATOM     10  H   UNL     1      -3.637   3.130   0.057  0.00  0.00    +0.000 HD
ATOM     11  H   UNL     1      -4.190   2.144  -1.256  0.00  0.00    +0.000 HD
ATOM     12  H   UNL     1      -1.595   0.833   1.675  0.00  0.00    +0.000 HD
ATOM     13  H   UNL     1      -2.259   2.428   1.611  0.00  0.00    +0.000 HD
ENDBRANCH   3   6
BRANCH   1  14
ATOM     14  C   UNL     1      -0.044  -2.094   0.037  0.00  0.00    +0.000 C 
BRANCH  14  15
ATOM     15  C   UNL     1       1.341  -1.994  -0.597  0.00  0.00    +0.000 C 
BRANCH  15  16
ATOM     16  C   UNL     1       2.036  -0.690  -0.291  0.00  0.00    +0.000 A 
ATOM     17  C   UNL     1       1.861   0.390  -1.143  0.00  0.00    +0.000 A 
ATOM     18  C   UNL     1       2.837  -0.594   0.836  0.00  0.00    +0.000 A 
ATOM     19  C   UNL     1       2.503   1.596  -0.860  0.00  0.00    +0.000 A 
ATOM     20  C   UNL     1       3.479   0.612   1.119  0.00  0.00    +0.000 A 
ATOM     21  C   UNL     1       3.312   1.707   0.271  0.00  0.00    +0.000 A 
ENDBRANCH  15  16
ENDBRANCH  14  15
ENDBRANCH   1  14
TORSDOF 4
