MODEL 1
REMARK VINA RESULT:    -6.173      0.000      0.000
REMARK INTER + INTRA:          -7.231
REMARK INTER:                  -6.471
REMARK INTRA:                  -0.760
REMARK CONF_INDEPENDENT:        0.298
REMARK UNBOUND:                 0.760
REMARK  Name = 4091
REMARK  3 active torsions:
REMARK  status: ('A' for Active; 'I' for Inactive)
REMARK    1  A    between atoms: N_1  and  C_6
REMARK    2  A    between atoms: N_1  and  C_7
REMARK    3  A    between atoms: N_2  and  C_8
REMARK                            x       y       z     vdW  Elec       q    Type
REMARK                         _______ _______ _______ _____ _____    ______ ____
ROOT
ATOM      1  N   UNL     1      -1.831   4.775  -3.035  0.00  0.00    +0.000 NA
ATOM      2  N   UNL     1      -2.675   6.062  -4.788  0.00  0.00    +0.000 N 
ATOM      3  N   UNL     1      -1.180   4.420  -5.323  0.00  0.00    +0.000 N 
ATOM      4  C   UNL     1      -1.875   5.050  -4.314  0.00  0.00    +0.000 C 
ATOM      5  H   UNL     1      -2.719   6.284  -5.776  0.00  0.00    +0.000 HD
ATOM      6  H   UNL     1      -3.247   6.615  -4.160  0.00  0.00    +0.000 HD
ATOM      7  H   UNL     1      -0.547   3.650  -5.138  0.00  0.00    +0.000 HD
ATOM      8  H   UNL     1      -1.283   4.709  -6.290  0.00  0.00    +0.000 HD
ENDROOT
BRANCH   1  13
ATOM      9  N   UNL     1      -1.476   2.726  -1.793  0.00  0.00    +0.000 N 
ATOM     10  N   UNL     1       0.205   3.812  -3.107  0.00  0.00    +0.000 NA
ATOM     11  C   UNL     1      -2.846   2.713  -1.293  0.00  0.00    +0.000 C 
ATOM     12  C   UNL     1      -0.661   1.561  -1.470  0.00  0.00    +0.000 C 
ATOM     13  C   UNL     1      -1.003   3.744  -2.629  0.00  0.00    +0.000 C 
ATOM     14  H   UNL     1       0.766   3.023  -2.776  0.00  0.00    +0.000 HD
ENDBRANCH   1  13
TORSDOF 1
ENDMDL
MODEL 2
REMARK VINA RESULT:    -6.106      1.805      3.588
REMARK INTER + INTRA:          -7.045
REMARK INTER:                  -6.404
REMARK INTRA:                  -0.641
REMARK CONF_INDEPENDENT:        0.298
REMARK UNBOUND:                 0.641
REMARK  Name = 4091
REMARK  3 active torsions:
REMARK  status: ('A' for Active; 'I' for Inactive)
REMARK    1  A    between atoms: N_1  and  C_6
REMARK    2  A    between atoms: N_1  and  C_7
REMARK    3  A    between atoms: N_2  and  C_8
REMARK                            x       y       z     vdW  Elec       q    Type
REMARK                         _______ _______ _______ _____ _____    ______ ____
ROOT
ATOM      1  N   UNL     1      -1.822   3.211  -4.371  0.00  0.00    +0.000 NA
ATOM      2  N   UNL     1      -0.293   1.579  -3.709  0.00  0.00    +0.000 N 
ATOM      3  N   UNL     1       0.209   3.748  -3.201  0.00  0.00    +0.000 N 
ATOM      4  C   UNL     1      -0.695   2.891  -3.789  0.00  0.00    +0.000 C 
ATOM      5  H   UNL     1       0.578   1.317  -3.260  0.00  0.00    +0.000 HD
ATOM      6  H   UNL     1      -0.859   0.834  -4.100  0.00  0.00    +0.000 HD
ATOM      7  H   UNL     1       0.058   4.750  -3.174  0.00  0.00    +0.000 HD
ATOM      8  H   UNL     1       1.060   3.400  -2.772  0.00  0.00    +0.000 HD
ENDROOT
BRANCH   1  13
ATOM      9  N   UNL     1      -3.342   5.014  -3.821  0.00  0.00    +0.000 N 
ATOM     10  N   UNL     1      -1.293   5.303  -5.024  0.00  0.00    +0.000 NA
ATOM     11  C   UNL     1      -4.275   4.114  -3.152  0.00  0.00    +0.000 C 
ATOM     12  C   UNL     1      -3.648   6.438  -3.735  0.00  0.00    +0.000 C 
ATOM     13  C   UNL     1      -2.163   4.551  -4.415  0.00  0.00    +0.000 C 
ATOM     14  H   UNL     1      -1.597   6.279  -5.020  0.00  0.00    +0.000 HD
ENDBRANCH   1  13
TORSDOF 1
ENDMDL
MODEL 3
REMARK VINA RESULT:    -6.086      1.613      2.455
REMARK INTER + INTRA:          -7.129
REMARK INTER:                  -6.384
REMARK INTRA:                  -0.745
REMARK CONF_INDEPENDENT:        0.298
REMARK UNBOUND:                 0.745
REMARK  Name = 4091
REMARK  3 active torsions:
REMARK  status: ('A' for Active; 'I' for Inactive)
REMARK    1  A    between atoms: N_1  and  C_6
REMARK    2  A    between atoms: N_1  and  C_7
REMARK    3  A    between atoms: N_2  and  C_8
REMARK                            x       y       z     vdW  Elec       q    Type
REMARK                         _______ _______ _______ _____ _____    ______ ____
ROOT
ATOM      1  N   UNL     1      -2.226   3.212  -4.390  0.00  0.00    +0.000 NA
ATOM      2  N   UNL     1      -0.920   3.916  -6.190  0.00  0.00    +0.000 N 
ATOM      3  N   UNL     1      -1.753   5.533  -4.808  0.00  0.00    +0.000 N 
ATOM      4  C   UNL     1      -1.676   4.183  -5.073  0.00  0.00    +0.000 C 
ATOM      5  H   UNL     1      -0.487   4.659  -6.727  0.00  0.00    +0.000 HD
ATOM      6  H   UNL     1      -0.775   2.965  -6.508  0.00  0.00    +0.000 HD
ATOM      7  H   UNL     1      -2.272   5.895  -4.016  0.00  0.00    +0.000 HD
ATOM      8  H   UNL     1      -1.286   6.211  -5.401  0.00  0.00    +0.000 HD
ENDROOT
BRANCH   1  13
ATOM      9  N   UNL     1      -2.714   2.977  -2.030  0.00  0.00    +0.000 N 
ATOM     10  N   UNL     1      -3.889   4.451  -3.506  0.00  0.00    +0.000 NA
ATOM     11  C   UNL     1      -1.670   1.976  -1.845  0.00  0.00    +0.000 C 
ATOM     12  C   UNL     1      -3.397   3.427  -0.822  0.00  0.00    +0.000 C 
ATOM     13  C   UNL     1      -2.973   3.555  -3.278  0.00  0.00    +0.000 C 
ATOM     14  H   UNL     1      -4.403   4.665  -2.648  0.00  0.00    +0.000 HD
ENDBRANCH   1  13
TORSDOF 1
ENDMDL
MODEL 4
REMARK VINA RESULT:    -5.908      2.626      3.944
REMARK INTER + INTRA:          -6.955
REMARK INTER:                  -6.206
REMARK INTRA:                  -0.749
REMARK CONF_INDEPENDENT:        0.298
REMARK UNBOUND:                 0.749
REMARK  Name = 4091
REMARK  3 active torsions:
REMARK  status: ('A' for Active; 'I' for Inactive)
REMARK    1  A    between atoms: N_1  and  C_6
REMARK    2  A    between atoms: N_1  and  C_7
REMARK    3  A    between atoms: N_2  and  C_8
REMARK                            x       y       z     vdW  Elec       q    Type
REMARK                         _______ _______ _______ _____ _____    ______ ____
ROOT
ATOM      1  N   UNL     1      -2.029   6.107  -1.980  0.00  0.00    +0.000 NA
ATOM      2  N   UNL     1       0.018   5.595  -0.986  0.00  0.00    +0.000 N 
ATOM      3  N   UNL     1      -0.967   3.967  -2.249  0.00  0.00    +0.000 N 
ATOM      4  C   UNL     1      -1.061   5.253  -1.766  0.00  0.00    +0.000 C 
ATOM      5  H   UNL     1       0.775   4.943  -0.813  0.00  0.00    +0.000 HD
ATOM      6  H   UNL     1       0.087   6.513  -0.561  0.00  0.00    +0.000 HD
ATOM      7  H   UNL     1      -1.683   3.563  -2.843  0.00  0.00    +0.000 HD
ATOM      8  H   UNL     1      -0.170   3.380  -2.026  0.00  0.00    +0.000 HD
ENDROOT
BRANCH   1  13
ATOM      9  N   UNL     1      -4.409   5.854  -2.352  0.00  0.00    +0.000 N 
ATOM     10  N   UNL     1      -2.724   5.183  -3.914  0.00  0.00    +0.000 NA
ATOM     11  C   UNL     1      -4.742   6.437  -1.057  0.00  0.00    +0.000 C 
ATOM     12  C   UNL     1      -5.533   5.554  -3.231  0.00  0.00    +0.000 C 
ATOM     13  C   UNL     1      -3.084   5.695  -2.773  0.00  0.00    +0.000 C 
ATOM     14  H   UNL     1      -3.545   4.902  -4.456  0.00  0.00    +0.000 HD
ENDBRANCH   1  13
TORSDOF 1
ENDMDL
MODEL 5
REMARK VINA RESULT:    -5.824      2.024      2.604
REMARK INTER + INTRA:          -6.879
REMARK INTER:                  -6.122
REMARK INTRA:                  -0.758
REMARK CONF_INDEPENDENT:        0.298
REMARK UNBOUND:                 0.758
REMARK  Name = 4091
REMARK  3 active torsions:
REMARK  status: ('A' for Active; 'I' for Inactive)
REMARK    1  A    between atoms: N_1  and  C_6
REMARK    2  A    between atoms: N_1  and  C_7
REMARK    3  A    between atoms: N_2  and  C_8
REMARK                            x       y       z     vdW  Elec       q    Type
REMARK                         _______ _______ _______ _____ _____    ______ ____
ROOT
ATOM      1  N   UNL     1      -1.515   2.940  -4.211  0.00  0.00    +0.000 NA
ATOM      2  N   UNL     1      -1.370   5.122  -5.022  0.00  0.00    +0.000 N 
ATOM      3  N   UNL     1      -0.166   4.622  -3.146  0.00  0.00    +0.000 N 
ATOM      4  C   UNL     1      -1.031   4.151  -4.110  0.00  0.00    +0.000 C 
ATOM      5  H   UNL     1      -1.001   6.064  -4.955  0.00  0.00    +0.000 HD
ATOM      6  H   UNL     1      -2.000   4.921  -5.790  0.00  0.00    +0.000 HD
ATOM      7  H   UNL     1       0.181   4.029  -2.401  0.00  0.00    +0.000 HD
ATOM      8  H   UNL     1       0.154   5.585  -3.154  0.00  0.00    +0.000 HD
ENDROOT
BRANCH   1  13
ATOM      9  N   UNL     1      -0.634   0.760  -3.629  0.00  0.00    +0.000 N 
ATOM     10  N   UNL     1      -1.257   2.430  -2.031  0.00  0.00    +0.000 NA
ATOM     11  C   UNL     1      -0.519   0.359  -5.027  0.00  0.00    +0.000 C 
ATOM     12  C   UNL     1      -0.095  -0.172  -2.645  0.00  0.00    +0.000 C 
ATOM     13  C   UNL     1      -1.131   2.015  -3.258  0.00  0.00    +0.000 C 
ATOM     14  H   UNL     1      -0.954   1.706  -1.374  0.00  0.00    +0.000 HD
ENDBRANCH   1  13
TORSDOF 1
ENDMDL
MODEL 6
REMARK VINA RESULT:    -5.770      9.151      9.707
REMARK INTER + INTRA:          -6.679
REMARK INTER:                  -6.068
REMARK INTRA:                  -0.611
REMARK CONF_INDEPENDENT:        0.298
REMARK UNBOUND:                 0.611
REMARK  Name = 4091
REMARK  3 active torsions:
REMARK  status: ('A' for Active; 'I' for Inactive)
REMARK    1  A    between atoms: N_1  and  C_6
REMARK    2  A    between atoms: N_1  and  C_7
REMARK    3  A    between atoms: N_2  and  C_8
REMARK                            x       y       z     vdW  Elec       q    Type
REMARK                         _______ _______ _______ _____ _____    ______ ____
ROOT
ATOM      1  N   UNL     1       4.680   0.028   1.976  0.00  0.00    +0.000 NA
ATOM      2  N   UNL     1       3.935   1.384   3.722  0.00  0.00    +0.000 N 
ATOM      3  N   UNL     1       5.946   1.911   2.775  0.00  0.00    +0.000 N 
ATOM      4  C   UNL     1       4.867   1.054   2.767  0.00  0.00    +0.000 C 
ATOM      5  H   UNL     1       4.068   2.177   4.340  0.00  0.00    +0.000 HD
ATOM      6  H   UNL     1       3.086   0.841   3.834  0.00  0.00    +0.000 HD
ATOM      7  H   UNL     1       6.720   1.804   2.129  0.00  0.00    +0.000 HD
ATOM      8  H   UNL     1       5.998   2.682   3.431  0.00  0.00    +0.000 HD
ENDROOT
BRANCH   1  13
ATOM      9  N   UNL     1       5.987  -1.564   0.702  0.00  0.00    +0.000 N 
ATOM     10  N   UNL     1       6.207   0.812   0.515  0.00  0.00    +0.000 NA
ATOM     11  C   UNL     1       5.333  -2.706   1.332  0.00  0.00    +0.000 C 
ATOM     12  C   UNL     1       6.916  -1.870  -0.380  0.00  0.00    +0.000 C 
ATOM     13  C   UNL     1       5.660  -0.246   1.040  0.00  0.00    +0.000 C 
ATOM     14  H   UNL     1       6.918   0.546  -0.171  0.00  0.00    +0.000 HD
ENDBRANCH   1  13
TORSDOF 1
ENDMDL
MODEL 7
REMARK VINA RESULT:    -5.658      2.371      3.669
REMARK INTER + INTRA:          -6.717
REMARK INTER:                  -5.957
REMARK INTRA:                  -0.760
REMARK CONF_INDEPENDENT:        0.298
REMARK UNBOUND:                 0.760
REMARK  Name = 4091
REMARK  3 active torsions:
REMARK  status: ('A' for Active; 'I' for Inactive)
REMARK    1  A    between atoms: N_1  and  C_6
REMARK    2  A    between atoms: N_1  and  C_7
REMARK    3  A    between atoms: N_2  and  C_8
REMARK                            x       y       z     vdW  Elec       q    Type
REMARK                         _______ _______ _______ _____ _____    ______ ____
ROOT
ATOM      1  N   UNL     1      -3.439   4.436  -3.519  0.00  0.00    +0.000 NA
ATOM      2  N   UNL     1      -1.742   4.443  -5.121  0.00  0.00    +0.000 N 
ATOM      3  N   UNL     1      -2.795   6.427  -4.705  0.00  0.00    +0.000 N 
ATOM      4  C   UNL     1      -2.714   5.088  -4.392  0.00  0.00    +0.000 C 
ATOM      5  H   UNL     1      -1.174   4.936  -5.799  0.00  0.00    +0.000 HD
ATOM      6  H   UNL     1      -1.568   3.452  -4.998  0.00  0.00    +0.000 HD
ATOM      7  H   UNL     1      -3.461   7.044  -4.253  0.00  0.00    +0.000 HD
ATOM      8  H   UNL     1      -2.184   6.841  -5.401  0.00  0.00    +0.000 HD
ENDROOT
BRANCH   1  13
ATOM      9  N   UNL     1      -4.482   5.073  -1.429  0.00  0.00    +0.000 N 
ATOM     10  N   UNL     1      -5.167   5.882  -3.575  0.00  0.00    +0.000 NA
ATOM     11  C   UNL     1      -3.586   4.229  -0.647  0.00  0.00    +0.000 C 
ATOM     12  C   UNL     1      -5.393   5.923  -0.669  0.00  0.00    +0.000 C 
ATOM     13  C   UNL     1      -4.398   5.149  -2.824  0.00  0.00    +0.000 C 
ATOM     14  H   UNL     1      -5.850   6.387  -3.005  0.00  0.00    +0.000 HD
ENDBRANCH   1  13
TORSDOF 1
ENDMDL
MODEL 8
REMARK VINA RESULT:    -5.614      2.758      3.766
REMARK INTER + INTRA:          -6.665
REMARK INTER:                  -5.913
REMARK INTRA:                  -0.752
REMARK CONF_INDEPENDENT:        0.298
REMARK UNBOUND:                 0.752
REMARK  Name = 4091
REMARK  3 active torsions:
REMARK  status: ('A' for Active; 'I' for Inactive)
REMARK    1  A    between atoms: N_1  and  C_6
REMARK    2  A    between atoms: N_1  and  C_7
REMARK    3  A    between atoms: N_2  and  C_8
REMARK                            x       y       z     vdW  Elec       q    Type
REMARK                         _______ _______ _______ _____ _____    ______ ____
ROOT
ATOM      1  N   UNL     1      -3.546   5.110  -3.514  0.00  0.00    +0.000 NA
ATOM      2  N   UNL     1      -1.788   5.367  -5.026  0.00  0.00    +0.000 N 
ATOM      3  N   UNL     1      -1.262   5.363  -2.803  0.00  0.00    +0.000 N 
ATOM      4  C   UNL     1      -2.267   5.271  -3.741  0.00  0.00    +0.000 C 
ATOM      5  H   UNL     1      -0.800   5.491  -5.215  0.00  0.00    +0.000 HD
ATOM      6  H   UNL     1      -2.413   5.316  -5.823  0.00  0.00    +0.000 HD
ATOM      7  H   UNL     1      -1.451   5.309  -1.808  0.00  0.00    +0.000 HD
ATOM      8  H   UNL     1      -0.295   5.488  -3.082  0.00  0.00    +0.000 HD
ENDROOT
BRANCH   1  13
ATOM      9  N   UNL     1      -5.021   5.797  -1.720  0.00  0.00    +0.000 N 
ATOM     10  N   UNL     1      -3.287   4.163  -1.485  0.00  0.00    +0.000 NA
ATOM     11  C   UNL     1      -5.729   6.743  -2.574  0.00  0.00    +0.000 C 
ATOM     12  C   UNL     1      -5.556   5.616  -0.375  0.00  0.00    +0.000 C 
ATOM     13  C   UNL     1      -3.956   5.022  -2.196  0.00  0.00    +0.000 C 
ATOM     14  H   UNL     1      -3.638   4.140  -0.525  0.00  0.00    +0.000 HD
ENDBRANCH   1  13
TORSDOF 1
ENDMDL
MODEL 9
REMARK VINA RESULT:    -5.197      3.765      6.130
REMARK INTER + INTRA:          -6.248
REMARK INTER:                  -5.496
REMARK INTRA:                  -0.752
REMARK CONF_INDEPENDENT:        0.298
REMARK UNBOUND:                 0.752
REMARK  Name = 4091
REMARK  3 active torsions:
REMARK  status: ('A' for Active; 'I' for Inactive)
REMARK    1  A    between atoms: N_1  and  C_6
REMARK    2  A    between atoms: N_1  and  C_7
REMARK    3  A    between atoms: N_2  and  C_8
REMARK                            x       y       z     vdW  Elec       q    Type
REMARK                         _______ _______ _______ _____ _____    ______ ____
ROOT
ATOM      1  N   UNL     1       0.755   0.113  -0.472  0.00  0.00    +0.000 NA
ATOM      2  N   UNL     1       0.710  -0.678   1.722  0.00  0.00    +0.000 N 
ATOM      3  N   UNL     1       0.305  -2.189   0.057  0.00  0.00    +0.000 N 
ATOM      4  C   UNL     1       0.594  -0.878   0.366  0.00  0.00    +0.000 C 
ATOM      5  H   UNL     1       0.589  -1.438   2.382  0.00  0.00    +0.000 HD
ATOM      6  H   UNL     1       0.921   0.239   2.099  0.00  0.00    +0.000 HD
ATOM      7  H   UNL     1       0.190  -2.501  -0.901  0.00  0.00    +0.000 HD
ATOM      8  H   UNL     1       0.200  -2.888   0.784  0.00  0.00    +0.000 HD
ENDROOT
BRANCH   1  13
ATOM      9  N   UNL     1      -0.173   0.642  -2.646  0.00  0.00    +0.000 N 
ATOM     10  N   UNL     1       1.309  -1.191  -2.225  0.00  0.00    +0.000 NA
ATOM     11  C   UNL     1      -0.917   1.783  -2.125  0.00  0.00    +0.000 C 
ATOM     12  C   UNL     1      -0.213   0.452  -4.091  0.00  0.00    +0.000 C 
ATOM     13  C   UNL     1       0.624  -0.161  -1.821  0.00  0.00    +0.000 C 
ATOM     14  H   UNL     1       1.174  -1.340  -3.228  0.00  0.00    +0.000 HD
ENDBRANCH   1  13
TORSDOF 1
ENDMDL
