MODEL 1
REMARK VINA RESULT:    -9.445      0.000      0.000
REMARK INTER + INTRA:         -20.117
REMARK INTER:                 -13.920
REMARK INTRA:                  -6.197
REMARK CONF_INDEPENDENT:        4.474
REMARK UNBOUND:                 6.197
REMARK  Name = 60823
REMARK  17 active torsions:
REMARK  status: ('A' for Active; 'I' for Inactive)
REMARK    1  A    between atoms: O_2  and  C_16
REMARK    2  A    between atoms: O_3  and  C_22
REMARK    3  A    between atoms: O_5  and  C_35
REMARK    4  A    between atoms: N_7  and  C_10
REMARK    5  A    between atoms: N_8  and  C_34
REMARK    6  A    between atoms: C_9  and  C_12
REMARK    7  A    between atoms: C_10  and  C_13
REMARK    8  A    between atoms: C_11  and  C_18
REMARK    9  A    between atoms: C_12  and  C_19
REMARK   10  A    between atoms: C_12  and  C_20
REMARK   11  A    between atoms: C_13  and  C_16
REMARK   12  A    between atoms: C_14  and  C_23
REMARK   13  A    between atoms: C_15  and  C_21
REMARK   14  A    between atoms: C_16  and  C_17
REMARK   15  A    between atoms: C_17  and  C_22
REMARK   16  A    between atoms: C_22  and  C_24
REMARK   17  A    between atoms: C_24  and  C_35
REMARK                            x       y       z     vdW  Elec       q    Type
REMARK                         _______ _______ _______ _____ _____    ______ ____
ROOT
ATOM      1  N   UNL     1      -3.205  -4.926   0.356  0.00  0.00    +0.000 N 
ATOM      2  C   UNL     1      -3.391  -3.984   1.335  0.00  0.00    +0.000 A 
ATOM      3  C   UNL     1      -3.457  -4.369  -0.871  0.00  0.00    +0.000 A 
ATOM      4  C   UNL     1      -3.766  -2.808   0.723  0.00  0.00    +0.000 A 
ATOM      5  C   UNL     1      -3.808  -3.052  -0.673  0.00  0.00    +0.000 A 
ENDROOT
BRANCH   3   7
ATOM      6  F   UNL     1      -3.021  -7.281  -5.608  0.00  0.00    +0.000 F 
ATOM      7  C   UNL     1      -3.343  -5.125  -2.102  0.00  0.00    +0.000 A 
ATOM      8  C   UNL     1      -2.178  -5.843  -2.375  0.00  0.00    +0.000 A 
ATOM      9  C   UNL     1      -4.399  -5.137  -3.014  0.00  0.00    +0.000 A 
ATOM     10  C   UNL     1      -2.070  -6.571  -3.560  0.00  0.00    +0.000 A 
ATOM     11  C   UNL     1      -4.290  -5.865  -4.198  0.00  0.00    +0.000 A 
ATOM     12  C   UNL     1      -3.126  -6.583  -4.471  0.00  0.00    +0.000 A 
ENDBRANCH   3   7
BRANCH   5  13
ATOM     13  C   UNL     1      -4.142  -2.151  -1.741  0.00  0.00    +0.000 A 
ATOM     14  C   UNL     1      -3.160  -1.326  -2.290  0.00  0.00    +0.000 A 
ATOM     15  C   UNL     1      -5.447  -2.100  -2.229  0.00  0.00    +0.000 A 
ATOM     16  C   UNL     1      -3.484  -0.450  -3.327  0.00  0.00    +0.000 A 
ATOM     17  C   UNL     1      -5.771  -1.225  -3.265  0.00  0.00    +0.000 A 
ATOM     18  C   UNL     1      -4.789  -0.400  -3.814  0.00  0.00    +0.000 A 
ENDBRANCH   5  13
BRANCH   4  21
ATOM     19  O   UNL     1      -5.108  -1.434   2.062  0.00  0.00    +0.000 OA
ATOM     20  N   UNL     1      -3.084  -0.570   1.285  0.00  0.00    +0.000 N 
ATOM     21  C   UNL     1      -4.052  -1.584   1.417  0.00  0.00    +0.000 C 
ATOM     22  H   UNL     1      -2.260  -0.798   0.731  0.00  0.00    +0.000 HD
BRANCH  20  23
ATOM     23  C   UNL     1      -3.096   0.744   1.815  0.00  0.00    +0.000 A 
ATOM     24  C   UNL     1      -2.358   1.042   2.960  0.00  0.00    +0.000 A 
ATOM     25  C   UNL     1      -3.844   1.742   1.189  0.00  0.00    +0.000 A 
ATOM     26  C   UNL     1      -2.368   2.336   3.480  0.00  0.00    +0.000 A 
ATOM     27  C   UNL     1      -3.855   3.036   1.710  0.00  0.00    +0.000 A 
ATOM     28  C   UNL     1      -3.117   3.333   2.855  0.00  0.00    +0.000 A 
ENDBRANCH  20  23
ENDBRANCH   4  21
BRANCH   2  29
ATOM     29  C   UNL     1      -3.194  -4.295   2.767  0.00  0.00    +0.000 C 
ATOM     30  C   UNL     1      -4.514  -4.301   3.573  0.00  0.00    +0.000 C 
ATOM     31  C   UNL     1      -2.176  -3.357   3.456  0.00  0.00    +0.000 C 
ENDBRANCH   2  29
BRANCH   1  32
ATOM     32  C   UNL     1      -2.805  -6.307   0.596  0.00  0.00    +0.000 C 
BRANCH  32  33
ATOM     33  C   UNL     1      -1.285  -6.521   0.574  0.00  0.00    +0.000 C 
BRANCH  33  34
ATOM     34  C   UNL     1      -0.470  -5.245   0.828  0.00  0.00    +0.000 C 
BRANCH  34  35
ATOM     35  O   UNL     1       0.637  -5.584   1.669  0.00  0.00    +0.000 OA
ATOM     36  H   UNL     1       1.035  -6.397   1.314  0.00  0.00    +0.000 HD
ENDBRANCH  34  35
BRANCH  34  37
ATOM     37  C   UNL     1       0.096  -4.598  -0.450  0.00  0.00    +0.000 C 
BRANCH  37  38
ATOM     38  C   UNL     1       1.488  -5.055  -0.910  0.00  0.00    +0.000 C 
BRANCH  38  39
ATOM     39  O   UNL     1       1.360  -5.786  -2.127  0.00  0.00    +0.000 OA
ATOM     40  H   UNL     1       2.245  -6.090  -2.386  0.00  0.00    +0.000 HD
ENDBRANCH  38  39
BRANCH  38  41
ATOM     41  C   UNL     1       2.469  -3.898  -1.096  0.00  0.00    +0.000 C 
BRANCH  41  43
ATOM     42  O   UNL     1       4.801  -3.681  -1.693  0.00  0.00    +0.000 OA
ATOM     43  C   UNL     1       3.809  -4.391  -1.586  0.00  0.00    +0.000 C 
BRANCH  43  44
ATOM     44  O   UNL     1       3.792  -5.707  -1.912  0.00  0.00    +0.000 OA
ATOM     45  H   UNL     1       3.230  -6.229  -1.300  0.00  0.00    +0.000 HD
ENDBRANCH  43  44
ENDBRANCH  41  43
ENDBRANCH  38  41
ENDBRANCH  37  38
ENDBRANCH  34  37
ENDBRANCH  33  34
ENDBRANCH  32  33
ENDBRANCH   1  32
TORSDOF 15
ENDMDL
MODEL 2
REMARK VINA RESULT:    -8.222      1.794      2.593
REMARK INTER + INTRA:         -21.255
REMARK INTER:                 -12.696
REMARK INTRA:                  -8.558
REMARK CONF_INDEPENDENT:        4.474
REMARK UNBOUND:                 8.558
REMARK  Name = 60823
REMARK  17 active torsions:
REMARK  status: ('A' for Active; 'I' for Inactive)
REMARK    1  A    between atoms: O_2  and  C_16
REMARK    2  A    between atoms: O_3  and  C_22
REMARK    3  A    between atoms: O_5  and  C_35
REMARK    4  A    between atoms: N_7  and  C_10
REMARK    5  A    between atoms: N_8  and  C_34
REMARK    6  A    between atoms: C_9  and  C_12
REMARK    7  A    between atoms: C_10  and  C_13
REMARK    8  A    between atoms: C_11  and  C_18
REMARK    9  A    between atoms: C_12  and  C_19
REMARK   10  A    between atoms: C_12  and  C_20
REMARK   11  A    between atoms: C_13  and  C_16
REMARK   12  A    between atoms: C_14  and  C_23
REMARK   13  A    between atoms: C_15  and  C_21
REMARK   14  A    between atoms: C_16  and  C_17
REMARK   15  A    between atoms: C_17  and  C_22
REMARK   16  A    between atoms: C_22  and  C_24
REMARK   17  A    between atoms: C_24  and  C_35
REMARK                            x       y       z     vdW  Elec       q    Type
REMARK                         _______ _______ _______ _____ _____    ______ ____
ROOT
ATOM      1  N   UNL     1      -4.034  -3.736   0.723  0.00  0.00    +0.000 N 
ATOM      2  C   UNL     1      -3.528  -3.110   1.833  0.00  0.00    +0.000 A 
ATOM      3  C   UNL     1      -4.094  -2.847  -0.318  0.00  0.00    +0.000 A 
ATOM      4  C   UNL     1      -3.260  -1.802   1.494  0.00  0.00    +0.000 A 
ATOM      5  C   UNL     1      -3.618  -1.635   0.133  0.00  0.00    +0.000 A 
ENDROOT
BRANCH   3   7
ATOM      6  F   UNL     1      -5.998  -4.291  -5.358  0.00  0.00    +0.000 F 
ATOM      7  C   UNL     1      -4.588  -3.222  -1.628  0.00  0.00    +0.000 A 
ATOM      8  C   UNL     1      -3.696  -3.626  -2.622  0.00  0.00    +0.000 A 
ATOM      9  C   UNL     1      -5.957  -3.180  -1.895  0.00  0.00    +0.000 A 
ATOM     10  C   UNL     1      -4.173  -3.987  -3.882  0.00  0.00    +0.000 A 
ATOM     11  C   UNL     1      -6.433  -3.542  -3.155  0.00  0.00    +0.000 A 
ATOM     12  C   UNL     1      -5.541  -3.945  -4.149  0.00  0.00    +0.000 A 
ENDBRANCH   3   7
BRANCH   5  13
ATOM     13  C   UNL     1      -3.531  -0.461  -0.691  0.00  0.00    +0.000 A 
ATOM     14  C   UNL     1      -4.306   0.660  -0.391  0.00  0.00    +0.000 A 
ATOM     15  C   UNL     1      -2.673  -0.441  -1.790  0.00  0.00    +0.000 A 
ATOM     16  C   UNL     1      -4.222   1.800  -1.190  0.00  0.00    +0.000 A 
ATOM     17  C   UNL     1      -2.590   0.698  -2.589  0.00  0.00    +0.000 A 
ATOM     18  C   UNL     1      -3.364   1.819  -2.289  0.00  0.00    +0.000 A 
ENDBRANCH   5  13
BRANCH   4  21
ATOM     19  O   UNL     1      -1.724  -1.072   3.103  0.00  0.00    +0.000 OA
ATOM     20  N   UNL     1      -3.403   0.406   2.440  0.00  0.00    +0.000 N 
ATOM     21  C   UNL     1      -2.717  -0.823   2.393  0.00  0.00    +0.000 C 
ATOM     22  H   UNL     1      -4.206   0.502   1.821  0.00  0.00    +0.000 HD
BRANCH  20  23
ATOM     23  C   UNL     1      -3.137   1.543   3.244  0.00  0.00    +0.000 A 
ATOM     24  C   UNL     1      -2.030   2.346   2.971  0.00  0.00    +0.000 A 
ATOM     25  C   UNL     1      -3.984   1.859   4.307  0.00  0.00    +0.000 A 
ATOM     26  C   UNL     1      -1.770   3.466   3.762  0.00  0.00    +0.000 A 
ATOM     27  C   UNL     1      -3.722   2.978   5.097  0.00  0.00    +0.000 A 
ATOM     28  C   UNL     1      -2.615   3.782   4.825  0.00  0.00    +0.000 A 
ENDBRANCH  20  23
ENDBRANCH   4  21
BRANCH   2  29
ATOM     29  C   UNL     1      -3.348  -3.820   3.118  0.00  0.00    +0.000 C 
ATOM     30  C   UNL     1      -2.336  -4.987   3.028  0.00  0.00    +0.000 C 
ATOM     31  C   UNL     1      -4.677  -4.338   3.715  0.00  0.00    +0.000 C 
ENDBRANCH   2  29
BRANCH   1  32
ATOM     32  C   UNL     1      -4.446  -5.134   0.672  0.00  0.00    +0.000 C 
BRANCH  32  33
ATOM     33  C   UNL     1      -3.863  -5.904  -0.521  0.00  0.00    +0.000 C 
BRANCH  33  34
ATOM     34  C   UNL     1      -2.356  -6.178  -0.413  0.00  0.00    +0.000 C 
BRANCH  34  35
ATOM     35  O   UNL     1      -1.878  -6.550  -1.709  0.00  0.00    +0.000 OA
ATOM     36  H   UNL     1      -0.916  -6.407  -1.718  0.00  0.00    +0.000 HD
ENDBRANCH  34  35
BRANCH  34  37
ATOM     37  C   UNL     1      -1.531  -4.966   0.058  0.00  0.00    +0.000 C 
BRANCH  37  38
ATOM     38  C   UNL     1      -0.018  -5.167   0.219  0.00  0.00    +0.000 C 
BRANCH  38  39
ATOM     39  O   UNL     1       0.283  -6.555   0.101  0.00  0.00    +0.000 OA
ATOM     40  H   UNL     1       0.018  -6.842  -0.788  0.00  0.00    +0.000 HD
ENDBRANCH  38  39
BRANCH  38  41
ATOM     41  C   UNL     1       0.806  -4.366  -0.789  0.00  0.00    +0.000 C 
BRANCH  41  43
ATOM     42  O   UNL     1       3.006  -5.134  -1.434  0.00  0.00    +0.000 OA
ATOM     43  C   UNL     1       1.790  -5.251  -1.516  0.00  0.00    +0.000 C 
BRANCH  43  44
ATOM     44  O   UNL     1       1.179  -6.185  -2.286  0.00  0.00    +0.000 OA
ATOM     45  H   UNL     1       0.236  -6.303  -2.042  0.00  0.00    +0.000 HD
ENDBRANCH  43  44
ENDBRANCH  41  43
ENDBRANCH  38  41
ENDBRANCH  37  38
ENDBRANCH  34  37
ENDBRANCH  33  34
ENDBRANCH  32  33
ENDBRANCH   1  32
TORSDOF 15
ENDMDL
MODEL 3
REMARK VINA RESULT:    -7.724      2.619      4.703
REMARK INTER + INTRA:         -20.895
REMARK INTER:                 -12.198
REMARK INTRA:                  -8.697
REMARK CONF_INDEPENDENT:        4.474
REMARK UNBOUND:                 8.697
REMARK  Name = 60823
REMARK  17 active torsions:
REMARK  status: ('A' for Active; 'I' for Inactive)
REMARK    1  A    between atoms: O_2  and  C_16
REMARK    2  A    between atoms: O_3  and  C_22
REMARK    3  A    between atoms: O_5  and  C_35
REMARK    4  A    between atoms: N_7  and  C_10
REMARK    5  A    between atoms: N_8  and  C_34
REMARK    6  A    between atoms: C_9  and  C_12
REMARK    7  A    between atoms: C_10  and  C_13
REMARK    8  A    between atoms: C_11  and  C_18
REMARK    9  A    between atoms: C_12  and  C_19
REMARK   10  A    between atoms: C_12  and  C_20
REMARK   11  A    between atoms: C_13  and  C_16
REMARK   12  A    between atoms: C_14  and  C_23
REMARK   13  A    between atoms: C_15  and  C_21
REMARK   14  A    between atoms: C_16  and  C_17
REMARK   15  A    between atoms: C_17  and  C_22
REMARK   16  A    between atoms: C_22  and  C_24
REMARK   17  A    between atoms: C_24  and  C_35
REMARK                            x       y       z     vdW  Elec       q    Type
REMARK                         _______ _______ _______ _____ _____    ______ ____
ROOT
ATOM      1  N   UNL     1      -3.596  -1.237   0.155  0.00  0.00    +0.000 N 
ATOM      2  C   UNL     1      -3.503  -0.972   1.497  0.00  0.00    +0.000 A 
ATOM      3  C   UNL     1      -3.730  -0.062  -0.538  0.00  0.00    +0.000 A 
ATOM      4  C   UNL     1      -3.578   0.394   1.663  0.00  0.00    +0.000 A 
ATOM      5  C   UNL     1      -3.721   0.970   0.376  0.00  0.00    +0.000 A 
ENDROOT
BRANCH   3   7
ATOM      6  F   UNL     1      -4.198   0.090  -6.094  0.00  0.00    +0.000 F 
ATOM      7  C   UNL     1      -3.851  -0.023  -1.981  0.00  0.00    +0.000 A 
ATOM      8  C   UNL     1      -4.970  -0.579  -2.603  0.00  0.00    +0.000 A 
ATOM      9  C   UNL     1      -2.850   0.571  -2.750  0.00  0.00    +0.000 A 
ATOM     10  C   UNL     1      -5.087  -0.540  -3.992  0.00  0.00    +0.000 A 
ATOM     11  C   UNL     1      -2.968   0.609  -4.139  0.00  0.00    +0.000 A 
ATOM     12  C   UNL     1      -4.086   0.054  -4.760  0.00  0.00    +0.000 A 
ENDBRANCH   3   7
BRANCH   5  13
ATOM     13  C   UNL     1      -3.840   2.354   0.010  0.00  0.00    +0.000 A 
ATOM     14  C   UNL     1      -2.708   3.075  -0.369  0.00  0.00    +0.000 A 
ATOM     15  C   UNL     1      -5.087   2.978   0.035  0.00  0.00    +0.000 A 
ATOM     16  C   UNL     1      -2.822   4.419  -0.724  0.00  0.00    +0.000 A 
ATOM     17  C   UNL     1      -5.202   4.322  -0.320  0.00  0.00    +0.000 A 
ATOM     18  C   UNL     1      -4.069   5.042  -0.699  0.00  0.00    +0.000 A 
ENDBRANCH   5  13
BRANCH   4  21
ATOM     19  O   UNL     1      -3.941   0.526   3.972  0.00  0.00    +0.000 OA
ATOM     20  N   UNL     1      -2.985   2.367   2.905  0.00  0.00    +0.000 N 
ATOM     21  C   UNL     1      -3.516   1.064   2.932  0.00  0.00    +0.000 C 
ATOM     22  H   UNL     1      -2.671   2.712   1.999  0.00  0.00    +0.000 HD
BRANCH  20  23
ATOM     23  C   UNL     1      -2.828   3.285   3.973  0.00  0.00    +0.000 A 
ATOM     24  C   UNL     1      -2.700   4.649   3.708  0.00  0.00    +0.000 A 
ATOM     25  C   UNL     1      -2.803   2.826   5.291  0.00  0.00    +0.000 A 
ATOM     26  C   UNL     1      -2.547   5.553   4.760  0.00  0.00    +0.000 A 
ATOM     27  C   UNL     1      -2.649   3.730   6.342  0.00  0.00    +0.000 A 
ATOM     28  C   UNL     1      -2.521   5.094   6.076  0.00  0.00    +0.000 A 
ENDBRANCH  20  23
ENDBRANCH   4  21
BRANCH   2  29
ATOM     29  C   UNL     1      -3.353  -2.050   2.498  0.00  0.00    +0.000 C 
ATOM     30  C   UNL     1      -4.549  -2.140   3.475  0.00  0.00    +0.000 C 
ATOM     31  C   UNL     1      -2.038  -1.948   3.305  0.00  0.00    +0.000 C 
ENDBRANCH   2  29
BRANCH   1  32
ATOM     32  C   UNL     1      -3.562  -2.570  -0.434  0.00  0.00    +0.000 C 
BRANCH  32  33
ATOM     33  C   UNL     1      -2.364  -2.801  -1.366  0.00  0.00    +0.000 C 
BRANCH  33  34
ATOM     34  C   UNL     1      -1.197  -3.553  -0.710  0.00  0.00    +0.000 C 
BRANCH  34  35
ATOM     35  O   UNL     1      -1.096  -3.118   0.649  0.00  0.00    +0.000 OA
ATOM     36  H   UNL     1      -0.377  -3.625   1.066  0.00  0.00    +0.000 HD
ENDBRANCH  34  35
BRANCH  34  37
ATOM     37  C   UNL     1      -1.364  -5.084  -0.699  0.00  0.00    +0.000 C 
BRANCH  37  38
ATOM     38  C   UNL     1      -0.169  -5.917  -0.215  0.00  0.00    +0.000 C 
BRANCH  38  39
ATOM     39  O   UNL     1       0.939  -5.051   0.018  0.00  0.00    +0.000 OA
ATOM     40  H   UNL     1       0.653  -4.362   0.639  0.00  0.00    +0.000 HD
ENDBRANCH  38  39
BRANCH  38  41
ATOM     41  C   UNL     1      -0.472  -6.727   1.045  0.00  0.00    +0.000 C 
BRANCH  41  43
ATOM     42  O   UNL     1      -2.025  -5.846   2.674  0.00  0.00    +0.000 OA
ATOM     43  C   UNL     1      -0.904  -5.831   2.181  0.00  0.00    +0.000 C 
BRANCH  43  44
ATOM     44  O   UNL     1       0.081  -4.994   2.588  0.00  0.00    +0.000 OA
ATOM     45  H   UNL     1       0.271  -4.300   1.920  0.00  0.00    +0.000 HD
ENDBRANCH  43  44
ENDBRANCH  41  43
ENDBRANCH  38  41
ENDBRANCH  37  38
ENDBRANCH  34  37
ENDBRANCH  33  34
ENDBRANCH  32  33
ENDBRANCH   1  32
TORSDOF 15
ENDMDL
MODEL 4
REMARK VINA RESULT:    -7.708      3.913      7.529
REMARK INTER + INTRA:         -20.727
REMARK INTER:                 -12.183
REMARK INTRA:                  -8.544
REMARK CONF_INDEPENDENT:        4.474
REMARK UNBOUND:                 8.544
REMARK  Name = 60823
REMARK  17 active torsions:
REMARK  status: ('A' for Active; 'I' for Inactive)
REMARK    1  A    between atoms: O_2  and  C_16
REMARK    2  A    between atoms: O_3  and  C_22
REMARK    3  A    between atoms: O_5  and  C_35
REMARK    4  A    between atoms: N_7  and  C_10
REMARK    5  A    between atoms: N_8  and  C_34
REMARK    6  A    between atoms: C_9  and  C_12
REMARK    7  A    between atoms: C_10  and  C_13
REMARK    8  A    between atoms: C_11  and  C_18
REMARK    9  A    between atoms: C_12  and  C_19
REMARK   10  A    between atoms: C_12  and  C_20
REMARK   11  A    between atoms: C_13  and  C_16
REMARK   12  A    between atoms: C_14  and  C_23
REMARK   13  A    between atoms: C_15  and  C_21
REMARK   14  A    between atoms: C_16  and  C_17
REMARK   15  A    between atoms: C_17  and  C_22
REMARK   16  A    between atoms: C_22  and  C_24
REMARK   17  A    between atoms: C_24  and  C_35
REMARK                            x       y       z     vdW  Elec       q    Type
REMARK                         _______ _______ _______ _____ _____    ______ ____
ROOT
ATOM      1  N   UNL     1      -3.746   0.139   1.195  0.00  0.00    +0.000 N 
ATOM      2  C   UNL     1      -3.803  -0.040  -0.163  0.00  0.00    +0.000 A 
ATOM      3  C   UNL     1      -3.468   1.452   1.475  0.00  0.00    +0.000 A 
ATOM      4  C   UNL     1      -3.558   1.178  -0.759  0.00  0.00    +0.000 A 
ATOM      5  C   UNL     1      -3.346   2.122   0.276  0.00  0.00    +0.000 A 
ENDROOT
BRANCH   3   7
ATOM      6  F   UNL     1      -2.997   3.355   6.696  0.00  0.00    +0.000 F 
ATOM      7  C   UNL     1      -3.345   1.946   2.832  0.00  0.00    +0.000 A 
ATOM      8  C   UNL     1      -2.187   2.615   3.228  0.00  0.00    +0.000 A 
ATOM      9  C   UNL     1      -4.385   1.754   3.741  0.00  0.00    +0.000 A 
ATOM     10  C   UNL     1      -2.069   3.091   4.534  0.00  0.00    +0.000 A 
ATOM     11  C   UNL     1      -4.267   2.230   5.046  0.00  0.00    +0.000 A 
ATOM     12  C   UNL     1      -3.110   2.899   5.443  0.00  0.00    +0.000 A 
ENDBRANCH   3   7
BRANCH   5  13
ATOM     13  C   UNL     1      -3.056   3.526   0.178  0.00  0.00    +0.000 A 
ATOM     14  C   UNL     1      -1.824   3.950  -0.320  0.00  0.00    +0.000 A 
ATOM     15  C   UNL     1      -4.006   4.464   0.581  0.00  0.00    +0.000 A 
ATOM     16  C   UNL     1      -1.542   5.313  -0.415  0.00  0.00    +0.000 A 
ATOM     17  C   UNL     1      -3.724   5.827   0.486  0.00  0.00    +0.000 A 
ATOM     18  C   UNL     1      -2.492   6.251  -0.012  0.00  0.00    +0.000 A 
ENDBRANCH   5  13
BRANCH   4  21
ATOM     19  O   UNL     1      -4.541   1.202  -2.884  0.00  0.00    +0.000 OA
ATOM     20  N   UNL     1      -2.296   1.810  -2.707  0.00  0.00    +0.000 N 
ATOM     21  C   UNL     1      -3.534   1.398  -2.178  0.00  0.00    +0.000 C 
ATOM     22  H   UNL     1      -1.536   1.936  -2.041  0.00  0.00    +0.000 HD
BRANCH  20  23
ATOM     23  C   UNL     1      -1.948   2.070  -4.057  0.00  0.00    +0.000 A 
ATOM     24  C   UNL     1      -1.591   3.360  -4.449  0.00  0.00    +0.000 A 
ATOM     25  C   UNL     1      -1.961   1.035  -4.992  0.00  0.00    +0.000 A 
ATOM     26  C   UNL     1      -1.247   3.615  -5.777  0.00  0.00    +0.000 A 
ATOM     27  C   UNL     1      -1.617   1.291  -6.320  0.00  0.00    +0.000 A 
ATOM     28  C   UNL     1      -1.261   2.581  -6.712  0.00  0.00    +0.000 A 
ENDBRANCH  20  23
ENDBRANCH   4  21
BRANCH   2  29
ATOM     29  C   UNL     1      -4.085  -1.360  -0.766  0.00  0.00    +0.000 C 
ATOM     30  C   UNL     1      -2.996  -1.814  -1.767  0.00  0.00    +0.000 C 
ATOM     31  C   UNL     1      -5.470  -1.431  -1.448  0.00  0.00    +0.000 C 
ENDBRANCH   2  29
BRANCH   1  32
ATOM     32  C   UNL     1      -3.947  -0.914   2.183  0.00  0.00    +0.000 C 
BRANCH  32  33
ATOM     33  C   UNL     1      -2.643  -1.423   2.814  0.00  0.00    +0.000 C 
BRANCH  33  34
ATOM     34  C   UNL     1      -1.871  -2.420   1.938  0.00  0.00    +0.000 C 
BRANCH  34  35
ATOM     35  O   UNL     1      -0.842  -3.010   2.738  0.00  0.00    +0.000 OA
ATOM     36  H   UNL     1      -0.349  -3.628   2.171  0.00  0.00    +0.000 HD
ENDBRANCH  34  35
BRANCH  34  37
ATOM     37  C   UNL     1      -2.737  -3.562   1.375  0.00  0.00    +0.000 C 
BRANCH  37  38
ATOM     38  C   UNL     1      -2.060  -4.544   0.408  0.00  0.00    +0.000 C 
BRANCH  38  39
ATOM     39  O   UNL     1      -0.770  -4.045   0.064  0.00  0.00    +0.000 OA
ATOM     40  H   UNL     1      -0.284  -3.884   0.889  0.00  0.00    +0.000 HD
ENDBRANCH  38  39
BRANCH  38  41
ATOM     41  C   UNL     1      -1.939  -5.959   0.975  0.00  0.00    +0.000 C 
BRANCH  41  43
ATOM     42  O   UNL     1      -1.300  -6.346   3.273  0.00  0.00    +0.000 OA
ATOM     43  C   UNL     1      -0.983  -6.000   2.142  0.00  0.00    +0.000 C 
BRANCH  43  44
ATOM     44  O   UNL     1       0.267  -5.595   1.807  0.00  0.00    +0.000 OA
ATOM     45  H   UNL     1       0.355  -4.618   1.832  0.00  0.00    +0.000 HD
ENDBRANCH  43  44
ENDBRANCH  41  43
ENDBRANCH  38  41
ENDBRANCH  37  38
ENDBRANCH  34  37
ENDBRANCH  33  34
ENDBRANCH  32  33
ENDBRANCH   1  32
TORSDOF 15
ENDMDL
MODEL 5
REMARK VINA RESULT:    -6.950      1.391      2.131
REMARK INTER + INTRA:         -20.478
REMARK INTER:                 -11.424
REMARK INTRA:                  -9.053
REMARK CONF_INDEPENDENT:        4.474
REMARK UNBOUND:                 9.053
REMARK  Name = 60823
REMARK  17 active torsions:
REMARK  status: ('A' for Active; 'I' for Inactive)
REMARK    1  A    between atoms: O_2  and  C_16
REMARK    2  A    between atoms: O_3  and  C_22
REMARK    3  A    between atoms: O_5  and  C_35
REMARK    4  A    between atoms: N_7  and  C_10
REMARK    5  A    between atoms: N_8  and  C_34
REMARK    6  A    between atoms: C_9  and  C_12
REMARK    7  A    between atoms: C_10  and  C_13
REMARK    8  A    between atoms: C_11  and  C_18
REMARK    9  A    between atoms: C_12  and  C_19
REMARK   10  A    between atoms: C_12  and  C_20
REMARK   11  A    between atoms: C_13  and  C_16
REMARK   12  A    between atoms: C_14  and  C_23
REMARK   13  A    between atoms: C_15  and  C_21
REMARK   14  A    between atoms: C_16  and  C_17
REMARK   15  A    between atoms: C_17  and  C_22
REMARK   16  A    between atoms: C_22  and  C_24
REMARK   17  A    between atoms: C_24  and  C_35
REMARK                            x       y       z     vdW  Elec       q    Type
REMARK                         _______ _______ _______ _____ _____    ______ ____
ROOT
ATOM      1  N   UNL     1      -4.532  -5.348   0.867  0.00  0.00    +0.000 N 
ATOM      2  C   UNL     1      -4.802  -4.398   1.818  0.00  0.00    +0.000 A 
ATOM      3  C   UNL     1      -4.293  -4.738  -0.337  0.00  0.00    +0.000 A 
ATOM      4  C   UNL     1      -4.733  -3.163   1.212  0.00  0.00    +0.000 A 
ATOM      5  C   UNL     1      -4.411  -3.378  -0.152  0.00  0.00    +0.000 A 
ENDROOT
BRANCH   3   7
ATOM      6  F   UNL     1      -3.082  -7.622  -4.955  0.00  0.00    +0.000 F 
ATOM      7  C   UNL     1      -3.979  -5.488  -1.537  0.00  0.00    +0.000 A 
ATOM      8  C   UNL     1      -4.972  -6.230  -2.176  0.00  0.00    +0.000 A 
ATOM      9  C   UNL     1      -2.682  -5.467  -2.053  0.00  0.00    +0.000 A 
ATOM     10  C   UNL     1      -4.669  -6.951  -3.331  0.00  0.00    +0.000 A 
ATOM     11  C   UNL     1      -2.380  -6.188  -3.208  0.00  0.00    +0.000 A 
ATOM     12  C   UNL     1      -3.373  -6.930  -3.847  0.00  0.00    +0.000 A 
ENDBRANCH   3   7
BRANCH   5  13
ATOM     13  C   UNL     1      -4.226  -2.415  -1.202  0.00  0.00    +0.000 A 
ATOM     14  C   UNL     1      -3.301  -1.383  -1.046  0.00  0.00    +0.000 A 
ATOM     15  C   UNL     1      -4.971  -2.511  -2.377  0.00  0.00    +0.000 A 
ATOM     16  C   UNL     1      -3.120  -0.447  -2.066  0.00  0.00    +0.000 A 
ATOM     17  C   UNL     1      -4.792  -1.576  -3.396  0.00  0.00    +0.000 A 
ATOM     18  C   UNL     1      -3.866  -0.544  -3.240  0.00  0.00    +0.000 A 
ENDBRANCH   5  13
BRANCH   4  21
ATOM     19  O   UNL     1      -6.102  -1.445   2.024  0.00  0.00    +0.000 OA
ATOM     20  N   UNL     1      -3.797  -1.250   2.331  0.00  0.00    +0.000 N 
ATOM     21  C   UNL     1      -4.956  -1.914   1.884  0.00  0.00    +0.000 C 
ATOM     22  H   UNL     1      -2.910  -1.719   2.161  0.00  0.00    +0.000 HD
BRANCH  20  23
ATOM     23  C   UNL     1      -3.687   0.002   2.987  0.00  0.00    +0.000 A 
ATOM     24  C   UNL     1      -4.615   0.361   3.964  0.00  0.00    +0.000 A 
ATOM     25  C   UNL     1      -2.649   0.874   2.657  0.00  0.00    +0.000 A 
ATOM     26  C   UNL     1      -4.506   1.593   4.611  0.00  0.00    +0.000 A 
ATOM     27  C   UNL     1      -2.540   2.105   3.304  0.00  0.00    +0.000 A 
ATOM     28  C   UNL     1      -3.468   2.465   4.281  0.00  0.00    +0.000 A 
ENDBRANCH  20  23
ENDBRANCH   4  21
BRANCH   2  29
ATOM     29  C   UNL     1      -5.102  -4.760   3.220  0.00  0.00    +0.000 C 
ATOM     30  C   UNL     1      -3.906  -5.423   3.944  0.00  0.00    +0.000 C 
ATOM     31  C   UNL     1      -6.350  -5.661   3.360  0.00  0.00    +0.000 C 
ENDBRANCH   2  29
BRANCH   1  32
ATOM     32  C   UNL     1      -4.510  -6.786   1.109  0.00  0.00    +0.000 C 
BRANCH  32  33
ATOM     33  C   UNL     1      -3.211  -7.466   0.656  0.00  0.00    +0.000 C 
BRANCH  33  34
ATOM     34  C   UNL     1      -1.962  -7.006   1.421  0.00  0.00    +0.000 C 
BRANCH  34  35
ATOM     35  O   UNL     1      -0.809  -7.478   0.718  0.00  0.00    +0.000 OA
ATOM     36  H   UNL     1      -0.607  -6.832   0.019  0.00  0.00    +0.000 HD
ENDBRANCH  34  35
BRANCH  34  37
ATOM     37  C   UNL     1      -1.835  -5.477   1.551  0.00  0.00    +0.000 C 
BRANCH  37  38
ATOM     38  C   UNL     1      -0.470  -4.856   1.224  0.00  0.00    +0.000 C 
BRANCH  38  39
ATOM     39  O   UNL     1       0.559  -5.773   1.588  0.00  0.00    +0.000 OA
ATOM     40  H   UNL     1       0.691  -6.382   0.843  0.00  0.00    +0.000 HD
ENDBRANCH  38  39
BRANCH  38  41
ATOM     41  C   UNL     1      -0.323  -4.464  -0.247  0.00  0.00    +0.000 C 
BRANCH  41  43
ATOM     42  O   UNL     1       1.976  -4.101  -0.897  0.00  0.00    +0.000 OA
ATOM     43  C   UNL     1       1.027  -4.867  -0.788  0.00  0.00    +0.000 C 
BRANCH  43  44
ATOM     44  O   UNL     1       1.072  -6.170  -1.157  0.00  0.00    +0.000 OA
ATOM     45  H   UNL     1       0.859  -6.770  -0.411  0.00  0.00    +0.000 HD
ENDBRANCH  43  44
ENDBRANCH  41  43
ENDBRANCH  38  41
ENDBRANCH  37  38
ENDBRANCH  34  37
ENDBRANCH  33  34
ENDBRANCH  32  33
ENDBRANCH   1  32
TORSDOF 15
ENDMDL
MODEL 6
REMARK VINA RESULT:    -6.707      1.832      2.612
REMARK INTER + INTRA:         -21.159
REMARK INTER:                 -11.182
REMARK INTRA:                  -9.977
REMARK CONF_INDEPENDENT:        4.474
REMARK UNBOUND:                 9.977
REMARK  Name = 60823
REMARK  17 active torsions:
REMARK  status: ('A' for Active; 'I' for Inactive)
REMARK    1  A    between atoms: O_2  and  C_16
REMARK    2  A    between atoms: O_3  and  C_22
REMARK    3  A    between atoms: O_5  and  C_35
REMARK    4  A    between atoms: N_7  and  C_10
REMARK    5  A    between atoms: N_8  and  C_34
REMARK    6  A    between atoms: C_9  and  C_12
REMARK    7  A    between atoms: C_10  and  C_13
REMARK    8  A    between atoms: C_11  and  C_18
REMARK    9  A    between atoms: C_12  and  C_19
REMARK   10  A    between atoms: C_12  and  C_20
REMARK   11  A    between atoms: C_13  and  C_16
REMARK   12  A    between atoms: C_14  and  C_23
REMARK   13  A    between atoms: C_15  and  C_21
REMARK   14  A    between atoms: C_16  and  C_17
REMARK   15  A    between atoms: C_17  and  C_22
REMARK   16  A    between atoms: C_22  and  C_24
REMARK   17  A    between atoms: C_24  and  C_35
REMARK                            x       y       z     vdW  Elec       q    Type
REMARK                         _______ _______ _______ _____ _____    ______ ____
ROOT
ATOM      1  N   UNL     1      -4.519  -5.000   0.536  0.00  0.00    +0.000 N 
ATOM      2  C   UNL     1      -4.085  -4.195   1.558  0.00  0.00    +0.000 A 
ATOM      3  C   UNL     1      -4.451  -4.314  -0.648  0.00  0.00    +0.000 A 
ATOM      4  C   UNL     1      -3.733  -2.979   1.017  0.00  0.00    +0.000 A 
ATOM      5  C   UNL     1      -3.964  -3.054  -0.379  0.00  0.00    +0.000 A 
ENDROOT
BRANCH   3   7
ATOM      6  F   UNL     1      -5.971  -6.595  -5.506  0.00  0.00    +0.000 F 
ATOM      7  C   UNL     1      -4.846  -4.908  -1.910  0.00  0.00    +0.000 A 
ATOM      8  C   UNL     1      -6.196  -5.131  -2.184  0.00  0.00    +0.000 A 
ATOM      9  C   UNL     1      -3.877  -5.254  -2.852  0.00  0.00    +0.000 A 
ATOM     10  C   UNL     1      -6.575  -5.702  -3.399  0.00  0.00    +0.000 A 
ATOM     11  C   UNL     1      -4.257  -5.824  -4.067  0.00  0.00    +0.000 A 
ATOM     12  C   UNL     1      -5.606  -6.048  -4.341  0.00  0.00    +0.000 A 
ENDBRANCH   3   7
BRANCH   5  13
ATOM     13  C   UNL     1      -3.756  -2.052  -1.388  0.00  0.00    +0.000 A 
ATOM     14  C   UNL     1      -2.717  -1.131  -1.252  0.00  0.00    +0.000 A 
ATOM     15  C   UNL     1      -4.593  -1.999  -2.502  0.00  0.00    +0.000 A 
ATOM     16  C   UNL     1      -2.514  -0.157  -2.231  0.00  0.00    +0.000 A 
ATOM     17  C   UNL     1      -4.391  -1.026  -3.481  0.00  0.00    +0.000 A 
ATOM     18  C   UNL     1      -3.352  -0.105  -3.345  0.00  0.00    +0.000 A 
ENDBRANCH   5  13
BRANCH   4  21
ATOM     19  O   UNL     1      -2.015  -1.758   2.039  0.00  0.00    +0.000 OA
ATOM     20  N   UNL     1      -4.195  -0.945   2.217  0.00  0.00    +0.000 N 
ATOM     21  C   UNL     1      -3.228  -1.867   1.773  0.00  0.00    +0.000 C 
ATOM     22  H   UNL     1      -5.159  -1.132   1.947  0.00  0.00    +0.000 HD
BRANCH  20  23
ATOM     23  C   UNL     1      -4.017   0.220   3.005  0.00  0.00    +0.000 A 
ATOM     24  C   UNL     1      -4.767   0.397   4.167  0.00  0.00    +0.000 A 
ATOM     25  C   UNL     1      -3.092   1.190   2.617  0.00  0.00    +0.000 A 
ATOM     26  C   UNL     1      -4.591   1.543   4.943  0.00  0.00    +0.000 A 
ATOM     27  C   UNL     1      -2.917   2.336   3.393  0.00  0.00    +0.000 A 
ATOM     28  C   UNL     1      -3.666   2.512   4.556  0.00  0.00    +0.000 A 
ENDBRANCH  20  23
ENDBRANCH   4  21
BRANCH   2  29
ATOM     29  C   UNL     1      -4.047  -4.665   2.960  0.00  0.00    +0.000 C 
ATOM     30  C   UNL     1      -5.230  -4.138   3.807  0.00  0.00    +0.000 C 
ATOM     31  C   UNL     1      -2.717  -4.333   3.675  0.00  0.00    +0.000 C 
ENDBRANCH   2  29
BRANCH   1  32
ATOM     32  C   UNL     1      -4.986  -6.372   0.698  0.00  0.00    +0.000 C 
BRANCH  32  33
ATOM     33  C   UNL     1      -4.225  -7.386  -0.167  0.00  0.00    +0.000 C 
BRANCH  33  34
ATOM     34  C   UNL     1      -2.705  -7.379   0.051  0.00  0.00    +0.000 C 
BRANCH  34  35
ATOM     35  O   UNL     1      -2.116  -6.543  -0.950  0.00  0.00    +0.000 OA
ATOM     36  H   UNL     1      -1.191  -6.823  -1.058  0.00  0.00    +0.000 HD
ENDBRANCH  34  35
BRANCH  34  37
ATOM     37  C   UNL     1      -2.271  -6.838   1.425  0.00  0.00    +0.000 C 
BRANCH  37  38
ATOM     38  C   UNL     1      -0.784  -6.507   1.612  0.00  0.00    +0.000 C 
BRANCH  38  39
ATOM     39  O   UNL     1      -0.013  -7.300   0.712  0.00  0.00    +0.000 OA
ATOM     40  H   UNL     1      -0.410  -7.218  -0.171  0.00  0.00    +0.000 HD
ENDBRANCH  38  39
BRANCH  38  41
ATOM     41  C   UNL     1      -0.466  -5.026   1.405  0.00  0.00    +0.000 C 
BRANCH  41  43
ATOM     42  O   UNL     1      -1.170  -3.814  -0.564  0.00  0.00    +0.000 OA
ATOM     43  C   UNL     1      -0.453  -4.670  -0.062  0.00  0.00    +0.000 C 
BRANCH  43  44
ATOM     44  O   UNL     1       0.432  -5.413  -0.771  0.00  0.00    +0.000 OA
ATOM     45  H   UNL     1       0.014  -6.216  -1.150  0.00  0.00    +0.000 HD
ENDBRANCH  43  44
ENDBRANCH  41  43
ENDBRANCH  38  41
ENDBRANCH  37  38
ENDBRANCH  34  37
ENDBRANCH  33  34
ENDBRANCH  32  33
ENDBRANCH   1  32
TORSDOF 15
ENDMDL
