MODEL 1
REMARK VINA RESULT:    -4.390      0.000      0.000
REMARK INTER + INTRA:          -6.846
REMARK INTER:                  -6.180
REMARK INTRA:                  -0.666
REMARK CONF_INDEPENDENT:        1.790
REMARK UNBOUND:                 0.666
REMARK  Name = 444795
REMARK  11 active torsions:
REMARK  status: ('A' for Active; 'I' for Inactive)
REMARK    1  A    between atoms: O_1  and  C_22
REMARK    2  A    between atoms: C_3  and  C_9
REMARK    3  A    between atoms: C_3  and  C_10
REMARK    4  A    between atoms: C_6  and  C_11
REMARK    5  A    between atoms: C_8  and  C_12
REMARK    6  A    between atoms: C_13  and  C_14
REMARK    7  A    between atoms: C_14  and  C_15
REMARK    8  A    between atoms: C_16  and  C_17
REMARK    9  A    between atoms: C_18  and  C_19
REMARK   10  A    between atoms: C_19  and  C_20
REMARK   11  A    between atoms: C_21  and  C_22
REMARK                            x       y       z     vdW  Elec       q    Type
REMARK                         _______ _______ _______ _____ _____    ______ ____
ROOT
ATOM      1  C   UNL     1       7.698   0.213   1.457  0.00  0.00    +0.000 C 
ATOM      2  C   UNL     1       7.889  -0.535   2.757  0.00  0.00    +0.000 C 
ATOM      3  C   UNL     1       7.675  -0.493   0.306  0.00  0.00    +0.000 C 
ENDROOT
BRANCH   1   5
ATOM      4  C   UNL     1       6.567   2.333   2.160  0.00  0.00    +0.000 C 
ATOM      5  C   UNL     1       7.550   1.667   1.533  0.00  0.00    +0.000 C 
BRANCH   4   9
ATOM      6  C   UNL     1       6.086   4.461   0.857  0.00  0.00    +0.000 C 
ATOM      7  C   UNL     1       6.310   5.996   0.907  0.00  0.00    +0.000 C 
ATOM      8  C   UNL     1       5.812   6.608   2.204  0.00  0.00    +0.000 C 
ATOM      9  C   UNL     1       6.484   3.784   2.191  0.00  0.00    +0.000 C 
ATOM     10  C   UNL     1       6.553   6.001   3.386  0.00  0.00    +0.000 C 
ATOM     11  C   UNL     1       6.718   4.496   3.322  0.00  0.00    +0.000 C 
ATOM     12  C   UNL     1       6.933   3.945  -0.332  0.00  0.00    +0.000 C 
ATOM     13  C   UNL     1       4.596   4.179   0.558  0.00  0.00    +0.000 C 
ATOM     14  C   UNL     1       7.162   3.925   4.650  0.00  0.00    +0.000 C 
ENDBRANCH   4   9
ENDBRANCH   1   5
BRANCH   3  15
ATOM     15  C   UNL     1       7.811  -1.926   0.121  0.00  0.00    +0.000 C 
ATOM     16  C   UNL     1       7.380  -2.817   1.031  0.00  0.00    +0.000 C 
BRANCH  16  17
ATOM     17  C   UNL     1       7.473  -4.279   0.945  0.00  0.00    +0.000 C 
ATOM     18  C   UNL     1       7.888  -4.868  -0.379  0.00  0.00    +0.000 C 
ATOM     19  C   UNL     1       7.162  -4.997   2.043  0.00  0.00    +0.000 C 
BRANCH  19  21
ATOM     20  O   UNL     1       7.570  -7.265   1.308  0.00  0.00    +0.000 OA
ATOM     21  C   UNL     1       7.194  -6.472   2.153  0.00  0.00    +0.000 C 
BRANCH  21  22
ATOM     22  O   UNL     1       6.751  -6.818   3.386  0.00  0.00    +0.000 OA
ATOM     23  H   UNL     1       5.779  -6.942   3.406  0.00  0.00    +0.000 HD
ENDBRANCH  21  22
ENDBRANCH  19  21
ENDBRANCH  16  17
ENDBRANCH   3  15
TORSDOF 6
ENDMDL
MODEL 2
REMARK VINA RESULT:    -3.377      1.319      2.735
REMARK INTER + INTRA:          -6.101
REMARK INTER:                  -5.166
REMARK INTRA:                  -0.934
REMARK CONF_INDEPENDENT:        1.790
REMARK UNBOUND:                 0.934
REMARK  Name = 444795
REMARK  11 active torsions:
REMARK  status: ('A' for Active; 'I' for Inactive)
REMARK    1  A    between atoms: O_1  and  C_22
REMARK    2  A    between atoms: C_3  and  C_9
REMARK    3  A    between atoms: C_3  and  C_10
REMARK    4  A    between atoms: C_6  and  C_11
REMARK    5  A    between atoms: C_8  and  C_12
REMARK    6  A    between atoms: C_13  and  C_14
REMARK    7  A    between atoms: C_14  and  C_15
REMARK    8  A    between atoms: C_16  and  C_17
REMARK    9  A    between atoms: C_18  and  C_19
REMARK   10  A    between atoms: C_19  and  C_20
REMARK   11  A    between atoms: C_21  and  C_22
REMARK                            x       y       z     vdW  Elec       q    Type
REMARK                         _______ _______ _______ _____ _____    ______ ____
ROOT
ATOM      1  C   UNL     1       6.838   1.351   2.352  0.00  0.00    +0.000 C 
ATOM      2  C   UNL     1       5.474   0.786   2.677  0.00  0.00    +0.000 C 
ATOM      3  C   UNL     1       7.701   0.586   1.650  0.00  0.00    +0.000 C 
ENDROOT
BRANCH   1   5
ATOM      4  C   UNL     1       6.448   3.818   2.528  0.00  0.00    +0.000 C 
ATOM      5  C   UNL     1       7.136   2.703   2.825  0.00  0.00    +0.000 C 
BRANCH   4   9
ATOM      6  C   UNL     1       6.517   5.370   4.538  0.00  0.00    +0.000 C 
ATOM      7  C   UNL     1       6.652   6.870   4.915  0.00  0.00    +0.000 C 
ATOM      8  C   UNL     1       7.889   7.507   4.307  0.00  0.00    +0.000 C 
ATOM      9  C   UNL     1       6.805   5.132   3.036  0.00  0.00    +0.000 C 
ATOM     10  C   UNL     1       7.827   7.422   2.789  0.00  0.00    +0.000 C 
ATOM     11  C   UNL     1       7.374   6.080   2.250  0.00  0.00    +0.000 C 
ATOM     12  C   UNL     1       5.075   4.961   4.926  0.00  0.00    +0.000 C 
ATOM     13  C   UNL     1       7.508   4.546   5.391  0.00  0.00    +0.000 C 
ATOM     14  C   UNL     1       7.641   5.954   0.767  0.00  0.00    +0.000 C 
ENDBRANCH   4   9
ENDBRANCH   1   5
BRANCH   3  15
ATOM     15  C   UNL     1       7.507  -0.758   1.137  0.00  0.00    +0.000 C 
ATOM     16  C   UNL     1       7.889  -1.854   1.817  0.00  0.00    +0.000 C 
BRANCH  16  17
ATOM     17  C   UNL     1       7.744  -3.250   1.388  0.00  0.00    +0.000 C 
ATOM     18  C   UNL     1       7.888  -3.539  -0.084  0.00  0.00    +0.000 C 
ATOM     19  C   UNL     1       7.473  -4.174   2.332  0.00  0.00    +0.000 C 
BRANCH  19  21
ATOM     20  O   UNL     1       7.566  -6.247   1.088  0.00  0.00    +0.000 OA
ATOM     21  C   UNL     1       7.292  -5.624   2.099  0.00  0.00    +0.000 C 
BRANCH  21  22
ATOM     22  O   UNL     1       6.782  -6.177   3.226  0.00  0.00    +0.000 OA
ATOM     23  H   UNL     1       6.175  -6.922   3.028  0.00  0.00    +0.000 HD
ENDBRANCH  21  22
ENDBRANCH  19  21
ENDBRANCH  16  17
ENDBRANCH   3  15
TORSDOF 6
ENDMDL
