REMARK  Name = 6037
REMARK  11 active torsions:
REMARK  status: ('A' for Active; 'I' for Inactive)
REMARK    1  A    between atoms: O_1  and  C_19
REMARK    2  A    between atoms: OE1_4  and  CD_27
REMARK    3  A    between atoms: N_7  and  CA_14
REMARK    4  A    between atoms: N_8  and  C_20
REMARK    5  A    between atoms: N_8  and  C_21
REMARK    6  A    between atoms: CA_14  and  CB_15
REMARK    7  A    between atoms: CA_14  and  C_19
REMARK    8  A    between atoms: CB_15  and  CG_16
REMARK    9  A    between atoms: CG_16  and  CD_27
REMARK   10  A    between atoms: C_17  and  C_18
REMARK   11  A    between atoms: C_21  and  C_26
REMARK                            x       y       z     vdW  Elec       q    Type
REMARK                         _______ _______ _______ _____ _____    ______ ____
ROOT
ATOM      1  C   UNK A   0       2.434   0.812   0.751  0.00  0.00    +0.000 A 
ATOM      2  C   UNK A   0      -0.271   0.273   0.334  0.00  0.00    +0.000 A 
ATOM      3  C   UNK A   0       1.628   0.419   1.820  0.00  0.00    +0.000 A 
ATOM      4  C   UNK A   0       1.887   0.936  -0.526  0.00  0.00    +0.000 A 
ATOM      5  C   UNK A   0       0.275   0.150   1.611  0.00  0.00    +0.000 A 
ATOM      6  C   UNK A   0       0.534   0.666  -0.735  0.00  0.00    +0.000 A 
ENDROOT
BRANCH   1   9
ATOM      7  O   UNK A   0       4.250   1.458   2.086  0.00  0.00    +0.000 OA
ATOM      8  N   GLU A   1       4.708   0.913  -0.121  0.00  0.00    +0.000 N 
ATOM      9  C   UNK A   0       3.874   1.100   0.973  0.00  0.00    +0.000 C 
ATOM     10  H   GLU A   1       4.338   0.536  -0.988  0.00  0.00    +0.000 HD
BRANCH   8  11
ATOM     11  CA  GLU A   1       6.131   1.127  -0.057  0.00  0.00    +0.000 C 
BRANCH  11  13
ATOM     12  OXT GLU A   1       5.860   1.789  -2.385  0.00  0.00    +0.000 OA
ATOM     13  C   GLU A   1       6.572   1.685  -1.394  0.00  0.00    +0.000 C 
BRANCH  13  14
ATOM     14  O   GLU A   1       7.864   2.106  -1.367  0.00  0.00    +0.000 OA
ATOM     15  H   GLU A   1       8.143   2.482  -2.229  0.00  0.00    +0.000 HD
ENDBRANCH  13  14
ENDBRANCH  11  13
BRANCH  11  16
ATOM     16  CB  GLU A   1       6.900  -0.129   0.373  0.00  0.00    +0.000 C 
BRANCH  16  17
ATOM     17  CG  GLU A   1       6.789  -1.335  -0.568  0.00  0.00    +0.000 C 
BRANCH  17  19
ATOM     18  OE2 GLU A   1       8.206  -2.623   0.939  0.00  0.00    +0.000 OA
ATOM     19  CD  GLU A   1       7.554  -2.552  -0.093  0.00  0.00    +0.000 C 
BRANCH  19  20
ATOM     20  OE1 GLU A   1       7.469  -3.575  -0.984  0.00  0.00    +0.000 OA
ATOM     21  HE1 GLU A   1       7.978  -4.359  -0.689  0.00  0.00    +0.000 HD
ENDBRANCH  19  20
ENDBRANCH  17  19
ENDBRANCH  16  17
ENDBRANCH  11  16
ENDBRANCH   8  11
ENDBRANCH   1   9
BRANCH   2  22
ATOM     22  N   UNK A   0      -1.639   0.002   0.123  0.00  0.00    +0.000 N 
ATOM     23  H   UNK A   0      -1.992   0.113  -0.822  0.00  0.00    +0.000 HD
BRANCH  22  24
ATOM     24  C   UNK A   0      -2.522  -0.403   1.173  0.00  0.00    +0.000 C 
BRANCH  24  31
ATOM     25  O   UNK A   0      -6.589   2.328   0.491  0.00  0.00    +0.000 OA
ATOM     26  N   UNK A   0      -4.760   0.386   0.611  0.00  0.00    +0.000 NA
ATOM     27  N   UNK A   0      -7.670  -1.289  -0.825  0.00  0.00    +0.000 N 
ATOM     28  N   UNK A   0      -5.493  -2.164  -0.308  0.00  0.00    +0.000 NA
ATOM     29  N   UNK A   0      -8.224   0.992  -0.418  0.00  0.00    +0.000 NA
ATOM     30  N   UNK A   0      -9.767  -0.514  -1.341  0.00  0.00    +0.000 N 
ATOM     31  C   UNK A   0      -3.903  -0.652   0.634  0.00  0.00    +0.000 A 
ATOM     32  C   UNK A   0      -5.986   0.114   0.119  0.00  0.00    +0.000 A 
ATOM     33  C   UNK A   0      -6.368  -1.136  -0.339  0.00  0.00    +0.000 A 
ATOM     34  C   UNK A   0      -4.263  -1.903   0.182  0.00  0.00    +0.000 A 
ATOM     35  C   UNK A   0      -6.955   1.231   0.080  0.00  0.00    +0.000 A 
ATOM     36  C   UNK A   0      -8.527  -0.211  -0.837  0.00  0.00    +0.000 A 
ATOM     37  H   UNK A   0      -7.948  -2.203  -1.160  0.00  0.00    +0.000 HD
ATOM     38  H   UNK A   0      -9.994  -1.448  -1.663  0.00  0.00    +0.000 HD
ATOM     39  H   UNK A   0     -10.494   0.191  -1.405  0.00  0.00    +0.000 HD
ENDBRANCH  24  31
ENDBRANCH  22  24
ENDBRANCH   2  22
TORSDOF 11
