REMARK  Name = 6613
REMARK  11 active torsions:
REMARK  status: ('A' for Active; 'I' for Inactive)
REMARK    1  A    between atoms: O_1  and  C_8
REMARK    2  A    between atoms: O_2  and  C_9
REMARK    3  A    between atoms: O_4  and  C_15
REMARK    4  A    between atoms: N_6  and  C_13
REMARK    5  A    between atoms: C_7  and  C_8
REMARK    6  A    between atoms: C_7  and  C_9
REMARK    7  A    between atoms: C_7  and  C_10
REMARK    8  A    between atoms: C_7  and  C_11
REMARK    9  A    between atoms: C_8  and  C_12
REMARK   10  A    between atoms: C_13  and  C_14
REMARK   11  A    between atoms: C_14  and  C_15
REMARK                            x       y       z     vdW  Elec       q    Type
REMARK                         _______ _______ _______ _____ _____    ______ ____
ROOT
ATOM      1  O   UNL     1      -0.485  -2.119  -1.075  0.00  0.00    +0.000 OA
ATOM      2  N   UNL     1       0.733  -1.223   0.685  0.00  0.00    +0.000 N 
ATOM      3  C   UNL     1      -0.427  -1.470  -0.032  0.00  0.00    +0.000 C 
ATOM      4  H   UNL     1       0.686  -0.665   1.532  0.00  0.00    +0.000 HD
ENDROOT
BRANCH   3   5
ATOM      5  C   UNL     1      -1.658  -0.820   0.594  0.00  0.00    +0.000 C 
BRANCH   5   6
ATOM      6  C   UNL     1      -1.981   0.602   0.045  0.00  0.00    +0.000 C 
ATOM      7  C   UNL     1      -3.244   1.133   0.765  0.00  0.00    +0.000 C 
ATOM      8  C   UNL     1      -2.294   0.554  -1.463  0.00  0.00    +0.000 C 
BRANCH   6   9
ATOM      9  C   UNL     1      -0.810   1.581   0.306  0.00  0.00    +0.000 C 
BRANCH   9  10
ATOM     10  O   UNL     1      -1.107   2.879  -0.196  0.00  0.00    +0.000 OA
ATOM     11  H   UNL     1      -0.992   2.858  -1.161  0.00  0.00    +0.000 HD
ENDBRANCH   9  10
ENDBRANCH   6   9
ENDBRANCH   5   6
BRANCH   5  12
ATOM     12  O   UNL     1      -2.753  -1.694   0.334  0.00  0.00    +0.000 OA
ATOM     13  H   UNL     1      -2.789  -1.875  -0.620  0.00  0.00    +0.000 HD
ENDBRANCH   5  12
ENDBRANCH   3   5
BRANCH   2  14
ATOM     14  C   UNL     1       2.030  -1.712   0.277  0.00  0.00    +0.000 C 
BRANCH  14  15
ATOM     15  C   UNL     1       2.753  -0.725  -0.631  0.00  0.00    +0.000 C 
BRANCH  15  17
ATOM     16  O   UNL     1       3.151   0.791   1.236  0.00  0.00    +0.000 OA
ATOM     17  C   UNL     1       3.012   0.609   0.034  0.00  0.00    +0.000 C 
BRANCH  17  18
ATOM     18  O   UNL     1       3.081   1.613  -0.879  0.00  0.00    +0.000 OA
ATOM     19  H   UNL     1       3.249   2.482  -0.456  0.00  0.00    +0.000 HD
ENDBRANCH  17  18
ENDBRANCH  15  17
ENDBRANCH  14  15
ENDBRANCH   2  14
TORSDOF 9
