REMARK  Name = 446905
REMARK  12 active torsions:
REMARK  status: ('A' for Active; 'I' for Inactive)
REMARK    1  A    between atoms: O_4  and  C_24
REMARK    2  A    between atoms: N_8  and  C_19
REMARK    3  A    between atoms: C_11  and  C_13
REMARK    4  A    between atoms: C_13  and  C_14
REMARK    5  A    between atoms: C_14  and  C_16
REMARK    6  A    between atoms: C_16  and  C_17
REMARK    7  A    between atoms: C_17  and  C_18
REMARK    8  A    between atoms: C_19  and  C_20
REMARK    9  A    between atoms: C_20  and  C_21
REMARK   10  A    between atoms: C_21  and  C_22
REMARK   11  A    between atoms: C_22  and  C_23
REMARK   12  A    between atoms: C_23  and  C_24
REMARK                            x       y       z     vdW  Elec       q    Type
REMARK                         _______ _______ _______ _____ _____    ______ ____
ROOT
ATOM      1  C   UNL     1       2.877  -2.396   1.023  0.00  0.00    +0.000 C 
ENDROOT
BRANCH   1   2
ATOM      2  C   UNL     1       1.501  -1.744   1.188  0.00  0.00    +0.000 C 
BRANCH   2   3
ATOM      3  C   UNL     1       0.388  -2.793   1.189  0.00  0.00    +0.000 C 
BRANCH   3  10
ATOM      4  S   UNL     1      -2.318  -3.372   1.249  0.00  0.00    +0.000 S 
ATOM      5  O   UNL     1      -1.873  -1.746  -3.214  0.00  0.00    +0.000 OA
ATOM      6  N   UNL     1      -0.907  -1.493  -1.095  0.00  0.00    +0.000 N 
ATOM      7  N   UNL     1      -3.133  -1.236  -1.306  0.00  0.00    +0.000 N 
ATOM      8  C   UNL     1      -1.350  -1.135   0.239  0.00  0.00    +0.000 C 
ATOM      9  C   UNL     1      -2.886  -1.037   0.108  0.00  0.00    +0.000 C 
ATOM     10  C   UNL     1      -0.982  -2.150   1.325  0.00  0.00    +0.000 C 
ATOM     11  C   UNL     1      -3.575  -2.108   0.951  0.00  0.00    +0.000 C 
ATOM     12  C   UNL     1      -1.961  -1.522  -2.014  0.00  0.00    +0.000 C 
ATOM     13  H   UNL     1       0.063  -1.623  -1.363  0.00  0.00    +0.000 HD
ATOM     14  H   UNL     1      -4.049  -1.166  -1.740  0.00  0.00    +0.000 HD
ENDBRANCH   3  10
ENDBRANCH   2   3
ENDBRANCH   1   2
BRANCH   1  15
ATOM     15  C   UNL     1       4.007  -1.369   0.991  0.00  0.00    +0.000 C 
BRANCH  15  18
ATOM     16  O   UNL     1       3.981  -0.773  -1.358  0.00  0.00    +0.000 OA
ATOM     17  N   UNL     1       3.820   0.908   0.233  0.00  0.00    +0.000 N 
ATOM     18  C   UNL     1       3.929  -0.410  -0.186  0.00  0.00    +0.000 C 
ATOM     19  H   UNL     1       3.779   1.126   1.224  0.00  0.00    +0.000 HD
BRANCH  17  20
ATOM     20  C   UNL     1       3.754   2.006  -0.701  0.00  0.00    +0.000 C 
BRANCH  20  21
ATOM     21  C   UNL     1       2.315   2.322  -1.090  0.00  0.00    +0.000 C 
BRANCH  21  22
ATOM     22  C   UNL     1       1.431   2.698   0.101  0.00  0.00    +0.000 C 
BRANCH  22  23
ATOM     23  C   UNL     1      -0.021   2.984  -0.286  0.00  0.00    +0.000 C 
BRANCH  23  24
ATOM     24  C   UNL     1      -0.862   3.340   0.940  0.00  0.00    +0.000 C 
BRANCH  24  26
ATOM     25  O   UNL     1      -2.785   3.510  -0.543  0.00  0.00    +0.000 OA
ATOM     26  C   UNL     1      -2.308   3.591   0.581  0.00  0.00    +0.000 C 
BRANCH  26  27
ATOM     27  O   UNL     1      -3.040   3.926   1.675  0.00  0.00    +0.000 OA
ATOM     28  H   UNL     1      -3.981   4.091   1.449  0.00  0.00    +0.000 HD
ENDBRANCH  26  27
ENDBRANCH  24  26
ENDBRANCH  23  24
ENDBRANCH  22  23
ENDBRANCH  21  22
ENDBRANCH  20  21
ENDBRANCH  17  20
ENDBRANCH  15  18
ENDBRANCH   1  15
TORSDOF 12
