REMARK  Name = 131704252
REMARK  19 active torsions:
REMARK  status: ('A' for Active; 'I' for Inactive)
REMARK    1  A    between atoms: O_4  and  C_23
REMARK    2  A    between atoms: O_5  and  C_23
REMARK    3  A    between atoms: O_8  and  C_37
REMARK    4  A    between atoms: OE1_10  and  CD_38
REMARK    5  A    between atoms: N_14  and  C_22
REMARK    6  A    between atoms: N_15  and  C_25
REMARK    7  A    between atoms: N_16  and  CA_34
REMARK    8  A    between atoms: C_17  and  C_18
REMARK    9  A    between atoms: C_18  and  C_19
REMARK   10  A    between atoms: C_19  and  C_21
REMARK   11  A    between atoms: C_20  and  C_21
REMARK   12  A    between atoms: C_20  and  C_23
REMARK   13  A    between atoms: C_20  and  C_26
REMARK   14  A    between atoms: C_23  and  C_27
REMARK   15  A    between atoms: C_32  and  C_33
REMARK   16  A    between atoms: CA_34  and  CB_35
REMARK   17  A    between atoms: CA_34  and  C_37
REMARK   18  A    between atoms: CB_35  and  CG_36
REMARK   19  A    between atoms: CG_36  and  CD_38
REMARK                            x       y       z     vdW  Elec       q    Type
REMARK                         _______ _______ _______ _____ _____    ______ ____
ROOT
ATOM      1  C   UNL     1      -1.539  -2.069  -0.042  0.00  0.00    +0.000 C 
ENDROOT
BRANCH   1   2
ATOM      2  C   UNL     1      -0.358  -1.140   0.212  0.00  0.00    +0.000 A 
ATOM      3  C   UNL     1       0.314  -0.556  -0.862  0.00  0.00    +0.000 A 
ATOM      4  C   UNL     1       0.050  -0.873   1.518  0.00  0.00    +0.000 A 
ATOM      5  C   UNL     1       1.394   0.294  -0.629  0.00  0.00    +0.000 A 
ATOM      6  C   UNL     1       1.130  -0.023   1.751  0.00  0.00    +0.000 A 
ATOM      7  C   UNL     1       1.803   0.561   0.678  0.00  0.00    +0.000 A 
BRANCH   7  10
ATOM      8  O   UNL     1       3.023   2.072   1.992  0.00  0.00    +0.000 OA
ATOM      9  N   UNL     1       3.896   1.537  -0.089  0.00  0.00    +0.000 N 
ATOM     10  C   ACE A   0       2.930   1.447   0.920  0.00  0.00    +0.000 C 
ATOM     11  H   UNL     1       3.820   0.948  -0.911  0.00  0.00    +0.000 HD
BRANCH   9  12
ATOM     12  CA  UNL     1       5.083   2.355   0.012  0.00  0.00    +0.000 C 
BRANCH  12  14
ATOM     13  OXT UNL     1       4.806   2.573  -2.398  0.00  0.00    +0.000 OA
ATOM     14  C   UNL     1       5.385   2.898  -1.369  0.00  0.00    +0.000 C 
BRANCH  14  15
ATOM     15  O   UNL     1       6.367   3.837  -1.342  0.00  0.00    +0.000 OA
ATOM     16  H   UNL     1       6.551   4.199  -2.234  0.00  0.00    +0.000 HD
ENDBRANCH  14  15
ENDBRANCH  12  14
BRANCH  12  17
ATOM     17  CB  UNL     1       6.261   1.613   0.657  0.00  0.00    +0.000 C 
BRANCH  17  18
ATOM     18  CG  UNL     1       6.772   0.382  -0.103  0.00  0.00    +0.000 C 
BRANCH  18  20
ATOM     19  OE2 UNL     1       8.431   0.013   1.642  0.00  0.00    +0.000 OA
ATOM     20  CD  UNL     1       7.925  -0.321   0.580  0.00  0.00    +0.000 C 
BRANCH  20  21
ATOM     21  OE1 UNL     1       8.377  -1.371  -0.155  0.00  0.00    +0.000 OA
ATOM     22  HE1 UNL     1       9.136  -1.819   0.276  0.00  0.00    +0.000 HD
ENDBRANCH  20  21
ENDBRANCH  18  20
ENDBRANCH  17  18
ENDBRANCH  12  17
ENDBRANCH   9  12
ENDBRANCH   7  10
ENDBRANCH   1   2
BRANCH   1  23
ATOM     23  C   UNL     1      -2.730  -1.318  -0.701  0.00  0.00    +0.000 C 
BRANCH  23  24
ATOM     24  C   UNL     1      -3.260  -0.160   0.157  0.00  0.00    +0.000 C 
BRANCH  24  25
ATOM     25  C   UNL     1      -4.413   0.562  -0.540  0.00  0.00    +0.000 C 
BRANCH  25  29
ATOM     26  O   UNL     1      -5.406   0.485   2.371  0.00  0.00    +0.000 OA
ATOM     27  N   UNL     1      -6.994   2.282  -0.969  0.00  0.00    +0.000 NA
ATOM     28  N   UNL     1      -7.226   1.043   1.091  0.00  0.00    +0.000 N 
ATOM     29  C   UNL     1      -4.978   1.692   0.332  0.00  0.00    +0.000 C 
ATOM     30  C   UNL     1      -5.724   2.790  -0.450  0.00  0.00    +0.000 C 
ATOM     31  C   UNL     1      -5.877   1.050   1.383  0.00  0.00    +0.000 C 
ATOM     32  C   UNL     1      -7.871   1.934   0.142  0.00  0.00    +0.000 C 
ATOM     33  H   UNL     1      -7.442   3.002  -1.534  0.00  0.00    +0.000 HD
ATOM     34  H   UNL     1      -7.833   0.557   1.744  0.00  0.00    +0.000 HD
BRANCH  30  35
ATOM     35  N   UNL     1      -4.917   3.315  -1.549  0.00  0.00    +0.000 NA
ATOM     36  H   UNL     1      -4.046   3.696  -1.183  0.00  0.00    +0.000 HD
ATOM     37  H   UNL     1      -5.410   4.091  -1.988  0.00  0.00    +0.000 HD
ENDBRANCH  30  35
BRANCH  32  38
ATOM     38  N   UNL     1      -9.075   1.279  -0.345  0.00  0.00    +0.000 NA
ATOM     39  H   UNL     1      -9.578   1.916  -0.961  0.00  0.00    +0.000 HD
ATOM     40  H   UNL     1      -9.697   1.088   0.439  0.00  0.00    +0.000 HD
ENDBRANCH  32  38
ENDBRANCH  25  29
ENDBRANCH  24  25
ENDBRANCH  23  24
ENDBRANCH   1  23
BRANCH   1  41
ATOM     41  C   UNL     1      -1.161  -3.359  -0.837  0.00  0.00    +0.000 C 
BRANCH  41  45
ATOM     42  F   UNL     1       0.204  -5.322  -0.875  0.00  0.00    +0.000 F 
ATOM     43  F   UNL     1       1.057  -3.515   0.005  0.00  0.00    +0.000 F 
ATOM     44  F   UNL     1      -0.501  -4.620   1.058  0.00  0.00    +0.000 F 
ATOM     45  C   UNL     1      -0.088  -4.212  -0.165  0.00  0.00    +0.000 C 
ENDBRANCH  41  45
BRANCH  41  46
ATOM     46  O   UNL     1      -0.737  -3.002  -2.151  0.00  0.00    +0.000 OA
ATOM     47  H   UNL     1      -1.400  -2.417  -2.549  0.00  0.00    +0.000 HD
ENDBRANCH  41  46
BRANCH  41  48
ATOM     48  O   UNL     1      -2.353  -4.152  -0.931  0.00  0.00    +0.000 OA
ATOM     49  H   UNL     1      -2.940  -3.733  -1.581  0.00  0.00    +0.000 HD
ENDBRANCH  41  48
ENDBRANCH   1  41
TORSDOF 19
