REMARK  Name = 446307
REMARK  14 active torsions:
REMARK  status: ('A' for Active; 'I' for Inactive)
REMARK    1  A    between atoms: O_1  and  C_16
REMARK    2  A    between atoms: O_5  and  C_21
REMARK    3  A    between atoms: N_7  and  C_13
REMARK    4  A    between atoms: N_8  and  CA_17
REMARK    5  A    between atoms: N_9  and  CA_20
REMARK    6  A    between atoms: C_10  and  C_11
REMARK    7  A    between atoms: C_10  and  C_12
REMARK    8  A    between atoms: C_11  and  C_13
REMARK    9  A    between atoms: C_12  and  C_14
REMARK   10  A    between atoms: C_13  and  C_16
REMARK   11  A    between atoms: C_14  and  C_15
REMARK   12  A    between atoms: CA_17  and  CB_19
REMARK   13  A    between atoms: CA_17  and  C_21
REMARK   14  A    between atoms: C_18  and  CA_20
REMARK                            x       y       z     vdW  Elec       q    Type
REMARK                         _______ _______ _______ _____ _____    ______ ____
ROOT
ATOM      1  C   UNK A   2      -1.964  -1.337   0.023  0.00  0.00    +0.000 C 
ENDROOT
BRANCH   1   2
ATOM      2  C   UNK A   2      -0.767  -0.422  -0.264  0.00  0.00    +0.000 C 
BRANCH   2   3
ATOM      3  C   UNK A   0       0.579  -1.047   0.107  0.00  0.00    +0.000 C 
BRANCH   3   4
ATOM      4  C   UNK A   0       1.726  -0.064  -0.118  0.00  0.00    +0.000 C 
BRANCH   4   7
ATOM      5  O   UNK A   0       3.211  -1.774   0.737  0.00  0.00    +0.000 OA
ATOM      6  N   GLY A   1       4.101   0.266   0.070  0.00  0.00    +0.000 N 
ATOM      7  C   UNK A   0       3.073  -0.642   0.282  0.00  0.00    +0.000 C 
ATOM      8  H   GLY A   1       3.878   1.187  -0.296  0.00  0.00    +0.000 HD
BRANCH   6   9
ATOM      9  CA  GLY A   1       5.482  -0.031   0.370  0.00  0.00    +0.000 C 
ATOM     10  CB  GLY A   1       5.808   0.362   1.803  0.00  0.00    +0.000 C 
BRANCH   9  12
ATOM     11  OXT GLY A   1       7.647   0.495  -0.568  0.00  0.00    +0.000 OA
ATOM     12  C   GLY A   1       6.432   0.657  -0.596  0.00  0.00    +0.000 C 
BRANCH  12  13
ATOM     13  O   GLY A   1       5.832   1.479  -1.490  0.00  0.00    +0.000 OA
ATOM     14  H   GLY A   1       6.481   1.906  -2.089  0.00  0.00    +0.000 HD
ENDBRANCH  12  13
ENDBRANCH   9  12
ENDBRANCH   6   9
ENDBRANCH   4   7
ENDBRANCH   3   4
ENDBRANCH   2   3
ENDBRANCH   1   2
BRANCH   1  15
ATOM     15  C   UNK A   2      -3.322  -0.765  -0.387  0.00  0.00    +0.000 C 
BRANCH  15  17
ATOM     16  O   GLY A   1      -5.041   1.392  -1.261  0.00  0.00    +0.000 OA
ATOM     17  N   UNK A   2      -3.649   0.437   0.336  0.00  0.00    +0.000 N 
ATOM     18  C   GLY A   1      -4.489   1.426  -0.164  0.00  0.00    +0.000 C 
ATOM     19  H   UNK A   2      -3.282   0.536   1.278  0.00  0.00    +0.000 HD
BRANCH  18  20
ATOM     20  CA  GLY A   1      -4.630   2.590   0.796  0.00  0.00    +0.000 C 
BRANCH  20  21
ATOM     21  N   GLY A   1      -5.935   3.204   0.598  0.00  0.00    +0.000 NA
ATOM     22  H1  GLY A   1      -6.667   2.543   0.857  0.00  0.00    +0.000 HD
ATOM     23  H2  GLY A   1      -6.034   3.996   1.231  0.00  0.00    +0.000 HD
ENDBRANCH  20  21
ENDBRANCH  18  20
ENDBRANCH  15  17
BRANCH  15  25
ATOM     24  O   UNK A   2      -5.003  -1.883   0.978  0.00  0.00    +0.000 OA
ATOM     25  C   UNK A   2      -4.422  -1.767  -0.093  0.00  0.00    +0.000 C 
BRANCH  25  26
ATOM     26  O   UNK A   2      -4.668  -2.577  -1.157  0.00  0.00    +0.000 OA
ATOM     27  H   UNK A   2      -5.364  -3.239  -0.958  0.00  0.00    +0.000 HD
ENDBRANCH  25  26
ENDBRANCH  15  25
ENDBRANCH   1  15
TORSDOF 13
