REMARK  Name = 70914
REMARK  8 active torsions:
REMARK  status: ('A' for Active; 'I' for Inactive)
REMARK    1  A    between atoms: O_1  and  C_10
REMARK    2  A    between atoms: OE1_3  and  CD_12
REMARK    3  A    between atoms: N_6  and  CA_7
REMARK    4  A    between atoms: CA_7  and  CB_8
REMARK    5  A    between atoms: CA_7  and  C_10
REMARK    6  A    between atoms: CB_8  and  CG_9
REMARK    7  A    between atoms: CG_9  and  CD_12
REMARK    8  A    between atoms: C_11  and  C_13
REMARK                            x       y       z     vdW  Elec       q    Type
REMARK                         _______ _______ _______ _____ _____    ______ ____
ROOT
ATOM      1  CA  GLU A   1      -0.749   0.574   0.514  0.00  0.00    +0.000 C 
ENDROOT
BRANCH   1   3
ATOM      2  O   UNK A   0      -2.478  -1.649   1.217  0.00  0.00    +0.000 OA
ATOM      3  N   GLU A   1      -1.515  -0.256  -0.381  0.00  0.00    +0.000 N 
ATOM      4  C   UNK A   0      -2.318  -1.301   0.050  0.00  0.00    +0.000 C 
ATOM      5  C   UNK A   0      -3.026  -1.986  -1.088  0.00  0.00    +0.000 C 
ATOM      6  H   GLU A   1      -1.448  -0.072  -1.378  0.00  0.00    +0.000 HD
ENDBRANCH   1   3
BRANCH   1   8
ATOM      7  OXT GLU A   1      -1.182   2.296  -1.152  0.00  0.00    +0.000 OA
ATOM      8  C   GLU A   1      -0.740   1.978  -0.056  0.00  0.00    +0.000 C 
BRANCH   8   9
ATOM      9  O   GLU A   1      -0.211   2.876   0.816  0.00  0.00    +0.000 OA
ATOM     10  H   GLU A   1      -0.221   3.787   0.452  0.00  0.00    +0.000 HD
ENDBRANCH   8   9
ENDBRANCH   1   8
BRANCH   1  11
ATOM     11  CB  GLU A   1       0.650   0.011   0.792  0.00  0.00    +0.000 C 
BRANCH  11  12
ATOM     12  CG  GLU A   1       1.577  -0.107  -0.424  0.00  0.00    +0.000 C 
BRANCH  12  14
ATOM     13  OE2 GLU A   1       3.313  -1.039   1.008  0.00  0.00    +0.000 OA
ATOM     14  CD  GLU A   1       2.940  -0.680  -0.100  0.00  0.00    +0.000 C 
BRANCH  14  15
ATOM     15  OE1 GLU A   1       3.741  -0.716  -1.196  0.00  0.00    +0.000 OA
ATOM     16  HE1 GLU A   1       4.632  -1.069  -0.987  0.00  0.00    +0.000 HD
ENDBRANCH  14  15
ENDBRANCH  12  14
ENDBRANCH  11  12
ENDBRANCH   1  11
TORSDOF 7
