REMARK  Name = 
REMARK  26 active torsions:
REMARK  status: ('A' for Active; 'I' for Inactive)
REMARK    1  A    between atoms: C_1  and  O_2
REMARK    2  A    between atoms: O_2  and  C_3
REMARK    3  A    between atoms: C_3  and  C_5
REMARK    4  A    between atoms: C_5  and  N_6
REMARK    5  A    between atoms: C_5  and  C_39
REMARK    6  A    between atoms: C_7  and  C_9
REMARK    7  A    between atoms: C_9  and  N_10
REMARK    8  A    between atoms: C_9  and  C_36
REMARK    9  A    between atoms: C_11  and  C_13
REMARK   10  A    between atoms: C_13  and  C_14
REMARK   11  A    between atoms: C_14  and  C_15
REMARK   12  A    between atoms: C_15  and  O_16
REMARK   13  A    between atoms: C_15  and  C_17
REMARK   14  A    between atoms: C_17  and  C_18
REMARK   15  A    between atoms: C_17  and  N_25
REMARK   16  A    between atoms: C_18  and  C_19
REMARK   17  A    between atoms: C_26  and  C_28
REMARK   18  A    between atoms: C_28  and  C_29
REMARK   19  A    between atoms: C_28  and  N_30
REMARK   20  A    between atoms: C_31  and  C_33
REMARK   21  A    between atoms: C_33  and  C_34
REMARK   22  A    between atoms: C_33  and  N_35
REMARK   23  A    between atoms: C_36  and  C_37
REMARK   24  A    between atoms: C_36  and  C_38
REMARK   25  A    between atoms: C_39  and  C_40
REMARK   26  A    between atoms: C_39  and  C_41
REMARK                            x       y       z     vdW  Elec       q    Type
REMARK                         _______ _______ _______ _____ _____    ______ ____
ROOT
ATOM      1  C   UNL     1      -1.393  -2.776   0.454  0.00  0.00    +0.000 C 
ENDROOT
BRANCH   1   2
ATOM      2  O   UNL     1      -1.844  -4.114  -0.115  0.00  0.00    +0.000 OA
ATOM      3  H   UNL     1      -2.400  -3.962  -0.895  0.00  0.00    +0.000 HD
ENDBRANCH   1   2
BRANCH   1   4
ATOM      4  C   UNL     1      -0.918  -2.275  -1.042  0.00  0.00    +0.000 C 
BRANCH   4   5
ATOM      5  C   UNL     1       0.374  -3.088  -1.123  0.00  0.00    +0.000 C 
BRANCH   5   7
ATOM      6  N   UNL     1       2.788  -2.242  -0.643  0.00  0.00    +0.000 N 
ATOM      7  C   UNL     1       1.413  -2.231  -0.497  0.00  0.00    +0.000 C 
ATOM      8  O   UNL     1       1.086  -1.315   0.324  0.00  0.00    +0.000 OA
ATOM      9  H   UNL     1       3.300  -3.065  -0.467  0.00  0.00    +0.000 HD
BRANCH   6  10
ATOM     10  C   UNL     1       3.537  -0.914  -1.099  0.00  0.00    +0.000 C 
BRANCH  10  12
ATOM     11  N   UNL     1       5.687  -0.303   0.226  0.00  0.00    +0.000 N 
ATOM     12  C   UNL     1       4.350  -0.777   0.295  0.00  0.00    +0.000 C 
ATOM     13  O   UNL     1       3.728  -0.797   1.339  0.00  0.00    +0.000 OA
ATOM     14  H   UNL     1       6.398  -0.753  -0.285  0.00  0.00    +0.000 HD
BRANCH  11  15
ATOM     15  C   UNL     1       5.918   1.033   1.060  0.00  0.00    +0.000 C 
BRANCH  15  16
ATOM     16  C   UNL     1       7.362   0.535   1.708  0.00  0.00    +0.000 C 
ATOM     17  C   UNL     1       8.207   1.811   1.772  0.00  0.00    +0.000 C 
ATOM     18  C   UNL     1       6.903   0.466   3.171  0.00  0.00    +0.000 C 
ENDBRANCH  15  16
BRANCH  15  19
ATOM     19  C   UNL     1       6.647   1.835  -0.148  0.00  0.00    +0.000 C 
ATOM     20  O   UNL     1       7.130   1.208  -1.077  0.00  0.00    +0.000 OA
BRANCH  19  22
ATOM     21  C   UNL     1       6.829   3.955  -1.216  0.00  0.00    +0.000 C 
ATOM     22  O   UNL     1       6.150   3.134  -0.309  0.00  0.00    +0.000 OA
ENDBRANCH  19  22
ENDBRANCH  15  19
ENDBRANCH  11  15
ENDBRANCH  10  12
BRANCH  10  23
ATOM     23  C   UNL     1       2.323   0.126  -0.657  0.00  0.00    +0.000 C 
ATOM     24  C   UNL     1       2.864   1.212   0.157  0.00  0.00    +0.000 C 
ATOM     25  C   UNL     1       2.065   0.731  -2.039  0.00  0.00    +0.000 C 
ENDBRANCH  10  23
ENDBRANCH   6  10
ENDBRANCH   5   7
ENDBRANCH   4   5
ENDBRANCH   1   4
BRANCH   1  26
ATOM     26  C   UNL     1      -3.016  -2.171   0.414  0.00  0.00    +0.000 C 
BRANCH  26  27
ATOM     27  N   UNL     1      -2.628  -0.939   1.313  0.00  0.00    +0.000 N 
ATOM     28  C   UNL     1      -3.739  -0.028   1.295  0.00  0.00    +0.000 C 
ATOM     29  O   UNL     1      -3.675   0.613   0.203  0.00  0.00    +0.000 OA
ATOM     30  H   UNL     1      -1.781  -0.815   1.799  0.00  0.00    +0.000 HD
BRANCH  28  31
ATOM     31  C   UNL     1      -3.802   0.997   2.553  0.00  0.00    +0.000 C 
ATOM     32  C   UNL     1      -4.731  -0.046   3.441  0.00  0.00    +0.000 C 
BRANCH  31  33
ATOM     33  N   UNL     1      -5.093   1.726   1.980  0.00  0.00    +0.000 N 
ATOM     34  C   UNL     1      -4.757   3.127   2.031  0.00  0.00    +0.000 C 
ATOM     35  O   UNL     1      -4.915   3.556   3.175  0.00  0.00    +0.000 OA
ATOM     36  H   UNL     1      -5.930   1.315   1.662  0.00  0.00    +0.000 HD
BRANCH  34  37
ATOM     37  C   UNL     1      -5.402   3.961   0.799  0.00  0.00    +0.000 C 
ATOM     38  C   UNL     1      -3.907   4.294   0.162  0.00  0.00    +0.000 C 
BRANCH  37  39
ATOM     39  N   UNL     1      -5.432   5.347   1.574  0.00  0.00    +0.000 NA
ATOM     40  H   UNL     1      -4.537   5.495   2.041  0.00  0.00    +0.000 HD
ATOM     41  H   UNL     1      -6.179   5.332   2.269  0.00  0.00    +0.000 HD
ENDBRANCH  37  39
ENDBRANCH  34  37
ENDBRANCH  31  33
ENDBRANCH  28  31
ENDBRANCH  26  27
BRANCH  26  42
ATOM     42  C   UNL     1      -2.928  -1.323  -0.976  0.00  0.00    +0.000 C 
BRANCH  42  43
ATOM     43  C   UNL     1      -3.971  -1.961  -1.848  0.00  0.00    +0.000 A 
ATOM     44  C   UNL     1      -4.694  -1.126  -2.683  0.00  0.00    +0.000 A 
ATOM     45  C   UNL     1      -5.347  -1.539  -3.810  0.00  0.00    +0.000 A 
ATOM     46  C   UNL     1      -5.032  -2.771  -4.309  0.00  0.00    +0.000 A 
ATOM     47  C   UNL     1      -4.294  -3.666  -3.551  0.00  0.00    +0.000 A 
ATOM     48  C   UNL     1      -3.845  -3.268  -2.304  0.00  0.00    +0.000 A 
ENDBRANCH  42  43
ENDBRANCH  26  42
ENDBRANCH   1  26
TORSDOF 19
