REMARK  Name = 160556
REMARK  15 active torsions:
REMARK  status: ('A' for Active; 'I' for Inactive)
REMARK    1  A    between atoms: O_1  and  C_17
REMARK    2  A    between atoms: O_3  and  C_18
REMARK    3  A    between atoms: OE1_5  and  CD_19
REMARK    4  A    between atoms: N_7  and  CE_11
REMARK    5  A    between atoms: N_7  and  CA_12
REMARK    6  A    between atoms: N_8  and  CA_15
REMARK    7  A    between atoms: CD_9  and  CG_10
REMARK    8  A    between atoms: CD_9  and  CE_11
REMARK    9  A    between atoms: CG_10  and  CB_13
REMARK   10  A    between atoms: CA_12  and  CB_14
REMARK   11  A    between atoms: CA_12  and  C_17
REMARK   12  A    between atoms: CB_13  and  CA_15
REMARK   13  A    between atoms: CB_14  and  CG_16
REMARK   14  A    between atoms: CA_15  and  C_18
REMARK   15  A    between atoms: CG_16  and  CD_19
REMARK                            x       y       z     vdW  Elec       q    Type
REMARK                         _______ _______ _______ _____ _____    ______ ____
ROOT
ATOM      1  N   LYS A   1      -1.121   0.712   1.096  0.00  0.00    +0.000 NA
ATOM      2  H   LYS A   1      -1.088   0.178   1.965  0.00  0.00    +0.000 HD
ENDROOT
BRANCH   1   3
ATOM      3  CE  LYS A   1       0.049   0.373   0.295  0.00  0.00    +0.000 C 
BRANCH   3   4
ATOM      4  CD  LYS A   1       1.331   0.705   1.059  0.00  0.00    +0.000 C 
BRANCH   4   5
ATOM      5  CG  LYS A   1       2.571   0.363   0.229  0.00  0.00    +0.000 C 
BRANCH   5   6
ATOM      6  CB  LYS A   1       3.893   0.652   0.953  0.00  0.00    +0.000 C 
BRANCH   6   7
ATOM      7  CA  LYS A   1       5.152   0.385   0.118  0.00  0.00    +0.000 C 
BRANCH   7   8
ATOM      8  N   LYS A   1       5.171   1.203  -1.095  0.00  0.00    +0.000 NA
ATOM      9  H1  LYS A   1       5.096   2.188  -0.843  0.00  0.00    +0.000 HD
ATOM     10  H2  LYS A   1       6.070   1.098  -1.565  0.00  0.00    +0.000 HD
ENDBRANCH   7   8
BRANCH   7  12
ATOM     11  OXT LYS A   1       5.301  -1.423  -1.475  0.00  0.00    +0.000 OA
ATOM     12  C   LYS A   1       5.288  -1.064  -0.302  0.00  0.00    +0.000 C 
BRANCH  12  13
ATOM     13  O   LYS A   1       5.376  -1.936   0.732  0.00  0.00    +0.000 OA
ATOM     14  H   LYS A   1       5.454  -2.864   0.422  0.00  0.00    +0.000 HD
ENDBRANCH  12  13
ENDBRANCH   7  12
ENDBRANCH   6   7
ENDBRANCH   5   6
ENDBRANCH   4   5
ENDBRANCH   3   4
ENDBRANCH   1   3
BRANCH   1  15
ATOM     15  CA  LYS A   1      -2.349   0.409   0.375  0.00  0.00    +0.000 C 
BRANCH  15  17
ATOM     16  OXT LYS A   1      -2.341   2.715  -0.427  0.00  0.00    +0.000 OA
ATOM     17  C   LYS A   1      -2.607   1.535  -0.611  0.00  0.00    +0.000 C 
BRANCH  17  18
ATOM     18  O   LYS A   1      -3.183   1.084  -1.757  0.00  0.00    +0.000 OA
ATOM     19  H   LYS A   1      -3.351   1.812  -2.392  0.00  0.00    +0.000 HD
ENDBRANCH  17  18
ENDBRANCH  15  17
BRANCH  15  20
ATOM     20  CB  LYS A   1      -3.539   0.185   1.323  0.00  0.00    +0.000 C 
BRANCH  20  21
ATOM     21  CG  LYS A   1      -4.842  -0.288   0.672  0.00  0.00    +0.000 C 
BRANCH  21  23
ATOM     22  OE2 LYS A   1      -3.940  -2.470   0.164  0.00  0.00    +0.000 OA
ATOM     23  CD  LYS A   1      -4.698  -1.556  -0.132  0.00  0.00    +0.000 C 
BRANCH  23  24
ATOM     24  OE1 LYS A   1      -5.511  -1.584  -1.217  0.00  0.00    +0.000 OA
ATOM     25  HE1 LYS A   1      -5.412  -2.415  -1.728  0.00  0.00    +0.000 HD
ENDBRANCH  23  24
ENDBRANCH  21  23
ENDBRANCH  20  21
ENDBRANCH  15  20
ENDBRANCH   1  15
TORSDOF 15
