REMARK  Name = 159596
REMARK  16 active torsions:
REMARK  status: ('A' for Active; 'I' for Inactive)
REMARK    1  A    between atoms: O_3  and  N_7
REMARK    2  A    between atoms: N_5  and  C_9
REMARK    3  A    between atoms: N_6  and  C_20
REMARK    4  A    between atoms: N_6  and  C_21
REMARK    5  A    between atoms: N_7  and  C_17
REMARK    6  A    between atoms: C_8  and  C_9
REMARK    7  A    between atoms: C_8  and  C_11
REMARK    8  A    between atoms: C_8  and  C_12
REMARK    9  A    between atoms: C_8  and  C_13
REMARK   10  A    between atoms: C_9  and  C_16
REMARK   11  A    between atoms: C_10  and  C_14
REMARK   12  A    between atoms: C_10  and  C_15
REMARK   13  A    between atoms: C_10  and  C_17
REMARK   14  A    between atoms: C_14  and  C_18
REMARK   15  A    between atoms: C_18  and  C_19
REMARK   16  A    between atoms: C_19  and  C_22
REMARK                            x       y       z     vdW  Elec       q    Type
REMARK                         _______ _______ _______ _____ _____    ______ ____
ROOT
ATOM      1  O   UNL     1      -0.525  -0.575  -1.952  0.00  0.00    +0.000 OA
ATOM      2  N   UNL     1      -0.077   0.272   0.158  0.00  0.00    +0.000 N 
ATOM      3  C   UNL     1      -0.675  -0.601  -0.731  0.00  0.00    +0.000 C 
ATOM      4  H   UNL     1      -0.231   0.152   1.155  0.00  0.00    +0.000 HD
ENDROOT
BRANCH   2   5
ATOM      5  C   UNL     1       0.810   1.335  -0.267  0.00  0.00    +0.000 C 
BRANCH   5   8
ATOM      6  O   UNL     1       2.297   1.045   1.593  0.00  0.00    +0.000 OA
ATOM      7  N   UNL     1       3.203   0.583  -0.483  0.00  0.00    +0.000 N 
ATOM      8  C   UNL     1       2.164   0.980   0.365  0.00  0.00    +0.000 C 
ATOM      9  C   UNL     1       4.526   0.216   0.014  0.00  0.00    +0.000 C 
ATOM     10  C   UNL     1       3.048   0.505  -1.931  0.00  0.00    +0.000 C 
ENDBRANCH   5   8
BRANCH   5  11
ATOM     11  C   UNL     1       0.272   2.747   0.122  0.00  0.00    +0.000 C 
ATOM     12  C   UNL     1      -1.152   2.926  -0.450  0.00  0.00    +0.000 C 
ATOM     13  C   UNL     1       0.205   2.959   1.648  0.00  0.00    +0.000 C 
ATOM     14  C   UNL     1       1.157   3.858  -0.477  0.00  0.00    +0.000 C 
ENDBRANCH   5  11
ENDBRANCH   2   5
BRANCH   3  15
ATOM     15  C   UNL     1      -1.577  -1.647  -0.074  0.00  0.00    +0.000 C 
BRANCH  15  16
ATOM     16  C   UNL     1      -2.760  -1.006   0.678  0.00  0.00    +0.000 C 
BRANCH  16  17
ATOM     17  C   UNL     1      -3.624  -0.124  -0.231  0.00  0.00    +0.000 C 
BRANCH  17  18
ATOM     18  C   UNL     1      -4.739   0.560   0.561  0.00  0.00    +0.000 C 
ATOM     19  C   UNL     1      -5.619   1.413  -0.340  0.00  0.00    +0.000 C 
ENDBRANCH  17  18
ENDBRANCH  16  17
ENDBRANCH  15  16
BRANCH  15  20
ATOM     20  C   UNL     1      -0.744  -2.550   0.846  0.00  0.00    +0.000 C 
BRANCH  20  22
ATOM     21  O   UNL     1       2.110  -2.413   1.281  0.00  0.00    +0.000 OA
ATOM     22  N   UNL     1       0.285  -3.259   0.133  0.00  0.00    +0.000 N 
ATOM     23  C   UNL     1       1.613  -3.125   0.416  0.00  0.00    +0.000 C 
BRANCH  22  24
ATOM     24  O   UNL     1      -0.199  -4.100  -0.880  0.00  0.00    +0.000 OA
ATOM     25  H   UNL     1      -0.408  -4.896  -0.363  0.00  0.00    +0.000 HD
ENDBRANCH  22  24
ENDBRANCH  20  22
ENDBRANCH  15  20
ENDBRANCH   3  15
TORSDOF 10
