REMARK  Name = 
REMARK  20 active torsions:
REMARK  status: ('A' for Active; 'I' for Inactive)
REMARK    1  A    between atoms: C_1  and  C_2
REMARK    2  A    between atoms: C_2  and  C_3
REMARK    3  A    between atoms: C_3  and  C_4
REMARK    4  A    between atoms: C_4  and  C_5
REMARK    5  A    between atoms: C_5  and  C_6
REMARK    6  A    between atoms: C_8  and  O_9
REMARK    7  A    between atoms: C_11  and  S_12
REMARK    8  A    between atoms: S_12  and  C_13
REMARK    9  A    between atoms: C_13  and  C_14
REMARK   10  A    between atoms: C_14  and  N_15
REMARK   11  A    between atoms: C_14  and  C_25
REMARK   12  A    between atoms: C_16  and  C_18
REMARK   13  A    between atoms: C_18  and  C_19
REMARK   14  A    between atoms: C_19  and  C_20
REMARK   15  A    between atoms: C_20  and  N_21
REMARK   16  A    between atoms: C_20  and  C_22
REMARK   17  A    between atoms: C_22  and  O_24
REMARK   18  A    between atoms: N_27  and  CA_28
REMARK   19  A    between atoms: CA_28  and  C_29
REMARK   20  A    between atoms: C_29  and  OXT_31
REMARK                            x       y       z     vdW  Elec       q    Type
REMARK                         _______ _______ _______ _____ _____    ______ ____
ROOT
ATOM      1  C   UNK A   1      -0.619  -1.016  -0.801  0.00  0.00    +0.000 C 
ENDROOT
BRANCH   1   2
ATOM      2  N   UNK A   1      -1.677  -0.640   0.312  0.00  0.00    +0.000 N 
ATOM      3  C   UNK A   1      -2.111   0.724   0.287  0.00  0.00    +0.000 C 
ATOM      4  O   UNK A   1      -1.641   1.435  -0.648  0.00  0.00    +0.000 OA
ATOM      5  H   UNK A   1      -2.010  -1.292   0.970  0.00  0.00    +0.000 HD
BRANCH   3   6
ATOM      6  C   UNK A   1      -3.319   1.103   1.048  0.00  0.00    +0.000 C 
BRANCH   6   7
ATOM      7  C   UNK A   1      -4.078   2.254   0.459  0.00  0.00    +0.000 C 
BRANCH   7   8
ATOM      8  C   UNK A   1      -3.774   3.546   1.441  0.00  0.00    +0.000 C 
BRANCH   8   9
ATOM      9  N   UNK A   1      -5.241   4.107   1.264  0.00  0.00    +0.000 NA
ATOM     10  H   UNK A   1      -5.487   4.110   0.274  0.00  0.00    +0.000 HD
ATOM     11  H   UNK A   1      -5.287   5.059   1.628  0.00  0.00    +0.000 HD
ENDBRANCH   8   9
BRANCH   8  12
ATOM     12  C   UNK A   1      -3.205   4.498   0.266  0.00  0.00    +0.000 C 
ATOM     13  O   UNK A   1      -3.471   4.208  -0.902  0.00  0.00    +0.000 OA
BRANCH  12  14
ATOM     14  O   UNK A   1      -3.411   5.864   0.517  0.00  0.00    +0.000 OA
ATOM     15  H   UNK A   1      -3.244   6.214   1.370  0.00  0.00    +0.000 HD
ENDBRANCH  12  14
ENDBRANCH   8  12
ENDBRANCH   7   8
ENDBRANCH   6   7
ENDBRANCH   3   6
ENDBRANCH   1   2
BRANCH   1  16
ATOM     16  C   UNK A   1      -1.271  -2.446  -1.163  0.00  0.00    +0.000 C 
ATOM     17  O   UNK A   1      -0.358  -3.152  -1.696  0.00  0.00    +0.000 OA
ATOM     18  N   GLY A   2      -2.090  -3.082  -0.238  0.00  0.00    +0.000 N 
ATOM     19  H   GLY A   2      -2.285  -2.680   0.640  0.00  0.00    +0.000 HD
BRANCH  18  20
ATOM     20  CA  GLY A   2      -2.644  -4.366  -0.624  0.00  0.00    +0.000 C 
BRANCH  20  21
ATOM     21  C   GLY A   2      -2.397  -5.324   0.460  0.00  0.00    +0.000 C 
ATOM     22  O   GLY A   2      -3.412  -5.718   1.107  0.00  0.00    +0.000 OA
BRANCH  21  23
ATOM     23  OXT GLY A   2      -1.198  -6.016   0.456  0.00  0.00    +0.000 OA
ATOM     24  HXT GLY A   2      -0.470  -5.691  -0.036  0.00  0.00    +0.000 HD
ENDBRANCH  21  23
ENDBRANCH  20  21
ENDBRANCH  18  20
ENDBRANCH   1  16
BRANCH   1  25
ATOM     25  C   UNK A   1       0.406  -1.672   0.315  0.00  0.00    +0.000 C 
BRANCH  25  26
ATOM     26  S   UNK A   1       1.376  -0.169   0.668  0.00  0.00    +0.000 S 
BRANCH  26  31
ATOM     27  C   UNK A   1       3.041   1.157  -0.902  0.00  0.00    +0.000 C 
ATOM     28  O   UNK A   1       4.072   0.608  -1.875  0.00  0.00    +0.000 OA
ATOM     29  C   UNK A   1       2.845  -0.032  -2.553  0.00  0.00    +0.000 C 
ATOM     30  C   UNK A   1       2.736  -1.196  -1.367  0.00  0.00    +0.000 C 
ATOM     31  C   UNK A   1       3.078  -0.323  -0.114  0.00  0.00    +0.000 C 
BRANCH  29  32
ATOM     32  O   UNK A   1       3.730  -0.936  -3.428  0.00  0.00    +0.000 OA
ATOM     33  H   UNK A   1       4.422  -1.339  -2.881  0.00  0.00    +0.000 HD
ENDBRANCH  29  32
BRANCH  27  34
ATOM     34  C   UNK A   1       4.191   1.785   0.098  0.00  0.00    +0.000 C 
BRANCH  34  35
ATOM     35  C   UNK A   1       3.584   1.553   1.456  0.00  0.00    +0.000 C 
BRANCH  35  36
ATOM     36  C   UNK A   1       4.619   1.668   2.530  0.00  0.00    +0.000 C 
BRANCH  36  38
ATOM     37  C   UNK A   1       6.515   0.922   1.201  0.00  0.00    +0.000 C 
ATOM     38  C   UNK A   1       5.724   0.655   2.427  0.00  0.00    +0.000 C 
ENDBRANCH  36  38
ENDBRANCH  35  36
ENDBRANCH  34  35
ENDBRANCH  27  34
ENDBRANCH  26  31
ENDBRANCH  25  26
ENDBRANCH   1  25
TORSDOF 19
