REMARK  Name = 100094
REMARK  11 active torsions:
REMARK  status: ('A' for Active; 'I' for Inactive)
REMARK    1  A    between atoms: O_2  and  C_18
REMARK    2  A    between atoms: OE1_4  and  CD_24
REMARK    3  A    between atoms: N_6  and  CA_10
REMARK    4  A    between atoms: N_8  and  CA_13
REMARK    5  A    between atoms: CB_9  and  CA_10
REMARK    6  A    between atoms: CB_9  and  CG_11
REMARK    7  A    between atoms: CA_10  and  C_18
REMARK    8  A    between atoms: CA_13  and  CB_15
REMARK    9  A    between atoms: CA_13  and  C_17
REMARK   10  A    between atoms: CB_15  and  CG_20
REMARK   11  A    between atoms: CG_20  and  CD_24
REMARK                            x       y       z     vdW  Elec       q    Type
REMARK                         _______ _______ _______ _____ _____    ______ ____
ROOT
ATOM      1  CA  TRP A   2      -0.325  -1.962  -0.183  0.00  0.00    +0.000 C 
ENDROOT
BRANCH   1   3
ATOM      2  O   GLU A   1      -0.855  -0.038  -2.277  0.00  0.00    +0.000 OA
ATOM      3  N   TRP A   2      -0.726  -0.582  -0.023  0.00  0.00    +0.000 N 
ATOM      4  C   GLU A   1      -0.959   0.270  -1.092  0.00  0.00    +0.000 C 
ATOM      5  H   TRP A   2      -0.882  -0.250   0.924  0.00  0.00    +0.000 HD
BRANCH   4   6
ATOM      6  CA  GLU A   1      -1.337   1.678  -0.641  0.00  0.00    +0.000 C 
BRANCH   6   7
ATOM      7  N   GLU A   1      -0.272   2.564  -1.114  0.00  0.00    +0.000 NA
ATOM      8  H1  GLU A   1      -0.261   2.580  -2.134  0.00  0.00    +0.000 HD
ATOM      9  H2  GLU A   1      -0.472   3.521  -0.824  0.00  0.00    +0.000 HD
ENDBRANCH   6   7
BRANCH   6  10
ATOM     10  CB  GLU A   1      -2.679   2.138  -1.229  0.00  0.00    +0.000 C 
BRANCH  10  11
ATOM     11  CG  GLU A   1      -3.849   1.221  -0.874  0.00  0.00    +0.000 C 
BRANCH  11  13
ATOM     12  OE2 GLU A   1      -3.849   2.089   1.379  0.00  0.00    +0.000 OA
ATOM     13  CD  GLU A   1      -4.090   1.164   0.614  0.00  0.00    +0.000 C 
BRANCH  13  14
ATOM     14  OE1 GLU A   1      -4.579  -0.032   1.024  0.00  0.00    +0.000 OA
ATOM     15  HE1 GLU A   1      -4.717  -0.058   1.995  0.00  0.00    +0.000 HD
ENDBRANCH  13  14
ENDBRANCH  11  13
ENDBRANCH  10  11
ENDBRANCH   6  10
ENDBRANCH   4   6
ENDBRANCH   1   3
BRANCH   1  17
ATOM     16  OXT TRP A   2      -1.316  -4.125   0.255  0.00  0.00    +0.000 OA
ATOM     17  C   TRP A   2      -1.391  -2.905   0.356  0.00  0.00    +0.000 C 
BRANCH  17  18
ATOM     18  O   TRP A   2      -2.441  -2.294   0.955  0.00  0.00    +0.000 OA
ATOM     19  H   TRP A   2      -3.103  -2.939   1.283  0.00  0.00    +0.000 HD
ENDBRANCH  17  18
ENDBRANCH   1  17
BRANCH   1  20
ATOM     20  CB  TRP A   2       1.019  -2.239   0.504  0.00  0.00    +0.000 C 
BRANCH  20  22
ATOM     21  NE1 TRP A   2       3.833  -0.648  -1.195  0.00  0.00    +0.000 N 
ATOM     22  CG  TRP A   2       2.136  -1.371  -0.004  0.00  0.00    +0.000 A 
ATOM     23  CD2 TRP A   2       2.501  -0.114   0.514  0.00  0.00    +0.000 A 
ATOM     24  CE2 TRP A   2       3.580   0.327  -0.256  0.00  0.00    +0.000 A 
ATOM     25  CD1 TRP A   2       2.954  -1.687  -1.045  0.00  0.00    +0.000 A 
ATOM     26  CE3 TRP A   2       2.034   0.707   1.559  0.00  0.00    +0.000 A 
ATOM     27  CZ2 TRP A   2       4.217   1.553  -0.032  0.00  0.00    +0.000 A 
ATOM     28  CZ3 TRP A   2       2.661   1.936   1.795  0.00  0.00    +0.000 A 
ATOM     29  CH2 TRP A   2       3.736   2.350   1.010  0.00  0.00    +0.000 A 
ATOM     30  HE1 TRP A   2       4.562  -0.602  -1.893  0.00  0.00    +0.000 HD
ENDBRANCH  20  22
ENDBRANCH   1  20
TORSDOF 11
