REMARK  Name = 46937062
REMARK  18 active torsions:
REMARK  status: ('A' for Active; 'I' for Inactive)
REMARK    1  A    between atoms: O_3  and  C_20
REMARK    2  A    between atoms: O_3  and  C_26
REMARK    3  A    between atoms: O_6  and  C_24
REMARK    4  A    between atoms: N_8  and  CA_11
REMARK    5  A    between atoms: N_9  and  CA_17
REMARK    6  A    between atoms: C_10  and  C_14
REMARK    7  A    between atoms: CA_11  and  CB_12
REMARK    8  A    between atoms: CA_11  and  C_18
REMARK    9  A    between atoms: CB_12  and  CG1_15
REMARK   10  A    between atoms: CB_12  and  CG2_19
REMARK   11  A    between atoms: C_13  and  C_20
REMARK   12  A    between atoms: CG1_15  and  CD1_23
REMARK   13  A    between atoms: CB_16  and  CA_17
REMARK   14  A    between atoms: CB_16  and  CG1_21
REMARK   15  A    between atoms: CB_16  and  CG2_22
REMARK   16  A    between atoms: CA_17  and  C_24
REMARK   17  A    between atoms: CG1_21  and  CD1_25
REMARK   18  A    between atoms: C_26  and  C_27
REMARK                            x       y       z     vdW  Elec       q    Type
REMARK                         _______ _______ _______ _____ _____    ______ ____
ROOT
ATOM      1  CA  UNL     1       0.403  -0.713   0.952  0.00  0.00    +0.000 C 
ENDROOT
BRANCH   1   3
ATOM      2  O   UNL     1      -0.778   1.792   1.839  0.00  0.00    +0.000 OA
ATOM      3  N   UNL     1      -0.959  -0.275   0.781  0.00  0.00    +0.000 N 
ATOM      4  C   ACE A   0      -1.429   0.942   1.242  0.00  0.00    +0.000 C 
ATOM      5  H   UNL     1      -1.597  -0.866   0.256  0.00  0.00    +0.000 HD
BRANCH   4   7
ATOM      6  O   UNL     1      -3.115   2.464   0.342  0.00  0.00    +0.000 OA
ATOM      7  C   UNL     1      -2.872   1.190   0.953  0.00  0.00    +0.000 C 
ATOM      8  C   UNL     1      -3.343   1.303  -0.468  0.00  0.00    +0.000 C 
BRANCH   8  10
ATOM      9  O   UNL     1      -5.452   1.989  -1.246  0.00  0.00    +0.000 OA
ATOM     10  C   UNL     1      -4.758   1.091  -0.791  0.00  0.00    +0.000 C 
BRANCH  10  11
ATOM     11  O   UNL     1      -5.145  -0.185  -0.520  0.00  0.00    +0.000 OA
BRANCH  11  12
ATOM     12  C   UNL     1      -6.515  -0.484  -0.805  0.00  0.00    +0.000 C 
ATOM     13  C   UNL     1      -6.788  -1.931  -0.452  0.00  0.00    +0.000 C 
ENDBRANCH  11  12
ENDBRANCH  10  11
ENDBRANCH   8  10
ENDBRANCH   4   7
ENDBRANCH   1   3
BRANCH   1  16
ATOM     14  O   UNL     1       0.744   0.490  -1.127  0.00  0.00    +0.000 OA
ATOM     15  N   UNL     1       2.595  -0.358  -0.013  0.00  0.00    +0.000 N 
ATOM     16  C   UNL     1       1.238  -0.130  -0.188  0.00  0.00    +0.000 C 
ATOM     17  H   UNL     1       2.913  -0.844   0.820  0.00  0.00    +0.000 HD
BRANCH  15  18
ATOM     18  CA  UNL     1       3.604   0.118  -0.932  0.00  0.00    +0.000 C 
BRANCH  18  20
ATOM     19  OXT UNL     1       5.666  -0.736  -1.872  0.00  0.00    +0.000 OA
ATOM     20  C   UNL     1       4.750  -0.876  -1.068  0.00  0.00    +0.000 C 
BRANCH  20  21
ATOM     21  O   UNL     1       4.676  -1.941  -0.235  0.00  0.00    +0.000 OA
ATOM     22  H   UNL     1       5.430  -2.557  -0.359  0.00  0.00    +0.000 HD
ENDBRANCH  20  21
ENDBRANCH  18  20
BRANCH  18  23
ATOM     23  CB  UNL     1       4.120   1.534  -0.577  0.00  0.00    +0.000 C 
ATOM     24  CG2 UNL     1       3.122   2.636  -0.959  0.00  0.00    +0.000 C 
BRANCH  23  25
ATOM     25  CG1 UNL     1       4.501   1.601   0.918  0.00  0.00    +0.000 C 
ATOM     26  CD1 UNL     1       5.087   2.942   1.339  0.00  0.00    +0.000 C 
ENDBRANCH  23  25
ENDBRANCH  18  23
ENDBRANCH  15  18
ENDBRANCH   1  16
BRANCH   1  27
ATOM     27  CB  UNL     1       0.535  -2.252   1.056  0.00  0.00    +0.000 C 
ATOM     28  CG2 UNL     1      -0.251  -2.769   2.268  0.00  0.00    +0.000 C 
BRANCH  27  29
ATOM     29  CG1 UNL     1       0.108  -2.964  -0.247  0.00  0.00    +0.000 C 
ATOM     30  CD1 UNL     1       0.257  -4.479  -0.187  0.00  0.00    +0.000 C 
ENDBRANCH  27  29
ENDBRANCH   1  27
TORSDOF 13
