REMARK  Name = 46937074
REMARK  12 active torsions:
REMARK  status: ('A' for Active; 'I' for Inactive)
REMARK    1  A    between atoms: O_4  and  N_10
REMARK    2  A    between atoms: N_8  and  C_15
REMARK    3  A    between atoms: N_9  and  C_23
REMARK    4  A    between atoms: N_11  and  C_28
REMARK    5  A    between atoms: N_12  and  C_31
REMARK    6  A    between atoms: C_13  and  C_14
REMARK    7  A    between atoms: C_13  and  C_16
REMARK    8  A    between atoms: C_13  and  C_18
REMARK    9  A    between atoms: C_14  and  C_17
REMARK   10  A    between atoms: C_15  and  C_19
REMARK   11  A    between atoms: C_15  and  C_20
REMARK   12  A    between atoms: C_23  and  C_27
REMARK                            x       y       z     vdW  Elec       q    Type
REMARK                         _______ _______ _______ _____ _____    ______ ____
ROOT
ATOM      1  C   UNL     1       2.576   2.555  -0.004  0.00  0.00    +0.000 C 
ATOM      2  C   UNL     1       3.328   3.774  -0.515  0.00  0.00    +0.000 C 
ENDROOT
BRANCH   1   4
ATOM      3  O   UNL     1       3.499   0.681   1.996  0.00  0.00    +0.000 OA
ATOM      4  N   UNL     1       3.330   1.342  -0.225  0.00  0.00    +0.000 N 
ATOM      5  C   UNL     1       3.731   0.501   0.802  0.00  0.00    +0.000 C 
ATOM      6  H   UNL     1       3.537   1.091  -1.187  0.00  0.00    +0.000 HD
BRANCH   5   7
ATOM      7  C   UNL     1       4.505  -0.715   0.293  0.00  0.00    +0.000 C 
BRANCH   7  10
ATOM      8  O   UNL     1       6.169  -0.799   2.056  0.00  0.00    +0.000 OA
ATOM      9  N   UNL     1       6.879  -0.660  -0.136  0.00  0.00    +0.000 N 
ATOM     10  C   UNL     1       5.928  -0.742   0.852  0.00  0.00    +0.000 C 
ATOM     11  H   UNL     1       6.724  -0.730  -1.135  0.00  0.00    +0.000 HD
BRANCH   9  12
ATOM     12  O   UNL     1       8.210  -0.641   0.300  0.00  0.00    +0.000 OA
ATOM     13  H   UNL     1       8.374   0.317   0.312  0.00  0.00    +0.000 HD
ENDBRANCH   9  12
ENDBRANCH   7  10
BRANCH   7  14
ATOM     14  C   UNL     1       3.726  -1.991   0.665  0.00  0.00    +0.000 C 
BRANCH  14  15
ATOM     15  C   UNL     1       2.542  -2.243  -0.239  0.00  0.00    +0.000 A 
ATOM     16  C   UNL     1       1.293  -1.714   0.085  0.00  0.00    +0.000 A 
ATOM     17  C   UNL     1       2.698  -3.003  -1.398  0.00  0.00    +0.000 A 
ATOM     18  C   UNL     1       0.199  -1.946  -0.750  0.00  0.00    +0.000 A 
ATOM     19  C   UNL     1       1.605  -3.236  -2.232  0.00  0.00    +0.000 A 
ATOM     20  C   UNL     1       0.355  -2.707  -1.908  0.00  0.00    +0.000 A 
ENDBRANCH  14  15
ENDBRANCH   7  14
ENDBRANCH   5   7
ENDBRANCH   1   4
BRANCH   1  23
ATOM     21  O   UNL     1       1.092   1.793  -1.762  0.00  0.00    +0.000 OA
ATOM     22  N   UNL     1       0.219   3.083  -0.042  0.00  0.00    +0.000 N 
ATOM     23  C   UNL     1       1.233   2.409  -0.708  0.00  0.00    +0.000 C 
ATOM     24  H   UNL     1       0.424   3.567   0.827  0.00  0.00    +0.000 HD
BRANCH  22  25
ATOM     25  C   UNL     1      -1.138   3.131  -0.533  0.00  0.00    +0.000 C 
BRANCH  25  28
ATOM     26  O   UNL     1      -1.448   1.124   0.760  0.00  0.00    +0.000 OA
ATOM     27  N   UNL     1      -3.254   2.024  -0.444  0.00  0.00    +0.000 N 
ATOM     28  C   UNL     1      -1.942   1.967   0.018  0.00  0.00    +0.000 C 
ATOM     29  H   UNL     1      -3.501   2.796  -1.059  0.00  0.00    +0.000 HD
BRANCH  27  30
ATOM     30  C   UNL     1      -4.309   1.125  -0.158  0.00  0.00    +0.000 A 
ATOM     31  C   UNL     1      -5.572   1.335  -0.710  0.00  0.00    +0.000 A 
ATOM     32  C   UNL     1      -4.085   0.029   0.676  0.00  0.00    +0.000 A 
ATOM     33  C   UNL     1      -6.388  -0.647   0.406  0.00  0.00    +0.000 A 
ATOM     34  C   UNL     1      -6.612   0.449  -0.428  0.00  0.00    +0.000 A 
ATOM     35  C   UNL     1      -5.124  -0.857   0.958  0.00  0.00    +0.000 A 
BRANCH  33  38
ATOM     36  O   UNL     1      -8.576  -1.343   0.186  0.00  0.00    +0.000 OA
ATOM     37  O   UNL     1      -7.224  -2.529   1.445  0.00  0.00    +0.000 OA
ATOM     38  N   UNL     1      -7.447  -1.549   0.693  0.00  0.00    +0.000 N 
ENDBRANCH  33  38
ENDBRANCH  27  30
ENDBRANCH  25  28
ENDBRANCH  22  25
ENDBRANCH   1  23
TORSDOF 11
