REMARK  Name = 24860535
REMARK  11 active torsions:
REMARK  status: ('A' for Active; 'I' for Inactive)
REMARK    1  A    between atoms: O_2  and  C_13
REMARK    2  A    between atoms: O_3  and  C_14
REMARK    3  A    between atoms: N_5  and  CA_7
REMARK    4  A    between atoms: C_6  and  C_8
REMARK    5  A    between atoms: C_6  and  C_9
REMARK    6  A    between atoms: CA_7  and  C_10
REMARK    7  A    between atoms: CA_7  and  C_14
REMARK    8  A    between atoms: C_8  and  C_11
REMARK    9  A    between atoms: C_9  and  C_12
REMARK   10  A    between atoms: C_10  and  C_13
REMARK   11  A    between atoms: C_11  and  C_15
REMARK                            x       y       z     vdW  Elec       q    Type
REMARK                         _______ _______ _______ _____ _____    ______ ____
ROOT
ATOM      1  O   UNL     1      -0.479  -0.056   1.780  0.00  0.00    +0.000 OA
ATOM      2  N   UNL     1       0.759   0.333  -0.142  0.00  0.00    +0.000 N 
ATOM      3  C   UNL     1      -0.414   0.121   0.567  0.00  0.00    +0.000 C 
ATOM      4  H   UNL     1       0.718   0.459  -1.150  0.00  0.00    +0.000 HD
ENDROOT
BRANCH   2   5
ATOM      5  CA  UNL     1       2.050   0.365   0.503  0.00  0.00    +0.000 C 
BRANCH   5   7
ATOM      6  OXT UNL     1       4.107   1.625   0.302  0.00  0.00    +0.000 OA
ATOM      7  C   UNL     1       2.995   1.367  -0.145  0.00  0.00    +0.000 C 
BRANCH   7   8
ATOM      8  O   UNL     1       2.487   1.997  -1.231  0.00  0.00    +0.000 OA
ATOM      9  H   UNL     1       3.116   2.650  -1.604  0.00  0.00    +0.000 HD
ENDBRANCH   7   8
ENDBRANCH   5   7
BRANCH   5  10
ATOM     10  C   UNL     1       2.668  -1.032   0.595  0.00  0.00    +0.000 C 
BRANCH  10  11
ATOM     11  C   UNL     1       3.096  -1.619  -0.748  0.00  0.00    +0.000 C 
BRANCH  11  12
ATOM     12  O   UNL     1       3.629  -2.919  -0.526  0.00  0.00    +0.000 OA
ATOM     13  H   UNL     1       3.890  -3.272  -1.394  0.00  0.00    +0.000 HD
ENDBRANCH  11  12
ENDBRANCH  10  11
ENDBRANCH   5  10
ENDBRANCH   2   5
BRANCH   3  14
ATOM     14  C   UNL     1      -1.633   0.161  -0.339  0.00  0.00    +0.000 C 
BRANCH  14  15
ATOM     15  C   UNL     1      -2.953  -0.067   0.395  0.00  0.00    +0.000 C 
BRANCH  15  16
ATOM     16  C   UNL     1      -4.166   0.052  -0.533  0.00  0.00    +0.000 C 
BRANCH  16  17
ATOM     17  C   UNL     1      -5.469  -0.208   0.222  0.00  0.00    +0.000 C 
ATOM     18  C   UNL     1      -6.675  -0.119  -0.700  0.00  0.00    +0.000 C 
ENDBRANCH  16  17
ENDBRANCH  15  16
ENDBRANCH  14  15
ENDBRANCH   3  14
TORSDOF 10
