REMARK  Name = 
REMARK  19 active torsions:
REMARK  status: ('A' for Active; 'I' for Inactive)
REMARK    1  A    between atoms: C_1  and  C_2
REMARK    2  A    between atoms: C_2  and  C_3
REMARK    3  A    between atoms: C_3  and  C_4
REMARK    4  A    between atoms: C_4  and  CA_5
REMARK    5  A    between atoms: CA_5  and  C_6
REMARK    6  A    between atoms: CA_5  and  N_8
REMARK    7  A    between atoms: C_9  and  CA_11
REMARK    8  A    between atoms: CA_11  and  CB_12
REMARK    9  A    between atoms: CA_11  and  N_16
REMARK   10  A    between atoms: CB_12  and  CG_13
REMARK   11  A    between atoms: CG_13  and  CD1_14
REMARK   12  A    between atoms: CG_13  and  CD2_15
REMARK   13  A    between atoms: C_17  and  CA_19
REMARK   14  A    between atoms: CA_19  and  CB_20
REMARK   15  A    between atoms: CA_19  and  N_24
REMARK   16  A    between atoms: CB_20  and  CG_21
REMARK   17  A    between atoms: CG_21  and  CD1_22
REMARK   18  A    between atoms: CG_21  and  CD2_23
REMARK   19  A    between atoms: C_25  and  C_26
REMARK                            x       y       z     vdW  Elec       q    Type
REMARK                         _______ _______ _______ _____ _____    ______ ____
ROOT
ATOM      1  CA  LEU A   1       0.345  -0.254   1.114  0.00  0.00    +0.000 C 
ENDROOT
BRANCH   1   3
ATOM      2  N   LEU A   1       2.433  -0.484   0.073  0.00  0.00    +0.000 N 
ATOM      3  C   LEU A   1       1.055  -0.335  -0.345  0.00  0.00    +0.000 C 
ATOM      4  O   LEU A   1       1.053   0.795  -0.946  0.00  0.00    +0.000 OA
ATOM      5  H   LEU A   1       2.681  -0.721   0.996  0.00  0.00    +0.000 HD
BRANCH   2   6
ATOM      6  CA  LEU A   1       3.505  -0.242  -1.052  0.00  0.00    +0.000 C 
BRANCH   6   7
ATOM      7  C   LEU A   1       3.853  -1.814  -1.165  0.00  0.00    +0.000 C 
ATOM      8  O   LEU A   1       3.890  -2.468  -0.168  0.00  0.00    +0.000 OA
ENDBRANCH   6   7
BRANCH   6   9
ATOM      9  C   LEU A   1       4.701   0.013   0.048  0.00  0.00    +0.000 C 
BRANCH   9  10
ATOM     10  C   LEU A   1       4.759   1.484   0.298  0.00  0.00    +0.000 C 
BRANCH  10  12
ATOM     11  C   LEU A   1       6.782   2.655   0.061  0.00  0.00    +0.000 C 
ATOM     12  C   LEU A   1       5.850   2.204  -0.409  0.00  0.00    +0.000 C 
ENDBRANCH  10  12
ENDBRANCH   9  10
ENDBRANCH   6   9
ENDBRANCH   2   6
ENDBRANCH   1   3
BRANCH   1  13
ATOM     13  N   LEU A   1      -1.150  -0.447   0.677  0.00  0.00    +0.000 N 
ATOM     14  C   LEU A   1      -1.530   0.330  -0.391  0.00  0.00    +0.000 C 
ATOM     15  O   LEU A   1      -1.242  -0.409  -1.381  0.00  0.00    +0.000 OA
ATOM     16  H   LEU A   1      -1.762  -1.071   1.130  0.00  0.00    +0.000 HD
BRANCH  14  17
ATOM     17  CA  LEU A   1      -3.009   0.954  -0.510  0.00  0.00    +0.000 C 
BRANCH  17  18
ATOM     18  N   LEU A   1      -3.647  -0.035   0.541  0.00  0.00    +0.000 N 
ATOM     19  C   UNK A   0      -4.419  -1.051  -0.092  0.00  0.00    +0.000 C 
ATOM     20  C   UNK A   0      -5.666  -1.541   0.536  0.00  0.00    +0.000 C 
ATOM     21  O   UNK A   0      -3.892  -1.656  -1.070  0.00  0.00    +0.000 OA
ATOM     22  H   LEU A   1      -3.526   0.041   1.515  0.00  0.00    +0.000 HD
ENDBRANCH  17  18
BRANCH  17  23
ATOM     23  CB  LEU A   1      -2.730   2.096   0.642  0.00  0.00    +0.000 C 
BRANCH  23  24
ATOM     24  CG  LEU A   1      -3.573   3.260   0.220  0.00  0.00    +0.000 C 
ATOM     25  CD1 LEU A   1      -3.630   4.230   1.364  0.00  0.00    +0.000 C 
ATOM     26  CD2 LEU A   1      -2.925   4.003  -0.941  0.00  0.00    +0.000 C 
ENDBRANCH  23  24
ENDBRANCH  17  23
ENDBRANCH  14  17
ENDBRANCH   1  13
BRANCH   1  27
ATOM     27  CB  LEU A   1       0.566  -1.857   1.411  0.00  0.00    +0.000 C 
BRANCH  27  28
ATOM     28  CG  LEU A   1      -0.255  -2.674   0.542  0.00  0.00    +0.000 C 
ATOM     29  CD1 LEU A   1      -1.524  -3.220   1.102  0.00  0.00    +0.000 C 
ATOM     30  CD2 LEU A   1       0.400  -3.538  -0.465  0.00  0.00    +0.000 C 
ENDBRANCH  27  28
ENDBRANCH   1  27
TORSDOF 13
