REMARK  Name = 
REMARK  14 active torsions:
REMARK  status: ('A' for Active; 'I' for Inactive)
REMARK    1  A    between atoms: C_1  and  C_2
REMARK    2  A    between atoms: N_4  and  C_5
REMARK    3  A    between atoms: C_5  and  C_6
REMARK    4  A    between atoms: C_5  and  C_13
REMARK    5  A    between atoms: C_6  and  C_7
REMARK    6  A    between atoms: C_19  and  C_20
REMARK    7  A    between atoms: N_22  and  C_23
REMARK    8  A    between atoms: C_23  and  C_24
REMARK    9  A    between atoms: C_23  and  B_28
REMARK   10  A    between atoms: C_24  and  C_25
REMARK   11  A    between atoms: C_25  and  C_26
REMARK   12  A    between atoms: C_26  and  N_27
REMARK   13  A    between atoms: B_28  and  O_29
REMARK   14  A    between atoms: B_28  and  O_30
REMARK                            x       y       z     vdW  Elec       q    Type
REMARK                         _______ _______ _______ _____ _____    ______ ____
ROOT
ATOM      1  C   UNL     1       1.120  -0.025  -1.610  0.00  0.00    +0.000 C 
ATOM      2  O   UNL     1       1.091   0.229  -2.836  0.00  0.00    +0.000 OA
ATOM      3  N   UNL     1       0.298   0.498  -0.661  0.00  0.00    +0.000 N 
ATOM      4  C   UNL     1      -0.117   1.841  -0.436  0.00  0.00    +0.000 C 
ATOM      5  C   UNL     1       0.148   1.926   1.026  0.00  0.00    +0.000 C 
ATOM      6  C   UNL     1      -0.068   0.633   1.674  0.00  0.00    +0.000 C 
ATOM      7  C   UNL     1      -0.552  -0.348   0.401  0.00  0.00    +0.000 C 
ENDROOT
BRANCH   7   8
ATOM      8  C   UNL     1      -1.945   0.469   0.074  0.00  0.00    +0.000 C 
ATOM      9  O   UNL     1      -2.272   1.363   0.852  0.00  0.00    +0.000 OA
ATOM     10  N   UNL     1      -2.958  -0.473  -0.334  0.00  0.00    +0.000 N 
ATOM     11  H   UNL     1      -2.779  -1.358  -0.728  0.00  0.00    +0.000 HD
BRANCH  10  12
ATOM     12  C   UNL     1      -4.404   0.120  -0.057  0.00  0.00    +0.000 C 
BRANCH  12  13
ATOM     13  C   UNL     1      -5.167  -1.116  -0.845  0.00  0.00    +0.000 C 
BRANCH  13  14
ATOM     14  C   UNL     1      -6.556  -0.555  -1.019  0.00  0.00    +0.000 C 
BRANCH  14  15
ATOM     15  C   UNL     1      -6.901   0.507  -0.015  0.00  0.00    +0.000 C 
BRANCH  15  16
ATOM     16  N   UNL     1      -6.409   1.819  -0.384  0.00  0.00    +0.000 NA
ATOM     17  H   UNL     1      -5.391   1.797  -0.438  0.00  0.00    +0.000 HD
ATOM     18  H   UNL     1      -6.698   2.500   0.318  0.00  0.00    +0.000 HD
ENDBRANCH  15  16
ENDBRANCH  14  15
ENDBRANCH  13  14
ENDBRANCH  12  13
BRANCH  12  19
ATOM     19  B   UNL     1      -4.516  -0.670   1.477  0.00  0.00    +0.000 B 
BRANCH  19  20
ATOM     20  O   UNL     1      -4.222  -2.062   1.534  0.00  0.00    +0.000 OA
ATOM     21  H   UNL     1      -4.460  -2.478   0.691  0.00  0.00    +0.000 HD
ENDBRANCH  19  20
BRANCH  19  22
ATOM     22  O   UNL     1      -4.261   0.210   2.607  0.00  0.00    +0.000 OA
ATOM     23  H   UNL     1      -4.525   1.115   2.379  0.00  0.00    +0.000 HD
ENDBRANCH  19  22
ENDBRANCH  12  19
ENDBRANCH  10  12
ENDBRANCH   7   8
BRANCH   1  24
ATOM     24  C   UNL     1       2.487  -0.818  -1.172  0.00  0.00    +0.000 C 
BRANCH  24  28
ATOM     25  C   UNL     1       2.526  -3.865   0.833  0.00  0.00    +0.000 C 
ATOM     26  C   UNL     1       2.496  -2.546   0.635  0.00  0.00    +0.000 C 
ATOM     27  O   UNL     1       3.068  -1.768   1.455  0.00  0.00    +0.000 OA
ATOM     28  N   UNL     1       1.638  -1.843  -0.273  0.00  0.00    +0.000 N 
ATOM     29  H   UNL     1       0.664  -1.970  -0.336  0.00  0.00    +0.000 HD
ENDBRANCH  24  28
BRANCH  24  30
ATOM     30  C   UNL     1       2.776   0.194   0.130  0.00  0.00    +0.000 C 
BRANCH  30  31
ATOM     31  C   UNL     1       4.074   0.837  -0.186  0.00  0.00    +0.000 A 
ATOM     32  C   UNL     1       4.684   0.720  -1.409  0.00  0.00    +0.000 A 
ATOM     33  C   UNL     1       6.021   1.018  -1.594  0.00  0.00    +0.000 A 
ATOM     34  C   UNL     1       6.787   1.339  -0.492  0.00  0.00    +0.000 A 
ATOM     35  C   UNL     1       6.254   1.082   0.766  0.00  0.00    +0.000 A 
ATOM     36  C   UNL     1       4.881   1.286   0.849  0.00  0.00    +0.000 A 
ENDBRANCH  30  31
ENDBRANCH  24  30
ENDBRANCH   1  24
TORSDOF 13
