REMARK  Name = 
REMARK  19 active torsions:
REMARK  status: ('A' for Active; 'I' for Inactive)
REMARK    1  A    between atoms: CD1_1  and  CG_2
REMARK    2  A    between atoms: CG_2  and  CD2_3
REMARK    3  A    between atoms: CG_2  and  CB_4
REMARK    4  A    between atoms: CB_4  and  CA_5
REMARK    5  A    between atoms: CA_5  and  N_6
REMARK    6  A    between atoms: CA_5  and  C_25
REMARK    7  A    between atoms: C_7  and  C_9
REMARK    8  A    between atoms: C_9  and  C_10
REMARK    9  A    between atoms: C_10  and  C_11
REMARK   10  A    between atoms: C_11  and  C_12
REMARK   11  A    between atoms: C_12  and  C_13
REMARK   12  A    between atoms: C_13  and  C_14
REMARK   13  A    between atoms: C_14  and  C_15
REMARK   14  A    between atoms: C_15  and  C_16
REMARK   15  A    between atoms: C_16  and  C_17
REMARK   16  A    between atoms: C_17  and  C_18
REMARK   17  A    between atoms: C_18  and  C_19
REMARK   18  A    between atoms: C_19  and  N_20
REMARK   19  A    between atoms: C_25  and  OXT_27
REMARK                            x       y       z     vdW  Elec       q    Type
REMARK                         _______ _______ _______ _____ _____    ______ ____
ROOT
ATOM      1  C   UNK A   0      -1.081  -0.195   1.310  0.00  0.00    +0.000 C 
ENDROOT
BRANCH   1   2
ATOM      2  C   UNK A   0      -2.179  -0.732   0.432  0.00  0.00    +0.000 C 
BRANCH   2   4
ATOM      3  N   LEU A   1      -4.662  -0.133   0.583  0.00  0.00    +0.000 N 
ATOM      4  C   UNK A   0      -3.319   0.196   0.304  0.00  0.00    +0.000 C 
ATOM      5  O   UNK A   0      -3.083   1.349  -0.142  0.00  0.00    +0.000 OA
ATOM      6  H   LEU A   1      -4.929  -0.712   1.334  0.00  0.00    +0.000 HD
BRANCH   3   7
ATOM      7  CA  LEU A   1      -5.695   0.508  -0.416  0.00  0.00    +0.000 C 
BRANCH   7   8
ATOM      8  C   LEU A   1      -6.428   1.318   0.770  0.00  0.00    +0.000 C 
ATOM      9  O   LEU A   1      -5.703   2.284   1.159  0.00  0.00    +0.000 OA
BRANCH   8  10
ATOM     10  OXT LEU A   1      -7.724   1.668   0.380  0.00  0.00    +0.000 OA
ATOM     11  HXT LEU A   1      -8.317   1.007   0.081  0.00  0.00    +0.000 HD
ENDBRANCH   8  10
ENDBRANCH   7   8
BRANCH   7  12
ATOM     12  CB  LEU A   1      -6.723  -0.764  -0.263  0.00  0.00    +0.000 C 
BRANCH  12  14
ATOM     13  CD1 LEU A   1      -6.808  -2.467  -2.042  0.00  0.00    +0.000 C 
ATOM     14  CG  LEU A   1      -6.020  -1.866  -1.016  0.00  0.00    +0.000 C 
ATOM     15  CD2 LEU A   1      -5.399  -2.854  -0.066  0.00  0.00    +0.000 C 
ENDBRANCH  12  14
ENDBRANCH   7  12
ENDBRANCH   3   7
ENDBRANCH   2   4
ENDBRANCH   1   2
BRANCH   1  16
ATOM     16  C   UNK A   0      -0.570   1.148   0.864  0.00  0.00    +0.000 C 
BRANCH  16  17
ATOM     17  C   UNK A   0       0.110   1.101  -0.480  0.00  0.00    +0.000 C 
BRANCH  17  18
ATOM     18  C   UNK A   0       1.398   0.331  -0.312  0.00  0.00    +0.000 C 
BRANCH  18  19
ATOM     19  C   UNK A   0       2.103   0.342  -1.658  0.00  0.00    +0.000 C 
BRANCH  19  20
ATOM     20  C   UNK A   0       3.577   0.609  -1.468  0.00  0.00    +0.000 C 
BRANCH  20  21
ATOM     21  C   UNK A   0       3.824   1.907  -0.720  0.00  0.00    +0.000 C 
BRANCH  21  22
ATOM     22  C   UNK A   0       4.139   1.581   0.733  0.00  0.00    +0.000 C 
BRANCH  22  23
ATOM     23  C   UNK A   0       5.632   1.287   0.790  0.00  0.00    +0.000 C 
BRANCH  23  24
ATOM     24  C   UNK A   0       5.905  -0.147   1.154  0.00  0.00    +0.000 C 
BRANCH  24  25
ATOM     25  N   UNK A   0       6.921  -0.687   0.288  0.00  0.00    +0.000 N 
ATOM     26  C   UNK A   0       8.255  -0.617   0.516  0.00  0.00    +0.000 A 
ATOM     27  C   UNK A   0       8.877  -1.491  -0.368  0.00  0.00    +0.000 A 
ATOM     28  N   UNK A   0       7.884  -1.859  -1.214  0.00  0.00    +0.000 NA
ATOM     29  C   UNK A   0       6.770  -1.817  -0.444  0.00  0.00    +0.000 A 
ENDBRANCH  24  25
ENDBRANCH  23  24
ENDBRANCH  22  23
ENDBRANCH  21  22
ENDBRANCH  20  21
ENDBRANCH  19  20
ENDBRANCH  18  19
ENDBRANCH  17  18
ENDBRANCH  16  17
ENDBRANCH   1  16
TORSDOF 17
