REMARK  Name = 6420119
REMARK  6 active torsions:
REMARK  status: ('A' for Active; 'I' for Inactive)
REMARK    1  A    between atoms: O_2  and  C_16
REMARK    2  A    between atoms: N_4  and  C_6
REMARK    3  A    between atoms: N_5  and  C_13
REMARK    4  A    between atoms: C_13  and  C_14
REMARK    5  A    between atoms: C_14  and  C_15
REMARK    6  A    between atoms: C_15  and  C_16
REMARK                            x       y       z     vdW  Elec       q    Type
REMARK                         _______ _______ _______ _____ _____    ______ ____
ROOT
ATOM      1  O   UNL     1      -0.312   2.013   1.169  0.00  0.00    +0.000 OA
ATOM      2  N   UNL     1      -1.506   0.710  -0.337  0.00  0.00    +0.000 N 
ATOM      3  N   UNL     1       0.655   1.323  -0.825  0.00  0.00    +0.000 N 
ATOM      4  C   UNL     1      -0.382   1.405   0.101  0.00  0.00    +0.000 C 
ATOM      5  H   UNL     1      -1.431   0.181  -1.200  0.00  0.00    +0.000 HD
ATOM      6  H   UNL     1       0.508   0.791  -1.677  0.00  0.00    +0.000 HD
ENDROOT
BRANCH   2   7
ATOM      7  C   UNL     1      -2.732   0.626   0.426  0.00  0.00    +0.000 C 
ATOM      8  C   UNL     1      -3.951   0.549  -0.498  0.00  0.00    +0.000 C 
ATOM      9  C   UNL     1      -2.696  -0.557   1.399  0.00  0.00    +0.000 C 
ATOM     10  C   UNL     1      -4.062  -0.800  -1.209  0.00  0.00    +0.000 C 
ATOM     11  C   UNL     1      -2.808  -1.904   0.686  0.00  0.00    +0.000 C 
ATOM     12  C   UNL     1      -4.035  -1.961  -0.219  0.00  0.00    +0.000 C 
ENDBRANCH   2   7
BRANCH   3  13
ATOM     13  C   UNL     1       1.937   1.955  -0.622  0.00  0.00    +0.000 C 
BRANCH  13  14
ATOM     14  C   UNL     1       2.938   1.049   0.095  0.00  0.00    +0.000 C 
BRANCH  14  15
ATOM     15  C   UNL     1       3.277  -0.234  -0.667  0.00  0.00    +0.000 C 
BRANCH  15  17
ATOM     16  O   UNL     1       4.874  -0.810   1.081  0.00  0.00    +0.000 OA
ATOM     17  C   UNL     1       4.301  -1.096   0.039  0.00  0.00    +0.000 C 
BRANCH  17  18
ATOM     18  O   UNL     1       4.502  -2.268  -0.619  0.00  0.00    +0.000 OA
ATOM     19  H   UNL     1       5.157  -2.836  -0.161  0.00  0.00    +0.000 HD
ENDBRANCH  17  18
ENDBRANCH  15  17
ENDBRANCH  14  15
ENDBRANCH  13  14
ENDBRANCH   3  13
TORSDOF 6
