REMARK  Name = 444412
REMARK  12 active torsions:
REMARK  status: ('A' for Active; 'I' for Inactive)
REMARK    1  A    between atoms: O_3  and  C_32
REMARK    2  A    between atoms: OE1_5  and  CD_33
REMARK    3  A    between atoms: N_7  and  C_19
REMARK    4  A    between atoms: N_9  and  C_16
REMARK    5  A    between atoms: N_9  and  C_21
REMARK    6  A    between atoms: N_12  and  CA_25
REMARK    7  A    between atoms: C_14  and  C_16
REMARK    8  A    between atoms: CA_25  and  CB_27
REMARK    9  A    between atoms: CA_25  and  C_32
REMARK   10  A    between atoms: C_26  and  C_30
REMARK   11  A    between atoms: CB_27  and  CG_31
REMARK   12  A    between atoms: CG_31  and  CD_33
REMARK                            x       y       z     vdW  Elec       q    Type
REMARK                         _______ _______ _______ _____ _____    ______ ____
ROOT
ATOM      1  C   UNL     1       0.177  -1.263  -0.451  0.00  0.00    +0.000 A 
ATOM      2  C   UNL     1      -0.927  -1.735  -1.160  0.00  0.00    +0.000 A 
ATOM      3  C   UNL     1       0.001  -0.657   0.793  0.00  0.00    +0.000 A 
ATOM      4  C   UNL     1      -2.385  -0.996   0.620  0.00  0.00    +0.000 A 
ATOM      5  C   UNL     1      -2.208  -1.602  -0.624  0.00  0.00    +0.000 A 
ATOM      6  C   UNL     1      -1.280  -0.524   1.329  0.00  0.00    +0.000 A 
ENDROOT
BRANCH   4   9
ATOM      7  O   UNL     1      -3.885  -0.784   2.410  0.00  0.00    +0.000 OA
ATOM      8  N   UNL     1      -4.784  -0.789   0.272  0.00  0.00    +0.000 N 
ATOM      9  C   ACE A   0      -3.720  -0.857   1.179  0.00  0.00    +0.000 C 
ATOM     10  H   UNL     1      -4.595  -0.772  -0.725  0.00  0.00    +0.000 HD
BRANCH   8  11
ATOM     11  CA  UNL     1      -6.164  -0.627   0.670  0.00  0.00    +0.000 C 
BRANCH  11  13
ATOM     12  OXT UNL     1      -6.607  -1.962  -1.318  0.00  0.00    +0.000 OA
ATOM     13  C   UNL     1      -7.017  -1.417  -0.301  0.00  0.00    +0.000 C 
BRANCH  13  14
ATOM     14  O   UNL     1      -8.312  -1.491   0.104  0.00  0.00    +0.000 OA
ATOM     15  H   UNL     1      -8.860  -2.016  -0.517  0.00  0.00    +0.000 HD
ENDBRANCH  13  14
ENDBRANCH  11  13
BRANCH  11  16
ATOM     16  CB  UNL     1      -6.575   0.844   0.800  0.00  0.00    +0.000 C 
BRANCH  16  17
ATOM     17  CG  UNL     1      -6.504   1.674  -0.488  0.00  0.00    +0.000 C 
BRANCH  17  19
ATOM     18  OE2 UNL     1      -7.255   3.633   0.750  0.00  0.00    +0.000 OA
ATOM     19  CD  UNL     1      -6.907   3.121  -0.305  0.00  0.00    +0.000 C 
BRANCH  19  20
ATOM     20  OE1 UNL     1      -6.879   3.801  -1.481  0.00  0.00    +0.000 OA
ATOM     21  HE1 UNL     1      -7.157   4.735  -1.370  0.00  0.00    +0.000 HD
ENDBRANCH  19  20
ENDBRANCH  17  19
ENDBRANCH  16  17
ENDBRANCH  11  16
ENDBRANCH   8  11
ENDBRANCH   4   9
BRANCH   1  22
ATOM     22  N   UNL     1       1.453  -1.397  -0.984  0.00  0.00    +0.000 N 
ATOM     23  H   UNL     1       1.528  -1.831  -1.898  0.00  0.00    +0.000 HD
BRANCH  22  24
ATOM     24  C   UNL     1       2.649  -0.943  -0.328  0.00  0.00    +0.000 C 
BRANCH  24  31
ATOM     25  O   UNL     1       7.060  -1.083   1.732  0.00  0.00    +0.000 OA
ATOM     26  N   UNL     1       5.084  -1.325  -0.358  0.00  0.00    +0.000 N 
ATOM     27  N   UNL     1       4.628   0.997  -1.784  0.00  0.00    +0.000 N 
ATOM     28  N   UNL     1       6.267   2.141  -0.442  0.00  0.00    +0.000 N 
ATOM     29  N   UNL     1       7.524   1.088   1.240  0.00  0.00    +0.000 NA
ATOM     30  N   UNL     1       7.853   3.352   0.696  0.00  0.00    +0.000 N 
ATOM     31  C   UNL     1       3.866  -1.257  -1.202  0.00  0.00    +0.000 C 
ATOM     32  C   UNL     1       4.052  -0.218  -2.319  0.00  0.00    +0.000 C 
ATOM     33  C   UNL     1       5.799  -0.144  -0.079  0.00  0.00    +0.000 A 
ATOM     34  C   UNL     1       5.565   1.005  -0.765  0.00  0.00    +0.000 A 
ATOM     35  C   UNL     1       5.363  -2.630   0.231  0.00  0.00    +0.000 C 
ATOM     36  C   UNL     1       6.841  -0.099   1.032  0.00  0.00    +0.000 A 
ATOM     37  C   UNL     1       7.227   2.144   0.533  0.00  0.00    +0.000 A 
ATOM     38  H   UNL     1       4.504   1.867  -2.291  0.00  0.00    +0.000 HD
ATOM     39  H   UNL     1       6.059   2.975  -0.980  0.00  0.00    +0.000 HD
ATOM     40  H   UNL     1       8.584   3.475   1.388  0.00  0.00    +0.000 HD
ATOM     41  H   UNL     1       7.604   4.157   0.132  0.00  0.00    +0.000 HD
ENDBRANCH  24  31
ENDBRANCH  22  24
ENDBRANCH   1  22
TORSDOF 11
