REMARK  Name = 
REMARK  19 active torsions:
REMARK  status: ('A' for Active; 'I' for Inactive)
REMARK    1  A    between atoms: C_1  and  C_2
REMARK    2  A    between atoms: C_2  and  C_3
REMARK    3  A    between atoms: C_3  and  C_4
REMARK    4  A    between atoms: C_4  and  C_5
REMARK    5  A    between atoms: C_5  and  C_6
REMARK    6  A    between atoms: C_6  and  C_7
REMARK    7  A    between atoms: C_7  and  N_24
REMARK    8  A    between atoms: N_9  and  C_10
REMARK    9  A    between atoms: C_10  and  C_11
REMARK   10  A    between atoms: C_10  and  O_13
REMARK   11  A    between atoms: N_14  and  C_15
REMARK   12  A    between atoms: C_15  and  C_16
REMARK   13  A    between atoms: C_16  and  C_17
REMARK   14  A    between atoms: C_17  and  C_18
REMARK   15  A    between atoms: C_18  and  N_19
REMARK   16  A    between atoms: N_19  and  C_20
REMARK   17  A    between atoms: C_20  and  C_21
REMARK   18  A    between atoms: C_21  and  C_22
REMARK   19  A    between atoms: C_22  and  N_23
REMARK                            x       y       z     vdW  Elec       q    Type
REMARK                         _______ _______ _______ _____ _____    ______ ____
ROOT
ATOM      1  C   UNL     1       0.000   0.206   0.000  0.00  0.00    +0.000 C 
ENDROOT
BRANCH   1   4
ATOM      2  C   UNL     1       1.429   0.206   0.000  0.00  0.00    +0.000 C 
ATOM      3  O   UNL     1       1.429   1.031   0.000  0.00  0.00    +0.000 OA
ATOM      4  N   UNL     1       0.714  -0.206   0.000  0.00  0.00    +0.000 N 
ATOM      5  H   UNL     1       0.714  -1.191   0.000  0.00  0.00    +0.000 HD
BRANCH   2   6
ATOM      6  C   UNL     1       2.143  -0.206   0.000  0.00  0.00    +0.000 C 
BRANCH   6   7
ATOM      7  C   UNL     1       2.858   0.206   0.000  0.00  0.00    +0.000 C 
BRANCH   7   8
ATOM      8  C   UNL     1       3.572  -0.206   0.000  0.00  0.00    +0.000 C 
BRANCH   8   9
ATOM      9  C   UNL     1       4.287   0.206   0.000  0.00  0.00    +0.000 C 
BRANCH   9  10
ATOM     10  C   UNL     1       5.001  -0.206   0.000  0.00  0.00    +0.000 C 
BRANCH  10  11
ATOM     11  C   UNL     1       5.716   0.206   0.000  0.00  0.00    +0.000 C 
BRANCH  11  12
ATOM     12  N   UNL     1       6.431  -0.206   0.000  0.00  0.00    +0.000 N 
ATOM     13  C   UNL     1       7.145   0.206   0.000  0.00  0.00    +0.000 C 
ATOM     14  N   UNL     1       7.145   1.031   0.000  0.00  0.00    +0.000 NA
ATOM     15  N   UNL     1       7.860  -0.206   0.000  0.00  0.00    +0.000 N 
ATOM     16  H   UNL     1       6.431  -1.191   0.000  0.00  0.00    +0.000 HD
ATOM     17  H   UNL     1       7.998   1.523   0.000  0.00  0.00    +0.000 HD
ATOM     18  H   UNL     1       7.860  -1.191   0.000  0.00  0.00    +0.000 HD
ATOM     19  H   UNL     1       8.712   0.286   0.000  0.00  0.00    +0.000 HD
ENDBRANCH  11  12
ENDBRANCH  10  11
ENDBRANCH   9  10
ENDBRANCH   8   9
ENDBRANCH   7   8
ENDBRANCH   6   7
ENDBRANCH   2   6
ENDBRANCH   1   4
BRANCH   1  20
ATOM     20  C   UNL     1      -0.714  -0.206   0.000  0.00  0.00    +0.000 C 
ATOM     21  O   UNL     1      -0.714  -1.031   0.000  0.00  0.00    +0.000 OA
ATOM     22  N   UNL     1      -1.429   0.206   0.000  0.00  0.00    +0.000 N 
ATOM     23  H   UNL     1      -1.429   1.191   0.000  0.00  0.00    +0.000 HD
BRANCH  22  24
ATOM     24  C   UNL     1      -2.143  -0.206   0.000  0.00  0.00    +0.000 C 
BRANCH  24  25
ATOM     25  C   UNL     1      -2.858   0.206   0.000  0.00  0.00    +0.000 C 
BRANCH  25  26
ATOM     26  C   UNL     1      -3.572  -0.206   0.000  0.00  0.00    +0.000 C 
BRANCH  26  27
ATOM     27  C   UNL     1      -4.287   0.206   0.000  0.00  0.00    +0.000 C 
BRANCH  27  28
ATOM     28  N   UNL     1      -5.001  -0.206   0.000  0.00  0.00    +0.000 NA
ATOM     29  H   UNL     1      -5.001  -1.226   0.000  0.00  0.00    +0.000 HD
BRANCH  28  30
ATOM     30  C   UNL     1      -5.716   0.206   0.000  0.00  0.00    +0.000 C 
BRANCH  30  31
ATOM     31  C   UNL     1      -6.431  -0.206   0.000  0.00  0.00    +0.000 C 
BRANCH  31  32
ATOM     32  C   UNL     1      -7.145   0.206   0.000  0.00  0.00    +0.000 C 
BRANCH  32  33
ATOM     33  N   UNL     1      -7.860  -0.206   0.000  0.00  0.00    +0.000 NA
ATOM     34  H   UNL     1      -8.743   0.304   0.000  0.00  0.00    +0.000 HD
ATOM     35  H   UNL     1      -7.860  -1.226   0.000  0.00  0.00    +0.000 HD
ENDBRANCH  32  33
ENDBRANCH  31  32
ENDBRANCH  30  31
ENDBRANCH  28  30
ENDBRANCH  27  28
ENDBRANCH  26  27
ENDBRANCH  25  26
ENDBRANCH  24  25
ENDBRANCH  22  24
ENDBRANCH   1  20
BRANCH   1  36
ATOM     36  O   UNL     1       0.000   1.031   0.000  0.00  0.00    +0.000 OA
ATOM     37  H   UNL     1       0.840   1.516   0.000  0.00  0.00    +0.000 HD
ENDBRANCH   1  36
TORSDOF 19
