REMARK  Name = 148138
REMARK  11 active torsions:
REMARK  status: ('A' for Active; 'I' for Inactive)
REMARK    1  A    between atoms: O_3  and  C_31
REMARK    2  A    between atoms: OE1_5  and  CD_32
REMARK    3  A    between atoms: N_11  and  CA_27
REMARK    4  A    between atoms: C_12  and  C_14
REMARK    5  A    between atoms: C_14  and  C_17
REMARK    6  A    between atoms: C_17  and  C_19
REMARK    7  A    between atoms: C_24  and  C_29
REMARK    8  A    between atoms: CA_27  and  CB_28
REMARK    9  A    between atoms: CA_27  and  C_31
REMARK   10  A    between atoms: CB_28  and  CG_30
REMARK   11  A    between atoms: CG_30  and  CD_32
REMARK                            x       y       z     vdW  Elec       q    Type
REMARK                         _______ _______ _______ _____ _____    ______ ____
ROOT
ATOM      1  C   UNL     1      -0.057   1.657   0.685  0.00  0.00    +0.000 A 
ATOM      2  C   UNL     1       0.761   1.791  -0.437  0.00  0.00    +0.000 A 
ATOM      3  C   UNL     1       0.508   1.388   1.932  0.00  0.00    +0.000 A 
ATOM      4  C   UNL     1       2.708   1.385   0.934  0.00  0.00    +0.000 A 
ATOM      5  C   UNL     1       2.143   1.655  -0.312  0.00  0.00    +0.000 A 
ATOM      6  C   UNL     1       1.891   1.252   2.057  0.00  0.00    +0.000 A 
ENDROOT
BRANCH   4   9
ATOM      7  O   UNL     1       4.712   1.480   2.148  0.00  0.00    +0.000 OA
ATOM      8  N   UNL     1       4.851   0.810  -0.068  0.00  0.00    +0.000 N 
ATOM      9  C   ACE A   0       4.150   1.243   1.064  0.00  0.00    +0.000 C 
ATOM     10  H   UNL     1       4.340   0.551  -0.906  0.00  0.00    +0.000 HD
BRANCH   8  11
ATOM     11  CA  UNL     1       6.280   0.599  -0.090  0.00  0.00    +0.000 C 
BRANCH  11  13
ATOM     12  OXT UNL     1       6.070   1.295  -2.414  0.00  0.00    +0.000 OA
ATOM     13  C   UNL     1       6.781   0.995  -1.464  0.00  0.00    +0.000 C 
BRANCH  13  14
ATOM     14  O   UNL     1       8.138   1.020  -1.521  0.00  0.00    +0.000 OA
ATOM     15  H   UNL     1       8.461   1.293  -2.406  0.00  0.00    +0.000 HD
ENDBRANCH  13  14
ENDBRANCH  11  13
BRANCH  11  16
ATOM     16  CB  UNL     1       6.675  -0.823   0.326  0.00  0.00    +0.000 C 
BRANCH  16  17
ATOM     17  CG  UNL     1       6.160  -1.951  -0.577  0.00  0.00    +0.000 C 
BRANCH  17  19
ATOM     18  OE2 UNL     1       7.231  -3.585   0.878  0.00  0.00    +0.000 OA
ATOM     19  CD  UNL     1       6.565  -3.335  -0.117  0.00  0.00    +0.000 C 
BRANCH  19  20
ATOM     20  OE1 UNL     1       6.131  -4.295  -0.975  0.00  0.00    +0.000 OA
ATOM     21  HE1 UNL     1       6.408  -5.192  -0.690  0.00  0.00    +0.000 HD
ENDBRANCH  19  20
ENDBRANCH  17  19
ENDBRANCH  16  17
ENDBRANCH  11  16
ENDBRANCH   8  11
ENDBRANCH   4   9
BRANCH   1  22
ATOM     22  C   UNL     1      -1.551   1.806   0.552  0.00  0.00    +0.000 C 
BRANCH  22  23
ATOM     23  C   UNL     1      -2.222   0.467   0.252  0.00  0.00    +0.000 C 
BRANCH  23  29
ATOM     24  O   UNL     1      -6.368  -2.610   1.303  0.00  0.00    +0.000 OA
ATOM     25  N   UNL     1      -5.580   1.248  -1.320  0.00  0.00    +0.000 N 
ATOM     26  N   UNL     1      -7.777   0.289  -1.015  0.00  0.00    +0.000 N 
ATOM     27  N   UNL     1      -8.182  -1.625   0.302  0.00  0.00    +0.000 NA
ATOM     28  N   UNL     1      -9.924  -0.508  -0.815  0.00  0.00    +0.000 N 
ATOM     29  C   UNL     1      -3.736   0.621   0.141  0.00  0.00    +0.000 C 
ATOM     30  C   UNL     1      -4.448  -0.727   0.383  0.00  0.00    +0.000 C 
ATOM     31  C   UNL     1      -4.135   1.206  -1.220  0.00  0.00    +0.000 C 
ATOM     32  C   UNL     1      -5.914  -0.668   0.029  0.00  0.00    +0.000 A 
ATOM     33  C   UNL     1      -6.422   0.297  -0.771  0.00  0.00    +0.000 A 
ATOM     34  C   UNL     1      -6.832  -1.716   0.601  0.00  0.00    +0.000 A 
ATOM     35  C   UNL     1      -8.606  -0.661  -0.472  0.00  0.00    +0.000 A 
ATOM     36  H   UNL     1      -6.010   1.928  -1.938  0.00  0.00    +0.000 HD
ATOM     37  H   UNL     1      -8.137   1.022  -1.617  0.00  0.00    +0.000 HD
ATOM     38  H   UNL     1     -10.633  -1.149  -0.475  0.00  0.00    +0.000 HD
ATOM     39  H   UNL     1     -10.230   0.248  -1.418  0.00  0.00    +0.000 HD
ENDBRANCH  23  29
ENDBRANCH  22  23
ENDBRANCH   1  22
TORSDOF 11
