REMARK  Name = 
REMARK  18 active torsions:
REMARK  status: ('A' for Active; 'I' for Inactive)
REMARK    1  A    between atoms: C_1  and  O_2
REMARK    2  A    between atoms: O_2  and  C_3
REMARK    3  A    between atoms: C_3  and  C_4
REMARK    4  A    between atoms: C_4  and  O_5
REMARK    5  A    between atoms: O_5  and  C_6
REMARK    6  A    between atoms: C_6  and  C_7
REMARK    7  A    between atoms: C_7  and  C_8
REMARK    8  A    between atoms: C_8  and  C_9
REMARK    9  A    between atoms: C_9  and  C_10
REMARK   10  A    between atoms: C_10  and  C_11
REMARK   11  A    between atoms: N_13  and  C_14
REMARK   12  A    between atoms: C_14  and  C_15
REMARK   13  A    between atoms: C_15  and  C_16
REMARK   14  A    between atoms: C_16  and  C_17
REMARK   15  A    between atoms: C_17  and  C_18
REMARK   16  A    between atoms: C_18  and  C_19
REMARK   17  A    between atoms: C_18  and  N_22
REMARK   18  A    between atoms: C_19  and  O_21
REMARK                            x       y       z     vdW  Elec       q    Type
REMARK                         _______ _______ _______ _____ _____    ______ ____
ROOT
ATOM      1  C   UNK     1      16.330   6.128   0.000  0.00  0.00    +0.000 C 
ATOM      2  O   UNK     1      16.330   6.953   0.000  0.00  0.00    +0.000 OA
ATOM      3  N   UNK     1      17.045   5.716   0.000  0.00  0.00    +0.000 N 
ATOM      4  H   UNK     1      17.045   4.731   0.000  0.00  0.00    +0.000 HD
ENDROOT
BRANCH   1   5
ATOM      5  C   UNK     1      15.616   5.716   0.000  0.00  0.00    +0.000 C 
BRANCH   5   6
ATOM      6  C   UNK     1      14.901   6.128   0.000  0.00  0.00    +0.000 C 
BRANCH   6   7
ATOM      7  C   UNK     1      14.187   5.716   0.000  0.00  0.00    +0.000 C 
BRANCH   7   8
ATOM      8  C   UNK     1      13.472   6.128   0.000  0.00  0.00    +0.000 C 
BRANCH   8   9
ATOM      9  C   UNK     1      12.758   5.716   0.000  0.00  0.00    +0.000 C 
BRANCH   9  10
ATOM     10  O   UNK     1      12.043   6.128   0.000  0.00  0.00    +0.000 OA
BRANCH  10  11
ATOM     11  C   UNK     1      11.329   5.716   0.000  0.00  0.00    +0.000 C 
BRANCH  11  12
ATOM     12  C   UNK     1      10.614   6.128   0.000  0.00  0.00    +0.000 C 
BRANCH  12  14
ATOM     13  C   UNK     1       9.185   6.128   0.000  0.00  0.00    +0.000 C 
ATOM     14  O   UNK     1       9.900   5.716   0.000  0.00  0.00    +0.000 OA
ENDBRANCH  12  14
ENDBRANCH  11  12
ENDBRANCH  10  11
ENDBRANCH   9  10
ENDBRANCH   8   9
ENDBRANCH   7   8
ENDBRANCH   6   7
ENDBRANCH   5   6
ENDBRANCH   1   5
BRANCH   3  15
ATOM     15  C   UNK     1      17.759   6.128   0.000  0.00  0.00    +0.000 C 
BRANCH  15  16
ATOM     16  C   UNK     1      18.474   5.716   0.000  0.00  0.00    +0.000 C 
BRANCH  16  17
ATOM     17  C   UNK     1      19.188   6.128   0.000  0.00  0.00    +0.000 C 
BRANCH  17  18
ATOM     18  C   UNK     1      19.903   5.716   0.000  0.00  0.00    +0.000 C 
BRANCH  18  19
ATOM     19  C   UNK     1      20.617   6.128   0.000  0.00  0.00    +0.000 C 
BRANCH  19  20
ATOM     20  N   UNK     1      20.617   6.953   0.000  0.00  0.00    +0.000 NA
ATOM     21  H   UNK     1      21.500   7.463   0.000  0.00  0.00    +0.000 HD
ATOM     22  H   UNK     1      19.734   7.463   0.000  0.00  0.00    +0.000 HD
ENDBRANCH  19  20
BRANCH  19  23
ATOM     23  C   UNK     1      21.331   5.716   0.000  0.00  0.00    +0.000 C 
ATOM     24  O   UNK     1      22.046   6.128   0.000  0.00  0.00    +0.000 OA
BRANCH  23  25
ATOM     25  O   UNK     1      21.331   4.891   0.000  0.00  0.00    +0.000 OA
ATOM     26  H   UNK     1      20.520   4.422   0.000  0.00  0.00    +0.000 HD
ENDBRANCH  23  25
ENDBRANCH  19  23
ENDBRANCH  18  19
ENDBRANCH  17  18
ENDBRANCH  16  17
ENDBRANCH  15  16
ENDBRANCH   3  15
TORSDOF 17
