REMARK  Name = 
REMARK  52 active torsions:
REMARK  status: ('A' for Active; 'I' for Inactive)
REMARK    1  A    between atoms: C_1  and  C_2
REMARK    2  A    between atoms: C_2  and  C_3
REMARK    3  A    between atoms: C_2  and  N_34
REMARK    4  A    between atoms: N_5  and  C_6
REMARK    5  A    between atoms: C_6  and  C_7
REMARK    6  A    between atoms: C_6  and  C_11
REMARK    7  A    between atoms: C_7  and  C_8
REMARK    8  A    between atoms: C_8  and  C_9
REMARK    9  A    between atoms: C_8  and  C_10
REMARK   10  A    between atoms: N_13  and  CA_14
REMARK   11  A    between atoms: CA_14  and  CB_15
REMARK   12  A    between atoms: CA_14  and  C_19
REMARK   13  A    between atoms: CB_15  and  CG_16
REMARK   14  A    between atoms: N_21  and  CA_22
REMARK   15  A    between atoms: CA_22  and  CB_23
REMARK   16  A    between atoms: CA_22  and  C_25
REMARK   17  A    between atoms: CB_23  and  OG_24
REMARK   18  A    between atoms: N_27  and  CA_28
REMARK   19  A    between atoms: CA_28  and  CB_29
REMARK   20  A    between atoms: CA_28  and  C_31
REMARK   21  A    between atoms: CB_29  and  OG_30
REMARK   22  A    between atoms: C_31  and  OXT_33
REMARK   23  A    between atoms: C_35  and  C_37
REMARK   24  A    between atoms: C_37  and  C_38
REMARK   25  A    between atoms: C_37  and  N_45
REMARK   26  A    between atoms: C_38  and  C_39
REMARK   27  A    between atoms: C_39  and  C_40
REMARK   28  A    between atoms: C_40  and  N_41
REMARK   29  A    between atoms: C_46  and  C_48
REMARK   30  A    between atoms: C_48  and  C_49
REMARK   31  A    between atoms: C_48  and  N_54
REMARK   32  A    between atoms: C_49  and  C_50
REMARK   33  A    between atoms: C_50  and  C_51
REMARK   34  A    between atoms: C_51  and  O_53
REMARK   35  A    between atoms: C_55  and  C_57
REMARK   36  A    between atoms: C_57  and  C_58
REMARK   37  A    between atoms: C_57  and  N_62
REMARK   38  A    between atoms: C_58  and  C_59
REMARK   39  A    between atoms: C_59  and  C_60
REMARK   40  A    between atoms: C_59  and  C_61
REMARK   41  A    between atoms: C_63  and  C_65
REMARK   42  A    between atoms: C_65  and  C_66
REMARK   43  A    between atoms: C_65  and  N_71
REMARK   44  A    between atoms: C_66  and  C_67
REMARK   45  A    between atoms: C_67  and  C_68
REMARK   46  A    between atoms: C_72  and  C_74
REMARK   47  A    between atoms: C_74  and  C_75
REMARK   48  A    between atoms: C_74  and  N_80
REMARK   49  A    between atoms: C_75  and  C_76
REMARK   50  A    between atoms: C_76  and  C_77
REMARK   51  A    between atoms: C_77  and  O_79
REMARK   52  A    between atoms: C_81  and  C_83
REMARK                            x       y       z     vdW  Elec       q    Type
REMARK                         _______ _______ _______ _____ _____    ______ ____
ROOT
ATOM      1  C   UNK A   1       7.006 -20.214   0.000  0.00  0.00    +0.000 C 
ENDROOT
BRANCH   1   2
ATOM      2  N   UNK A   1       7.660 -19.711   0.000  0.00  0.00    +0.000 N 
ATOM      3  C   UNK A   1       8.422 -20.026   0.000  0.00  0.00    +0.000 C 
ATOM      4  O   UNK A   1       8.531 -20.843   0.000  0.00  0.00    +0.000 OA
ATOM      5  H   UNK A   1       7.530 -18.735   0.000  0.00  0.00    +0.000 HD
BRANCH   3   6
ATOM      6  C   UNK A   1       9.076 -19.522   0.000  0.00  0.00    +0.000 C 
BRANCH   6   7
ATOM      7  N   UNK A   1       9.839 -19.837   0.000  0.00  0.00    +0.000 N 
ATOM      8  C   UNK A   1      10.492 -19.334   0.000  0.00  0.00    +0.000 C 
ATOM      9  O   UNK A   1      10.383 -18.516   0.000  0.00  0.00    +0.000 OA
ATOM     10  H   UNK A   1       9.969 -20.813   0.000  0.00  0.00    +0.000 HD
BRANCH   8  11
ATOM     11  C   UNK A   1      11.255 -19.648   0.000  0.00  0.00    +0.000 C 
BRANCH  11  12
ATOM     12  N   UNK A   1      11.909 -19.145   0.000  0.00  0.00    +0.000 N 
ATOM     13  C   UNK A   1      12.672 -19.459   0.000  0.00  0.00    +0.000 C 
ATOM     14  O   UNK A   1      12.780 -20.277   0.000  0.00  0.00    +0.000 OA
ATOM     15  H   UNK A   1      11.779 -18.169   0.000  0.00  0.00    +0.000 HD
BRANCH  13  16
ATOM     16  C   UNK A   1      13.325 -18.956   0.000  0.00  0.00    +0.000 C 
BRANCH  16  17
ATOM     17  N   UNK A   1      14.088 -19.271   0.000  0.00  0.00    +0.000 N 
ATOM     18  C   UNK A   1      14.742 -18.767   0.000  0.00  0.00    +0.000 C 
ATOM     19  O   UNK A   1      14.633 -17.950   0.000  0.00  0.00    +0.000 OA
ATOM     20  H   UNK A   1      14.218 -20.246   0.000  0.00  0.00    +0.000 HD
BRANCH  18  21
ATOM     21  C   UNK A   1      15.504 -19.082   0.000  0.00  0.00    +0.000 C 
BRANCH  21  22
ATOM     22  N   UNK A   1      16.158 -18.579   0.000  0.00  0.00    +0.000 N 
ATOM     23  C   UNK A   1      16.921 -18.893   0.000  0.00  0.00    +0.000 C 
ATOM     24  O   UNK A   1      17.030 -19.711   0.000  0.00  0.00    +0.000 OA
ATOM     25  H   UNK A   1      16.028 -17.603   0.000  0.00  0.00    +0.000 HD
BRANCH  23  26
ATOM     26  C   UNK A   1      17.575 -18.390   0.000  0.00  0.00    +0.000 C 
ATOM     27  C   UNK A   1      17.552 -17.565   0.000  0.00  0.00    +0.000 C 
ATOM     28  C   UNK A   1      18.329 -17.289   0.000  0.00  0.00    +0.000 C 
ATOM     29  C   UNK A   1      18.832 -17.942   0.000  0.00  0.00    +0.000 C 
ATOM     30  O   UNK A   1      19.657 -17.919   0.000  0.00  0.00    +0.000 OA
ATOM     31  N   UNK A   1      18.366 -18.623   0.000  0.00  0.00    +0.000 N 
ATOM     32  H   UNK A   1      18.696 -19.551   0.000  0.00  0.00    +0.000 HD
ENDBRANCH  23  26
ENDBRANCH  21  22
BRANCH  21  33
ATOM     33  C   UNK A   1      15.613 -19.900   0.000  0.00  0.00    +0.000 C 
BRANCH  33  34
ATOM     34  C   UNK A   1      14.960 -20.403   0.000  0.00  0.00    +0.000 C 
BRANCH  34  35
ATOM     35  C   UNK A   1      15.069 -21.221   0.000  0.00  0.00    +0.000 C 
ATOM     36  O   UNK A   1      15.831 -21.535   0.000  0.00  0.00    +0.000 OA
BRANCH  35  37
ATOM     37  O   UNK A   1      14.415 -21.724   0.000  0.00  0.00    +0.000 OA
ATOM     38  H   UNK A   1      13.549 -21.367   0.000  0.00  0.00    +0.000 HD
ENDBRANCH  35  37
ENDBRANCH  34  35
ENDBRANCH  33  34
ENDBRANCH  21  33
ENDBRANCH  18  21
ENDBRANCH  16  17
BRANCH  16  39
ATOM     39  C   UNK A   1      13.216 -18.138   0.000  0.00  0.00    +0.000 C 
BRANCH  39  40
ATOM     40  C   UNK A   1      12.454 -17.824   0.000  0.00  0.00    +0.000 C 
BRANCH  40  41
ATOM     41  C   UNK A   1      12.345 -17.006   0.000  0.00  0.00    +0.000 C 
ATOM     42  O   UNK A   1      12.998 -16.503   0.000  0.00  0.00    +0.000 OA
ATOM     43  N   UNK A   1      11.582 -16.692   0.000  0.00  0.00    +0.000 N 
ATOM     44  H   UNK A   1      11.452 -15.716   0.000  0.00  0.00    +0.000 HD
ATOM     45  H   UNK A   1      10.802 -17.292   0.000  0.00  0.00    +0.000 HD
ENDBRANCH  40  41
ENDBRANCH  39  40
ENDBRANCH  16  39
ENDBRANCH  13  16
ENDBRANCH  11  12
BRANCH  11  46
ATOM     46  C   UNK A   1      11.364 -20.466   0.000  0.00  0.00    +0.000 C 
BRANCH  46  47
ATOM     47  C   UNK A   1      10.710 -20.969   0.000  0.00  0.00    +0.000 C 
ATOM     48  C   UNK A   1      10.819 -21.787   0.000  0.00  0.00    +0.000 C 
ATOM     49  C   UNK A   1       9.948 -20.654   0.000  0.00  0.00    +0.000 C 
ENDBRANCH  46  47
ENDBRANCH  11  46
ENDBRANCH   8  11
ENDBRANCH   6   7
BRANCH   6  50
ATOM     50  C   UNK A   1       8.967 -18.704   0.000  0.00  0.00    +0.000 C 
BRANCH  50  51
ATOM     51  C   UNK A   1       8.204 -18.390   0.000  0.00  0.00    +0.000 C 
BRANCH  51  52
ATOM     52  C   UNK A   1       8.095 -17.572   0.000  0.00  0.00    +0.000 C 
ATOM     53  O   UNK A   1       8.749 -17.069   0.000  0.00  0.00    +0.000 OA
BRANCH  52  54
ATOM     54  O   UNK A   1       7.333 -17.258   0.000  0.00  0.00    +0.000 OA
ATOM     55  H   UNK A   1       7.209 -16.329   0.000  0.00  0.00    +0.000 HD
ENDBRANCH  52  54
ENDBRANCH  51  52
ENDBRANCH  50  51
ENDBRANCH   6  50
ENDBRANCH   3   6
ENDBRANCH   1   2
BRANCH   1  57
ATOM     56  N   UNK A   1       5.590 -20.403   0.000  0.00  0.00    +0.000 N 
ATOM     57  C   UNK A   1       6.243 -19.900   0.000  0.00  0.00    +0.000 C 
ATOM     58  O   UNK A   1       6.134 -19.082   0.000  0.00  0.00    +0.000 OA
ATOM     59  H   UNK A   1       5.720 -21.379   0.000  0.00  0.00    +0.000 HD
BRANCH  56  61
ATOM     60  C   UNK A   1       4.718 -19.271   0.000  0.00  0.00    +0.000 C 
ATOM     61  C   UNK A   1       4.827 -20.088   0.000  0.00  0.00    +0.000 C 
BRANCH  61  62
ATOM     62  C   UNK A   1       4.173 -20.592   0.000  0.00  0.00    +0.000 C 
ATOM     63  O   UNK A   1       4.282 -21.409   0.000  0.00  0.00    +0.000 OA
ATOM     64  N   UNK A   1       3.410 -20.277   0.000  0.00  0.00    +0.000 N 
ATOM     65  H   UNK A   1       3.280 -19.301   0.000  0.00  0.00    +0.000 HD
BRANCH  64  66
ATOM     66  C   UNK A   1       2.757 -20.780   0.000  0.00  0.00    +0.000 C 
BRANCH  66  67
ATOM     67  C   UNK A   1       1.994 -20.466   0.000  0.00  0.00    +0.000 C 
ATOM     68  O   UNK A   1       1.885 -19.648   0.000  0.00  0.00    +0.000 OA
ATOM     69  N   ASN A   2       1.340 -20.969   0.000  0.00  0.00    +0.000 N 
ATOM     70  H   ASN A   2       1.470 -21.945   0.000  0.00  0.00    +0.000 HD
BRANCH  69  71
ATOM     71  CA  ASN A   2       0.578 -20.654   0.000  0.00  0.00    +0.000 C 
BRANCH  71  72
ATOM     72  C   ASN A   2      -0.076 -21.158   0.000  0.00  0.00    +0.000 C 
ATOM     73  O   ASN A   2       0.033 -21.976   0.000  0.00  0.00    +0.000 OA
ATOM     74  N   SER A   3      -0.839 -20.843   0.000  0.00  0.00    +0.000 N 
ATOM     75  H   SER A   3      -0.969 -19.867   0.000  0.00  0.00    +0.000 HD
BRANCH  74  76
ATOM     76  CA  SER A   3      -1.493 -21.346   0.000  0.00  0.00    +0.000 C 
BRANCH  76  77
ATOM     77  C   SER A   3      -2.255 -21.032   0.000  0.00  0.00    +0.000 C 
ATOM     78  O   SER A   3      -2.364 -20.214   0.000  0.00  0.00    +0.000 OA
ATOM     79  N   SER A   4      -2.909 -21.535   0.000  0.00  0.00    +0.000 N 
ATOM     80  H   SER A   4      -2.779 -22.511   0.000  0.00  0.00    +0.000 HD
BRANCH  79  81
ATOM     81  CA  SER A   4      -3.672 -21.221   0.000  0.00  0.00    +0.000 C 
BRANCH  81  82
ATOM     82  C   SER A   4      -3.781 -20.403   0.000  0.00  0.00    +0.000 C 
ATOM     83  O   SER A   4      -4.543 -20.088   0.000  0.00  0.00    +0.000 OA
BRANCH  82  84
ATOM     84  OXT SER A   4      -3.127 -19.900   0.000  0.00  0.00    +0.000 OA
ATOM     85  HXT SER A   4      -2.261 -20.257   0.000  0.00  0.00    +0.000 HD
ENDBRANCH  82  84
ENDBRANCH  81  82
BRANCH  81  86
ATOM     86  CB  SER A   4      -4.325 -21.724   0.000  0.00  0.00    +0.000 C 
BRANCH  86  87
ATOM     87  OG  SER A   4      -5.088 -21.409   0.000  0.00  0.00    +0.000 OA
ATOM     88  H   SER A   4      -5.216 -20.448   0.000  0.00  0.00    +0.000 HD
ENDBRANCH  86  87
ENDBRANCH  81  86
ENDBRANCH  79  81
ENDBRANCH  76  77
BRANCH  76  89
ATOM     89  CB  SER A   3      -1.384 -22.164   0.000  0.00  0.00    +0.000 C 
BRANCH  89  90
ATOM     90  OG  SER A   3      -2.037 -22.668   0.000  0.00  0.00    +0.000 OA
ATOM     91  H   SER A   3      -2.934 -22.298   0.000  0.00  0.00    +0.000 HD
ENDBRANCH  89  90
ENDBRANCH  76  89
ENDBRANCH  74  76
ENDBRANCH  71  72
BRANCH  71  92
ATOM     92  CB  ASN A   2       0.469 -19.837   0.000  0.00  0.00    +0.000 C 
BRANCH  92  93
ATOM     93  CG  ASN A   2      -0.294 -19.522   0.000  0.00  0.00    +0.000 C 
ATOM     94  OD1 ASN A   2      -0.948 -20.026   0.000  0.00  0.00    +0.000 OA
ATOM     95  ND2 ASN A   2      -0.403 -18.704   0.000  0.00  0.00    +0.000 N 
ATOM     96 HD21 ASN A   2       0.377 -18.104   0.000  0.00  0.00    +0.000 HD
ATOM     97 HD22 ASN A   2      -1.313 -18.329   0.000  0.00  0.00    +0.000 HD
ENDBRANCH  92  93
ENDBRANCH  71  92
ENDBRANCH  69  71
ENDBRANCH  66  67
BRANCH  66  98
ATOM     98  C   UNK A   1       2.866 -21.598   0.000  0.00  0.00    +0.000 C 
BRANCH  98  99
ATOM     99  C   UNK A   1       2.212 -22.101   0.000  0.00  0.00    +0.000 C 
ATOM    100  C   UNK A   1       2.321 -22.919   0.000  0.00  0.00    +0.000 C 
ATOM    101  C   UNK A   1       1.449 -21.787   0.000  0.00  0.00    +0.000 C 
ENDBRANCH  98  99
ENDBRANCH  66  98
ENDBRANCH  64  66
ENDBRANCH  61  62
ENDBRANCH  56  61
ENDBRANCH   1  57
BRANCH   1 102
ATOM    102  C   UNK A   1       7.115 -21.032   0.000  0.00  0.00    +0.000 C 
BRANCH 102 103
ATOM    103  C   UNK A   1       6.461 -21.535   0.000  0.00  0.00    +0.000 C 
BRANCH 103 104
ATOM    104  C   UNK A   1       6.570 -22.353   0.000  0.00  0.00    +0.000 C 
BRANCH 104 105
ATOM    105  N   UNK A   1       5.916 -22.856   0.000  0.00  0.00    +0.000 N 
ATOM    106  C   UNK A   1       6.025 -23.674   0.000  0.00  0.00    +0.000 C 
ATOM    107  N   UNK A   1       6.788 -23.988   0.000  0.00  0.00    +0.000 NA
ATOM    108  N   UNK A   1       5.372 -24.177   0.000  0.00  0.00    +0.000 N 
ATOM    109  H   UNK A   1       5.006 -22.481   0.000  0.00  0.00    +0.000 HD
ATOM    110  H   UNK A   1       6.918 -24.964   0.000  0.00  0.00    +0.000 HD
ATOM    111  H   UNK A   1       4.461 -23.802   0.000  0.00  0.00    +0.000 HD
ATOM    112  H   UNK A   1       5.501 -25.153   0.000  0.00  0.00    +0.000 HD
ENDBRANCH 104 105
ENDBRANCH 103 104
ENDBRANCH 102 103
ENDBRANCH   1 102
TORSDOF 47
