REMARK  Name = 28281
REMARK  12 active torsions:
REMARK  status: ('A' for Active; 'I' for Inactive)
REMARK    1  A    between atoms: O_1  and  C_8
REMARK    2  A    between atoms: O_2  and  C_9
REMARK    3  A    between atoms: O_4  and  C_16
REMARK    4  A    between atoms: N_6  and  C_13
REMARK    5  A    between atoms: C_7  and  C_8
REMARK    6  A    between atoms: C_7  and  C_9
REMARK    7  A    between atoms: C_7  and  C_10
REMARK    8  A    between atoms: C_7  and  C_11
REMARK    9  A    between atoms: C_8  and  C_12
REMARK   10  A    between atoms: C_13  and  C_14
REMARK   11  A    between atoms: C_14  and  C_15
REMARK   12  A    between atoms: C_15  and  C_16
REMARK                            x       y       z     vdW  Elec       q    Type
REMARK                         _______ _______ _______ _____ _____    ______ ____
ROOT
ATOM      1  O   UNL     1      -1.212  -2.124  -0.895  0.00  0.00    +0.000 OA
ATOM      2  N   UNL     1      -0.115  -1.270   0.963  0.00  0.00    +0.000 N 
ATOM      3  C   UNL     1      -1.173  -1.368   0.074  0.00  0.00    +0.000 C 
ATOM      4  H   UNL     1      -0.167  -0.605   1.729  0.00  0.00    +0.000 HD
ENDROOT
BRANCH   3   5
ATOM      5  C   UNL     1      -2.310  -0.402   0.401  0.00  0.00    +0.000 C 
BRANCH   5   6
ATOM      6  C   UNL     1      -2.216   0.970  -0.332  0.00  0.00    +0.000 C 
ATOM      7  C   UNL     1      -3.424   1.839   0.092  0.00  0.00    +0.000 C 
ATOM      8  C   UNL     1      -2.292   0.786  -1.861  0.00  0.00    +0.000 C 
BRANCH   6   9
ATOM      9  C   UNL     1      -0.911   1.714   0.042  0.00  0.00    +0.000 C 
BRANCH   9  10
ATOM     10  O   UNL     1      -0.847   1.964   1.442  0.00  0.00    +0.000 OA
ATOM     11  H   UNL     1      -1.467   2.684   1.644  0.00  0.00    +0.000 HD
ENDBRANCH   9  10
ENDBRANCH   6   9
ENDBRANCH   5   6
BRANCH   5  12
ATOM     12  O   UNL     1      -3.518  -1.061   0.031  0.00  0.00    +0.000 OA
ATOM     13  H   UNL     1      -3.454  -1.333  -0.899  0.00  0.00    +0.000 HD
ENDBRANCH   5  12
ENDBRANCH   3   5
BRANCH   2  14
ATOM     14  C   UNL     1       1.087  -2.063   0.845  0.00  0.00    +0.000 C 
BRANCH  14  15
ATOM     15  C   UNL     1       2.162  -1.389  -0.006  0.00  0.00    +0.000 C 
BRANCH  15  16
ATOM     16  C   UNL     1       2.657  -0.054   0.555  0.00  0.00    +0.000 C 
BRANCH  16  18
ATOM     17  O   UNL     1       4.265   0.079  -1.271  0.00  0.00    +0.000 OA
ATOM     18  C   UNL     1       3.751   0.576  -0.278  0.00  0.00    +0.000 C 
BRANCH  18  19
ATOM     19  O   UNL     1       4.095   1.802   0.197  0.00  0.00    +0.000 OA
ATOM     20  H   UNL     1       4.796   2.221  -0.346  0.00  0.00    +0.000 HD
ENDBRANCH  18  19
ENDBRANCH  16  18
ENDBRANCH  15  16
ENDBRANCH  14  15
ENDBRANCH   2  14
TORSDOF 10
