REMARK  Name = 16048422
REMARK  13 active torsions:
REMARK  status: ('A' for Active; 'I' for Inactive)
REMARK    1  A    between atoms: O_4  and  C_22
REMARK    2  A    between atoms: N_6  and  C_8
REMARK    3  A    between atoms: N_7  and  C_12
REMARK    4  A    between atoms: C_8  and  C_9
REMARK    5  A    between atoms: C_8  and  C_10
REMARK    6  A    between atoms: C_8  and  C_11
REMARK    7  A    between atoms: C_9  and  C_14
REMARK    8  A    between atoms: C_12  and  C_13
REMARK    9  A    between atoms: C_12  and  C_15
REMARK   10  A    between atoms: C_15  and  C_16
REMARK   11  A    between atoms: C_16  and  C_22
REMARK   12  A    between atoms: C_19  and  C_24
REMARK   13  A    between atoms: C_27  and  C_30
REMARK                            x       y       z     vdW  Elec       q    Type
REMARK                         _______ _______ _______ _____ _____    ______ ____
ROOT
ATOM      1  C   UNL     1       1.518   1.773   0.202  0.00  0.00    +0.000 C 
ENDROOT
BRANCH   1   4
ATOM      2  O   UNL     1       1.780   0.551   2.273  0.00  0.00    +0.000 OA
ATOM      3  N   UNL     1       3.560   0.612   0.783  0.00  0.00    +0.000 N 
ATOM      4  C   UNL     1       2.272   0.908   1.204  0.00  0.00    +0.000 C 
ATOM      5  H   UNL     1       3.870   0.958  -0.121  0.00  0.00    +0.000 HD
BRANCH   3   6
ATOM      6  C   UNL     1       4.490  -0.166   1.569  0.00  0.00    +0.000 C 
ATOM      7  C   UNL     1       5.831  -0.254   0.825  0.00  0.00    +0.000 C 
ATOM      8  C   UNL     1       4.716   0.567   2.902  0.00  0.00    +0.000 C 
BRANCH   6   9
ATOM      9  C   UNL     1       3.907  -1.571   1.873  0.00  0.00    +0.000 C 
BRANCH   9  11
ATOM     10  F   UNL     1       2.829  -4.820  -2.610  0.00  0.00    +0.000 F 
ATOM     11  C   UNL     1       3.618  -2.442   0.671  0.00  0.00    +0.000 A 
ATOM     12  C   UNL     1       4.604  -3.295   0.175  0.00  0.00    +0.000 A 
ATOM     13  C   UNL     1       2.366  -2.392   0.059  0.00  0.00    +0.000 A 
ATOM     14  C   UNL     1       4.337  -4.099  -0.933  0.00  0.00    +0.000 A 
ATOM     15  C   UNL     1       2.099  -3.196  -1.049  0.00  0.00    +0.000 A 
ATOM     16  C   UNL     1       3.085  -4.049  -1.545  0.00  0.00    +0.000 A 
ENDBRANCH   9  11
ENDBRANCH   6   9
ENDBRANCH   3   6
ENDBRANCH   1   4
BRANCH   1  18
ATOM     17  O   UNL     1      -0.397   1.743  -1.937  0.00  0.00    +0.000 OA
ATOM     18  N   UNL     1       0.141   1.352   0.285  0.00  0.00    +0.000 N 
ATOM     19  C   UNL     1      -0.712   1.373  -0.809  0.00  0.00    +0.000 C 
ATOM     20  H   UNL     1      -0.216   1.117   1.205  0.00  0.00    +0.000 HD
BRANCH  19  21
ATOM     21  C   UNL     1      -2.108   0.934  -0.553  0.00  0.00    +0.000 A 
ATOM     22  C   UNL     1      -3.148   1.417  -1.347  0.00  0.00    +0.000 A 
ATOM     23  C   UNL     1      -2.378   0.038   0.481  0.00  0.00    +0.000 A 
ATOM     24  C   UNL     1      -4.729   0.109  -0.072  0.00  0.00    +0.000 A 
ATOM     25  C   UNL     1      -4.459   1.005  -1.106  0.00  0.00    +0.000 A 
ATOM     26  C   UNL     1      -3.689  -0.375   0.722  0.00  0.00    +0.000 A 
BRANCH  24  27
ATOM     27  C   UNL     1      -6.088  -0.319   0.178  0.00  0.00    +0.000 A 
ATOM     28  C   UNL     1      -6.895   0.400   1.060  0.00  0.00    +0.000 A 
ATOM     29  C   UNL     1      -6.593  -1.450  -0.464  0.00  0.00    +0.000 A 
ATOM     30  C   UNL     1      -8.206  -0.012   1.300  0.00  0.00    +0.000 A 
ATOM     31  C   UNL     1      -7.904  -1.862  -0.223  0.00  0.00    +0.000 A 
ATOM     32  C   UNL     1      -8.710  -1.143   0.659  0.00  0.00    +0.000 A 
ENDBRANCH  24  27
ENDBRANCH  19  21
ENDBRANCH   1  18
BRANCH   1  33
ATOM     33  C   UNL     1       1.649   3.266   0.527  0.00  0.00    +0.000 C 
BRANCH  33  34
ATOM     34  C   UNL     1       2.992   3.882   0.129  0.00  0.00    +0.000 C 
BRANCH  34  36
ATOM     35  O   UNL     1       2.392   3.878  -2.232  0.00  0.00    +0.000 OA
ATOM     36  C   UNL     1       3.250   3.843  -1.361  0.00  0.00    +0.000 C 
BRANCH  36  37
ATOM     37  O   UNL     1       4.580   3.793  -1.634  0.00  0.00    +0.000 OA
ATOM     38  H   UNL     1       4.755   3.780  -2.599  0.00  0.00    +0.000 HD
ENDBRANCH  36  37
ENDBRANCH  34  36
ENDBRANCH  33  34
ENDBRANCH   1  33
TORSDOF 11
