REMARK  Name = 
REMARK  19 active torsions:
REMARK  status: ('A' for Active; 'I' for Inactive)
REMARK    1  A    between atoms: N_8  and  C_18
REMARK    2  A    between atoms: N_9  and  C_17
REMARK    3  A    between atoms: N_10  and  C_21
REMARK    4  A    between atoms: N_12  and  C_28
REMARK    5  A    between atoms: N_14  and  C_39
REMARK    6  A    between atoms: C_17  and  C_20
REMARK    7  A    between atoms: C_17  and  C_22
REMARK    8  A    between atoms: C_18  and  C_19
REMARK    9  A    between atoms: C_18  and  C_26
REMARK   10  A    between atoms: C_19  and  C_23
REMARK   11  A    between atoms: C_20  and  C_27
REMARK   12  A    between atoms: C_21  and  C_24
REMARK   13  A    between atoms: C_21  and  C_25
REMARK   14  A    between atoms: C_23  and  C_28
REMARK   15  A    between atoms: C_24  and  C_29
REMARK   16  A    between atoms: C_26  and  C_30
REMARK   17  A    between atoms: C_29  and  C_34
REMARK   18  A    between atoms: C_33  and  C_39
REMARK   19  A    between atoms: C_46  and  C_47
REMARK                            x       y       z     vdW  Elec       q    Type
REMARK                         _______ _______ _______ _____ _____    ______ ____
ROOT
ATOM      1  C   UNL     1       1.518   2.054   0.000  0.00  0.00    +0.000 C 
ENDROOT
BRANCH   1   4
ATOM      2  O   UNL     1       0.280   1.339   0.000  0.00  0.00    +0.000 OA
ATOM      3  N   UNL     1       0.280   2.768   0.000  0.00  0.00    +0.000 N 
ATOM      4  C   UNL     1       0.692   2.054   0.000  0.00  0.00    +0.000 C 
ATOM      5  H   UNL     1       0.772   3.621   0.000  0.00  0.00    +0.000 HD
BRANCH   3   6
ATOM      6  C   UNL     1      -0.545   2.768   0.000  0.00  0.00    +0.000 C 
BRANCH   6   8
ATOM      7  O   UNL     1      -0.545   4.197   0.000  0.00  0.00    +0.000 OA
ATOM      8  C   UNL     1      -0.958   3.483   0.000  0.00  0.00    +0.000 C 
BRANCH   8  11
ATOM      9  S   UNL     1      -2.264   4.147   0.000  0.00  0.00    +0.000 S 
ATOM     10  N   UNL     1      -2.264   2.819   0.000  0.00  0.00    +0.000 NA
ATOM     11  C   UNL     1      -1.782   3.483   0.000  0.00  0.00    +0.000 A 
ATOM     12  C   UNL     1      -3.045   3.895   0.000  0.00  0.00    +0.000 A 
ATOM     13  C   UNL     1      -3.045   3.070   0.000  0.00  0.00    +0.000 A 
ATOM     14  C   UNL     1      -3.759   4.308   0.000  0.00  0.00    +0.000 A 
ATOM     15  C   UNL     1      -3.759   2.658   0.000  0.00  0.00    +0.000 A 
ATOM     16  C   UNL     1      -4.473   3.895   0.000  0.00  0.00    +0.000 A 
ATOM     17  C   UNL     1      -4.473   3.070   0.000  0.00  0.00    +0.000 A 
ENDBRANCH   8  11
ENDBRANCH   6   8
BRANCH   6  18
ATOM     18  C   UNL     1      -0.958   2.054   0.000  0.00  0.00    +0.000 C 
BRANCH  18  19
ATOM     19  C   UNL     1      -0.545   1.339   0.000  0.00  0.00    +0.000 C 
BRANCH  19  20
ATOM     20  C   UNL     1      -0.958   0.625   0.000  0.00  0.00    +0.000 C 
BRANCH  20  21
ATOM     21  N   UNL     1      -0.545  -0.089   0.000  0.00  0.00    +0.000 NA
ATOM     22  N   UNL     1      -0.545  -1.518   0.000  0.00  0.00    +0.000 N 
ATOM     23  N   UNL     1      -1.782  -0.804   0.000  0.00  0.00    +0.000 N 
ATOM     24  C   UNL     1      -0.958  -0.804   0.000  0.00  0.00    +0.000 C 
ATOM     25  H   UNL     1      -1.037  -2.371   0.000  0.00  0.00    +0.000 HD
ATOM     26  H   UNL     1       0.439  -1.518   0.000  0.00  0.00    +0.000 HD
ATOM     27  H   UNL     1      -2.275   0.049   0.000  0.00  0.00    +0.000 HD
ATOM     28  H   UNL     1      -2.275  -1.657   0.000  0.00  0.00    +0.000 HD
ENDBRANCH  20  21
ENDBRANCH  19  20
ENDBRANCH  18  19
ENDBRANCH   6  18
ENDBRANCH   3   6
ENDBRANCH   1   4
BRANCH   1  30
ATOM     29  O   UNL     1       0.692   0.625   0.000  0.00  0.00    +0.000 OA
ATOM     30  N   UNL     1       1.930   1.339   0.000  0.00  0.00    +0.000 N 
ATOM     31  C   UNL     1       1.518   0.625   0.000  0.00  0.00    +0.000 C 
ATOM     32  H   UNL     1       2.914   1.339   0.000  0.00  0.00    +0.000 HD
BRANCH  31  33
ATOM     33  C   UNL     1       1.930  -0.089   0.000  0.00  0.00    +0.000 C 
BRANCH  33  35
ATOM     34  O   UNL     1       2.755  -1.518   0.000  0.00  0.00    +0.000 OA
ATOM     35  N   UNL     1       1.518  -0.804   0.000  0.00  0.00    +0.000 N 
ATOM     36  C   UNL     1       1.930  -1.518   0.000  0.00  0.00    +0.000 C 
ATOM     37  H   UNL     1       0.533  -0.804   0.000  0.00  0.00    +0.000 HD
BRANCH  36  38
ATOM     38  C   UNL     1       1.518  -2.233   0.000  0.00  0.00    +0.000 C 
BRANCH  38  40
ATOM     39  O   UNL     1       0.692  -3.662   0.000  0.00  0.00    +0.000 OA
ATOM     40  N   UNL     1       1.930  -2.947   0.000  0.00  0.00    +0.000 N 
ATOM     41  C   UNL     1       1.518  -3.662   0.000  0.00  0.00    +0.000 C 
ATOM     42  C   UNL     1       1.930  -4.376   0.000  0.00  0.00    +0.000 C 
ATOM     43  H   UNL     1       2.914  -2.947   0.000  0.00  0.00    +0.000 HD
ENDBRANCH  38  40
ENDBRANCH  36  38
ENDBRANCH  33  35
BRANCH  33  44
ATOM     44  C   UNL     1       2.755  -0.089   0.000  0.00  0.00    +0.000 C 
BRANCH  44  45
ATOM     45  C   UNL     1       3.167  -0.804   0.000  0.00  0.00    +0.000 C 
BRANCH  45  48
ATOM     46  O   UNL     1       4.405  -0.089   0.000  0.00  0.00    +0.000 OA
ATOM     47  N   UNL     1       4.405  -1.518   0.000  0.00  0.00    +0.000 N 
ATOM     48  C   UNL     1       3.993  -0.804   0.000  0.00  0.00    +0.000 C 
ATOM     49  H   UNL     1       3.913  -2.371   0.000  0.00  0.00    +0.000 HD
ATOM     50  H   UNL     1       5.389  -1.518   0.000  0.00  0.00    +0.000 HD
ENDBRANCH  45  48
ENDBRANCH  44  45
ENDBRANCH  33  44
ENDBRANCH  31  33
ENDBRANCH   1  30
BRANCH   1  51
ATOM     51  C   UNL     1       1.930   2.768   0.000  0.00  0.00    +0.000 C 
BRANCH  51  52
ATOM     52  C   UNL     1       2.755   2.768   0.000  0.00  0.00    +0.000 A 
ATOM     53  C   UNL     1       3.167   3.483   0.000  0.00  0.00    +0.000 A 
ATOM     54  C   UNL     1       3.167   2.054   0.000  0.00  0.00    +0.000 A 
ATOM     55  C   UNL     1       3.993   3.483   0.000  0.00  0.00    +0.000 A 
ATOM     56  C   UNL     1       3.993   2.054   0.000  0.00  0.00    +0.000 A 
ATOM     57  C   UNL     1       4.405   2.768   0.000  0.00  0.00    +0.000 A 
ENDBRANCH  51  52
ENDBRANCH   1  51
TORSDOF 18
