12647
  -OEChem-10051720303D

 17 16  0     1  0  0  0  0  0999 V2000
    3.3051    0.5217   -0.3768 O   0  0  0  0  0  0  0  0  0  0  0  0
   -1.7185    1.5620    0.3379 O   0  0  0  0  0  0  0  0  0  0  0  0
   -2.4690   -0.3314   -0.6586 O   0  0  0  0  0  0  0  0  0  0  0  0
   -0.3465   -1.7834    0.1503 N   0  0  0  0  0  0  0  0  0  0  0  0
   -0.3110   -0.3603    0.4866 C   0  0  1  0  0  0  0  0  0  0  0  0
    0.8911    0.3584   -0.1453 C   0  0  0  0  0  0  0  0  0  0  0  0
    2.2546   -0.2214    0.2237 C   0  0  0  0  0  0  0  0  0  0  0  0
   -1.6058    0.2544   -0.0178 C   0  0  0  0  0  0  0  0  0  0  0  0
   -0.2861   -0.2633    1.5774 H   0  0  0  0  0  0  0  0  0  0  0  0
    0.8801    1.4196    0.1368 H   0  0  0  0  0  0  0  0  0  0  0  0
    0.7953    0.3633   -1.2402 H   0  0  0  0  0  0  0  0  0  0  0  0
    2.3944   -0.1968    1.3093 H   0  0  0  0  0  0  0  0  0  0  0  0
    2.3419   -1.2583   -0.1154 H   0  0  0  0  0  0  0  0  0  0  0  0
   -0.3969   -1.9030   -0.8606 H   0  0  0  0  0  0  0  0  0  0  0  0
   -1.1849   -2.2128    0.5390 H   0  0  0  0  0  0  0  0  0  0  0  0
    4.1414    0.1089   -0.1012 H   0  0  0  0  0  0  0  0  0  0  0  0
   -2.5570    1.9568    0.0164 H   0  0  0  0  0  0  0  0  0  0  0  0
  1  7  1  0  0  0  0
  1 16  1  0  0  0  0
  2  8  1  0  0  0  0
  2 17  1  0  0  0  0
  3  8  2  0  0  0  0
  4  5  1  0  0  0  0
  4 14  1  0  0  0  0
  4 15  1  0  0  0  0
  5  6  1  0  0  0  0
  5  8  1  0  0  0  0
  5  9  1  0  0  0  0
  6  7  1  0  0  0  0
  6 10  1  0  0  0  0
  6 11  1  0  0  0  0
  7 12  1  0  0  0  0
  7 13  1  0  0  0  0
M  END
> <DATABASE_ID>
DB04193

> <DATABASE_NAME>
drugbank

> <ORIGINAL_SOURCE>
PUBCHEM

> <ORIGINAL_SOURCE_URL>
https://pubchem.ncbi.nlm.nih.gov/rest/pug/compound/inchikey/UKAUYVFTDYCKQA-VKHMYHEASA-N/SDF?record_type=3d

> <SMILES>
N[C@@H](CCO)C(O)=O

> <INCHI_IDENTIFIER>
InChI=1S/C4H9NO3/c5-3(1-2-6)4(7)8/h3,6H,1-2,5H2,(H,7,8)/t3-/m0/s1

> <INCHI_KEY>
UKAUYVFTDYCKQA-VKHMYHEASA-N

> <FORMULA>
C4H9NO3

> <MOLECULAR_WEIGHT>
119.1192

> <EXACT_MASS>
119.058243159

> <JCHEM_ACCEPTOR_COUNT>
4

> <JCHEM_ATOM_COUNT>
17

> <JCHEM_AVERAGE_NEUTRAL_MICROSPECIES_CHARGE>
-0.006868122263636052

> <JCHEM_AVERAGE_POLARIZABILITY>
11.439148714602187

> <JCHEM_BIOAVAILABILITY>
1

> <JCHEM_DONOR_COUNT>
3

> <JCHEM_FORMAL_CHARGE>
0

> <JCHEM_GHOSE_FILTER>
0

> <JCHEM_IUPAC>
(2S)-2-amino-4-hydroxybutanoic acid

> <ALOGPS_LOGP>
-3.31

> <JCHEM_LOGP>
-3.8277325124850385

> <ALOGPS_LOGS>
0.55

> <JCHEM_MDDR_LIKE_RULE>
0

> <JCHEM_NEUTRAL_CHARGE>
0

> <JCHEM_NUMBER_OF_RINGS>
0

> <JCHEM_PHYSIOLOGICAL_CHARGE>
0

> <JCHEM_PKA>
15.933083327320803

> <JCHEM_PKA_STRONGEST_ACIDIC>
2.223319649729163

> <JCHEM_PKA_STRONGEST_BASIC>
9.159110100742131

> <JCHEM_POLAR_SURFACE_AREA>
83.55000000000001

> <JCHEM_REFRACTIVITY>
26.906399999999998

> <JCHEM_ROTATABLE_BOND_COUNT>
3

> <JCHEM_RULE_OF_FIVE>
1

> <ALOGPS_SOLUBILITY>
4.23e+02 g/l

> <JCHEM_TRADITIONAL_IUPAC>
tetrahydrofolic acid

> <JCHEM_VEBER_RULE>
0

$$$$
