
     RDKit          3D

 13 12  0  0  0  0  0  0  0  0999 V2000
    1.2207    0.4255    1.8642 N   0  0  0  0  0  0  0  0  0  0  0  0
    2.2255   -0.7229    1.4531 C   0  0  1  0  0  0  0  0  0  0  0  0
    1.2161   -1.2571    0.2642 C   0  0  0  0  0  0  0  0  0  0  0  0
    0.8252   -0.0459   -0.5303 C   0  0  0  0  0  0  0  0  0  0  0  0
   -0.5223   -0.2218   -1.0873 C   0  0  0  0  0  0  0  0  0  0  0  0
   -1.5650    0.4946   -0.7175 C   0  0  0  0  0  0  0  0  0  0  0  0
   -2.9756   -0.1556   -0.4253 B   0  0  0  0  0  0  0  0  0  0  0  0
   -3.1219   -0.4467    0.9968 O   0  0  0  0  0  0  0  0  0  0  0  0
   -3.9815    0.8164   -0.8337 O   0  0  0  0  0  0  0  0  0  0  0  0
   -3.0337   -1.3991   -1.2235 O   0  0  0  0  0  0  0  0  0  0  0  0
    3.0796    0.1704    0.4172 C   0  0  0  0  0  0  0  0  0  0  0  0
    2.9833    1.3860    0.4342 O   0  0  0  0  0  0  0  0  0  0  0  0
    3.6498   -0.5873   -0.6120 O   0  0  0  0  0  0  0  0  0  0  0  0
  2  1  1  1
  2  3  1  0
  3  4  1  0
  4  5  1  0
  5  6  2  0
  6  7  1  0
  7  8  1  0
  7  9  1  0
  7 10  1  0
  2 11  1  0
 11 12  2  0
 11 13  1  0
M  CHG  1   7  -1
M  END
>  <zinc_id>  (1) 
ZINC000169748487

>  <smiles>  (1) 
N[C@@H](CC/C=C/[B-](O)(O)O)C(=O)O

$$$$
