
  Mrv1652310211602372D          

 22 21  0  0  1  0            999 V2000
    9.1855    6.1283    0.0000 C   0  0  0  0  0  0  0  0  0  0  0  0
    9.9000    5.7158    0.0000 O   0  0  0  0  0  0  0  0  0  0  0  0
   10.6145    6.1283    0.0000 C   0  0  0  0  0  0  0  0  0  0  0  0
   11.3289    5.7158    0.0000 C   0  0  0  0  0  0  0  0  0  0  0  0
   12.0434    6.1283    0.0000 O   0  0  0  0  0  0  0  0  0  0  0  0
   12.7579    5.7158    0.0000 C   0  0  0  0  0  0  0  0  0  0  0  0
   13.4724    6.1283    0.0000 C   0  0  0  0  0  0  0  0  0  0  0  0
   14.1868    5.7158    0.0000 C   0  0  0  0  0  0  0  0  0  0  0  0
   14.9013    6.1283    0.0000 C   0  0  0  0  0  0  0  0  0  0  0  0
   15.6158    5.7158    0.0000 C   0  0  0  0  0  0  0  0  0  0  0  0
   16.3302    6.1283    0.0000 C   0  0  0  0  0  0  0  0  0  0  0  0
   16.3302    6.9533    0.0000 O   0  0  0  0  0  0  0  0  0  0  0  0
   17.0447    5.7158    0.0000 N   0  0  0  0  0  0  0  0  0  0  0  0
   17.7592    6.1283    0.0000 C   0  0  0  0  0  0  0  0  0  0  0  0
   18.4737    5.7158    0.0000 C   0  0  0  0  0  0  0  0  0  0  0  0
   19.1881    6.1283    0.0000 C   0  0  0  0  0  0  0  0  0  0  0  0
   19.9026    5.7158    0.0000 C   0  0  0  0  0  0  0  0  0  0  0  0
   20.6171    6.1283    0.0000 C   0  0  1  0  0  0  0  0  0  0  0  0
   21.3315    5.7158    0.0000 C   0  0  0  0  0  0  0  0  0  0  0  0
   22.0460    6.1283    0.0000 O   0  0  0  0  0  0  0  0  0  0  0  0
   21.3315    4.8908    0.0000 O   0  0  0  0  0  0  0  0  0  0  0  0
   20.6171    6.9533    0.0000 N   0  0  0  0  0  0  0  0  0  0  0  0
  1  2  1  0  0  0  0
  2  3  1  0  0  0  0
  3  4  1  0  0  0  0
  4  5  1  0  0  0  0
  5  6  1  0  0  0  0
  6  7  1  0  0  0  0
  7  8  1  0  0  0  0
  8  9  1  0  0  0  0
  9 10  1  0  0  0  0
 10 11  1  0  0  0  0
 11 12  2  0  0  0  0
 11 13  1  0  0  0  0
 13 14  1  0  0  0  0
 14 15  1  0  0  0  0
 15 16  1  0  0  0  0
 16 17  1  0  0  0  0
 17 18  1  0  0  0  0
 18 19  1  0  0  0  0
 19 20  2  0  0  0  0
 19 21  1  0  0  0  0
 18 22  1  6  0  0  0
M  END
> <DATABASE_ID>
DB12839

> <DATABASE_NAME>
drugbank

> <SMILES>
COCCOCCCCCC(=O)NCCCC[C@H](N)C(O)=O

> <INCHI_IDENTIFIER>
InChI=1S/C15H30N2O5/c1-21-11-12-22-10-6-2-3-8-14(18)17-9-5-4-7-13(16)15(19)20/h13H,2-12,16H2,1H3,(H,17,18)(H,19,20)/t13-/m0/s1

> <INCHI_KEY>
NPOCDVAOUKODSQ-ZDUSSCGKSA-N

> <FORMULA>
C15H30N2O5

> <MOLECULAR_WEIGHT>
318.414

> <EXACT_MASS>
318.215472074

> <JCHEM_ACCEPTOR_COUNT>
6

> <JCHEM_ATOM_COUNT>
52

> <JCHEM_AVERAGE_POLARIZABILITY>
36.88928318286748

> <JCHEM_BIOAVAILABILITY>
1

> <JCHEM_DONOR_COUNT>
3

> <JCHEM_FORMAL_CHARGE>
0

> <JCHEM_GHOSE_FILTER>
0

> <JCHEM_IUPAC>
(2S)-2-amino-6-[6-(2-methoxyethoxy)hexanamido]hexanoic acid

> <ALOGPS_LOGP>
-1.32

> <JCHEM_LOGP>
-1.9604358672870472

> <ALOGPS_LOGS>
-2.70

> <JCHEM_MDDR_LIKE_RULE>
0

> <JCHEM_NUMBER_OF_RINGS>
0

> <JCHEM_PHYSIOLOGICAL_CHARGE>
0

> <JCHEM_PKA>
15.889314319918956

> <JCHEM_PKA_STRONGEST_ACIDIC>
2.242657712365842

> <JCHEM_PKA_STRONGEST_BASIC>
9.526530289714993

> <JCHEM_POLAR_SURFACE_AREA>
110.88

> <JCHEM_REFRACTIVITY>
83.40659999999998

> <JCHEM_ROTATABLE_BOND_COUNT>
15

> <JCHEM_RULE_OF_FIVE>
1

> <ALOGPS_SOLUBILITY>
6.30e-01 g/l

> <JCHEM_TRADITIONAL_IUPAC>
(2S)-2-amino-6-[6-(2-methoxyethoxy)hexanamido]hexanoic acid

> <JCHEM_VEBER_RULE>
0

> <DRUGBANK_ID>
DB12839

> <DRUG_GROUPS>
approved; investigational

> <GENERIC_NAME>
Pegvaliase

> <SYNONYMS>
PEG-PAL; Pegvaliase; pegvaliase-pqpz; Phenylase; rAvPAL-PEG

> <PRODUCTS>
Palynziq

$$$$
