
     RDKit          3D

 52 56  0  0  0  0  0  0  0  0999 V2000
    8.6099   -0.3164   -0.8489 C   0  0  0  0  0  0  0  0  0  0  0  0
    7.4330   -0.7822   -0.6899 C   0  0  0  0  0  0  0  0  0  0  0  0
    6.8461   -1.8979   -1.6767 C   0  0  1  0  0  0  0  0  0  0  0  0
    5.6730   -2.2466   -0.6100 C   0  0  0  0  0  0  0  0  0  0  0  0
    5.0861   -1.0082   -0.1877 C   0  0  2  0  0  0  0  0  0  0  0  0
    4.6763   -1.1372    1.1465 C   0  0  0  0  0  0  0  0  0  0  0  0
    3.8499    0.1101    1.4344 C   0  0  0  0  0  0  0  0  0  0  0  0
    2.5921   -0.4622    0.5725 C   0  0  1  0  0  0  0  0  0  0  0  0
    1.5983    0.7044    1.1318 C   0  0  0  0  0  0  0  0  0  0  0  0
    2.2806    1.9387    1.3644 C   0  0  0  0  0  0  0  0  0  0  0  0
    1.6793    2.9888    0.9791 O   0  0  0  0  0  0  0  0  0  0  0  0
    2.8920    2.1085    2.6118 O   0  0  0  0  0  0  0  0  0  0  0  0
    1.0831    0.0703    2.4030 C   0  0  0  0  0  0  0  0  0  0  0  0
    0.1605    0.7051    2.9872 O   0  0  0  0  0  0  0  0  0  0  0  0
    1.9437   -0.6698    3.1417 O   0  0  0  0  0  0  0  0  0  0  0  0
    0.6955    0.3730    0.2202 C   0  0  0  0  0  0  0  0  0  0  0  0
    0.5708    1.0050   -1.2629 C   0  0  2  0  0  0  0  0  0  0  0  0
   -0.6320    0.0736   -1.6275 O   0  0  0  0  0  0  0  0  0  0  0  0
   -1.0674    0.2032   -0.1508 C   0  0  1  0  0  0  0  0  0  0  0  0
   -1.3896    1.7146   -0.3417 O   0  0  0  0  0  0  0  0  0  0  0  0
   -2.7715    1.5404    0.2343 C   0  0  1  0  0  0  0  0  0  0  0  0
   -2.9539    3.0757    0.7333 C   0  0  0  0  0  0  0  0  0  0  0  0
   -2.9174    2.7414    2.1123 O   0  0  0  0  0  0  0  0  0  0  0  0
   -1.6806    2.8822    2.5497 O   0  0  0  0  0  0  0  0  0  0  0  0
   -3.3833    1.7447   -1.3592 C   0  0  2  0  0  0  0  0  0  0  0  0
   -4.7085    1.4387   -0.8172 O   0  0  0  0  0  0  0  0  0  0  0  0
   -5.7389    2.5078   -0.4716 S   0  0  0  0  0  0  0  0  0  0  0  0
   -5.9439    3.7129   -1.3827 O   0  0  0  0  0  0  0  0  0  0  0  0
   -7.0089    1.6600   -0.6416 O   0  0  0  0  0  0  0  0  0  0  0  0
   -5.9302    3.0094    1.1367 O   0  0  0  0  0  0  0  0  0  0  0  0
   -3.0256    0.1103   -1.8208 C   0  0  2  0  0  0  0  0  0  0  0  0
   -4.3750   -0.4329   -1.7395 O   0  0  0  0  0  0  0  0  0  0  0  0
   -5.3097   -1.4620   -1.3739 S   0  0  0  0  0  0  0  0  0  0  0  0
   -5.7334   -1.5475    0.0951 O   0  0  0  0  0  0  0  0  0  0  0  0
   -6.6580   -1.0231   -1.9917 O   0  0  0  0  0  0  0  0  0  0  0  0
   -5.2757   -3.0955   -1.8503 O   0  0  0  0  0  0  0  0  0  0  0  0
   -2.7213   -0.2886   -0.1975 C   0  0  1  0  0  0  0  0  0  0  0  0
   -2.5279   -1.7460   -0.2681 O   0  0  0  0  0  0  0  0  0  0  0  0
   -1.8374   -2.6884   -0.6083 C   0  0  0  0  0  0  0  0  0  0  0  0
   -1.8848   -2.5957   -1.8216 O   0  0  0  0  0  0  0  0  0  0  0  0
   -1.9722   -3.8482    0.2924 C   0  0  0  0  0  0  0  0  0  0  0  0
   -1.9006   -3.5241    1.7561 C   0  0  0  0  0  0  0  0  0  0  0  0
   -3.1631   -3.6270    2.5304 C   0  0  0  0  0  0  0  0  0  0  0  0
   -1.2620   -2.2802    2.1202 C   0  0  0  0  0  0  0  0  0  0  0  0
    1.8340    0.0766   -1.7768 C   0  0  0  0  0  0  0  0  0  0  0  0
    2.9967    0.2943   -0.8084 C   0  0  1  0  0  0  0  0  0  0  0  0
    3.7843    1.4158   -0.7320 C   0  0  0  0  0  0  0  0  0  0  0  0
    3.9056   -0.9928   -1.3083 C   0  0  1  0  0  0  0  0  0  0  0  0
    4.8816   -0.2317   -2.3735 C   0  0  0  0  0  0  0  0  0  0  0  0
    6.0623   -0.8604   -2.6353 C   0  0  0  0  0  0  0  0  0  0  0  0
    6.1396    0.1787   -0.5007 C   0  0  1  0  0  0  0  0  0  0  0  0
    6.4986    0.3804    0.9684 O   0  0  0  0  0  0  0  0  0  0  0  0
  1  2  2  0
  3  2  1  1
  3  4  1  0
  4  5  1  0
  5  6  1  1
  6  7  1  0
  8  7  1  1
  8  9  1  0
  9 10  1  0
 10 11  2  0
 10 12  1  0
  9 13  1  0
 13 14  2  0
 13 15  1  0
  9 16  1  0
 16 17  1  0
 17 18  1  6
 19 18  1  6
 19 20  1  0
 20 21  1  0
 21 22  1  1
 22 23  1  0
 23 24  1  0
 21 25  1  0
 25 26  1  1
 26 27  1  0
 27 28  2  0
 27 29  2  0
 27 30  1  0
 25 31  1  0
 31 32  1  1
 32 33  1  0
 33 34  2  0
 33 35  2  0
 33 36  1  0
 31 37  1  0
 37 38  1  6
 38 39  1  0
 39 40  2  0
 39 41  1  0
 41 42  1  0
 42 43  1  0
 42 44  1  0
 17 45  1  0
 45 46  1  0
 46 47  1  1
 46 48  1  0
 48 49  1  6
 49 50  1  0
  5 51  1  0
 51 52  1  1
 51  2  1  0
 50  3  1  0
 48  5  1  0
 46  8  1  0
 37 19  1  0
M  END
>  <zinc_id>  (1) 
ZINC000096006053

>  <smiles>  (1) 
C=C1[C@H](O)[C@@]23CC[C@H]4C(C(=O)O)(C(=O)O)C[C@H](O[C@H]5O[C@@H](COO)[C@H](OS(=O)(=O)O)[C@H](OS(=O)(=O)O)[C@H]5OC(=O)CC(C)C)C[C@]4(C)[C@H]2CC[C@@H]1C3

$$$$
