6010
  -OEChem-10051720503D

 52 55  0     1  0  0  0  0  0999 V2000
   -5.0212   -0.9419    0.1614 O   0  0  0  0  0  0  0  0  0  0  0  0
    5.7504    0.0547   -1.1033 O   0  0  0  0  0  0  0  0  0  0  0  0
   -2.5979   -0.5035    0.1751 C   0  0  1  0  0  0  0  0  0  0  0  0
   -1.8122    0.7608   -0.2340 C   0  0  2  0  0  0  0  0  0  0  0  0
   -0.4050    0.8179    0.3753 C   0  0  1  0  0  0  0  0  0  0  0  0
    0.4014   -0.4358   -0.0871 C   0  0  1  0  0  0  0  0  0  0  0  0
   -3.9815   -0.2084   -0.4824 C   0  0  2  0  0  0  0  0  0  0  0  0
   -1.8234   -1.7246   -0.3480 C   0  0  0  0  0  0  0  0  0  0  0  0
    1.8819   -0.4472    0.4576 C   0  0  2  0  0  0  0  0  0  0  0  0
   -2.7830    1.8974    0.0700 C   0  0  0  0  0  0  0  0  0  0  0  0
   -0.3761   -1.7541    0.1770 C   0  0  0  0  0  0  0  0  0  0  0  0
   -4.1748    1.3114   -0.2318 C   0  0  0  0  0  0  0  0  0  0  0  0
    0.3317    2.0983   -0.0395 C   0  0  0  0  0  0  0  0  0  0  0  0
   -2.7785   -0.6493    1.7149 C   0  0  0  0  0  0  0  0  0  0  0  0
    2.5395    0.9113    0.1823 C   0  0  0  0  0  0  0  0  0  0  0  0
    1.7377    2.1388    0.5449 C   0  0  0  0  0  0  0  0  0  0  0  0
    2.6642   -1.5754   -0.2762 C   0  0  0  0  0  0  0  0  0  0  0  0
   -4.0800   -0.5279   -1.9796 C   0  0  0  0  0  0  0  0  0  0  0  0
    1.9359   -0.7094    1.9797 C   0  0  0  0  0  0  0  0  0  0  0  0
    4.1740   -1.4633   -0.1333 C   0  0  0  0  0  0  0  0  0  0  0  0
    3.7721    1.0589   -0.3317 C   0  0  0  0  0  0  0  0  0  0  0  0
    4.6448   -0.1088   -0.5914 C   0  0  0  0  0  0  0  0  0  0  0  0
   -1.6742    0.7563   -1.3260 H   0  0  0  0  0  0  0  0  0  0  0  0
   -0.4854    0.8247    1.4676 H   0  0  0  0  0  0  0  0  0  0  0  0
    0.4757   -0.3548   -1.1841 H   0  0  0  0  0  0  0  0  0  0  0  0
   -1.7740   -1.7118   -1.4432 H   0  0  0  0  0  0  0  0  0  0  0  0
   -2.3356   -2.6534   -0.0700 H   0  0  0  0  0  0  0  0  0  0  0  0
   -2.5840    2.7799   -0.5467 H   0  0  0  0  0  0  0  0  0  0  0  0
   -2.7210    2.2080    1.1191 H   0  0  0  0  0  0  0  0  0  0  0  0
   -0.3861   -1.9850    1.2465 H   0  0  0  0  0  0  0  0  0  0  0  0
    0.1337   -2.5920   -0.3113 H   0  0  0  0  0  0  0  0  0  0  0  0
   -4.8520    1.4995    0.6098 H   0  0  0  0  0  0  0  0  0  0  0  0
   -4.6140    1.8099   -1.1037 H   0  0  0  0  0  0  0  0  0  0  0  0
   -0.2181    2.9807    0.3081 H   0  0  0  0  0  0  0  0  0  0  0  0
    0.3840    2.1670   -1.1339 H   0  0  0  0  0  0  0  0  0  0  0  0
   -3.3708    0.1647    2.1451 H   0  0  0  0  0  0  0  0  0  0  0  0
   -3.2945   -1.5862    1.9555 H   0  0  0  0  0  0  0  0  0  0  0  0
   -1.8304   -0.6673    2.2580 H   0  0  0  0  0  0  0  0  0  0  0  0
    1.6787    2.2147    1.6377 H   0  0  0  0  0  0  0  0  0  0  0  0
    2.2337    3.0548    0.2007 H   0  0  0  0  0  0  0  0  0  0  0  0
    2.4230   -1.5496   -1.3483 H   0  0  0  0  0  0  0  0  0  0  0  0
    2.3542   -2.5622    0.0875 H   0  0  0  0  0  0  0  0  0  0  0  0
   -5.0696   -0.2500   -2.3618 H   0  0  0  0  0  0  0  0  0  0  0  0
   -3.3306   -0.0026   -2.5778 H   0  0  0  0  0  0  0  0  0  0  0  0
   -3.9838   -1.6040   -2.1614 H   0  0  0  0  0  0  0  0  0  0  0  0
    1.2895   -0.0281    2.5416 H   0  0  0  0  0  0  0  0  0  0  0  0
    1.6272   -1.7311    2.2243 H   0  0  0  0  0  0  0  0  0  0  0  0
    2.9506   -0.5806    2.3744 H   0  0  0  0  0  0  0  0  0  0  0  0
   -4.8362   -1.8887    0.0387 H   0  0  0  0  0  0  0  0  0  0  0  0
    4.6510   -2.2268   -0.7578 H   0  0  0  0  0  0  0  0  0  0  0  0
    4.4982   -1.6179    0.9005 H   0  0  0  0  0  0  0  0  0  0  0  0
    4.1991    2.0374   -0.5247 H   0  0  0  0  0  0  0  0  0  0  0  0
  1  7  1  0  0  0  0
  1 49  1  0  0  0  0
  2 22  2  0  0  0  0
  3  4  1  0  0  0  0
  3  7  1  0  0  0  0
  3  8  1  0  0  0  0
  3 14  1  0  0  0  0
  4  5  1  0  0  0  0
  4 10  1  0  0  0  0
  4 23  1  0  0  0  0
  5  6  1  0  0  0  0
  5 13  1  0  0  0  0
  5 24  1  0  0  0  0
  6  9  1  0  0  0  0
  6 11  1  0  0  0  0
  6 25  1  0  0  0  0
  7 12  1  0  0  0  0
  7 18  1  0  0  0  0
  8 11  1  0  0  0  0
  8 26  1  0  0  0  0
  8 27  1  0  0  0  0
  9 15  1  0  0  0  0
  9 17  1  0  0  0  0
  9 19  1  0  0  0  0
 10 12  1  0  0  0  0
 10 28  1  0  0  0  0
 10 29  1  0  0  0  0
 11 30  1  0  0  0  0
 11 31  1  0  0  0  0
 12 32  1  0  0  0  0
 12 33  1  0  0  0  0
 13 16  1  0  0  0  0
 13 34  1  0  0  0  0
 13 35  1  0  0  0  0
 14 36  1  0  0  0  0
 14 37  1  0  0  0  0
 14 38  1  0  0  0  0
 15 16  1  0  0  0  0
 15 21  2  0  0  0  0
 16 39  1  0  0  0  0
 16 40  1  0  0  0  0
 17 20  1  0  0  0  0
 17 41  1  0  0  0  0
 17 42  1  0  0  0  0
 18 43  1  0  0  0  0
 18 44  1  0  0  0  0
 18 45  1  0  0  0  0
 19 46  1  0  0  0  0
 19 47  1  0  0  0  0
 19 48  1  0  0  0  0
 20 22  1  0  0  0  0
 20 50  1  0  0  0  0
 20 51  1  0  0  0  0
 21 22  1  0  0  0  0
 21 52  1  0  0  0  0
M  END
> <DATABASE_ID>
DB06710

> <DATABASE_NAME>
drugbank

> <ORIGINAL_SOURCE>
PUBCHEM

> <ORIGINAL_SOURCE_URL>
https://pubchem.ncbi.nlm.nih.gov/rest/pug/compound/inchikey/GCKMFJBGXUYNAG-HLXURNFRSA-N/SDF?record_type=3d

> <SMILES>
[H][C@@]12CC[C@](C)(O)[C@@]1(C)CC[C@@]1([H])[C@@]2([H])CCC2=CC(=O)CC[C@]12C

> <INCHI_IDENTIFIER>
InChI=1S/C20H30O2/c1-18-9-6-14(21)12-13(18)4-5-15-16(18)7-10-19(2)17(15)8-11-20(19,3)22/h12,15-17,22H,4-11H2,1-3H3/t15-,16+,17+,18+,19+,20+/m1/s1

> <INCHI_KEY>
GCKMFJBGXUYNAG-HLXURNFRSA-N

> <FORMULA>
C20H30O2

> <MOLECULAR_WEIGHT>
302.451

> <EXACT_MASS>
302.224580204

> <JCHEM_ACCEPTOR_COUNT>
2

> <JCHEM_ATOM_COUNT>
52

> <JCHEM_AVERAGE_NEUTRAL_MICROSPECIES_CHARGE>
2.964057959324137e-08

> <JCHEM_AVERAGE_POLARIZABILITY>
35.85049910033874

> <JCHEM_BIOAVAILABILITY>
1

> <JCHEM_DONOR_COUNT>
1

> <JCHEM_FORMAL_CHARGE>
0

> <JCHEM_GHOSE_FILTER>
1

> <JCHEM_IUPAC>
(1S,3aS,3bR,9aR,9bS,11aS)-1-hydroxy-1,9a,11a-trimethyl-1H,2H,3H,3aH,3bH,4H,5H,7H,8H,9H,9aH,9bH,10H,11H,11aH-cyclopenta[a]phenanthren-7-one

> <ALOGPS_LOGP>
3.61

> <JCHEM_LOGP>
3.6459999660000006

> <ALOGPS_LOGS>
-4.34

> <JCHEM_MDDR_LIKE_RULE>
0

> <JCHEM_NEUTRAL_CHARGE>
0

> <JCHEM_NUMBER_OF_RINGS>
4

> <JCHEM_PHYSIOLOGICAL_CHARGE>
0

> <JCHEM_PKA_STRONGEST_ACIDIC>
18.523731148751548

> <JCHEM_PKA_STRONGEST_BASIC>
-0.5280694266992777

> <JCHEM_POLAR_SURFACE_AREA>
37.3

> <JCHEM_REFRACTIVITY>
89.068

> <JCHEM_ROTATABLE_BOND_COUNT>
0

> <JCHEM_RULE_OF_FIVE>
1

> <ALOGPS_SOLUBILITY>
1.39e-02 g/l

> <JCHEM_TRADITIONAL_IUPAC>
tetrahydrofolic acid

> <JCHEM_VEBER_RULE>
1

$$$$
