
     RDKit          3D

 56 61  0  0  0  0  0  0  0  0999 V2000
    5.9497   -4.3146    0.0783 C   0  0  0  0  0  0  0  0  0  0  0  0
    4.9582   -3.8308   -0.0317 C   0  0  0  0  0  0  0  0  0  0  0  0
    3.9737   -3.7541    1.1000 C   0  0  0  0  0  0  0  0  0  0  0  0
    4.4652   -3.4712   -1.2277 C   0  0  0  0  0  0  0  0  0  0  0  0
    4.6214   -2.0588   -1.7306 C   0  0  0  0  0  0  0  0  0  0  0  0
    4.3314   -1.1865   -0.5478 C   0  0  0  0  0  0  0  0  0  0  0  0
    3.8442    0.1744   -0.7633 C   0  0  2  0  0  0  0  0  0  0  0  0
    3.3475    0.2880   -2.1571 C   0  0  0  0  0  0  0  0  0  0  0  0
    4.7433    1.2146   -0.5186 O   0  0  0  0  0  0  0  0  0  0  0  0
    5.1599    0.9953    0.9343 C   0  0  2  0  0  0  0  0  0  0  0  0
    5.9648    2.2017    1.2239 O   0  0  0  0  0  0  0  0  0  0  0  0
    6.5543    3.0315    0.1706 C   0  0  2  0  0  0  0  0  0  0  0  0
    5.1474    3.5880   -0.4727 C   0  0  0  0  0  0  0  0  0  0  0  0
    4.5713    4.1651    0.6703 O   0  0  0  0  0  0  0  0  0  0  0  0
    6.8324    1.7922   -0.9832 C   0  0  1  0  0  0  0  0  0  0  0  0
    8.0622    2.4746   -1.4852 O   0  0  0  0  0  0  0  0  0  0  0  0
    7.6858    1.0109    0.2574 C   0  0  2  0  0  0  0  0  0  0  0  0
    8.3435    0.0947   -0.7318 O   0  0  0  0  0  0  0  0  0  0  0  0
    6.4429   -0.0956    0.5220 C   0  0  1  0  0  0  0  0  0  0  0  0
    6.8138   -0.2270    1.9655 O   0  0  0  0  0  0  0  0  0  0  0  0
    2.6489    0.5469    0.2686 C   0  0  1  0  0  0  0  0  0  0  0  0
    2.0854    1.7413   -0.6694 C   0  0  0  0  0  0  0  0  0  0  0  0
    0.8901    1.1998   -1.3535 C   0  0  0  0  0  0  0  0  0  0  0  0
    0.3837    0.4319   -0.1786 C   0  0  2  0  0  0  0  0  0  0  0  0
    0.5256    1.2332    1.0467 C   0  0  0  0  0  0  0  0  0  0  0  0
    1.5894   -0.6182   -0.3119 C   0  0  2  0  0  0  0  0  0  0  0  0
    1.4696   -1.3228    1.2334 C   0  0  2  0  0  0  0  0  0  0  0  0
    2.0924   -2.6010    0.7032 O   0  0  0  0  0  0  0  0  0  0  0  0
   -0.0106   -1.9802    1.0409 C   0  0  0  0  0  0  0  0  0  0  0  0
   -1.0091   -0.7034    1.2254 C   0  0  2  0  0  0  0  0  0  0  0  0
   -2.3576   -1.5926    1.1772 C   0  0  1  0  0  0  0  0  0  0  0  0
   -2.1674   -2.7742    0.3622 C   0  0  0  0  0  0  0  0  0  0  0  0
   -2.7225   -1.5660    2.5933 C   0  0  0  0  0  0  0  0  0  0  0  0
   -4.0455   -1.6007    3.1351 C   0  0  0  0  0  0  0  0  0  0  0  0
   -5.2662   -1.1108    2.1546 C   0  0  2  0  0  0  0  0  0  0  0  0
   -6.1540   -2.2810    2.5529 O   0  0  0  0  0  0  0  0  0  0  0  0
   -4.6418   -1.8733    0.8368 C   0  0  0  0  0  0  0  0  0  0  0  0
   -4.2676   -3.1547    1.3658 C   0  0  0  0  0  0  0  0  0  0  0  0
   -5.4846   -2.2009   -0.1938 C   0  0  0  0  0  0  0  0  0  0  0  0
   -3.5767   -0.6778    0.6681 C   0  0  2  0  0  0  0  0  0  0  0  0
   -3.2128   -0.7796   -0.9903 C   0  0  1  0  0  0  0  0  0  0  0  0
   -4.0918    0.2955   -1.5373 O   0  0  0  0  0  0  0  0  0  0  0  0
   -4.9616    0.8686   -0.4645 C   0  0  2  0  0  0  0  0  0  0  0  0
   -6.1803    0.7298   -1.3823 O   0  0  0  0  0  0  0  0  0  0  0  0
   -7.2281    1.0540   -0.3534 C   0  0  2  0  0  0  0  0  0  0  0  0
   -8.4229    0.5061   -1.3304 C   0  0  0  0  0  0  0  0  0  0  0  0
   -8.1803   -0.8723   -1.1736 O   0  0  0  0  0  0  0  0  0  0  0  0
   -7.3087    2.6359   -0.9848 C   0  0  1  0  0  0  0  0  0  0  0  0
   -8.2949    3.0267    0.0670 O   0  0  0  0  0  0  0  0  0  0  0  0
   -5.9835    3.0793   -0.0113 C   0  0  2  0  0  0  0  0  0  0  0  0
   -5.9405    4.4387   -0.6378 O   0  0  0  0  0  0  0  0  0  0  0  0
   -4.8023    2.4756   -1.0765 C   0  0  1  0  0  0  0  0  0  0  0  0
   -3.7190    2.7936   -0.1071 O   0  0  0  0  0  0  0  0  0  0  0  0
   -2.0286    0.3530   -0.8205 C   0  0  0  0  0  0  0  0  0  0  0  0
   -0.8617   -0.3282   -0.3513 C   0  0  1  0  0  0  0  0  0  0  0  0
   -0.5773   -1.4648   -1.2285 C   0  0  0  0  0  0  0  0  0  0  0  0
  1  2  1  0
  2  3  1  0
  2  4  2  3
  4  5  1  0
  5  6  1  0
  7  6  1  1
  7  8  1  0
  7  9  1  0
 10  9  1  6
 10 11  1  0
 11 12  1  0
 12 13  1  6
 13 14  1  0
 12 15  1  0
 15 16  1  6
 15 17  1  0
 17 18  1  6
 17 19  1  0
 19 20  1  1
  7 21  1  0
 21 22  1  6
 22 23  1  0
 23 24  1  0
 24 25  1  1
 24 26  1  0
 26 27  1  1
 27 28  1  6
 27 29  1  0
 30 29  1  6
 30 31  1  0
 31 32  1  6
 31 33  1  0
 33 34  1  0
 34 35  1  0
 35 36  1  1
 35 37  1  0
 37 38  1  0
 37 39  1  0
 40 37  1  6
 40 41  1  0
 41 42  1  6
 43 42  1  6
 43 44  1  0
 44 45  1  0
 45 46  1  6
 46 47  1  0
 45 48  1  0
 48 49  1  1
 48 50  1  0
 50 51  1  6
 50 52  1  0
 52 53  1  1
 41 54  1  0
 54 55  1  0
 55 56  1  6
 19 10  1  0
 26 21  1  0
 55 30  1  0
 55 24  1  0
 40 31  1  0
 52 43  1  0
M  END
>  <zinc_id>  (1) 
ZINC000238809655

>  <smiles>  (1) 
CC(C)=CCC[C@](C)(O[C@@H]1O[C@H](CO)[C@@H](O)[C@H](O)[C@H]1O)[C@H]1CC[C@]2(C)[C@@H]1[C@H](O)C[C@@H]1[C@@]3(C)CC[C@H](O)C(C)(C)[C@@H]3[C@@H](O[C@@H]3O[C@H](CO)[C@@H](O)[C@H](O)[C@H]3O)C[C@]12C

$$$$
