59084697
  -OEChem-10051723003D

 43 44  0     1  0  0  0  0  0999 V2000
   -4.5129   -1.3054    1.2326 O   0  0  0  0  0  0  0  0  0  0  0  0
   -5.4164   -0.5078   -0.6873 O   0  0  0  0  0  0  0  0  0  0  0  0
    5.6291    0.0590   -0.4299 O   0  0  0  0  0  0  0  0  0  0  0  0
   -2.2110    0.3028    0.4666 C   0  0  2  0  0  0  0  0  0  0  0  0
   -2.9710   -0.6850   -0.5006 C   0  0  0  0  0  0  0  0  0  0  0  0
   -2.9153    1.6815    0.6022 C   0  0  0  0  0  0  0  0  0  0  0  0
   -0.7221    0.4458    0.1529 C   0  0  0  0  0  0  0  0  0  0  0  0
   -2.9859   -0.2118   -1.9681 C   0  0  0  0  0  0  0  0  0  0  0  0
   -2.3571   -2.1028   -0.4764 C   0  0  0  0  0  0  0  0  0  0  0  0
   -4.4300   -0.8162   -0.0318 C   0  0  0  0  0  0  0  0  0  0  0  0
    0.1948   -0.4525    0.6996 C   0  0  0  0  0  0  0  0  0  0  0  0
   -2.2453    2.5974    1.6229 C   0  0  0  0  0  0  0  0  0  0  0  0
   -0.2816    1.4728   -0.6765 C   0  0  0  0  0  0  0  0  0  0  0  0
    1.5665   -0.3340    0.4226 C   0  0  0  0  0  0  0  0  0  0  0  0
    2.0144    0.7104   -0.4209 C   0  0  0  0  0  0  0  0  0  0  0  0
    1.0775    1.6055   -0.9625 C   0  0  0  0  0  0  0  0  0  0  0  0
    2.5033   -1.2291    0.9641 C   0  0  0  0  0  0  0  0  0  0  0  0
    3.3861    0.8289   -0.6979 C   0  0  0  0  0  0  0  0  0  0  0  0
    4.3030   -0.0693   -0.1512 C   0  0  0  0  0  0  0  0  0  0  0  0
    3.8624   -1.0965    0.6781 C   0  0  0  0  0  0  0  0  0  0  0  0
    6.5116   -0.8937    0.1615 C   0  0  0  0  0  0  0  0  0  0  0  0
   -2.2603   -0.1345    1.4760 H   0  0  0  0  0  0  0  0  0  0  0  0
   -3.9480    1.5294    0.9377 H   0  0  0  0  0  0  0  0  0  0  0  0
   -2.9873    2.2039   -0.3572 H   0  0  0  0  0  0  0  0  0  0  0  0
   -3.4492    0.7745   -2.0739 H   0  0  0  0  0  0  0  0  0  0  0  0
   -3.5611   -0.9011   -2.5984 H   0  0  0  0  0  0  0  0  0  0  0  0
   -1.9764   -0.1595   -2.3880 H   0  0  0  0  0  0  0  0  0  0  0  0
   -3.0085   -2.8191   -0.9921 H   0  0  0  0  0  0  0  0  0  0  0  0
   -2.2302   -2.4696    0.5482 H   0  0  0  0  0  0  0  0  0  0  0  0
   -1.3830   -2.1355   -0.9750 H   0  0  0  0  0  0  0  0  0  0  0  0
   -0.1544   -1.2487    1.3544 H   0  0  0  0  0  0  0  0  0  0  0  0
   -1.2635    2.9534    1.3035 H   0  0  0  0  0  0  0  0  0  0  0  0
   -2.1331    2.0920    2.5877 H   0  0  0  0  0  0  0  0  0  0  0  0
   -2.8687    3.4835    1.7844 H   0  0  0  0  0  0  0  0  0  0  0  0
   -0.9656    2.1751   -1.1416 H   0  0  0  0  0  0  0  0  0  0  0  0
    1.3991    2.4122   -1.6180 H   0  0  0  0  0  0  0  0  0  0  0  0
    2.1804   -2.0394    1.6147 H   0  0  0  0  0  0  0  0  0  0  0  0
    3.7471    1.6266   -1.3448 H   0  0  0  0  0  0  0  0  0  0  0  0
   -5.4429   -1.3789    1.5356 H   0  0  0  0  0  0  0  0  0  0  0  0
    4.5195   -1.8283    1.1356 H   0  0  0  0  0  0  0  0  0  0  0  0
    7.5254   -0.6419   -0.1666 H   0  0  0  0  0  0  0  0  0  0  0  0
    6.3039   -1.9090   -0.1930 H   0  0  0  0  0  0  0  0  0  0  0  0
    6.5034   -0.8255    1.2546 H   0  0  0  0  0  0  0  0  0  0  0  0
  1 10  1  0  0  0  0
  1 39  1  0  0  0  0
  2 10  2  0  0  0  0
  3 19  1  0  0  0  0
  3 21  1  0  0  0  0
  4  5  1  0  0  0  0
  4  6  1  0  0  0  0
  4  7  1  0  0  0  0
  4 22  1  0  0  0  0
  5  8  1  0  0  0  0
  5  9  1  0  0  0  0
  5 10  1  0  0  0  0
  6 12  1  0  0  0  0
  6 23  1  0  0  0  0
  6 24  1  0  0  0  0
  7 11  2  0  0  0  0
  7 13  1  0  0  0  0
  8 25  1  0  0  0  0
  8 26  1  0  0  0  0
  8 27  1  0  0  0  0
  9 28  1  0  0  0  0
  9 29  1  0  0  0  0
  9 30  1  0  0  0  0
 11 14  1  0  0  0  0
 11 31  1  0  0  0  0
 12 32  1  0  0  0  0
 12 33  1  0  0  0  0
 12 34  1  0  0  0  0
 13 16  2  0  0  0  0
 13 35  1  0  0  0  0
 14 15  2  0  0  0  0
 14 17  1  0  0  0  0
 15 16  1  0  0  0  0
 15 18  1  0  0  0  0
 16 36  1  0  0  0  0
 17 20  2  0  0  0  0
 17 37  1  0  0  0  0
 18 19  2  0  0  0  0
 18 38  1  0  0  0  0
 19 20  1  0  0  0  0
 20 40  1  0  0  0  0
 21 41  1  0  0  0  0
 21 42  1  0  0  0  0
 21 43  1  0  0  0  0
M  END
> <DATABASE_ID>
DB13143

> <DATABASE_NAME>
drugbank

> <ORIGINAL_SOURCE>
PUBCHEM

> <ORIGINAL_SOURCE_URL>
https://pubchem.ncbi.nlm.nih.gov/rest/pug/compound/inchikey/KHLJKRBMZVNZOC-MRXNPFEDSA-N/SDF?record_type=3d

> <SMILES>
CC[C@H](C1=CC=C2C=C(OC)C=CC2=C1)C(C)(C)C(O)=O

> <INCHI_IDENTIFIER>
InChI=1S/C18H22O3/c1-5-16(18(2,3)17(19)20)14-7-6-13-11-15(21-4)9-8-12(13)10-14/h6-11,16H,5H2,1-4H3,(H,19,20)/t16-/m1/s1

> <INCHI_KEY>
KHLJKRBMZVNZOC-MRXNPFEDSA-N

> <FORMULA>
C18H22O3

> <MOLECULAR_WEIGHT>
286.371

> <EXACT_MASS>
286.156894568

> <JCHEM_ACCEPTOR_COUNT>
3

> <JCHEM_ATOM_COUNT>
43

> <JCHEM_AVERAGE_POLARIZABILITY>
32.23221995932139

> <JCHEM_BIOAVAILABILITY>
1

> <JCHEM_DONOR_COUNT>
1

> <JCHEM_FORMAL_CHARGE>
0

> <JCHEM_GHOSE_FILTER>
1

> <JCHEM_IUPAC>
(3R)-3-(6-methoxynaphthalen-2-yl)-2,2-dimethylpentanoic acid

> <ALOGPS_LOGP>
4.69

> <JCHEM_LOGP>
4.717956603000001

> <ALOGPS_LOGS>
-5.45

> <JCHEM_MDDR_LIKE_RULE>
0

> <JCHEM_NUMBER_OF_RINGS>
2

> <JCHEM_PHYSIOLOGICAL_CHARGE>
-1

> <JCHEM_PKA_STRONGEST_ACIDIC>
4.530218811879967

> <JCHEM_PKA_STRONGEST_BASIC>
-4.828411410267222

> <JCHEM_POLAR_SURFACE_AREA>
46.53

> <JCHEM_REFRACTIVITY>
83.1051

> <JCHEM_ROTATABLE_BOND_COUNT>
5

> <JCHEM_RULE_OF_FIVE>
1

> <ALOGPS_SOLUBILITY>
1.02e-03 g/l

> <JCHEM_TRADITIONAL_IUPAC>
(3R)-3-(6-methoxynaphthalen-2-yl)-2,2-dimethylpentanoic acid

> <JCHEM_VEBER_RULE>
0

$$$$
