9053
  -OEChem-08212012343D

 56 59  0     1  0  0  0  0  0999 V2000
    3.3580   -2.9671   -0.4343 F   0  0  0  0  0  0  0  0  0  0  0  0
   -0.0330    2.1717   -1.4771 O   0  0  0  0  0  0  0  0  0  0  0  0
   -5.4771   -0.2608   -0.2442 O   0  0  0  0  0  0  0  0  0  0  0  0
   -5.8814    2.2509    0.8178 O   0  0  0  0  0  0  0  0  0  0  0  0
    5.9631    0.5546    1.7684 O   0  0  0  0  0  0  0  0  0  0  0  0
   -2.0114    0.1628   -0.1835 C   0  0  1  0  0  0  0  0  0  0  0  0
   -1.0406   -0.9986    0.1075 C   0  0  2  0  0  0  0  0  0  0  0  0
    0.3344   -0.8227   -0.5511 C   0  0  1  0  0  0  0  0  0  0  0  0
    0.9907    0.4912    0.0032 C   0  0  2  0  0  0  0  0  0  0  0  0
   -3.2482   -0.3538    0.5916 C   0  0  2  0  0  0  0  0  0  0  0  0
   -1.8656   -2.2440   -0.2074 C   0  0  0  0  0  0  0  0  0  0  0  0
   -1.3916    1.4480    0.3939 C   0  0  0  0  0  0  0  0  0  0  0  0
   -3.2941   -1.8709    0.2599 C   0  0  1  0  0  0  0  0  0  0  0  0
    0.0355    1.7200   -0.1318 C   0  0  2  0  0  0  0  0  0  0  0  0
    2.4640    0.6950   -0.5328 C   0  0  1  0  0  0  0  0  0  0  0  0
    1.2241   -2.0452   -0.2759 C   0  0  0  0  0  0  0  0  0  0  0  0
   -2.3460    0.3386   -1.6878 C   0  0  0  0  0  0  0  0  0  0  0  0
    2.6434   -1.8602   -0.7925 C   0  0  1  0  0  0  0  0  0  0  0  0
    3.2431   -0.5935   -0.2351 C   0  0  0  0  0  0  0  0  0  0  0  0
   -4.5242    0.3489    0.2390 C   0  0  0  0  0  0  0  0  0  0  0  0
   -3.7372   -2.6956    1.4646 C   0  0  0  0  0  0  0  0  0  0  0  0
    2.5483    0.9674   -2.0518 C   0  0  0  0  0  0  0  0  0  0  0  0
    3.1031    1.8961    0.1488 C   0  0  0  0  0  0  0  0  0  0  0  0
    4.3622   -0.6292    0.5056 C   0  0  0  0  0  0  0  0  0  0  0  0
   -4.5669    1.8377    0.5104 C   0  0  0  0  0  0  0  0  0  0  0  0
    4.2157    1.8641    0.8885 C   0  0  0  0  0  0  0  0  0  0  0  0
    4.9317    0.5946    1.1061 C   0  0  0  0  0  0  0  0  0  0  0  0
   -0.8589   -1.0295    1.1956 H   0  0  0  0  0  0  0  0  0  0  0  0
    0.2156   -0.7436   -1.6363 H   0  0  0  0  0  0  0  0  0  0  0  0
    1.0863    0.3359    1.0919 H   0  0  0  0  0  0  0  0  0  0  0  0
   -3.1001   -0.2243    1.6729 H   0  0  0  0  0  0  0  0  0  0  0  0
   -1.8615   -2.4535   -1.2834 H   0  0  0  0  0  0  0  0  0  0  0  0
   -1.4755   -3.1316    0.3016 H   0  0  0  0  0  0  0  0  0  0  0  0
   -1.3443    1.3738    1.4880 H   0  0  0  0  0  0  0  0  0  0  0  0
   -2.0111    2.3175    0.1574 H   0  0  0  0  0  0  0  0  0  0  0  0
   -3.9826   -2.0944   -0.5641 H   0  0  0  0  0  0  0  0  0  0  0  0
    0.4405    2.5516    0.4555 H   0  0  0  0  0  0  0  0  0  0  0  0
    0.7972   -2.9412   -0.7426 H   0  0  0  0  0  0  0  0  0  0  0  0
    1.2564   -2.2580    0.8012 H   0  0  0  0  0  0  0  0  0  0  0  0
   -2.9535   -0.4836   -2.0799 H   0  0  0  0  0  0  0  0  0  0  0  0
   -2.9071    1.2613   -1.8662 H   0  0  0  0  0  0  0  0  0  0  0  0
   -1.4566    0.3857   -2.3194 H   0  0  0  0  0  0  0  0  0  0  0  0
    2.6513   -1.8300   -1.8868 H   0  0  0  0  0  0  0  0  0  0  0  0
   -3.7632   -3.7610    1.2132 H   0  0  0  0  0  0  0  0  0  0  0  0
   -3.0537   -2.5667    2.3108 H   0  0  0  0  0  0  0  0  0  0  0  0
   -4.7405   -2.4014    1.7893 H   0  0  0  0  0  0  0  0  0  0  0  0
    1.9329    0.2786   -2.6381 H   0  0  0  0  0  0  0  0  0  0  0  0
    2.2368    1.9850   -2.3113 H   0  0  0  0  0  0  0  0  0  0  0  0
    3.5797    0.8640   -2.4146 H   0  0  0  0  0  0  0  0  0  0  0  0
    2.6343    2.8666    0.0018 H   0  0  0  0  0  0  0  0  0  0  0  0
   -0.5925    2.9666   -1.4959 H   0  0  0  0  0  0  0  0  0  0  0  0
    4.8875   -1.5564    0.7080 H   0  0  0  0  0  0  0  0  0  0  0  0
   -4.2241    2.3840   -0.3701 H   0  0  0  0  0  0  0  0  0  0  0  0
   -3.9460    2.0719    1.3785 H   0  0  0  0  0  0  0  0  0  0  0  0
    4.6232    2.7642    1.3338 H   0  0  0  0  0  0  0  0  0  0  0  0
   -5.8518    3.2091    0.9808 H   0  0  0  0  0  0  0  0  0  0  0  0
  1 18  1  0  0  0  0
  2 14  1  0  0  0  0
  2 51  1  0  0  0  0
  3 20  2  0  0  0  0
  4 25  1  0  0  0  0
  4 56  1  0  0  0  0
  5 27  2  0  0  0  0
  6  7  1  0  0  0  0
  6 10  1  0  0  0  0
  6 12  1  0  0  0  0
  6 17  1  0  0  0  0
  7  8  1  0  0  0  0
  7 11  1  0  0  0  0
  7 28  1  0  0  0  0
  8  9  1  0  0  0  0
  8 16  1  0  0  0  0
  8 29  1  0  0  0  0
  9 14  1  0  0  0  0
  9 15  1  0  0  0  0
  9 30  1  0  0  0  0
 10 13  1  0  0  0  0
 10 20  1  0  0  0  0
 10 31  1  0  0  0  0
 11 13  1  0  0  0  0
 11 32  1  0  0  0  0
 11 33  1  0  0  0  0
 12 14  1  0  0  0  0
 12 34  1  0  0  0  0
 12 35  1  0  0  0  0
 13 21  1  0  0  0  0
 13 36  1  0  0  0  0
 14 37  1  0  0  0  0
 15 19  1  0  0  0  0
 15 22  1  0  0  0  0
 15 23  1  0  0  0  0
 16 18  1  0  0  0  0
 16 38  1  0  0  0  0
 16 39  1  0  0  0  0
 17 40  1  0  0  0  0
 17 41  1  0  0  0  0
 17 42  1  0  0  0  0
 18 19  1  0  0  0  0
 18 43  1  0  0  0  0
 19 24  2  0  0  0  0
 20 25  1  0  0  0  0
 21 44  1  0  0  0  0
 21 45  1  0  0  0  0
 21 46  1  0  0  0  0
 22 47  1  0  0  0  0
 22 48  1  0  0  0  0
 22 49  1  0  0  0  0
 23 26  2  0  0  0  0
 23 50  1  0  0  0  0
 24 27  1  0  0  0  0
 24 52  1  0  0  0  0
 25 53  1  0  0  0  0
 25 54  1  0  0  0  0
 26 27  1  0  0  0  0
 26 55  1  0  0  0  0
M  END
> <DATABASE_ID>
DB08971

> <DATABASE_NAME>
drugbank

> <ORIGINAL_SOURCE>
PUBCHEM

> <ORIGINAL_SOURCE_URL>
https://pubchem.ncbi.nlm.nih.gov/rest/pug/compound/inchikey/GAKMQHDJQHZUTJ-ULHLPKEOSA-N/SDF?record_type=3d

> <SMILES>
[H][C@@]12C[C@@H](C)[C@H](C(=O)CO)[C@@]1(C)C[C@H](O)[C@@]1([H])[C@@]2([H])C[C@H](F)C2=CC(=O)C=C[C@]12C

> <INCHI_IDENTIFIER>
InChI=1S/C22H29FO4/c1-11-6-14-13-8-16(23)15-7-12(25)4-5-21(15,2)20(13)17(26)9-22(14,3)19(11)18(27)10-24/h4-5,7,11,13-14,16-17,19-20,24,26H,6,8-10H2,1-3H3/t11-,13+,14+,16+,17+,19-,20-,21+,22+/m1/s1

> <INCHI_KEY>
GAKMQHDJQHZUTJ-ULHLPKEOSA-N

> <FORMULA>
C22H29FO4

> <MOLECULAR_WEIGHT>
376.4617

> <EXACT_MASS>
376.204987621

> <JCHEM_ACCEPTOR_COUNT>
4

> <JCHEM_ATOM_COUNT>
56

> <JCHEM_AVERAGE_NEUTRAL_MICROSPECIES_CHARGE>
-9.182339367466701e-08

> <JCHEM_AVERAGE_POLARIZABILITY>
40.1356716363557

> <JCHEM_BIOAVAILABILITY>
1

> <JCHEM_DONOR_COUNT>
2

> <JCHEM_FORMAL_CHARGE>
0

> <JCHEM_GHOSE_FILTER>
1

> <JCHEM_IUPAC>
(1S,2R,3aS,3bS,5S,9aR,9bS,10S,11aS)-5-fluoro-10-hydroxy-1-(2-hydroxyacetyl)-2,9a,11a-trimethyl-1H,2H,3H,3aH,3bH,4H,5H,7H,9aH,9bH,10H,11H,11aH-cyclopenta[a]phenanthren-7-one

> <ALOGPS_LOGP>
2.09

> <JCHEM_LOGP>
1.9677148506666664

> <ALOGPS_LOGS>
-4.05

> <JCHEM_MDDR_LIKE_RULE>
0

> <JCHEM_NEUTRAL_CHARGE>
0

> <JCHEM_NUMBER_OF_RINGS>
4

> <JCHEM_PHYSIOLOGICAL_CHARGE>
0

> <JCHEM_PKA>
15.174145968482895

> <JCHEM_PKA_STRONGEST_ACIDIC>
13.84259641743626

> <JCHEM_PKA_STRONGEST_BASIC>
-0.23280733669670658

> <JCHEM_POLAR_SURFACE_AREA>
74.6

> <JCHEM_REFRACTIVITY>
101.46529999999997

> <JCHEM_ROTATABLE_BOND_COUNT>
2

> <JCHEM_RULE_OF_FIVE>
1

> <ALOGPS_SOLUBILITY>
3.39e-02 g/l

> <JCHEM_TRADITIONAL_IUPAC>
unii-71TH42O2CQ

> <JCHEM_VEBER_RULE>
0

$$$$
