124653
  -OEChem-12181917153D

 55 58  0     1  0  0  0  0  0999 V2000
   -3.1863   -0.0207    1.9488 O   0  0  0  0  0  0  0  0  0  0  0  0
    0.3471    2.6277   -0.9087 O   0  0  0  0  0  0  0  0  0  0  0  0
   -4.5031    1.5820   -0.2811 O   0  0  0  0  0  0  0  0  0  0  0  0
   -6.9132    0.4673    0.4411 O   0  0  0  0  0  0  0  0  0  0  0  0
    6.0501    0.5975    1.6144 O   0  0  0  0  0  0  0  0  0  0  0  0
   -1.0455   -0.9904    0.2087 C   0  0  2  0  0  0  0  0  0  0  0  0
   -1.9897    0.1741   -0.1816 C   0  0  1  0  0  0  0  0  0  0  0  0
    0.3384   -0.8935   -0.4532 C   0  0  1  0  0  0  0  0  0  0  0  0
    1.0193    0.4404   -0.0126 C   0  0  1  0  0  0  0  0  0  0  0  0
   -3.2759   -0.2824    0.5511 C   0  0  1  0  0  0  0  0  0  0  0  0
   -1.8914   -2.2350   -0.0492 C   0  0  0  0  0  0  0  0  0  0  0  0
   -1.3523    1.4777    0.3103 C   0  0  0  0  0  0  0  0  0  0  0  0
    2.4755    0.5965   -0.5755 C   0  0  1  0  0  0  0  0  0  0  0  0
   -3.3272   -1.8072    0.3145 C   0  0  0  0  0  0  0  0  0  0  0  0
    1.2112   -2.1046   -0.0931 C   0  0  0  0  0  0  0  0  0  0  0  0
    0.0435    1.6111   -0.2878 C   0  0  0  0  0  0  0  0  0  0  0  0
    2.6214   -1.9922   -0.6897 C   0  0  1  0  0  0  0  0  0  0  0  0
   -2.2411    0.2765   -1.7122 C   0  0  0  0  0  0  0  0  0  0  0  0
    3.2594   -0.6864   -0.2180 C   0  0  0  0  0  0  0  0  0  0  0  0
   -4.5279    0.4193    0.1197 C   0  0  0  0  0  0  0  0  0  0  0  0
    2.5078    0.7867   -2.1097 C   0  0  0  0  0  0  0  0  0  0  0  0
    3.1305    1.8333    0.0284 C   0  0  0  0  0  0  0  0  0  0  0  0
    3.3981   -3.2815   -0.3868 C   0  0  0  0  0  0  0  0  0  0  0  0
    4.4030   -0.6597    0.4894 C   0  0  0  0  0  0  0  0  0  0  0  0
   -5.8096   -0.3818    0.2073 C   0  0  0  0  0  0  0  0  0  0  0  0
    4.2648    1.8479    0.7330 C   0  0  0  0  0  0  0  0  0  0  0  0
    4.9930    0.5975    0.9926 C   0  0  0  0  0  0  0  0  0  0  0  0
   -0.8745   -0.9553    1.2973 H   0  0  0  0  0  0  0  0  0  0  0  0
    0.2128   -0.8996   -1.5412 H   0  0  0  0  0  0  0  0  0  0  0  0
    1.1082    0.4188    1.0864 H   0  0  0  0  0  0  0  0  0  0  0  0
   -1.5659   -3.0840    0.5608 H   0  0  0  0  0  0  0  0  0  0  0  0
   -1.8391   -2.5438   -1.0994 H   0  0  0  0  0  0  0  0  0  0  0  0
   -1.2302    1.5074    1.3984 H   0  0  0  0  0  0  0  0  0  0  0  0
   -1.9498    2.3492    0.0224 H   0  0  0  0  0  0  0  0  0  0  0  0
   -3.9831   -2.0986   -0.5125 H   0  0  0  0  0  0  0  0  0  0  0  0
   -3.6557   -2.3422    1.2130 H   0  0  0  0  0  0  0  0  0  0  0  0
    0.7356   -3.0197   -0.4674 H   0  0  0  0  0  0  0  0  0  0  0  0
    1.2741   -2.2063    0.9990 H   0  0  0  0  0  0  0  0  0  0  0  0
    2.5360   -1.9490   -1.7827 H   0  0  0  0  0  0  0  0  0  0  0  0
   -1.3127    0.3824   -2.2812 H   0  0  0  0  0  0  0  0  0  0  0  0
   -2.7619   -0.5994   -2.1116 H   0  0  0  0  0  0  0  0  0  0  0  0
   -2.8409    1.1557   -1.9673 H   0  0  0  0  0  0  0  0  0  0  0  0
    3.5358    0.7332   -2.4911 H   0  0  0  0  0  0  0  0  0  0  0  0
    1.9277    0.0280   -2.6429 H   0  0  0  0  0  0  0  0  0  0  0  0
    2.1115    1.7604   -2.4169 H   0  0  0  0  0  0  0  0  0  0  0  0
    2.6577    2.7967   -0.1436 H   0  0  0  0  0  0  0  0  0  0  0  0
   -3.1832    0.9417    2.0853 H   0  0  0  0  0  0  0  0  0  0  0  0
    4.3971   -3.2558   -0.8355 H   0  0  0  0  0  0  0  0  0  0  0  0
    3.5033   -3.4494    0.6907 H   0  0  0  0  0  0  0  0  0  0  0  0
    2.8773   -4.1498   -0.8061 H   0  0  0  0  0  0  0  0  0  0  0  0
    4.9511   -1.5586    0.7466 H   0  0  0  0  0  0  0  0  0  0  0  0
   -5.7660   -1.0754    1.0505 H   0  0  0  0  0  0  0  0  0  0  0  0
   -5.9693   -0.9364   -0.7211 H   0  0  0  0  0  0  0  0  0  0  0  0
    4.6785    2.7724    1.1185 H   0  0  0  0  0  0  0  0  0  0  0  0
   -7.0183    1.0326   -0.3432 H   0  0  0  0  0  0  0  0  0  0  0  0
  1 10  1  0  0  0  0
  1 47  1  0  0  0  0
  2 16  2  0  0  0  0
  3 20  2  0  0  0  0
  4 25  1  0  0  0  0
  4 55  1  0  0  0  0
  5 27  2  0  0  0  0
  6  7  1  0  0  0  0
  6  8  1  0  0  0  0
  6 11  1  0  0  0  0
  6 28  1  0  0  0  0
  7 10  1  0  0  0  0
  7 12  1  0  0  0  0
  7 18  1  0  0  0  0
  8  9  1  0  0  0  0
  8 15  1  0  0  0  0
  8 29  1  0  0  0  0
  9 13  1  0  0  0  0
  9 16  1  0  0  0  0
  9 30  1  0  0  0  0
 10 14  1  0  0  0  0
 10 20  1  0  0  0  0
 11 14  1  0  0  0  0
 11 31  1  0  0  0  0
 11 32  1  0  0  0  0
 12 16  1  0  0  0  0
 12 33  1  0  0  0  0
 12 34  1  0  0  0  0
 13 19  1  0  0  0  0
 13 21  1  0  0  0  0
 13 22  1  0  0  0  0
 14 35  1  0  0  0  0
 14 36  1  0  0  0  0
 15 17  1  0  0  0  0
 15 37  1  0  0  0  0
 15 38  1  0  0  0  0
 17 19  1  0  0  0  0
 17 23  1  0  0  0  0
 17 39  1  0  0  0  0
 18 40  1  0  0  0  0
 18 41  1  0  0  0  0
 18 42  1  0  0  0  0
 19 24  2  0  0  0  0
 20 25  1  0  0  0  0
 21 43  1  0  0  0  0
 21 44  1  0  0  0  0
 21 45  1  0  0  0  0
 22 26  2  0  0  0  0
 22 46  1  0  0  0  0
 23 48  1  0  0  0  0
 23 49  1  0  0  0  0
 23 50  1  0  0  0  0
 24 27  1  0  0  0  0
 24 51  1  0  0  0  0
 25 52  1  0  0  0  0
 25 53  1  0  0  0  0
 26 27  1  0  0  0  0
 26 54  1  0  0  0  0
M  END
> <DATABASE_ID>
DB12952

> <DATABASE_NAME>
drugbank

> <ORIGINAL_SOURCE>
PUBCHEM

> <ORIGINAL_SOURCE_URL>
https://pubchem.ncbi.nlm.nih.gov/rest/pug/compound/inchikey/SVYCRJXQZUCUND-PQXSVQADSA-N/SDF?record_type=3d

> <SMILES>
[H][C@@]12CC[C@](O)(C(=O)CO)[C@@]1(C)CC(=O)[C@@]1([H])[C@@]2([H])C[C@H](C)C2=CC(=O)C=C[C@]12C

> <INCHI_IDENTIFIER>
InChI=1S/C22H28O5/c1-12-8-14-15-5-7-22(27,18(26)11-23)21(15,3)10-17(25)19(14)20(2)6-4-13(24)9-16(12)20/h4,6,9,12,14-15,19,23,27H,5,7-8,10-11H2,1-3H3/t12-,14-,15-,19+,20-,21-,22-/m0/s1

> <INCHI_KEY>
SVYCRJXQZUCUND-PQXSVQADSA-N

> <FORMULA>
C22H28O5

> <MOLECULAR_WEIGHT>
372.461

> <EXACT_MASS>
372.193674002

> <JCHEM_ACCEPTOR_COUNT>
5

> <JCHEM_ATOM_COUNT>
55

> <JCHEM_AVERAGE_NEUTRAL_MICROSPECIES_CHARGE>
-2.775697134512657e-06

> <JCHEM_AVERAGE_POLARIZABILITY>
40.26943281353168

> <JCHEM_BIOAVAILABILITY>
1

> <JCHEM_DONOR_COUNT>
2

> <JCHEM_FORMAL_CHARGE>
0

> <JCHEM_GHOSE_FILTER>
1

> <JCHEM_IUPAC>
(1R,3aS,3bS,5S,9aR,9bS,11aS)-1-hydroxy-1-(2-hydroxyacetyl)-5,9a,11a-trimethyl-1H,2H,3H,3aH,3bH,4H,5H,7H,9aH,9bH,10H,11H,11aH-cyclopenta[a]phenanthrene-7,10-dione

> <ALOGPS_LOGP>
2.24

> <JCHEM_LOGP>
1.9455232743333324

> <ALOGPS_LOGS>
-3.80

> <JCHEM_MDDR_LIKE_RULE>
0

> <JCHEM_NEUTRAL_CHARGE>
0

> <JCHEM_NUMBER_OF_RINGS>
4

> <JCHEM_PHYSIOLOGICAL_CHARGE>
0

> <JCHEM_PKA>
13.91019753903822

> <JCHEM_PKA_STRONGEST_ACIDIC>
12.577627371690253

> <JCHEM_PKA_STRONGEST_BASIC>
-3.3299891188899413

> <JCHEM_POLAR_SURFACE_AREA>
91.67

> <JCHEM_REFRACTIVITY>
102.11669999999995

> <JCHEM_ROTATABLE_BOND_COUNT>
2

> <JCHEM_RULE_OF_FIVE>
1

> <ALOGPS_SOLUBILITY>
5.87e-02 g/l

> <JCHEM_TRADITIONAL_IUPAC>
doravirine

> <JCHEM_VEBER_RULE>
0

$$$$
