11954041
  -OEChem-10061700213D

 50 53  0     1  0  0  0  0  0999 V2000
   -4.6642   -0.8594    0.5471 O   0  0  0  0  0  0  0  0  0  0  0  0
    0.2157   -2.1947    0.5911 O   0  0  0  0  0  0  0  0  0  0  0  0
    6.2778    0.0569    0.1147 O   0  0  0  0  0  0  0  0  0  0  0  0
   -2.2583   -0.3638    0.3259 C   0  0  1  0  0  0  0  0  0  0  0  0
   -1.5261    0.9935    0.2413 C   0  0  2  0  0  0  0  0  0  0  0  0
   -0.0160    0.8968    0.5079 C   0  0  1  0  0  0  0  0  0  0  0  0
    0.6167   -0.0645   -0.5474 C   0  0  2  0  0  0  0  0  0  0  0  0
   -3.7282    0.0968    0.0665 C   0  0  2  0  0  0  0  0  0  0  0  0
   -1.6332   -1.3200   -0.7168 C   0  0  0  0  0  0  0  0  0  0  0  0
   -2.3832    1.9080    1.1138 C   0  0  0  0  0  0  0  0  0  0  0  0
   -0.0985   -1.4454   -0.5802 C   0  0  2  0  0  0  0  0  0  0  0  0
   -3.8286    1.4153    0.8828 C   0  0  0  0  0  0  0  0  0  0  0  0
    0.6379    2.2966    0.5270 C   0  0  0  0  0  0  0  0  0  0  0  0
   -2.1890   -1.0182    1.7392 C   0  0  0  0  0  0  0  0  0  0  0  0
    2.1306   -0.0951   -0.3649 C   0  0  0  0  0  0  0  0  0  0  0  0
    1.9831    2.4053   -0.1883 C   0  0  0  0  0  0  0  0  0  0  0  0
    2.7843    1.1350   -0.1470 C   0  0  0  0  0  0  0  0  0  0  0  0
   -4.0245    0.3582   -1.3559 C   0  0  0  0  0  0  0  0  0  0  0  0
    2.9090   -1.2579   -0.4514 C   0  0  0  0  0  0  0  0  0  0  0  0
    4.1764    1.1814    0.0070 C   0  0  0  0  0  0  0  0  0  0  0  0
   -0.3392   -3.5001    0.5347 C   0  0  0  0  0  0  0  0  0  0  0  0
    4.2952   -1.2057   -0.2845 C   0  0  0  0  0  0  0  0  0  0  0  0
    4.9277    0.0109   -0.0500 C   0  0  0  0  0  0  0  0  0  0  0  0
   -4.2653    0.5702   -2.5127 C   0  0  0  0  0  0  0  0  0  0  0  0
   -1.6194    1.3808   -0.7863 H   0  0  0  0  0  0  0  0  0  0  0  0
    0.1528    0.4694    1.5049 H   0  0  0  0  0  0  0  0  0  0  0  0
    0.4507    0.3800   -1.5414 H   0  0  0  0  0  0  0  0  0  0  0  0
   -1.8082   -0.9230   -1.7247 H   0  0  0  0  0  0  0  0  0  0  0  0
   -2.1509   -2.2834   -0.7001 H   0  0  0  0  0  0  0  0  0  0  0  0
   -2.2809    2.9609    0.8328 H   0  0  0  0  0  0  0  0  0  0  0  0
   -2.1131    1.8222    2.1722 H   0  0  0  0  0  0  0  0  0  0  0  0
    0.2764   -1.9993   -1.4519 H   0  0  0  0  0  0  0  0  0  0  0  0
   -4.3247    1.2550    1.8477 H   0  0  0  0  0  0  0  0  0  0  0  0
   -4.4105    2.1824    0.3576 H   0  0  0  0  0  0  0  0  0  0  0  0
    0.7740    2.5850    1.5784 H   0  0  0  0  0  0  0  0  0  0  0  0
   -0.0270    3.0579    0.1020 H   0  0  0  0  0  0  0  0  0  0  0  0
   -1.1747   -1.1254    2.1246 H   0  0  0  0  0  0  0  0  0  0  0  0
   -2.7241   -0.4307    2.4932 H   0  0  0  0  0  0  0  0  0  0  0  0
   -2.6613   -2.0057    1.7375 H   0  0  0  0  0  0  0  0  0  0  0  0
    2.5479    3.2392    0.2458 H   0  0  0  0  0  0  0  0  0  0  0  0
    1.8148    2.6581   -1.2432 H   0  0  0  0  0  0  0  0  0  0  0  0
   -4.4967   -1.7005    0.0881 H   0  0  0  0  0  0  0  0  0  0  0  0
    2.4622   -2.2261   -0.6545 H   0  0  0  0  0  0  0  0  0  0  0  0
    4.6771    2.1340    0.1625 H   0  0  0  0  0  0  0  0  0  0  0  0
    0.1892   -4.1098    1.2744 H   0  0  0  0  0  0  0  0  0  0  0  0
   -0.1859   -3.9666   -0.4441 H   0  0  0  0  0  0  0  0  0  0  0  0
   -1.3941   -3.5232    0.8098 H   0  0  0  0  0  0  0  0  0  0  0  0
    4.8701   -2.1261   -0.3468 H   0  0  0  0  0  0  0  0  0  0  0  0
   -4.4780    0.7582   -3.5389 H   0  0  0  0  0  0  0  0  0  0  0  0
    6.6351   -0.8449    0.0432 H   0  0  0  0  0  0  0  0  0  0  0  0
  1  8  1  0  0  0  0
  1 42  1  0  0  0  0
  2 11  1  0  0  0  0
  2 21  1  0  0  0  0
  3 23  1  0  0  0  0
  3 50  1  0  0  0  0
  4  5  1  0  0  0  0
  4  8  1  0  0  0  0
  4  9  1  0  0  0  0
  4 14  1  0  0  0  0
  5  6  1  0  0  0  0
  5 10  1  0  0  0  0
  5 25  1  0  0  0  0
  6  7  1  0  0  0  0
  6 13  1  0  0  0  0
  6 26  1  0  0  0  0
  7 11  1  0  0  0  0
  7 15  1  0  0  0  0
  7 27  1  0  0  0  0
  8 12  1  0  0  0  0
  8 18  1  0  0  0  0
  9 11  1  0  0  0  0
  9 28  1  0  0  0  0
  9 29  1  0  0  0  0
 10 12  1  0  0  0  0
 10 30  1  0  0  0  0
 10 31  1  0  0  0  0
 11 32  1  0  0  0  0
 12 33  1  0  0  0  0
 12 34  1  0  0  0  0
 13 16  1  0  0  0  0
 13 35  1  0  0  0  0
 13 36  1  0  0  0  0
 14 37  1  0  0  0  0
 14 38  1  0  0  0  0
 14 39  1  0  0  0  0
 15 17  2  0  0  0  0
 15 19  1  0  0  0  0
 16 17  1  0  0  0  0
 16 40  1  0  0  0  0
 16 41  1  0  0  0  0
 17 20  1  0  0  0  0
 18 24  3  0  0  0  0
 19 22  2  0  0  0  0
 19 43  1  0  0  0  0
 20 23  2  0  0  0  0
 20 44  1  0  0  0  0
 21 45  1  0  0  0  0
 21 46  1  0  0  0  0
 21 47  1  0  0  0  0
 22 23  1  0  0  0  0
 22 48  1  0  0  0  0
 24 49  1  0  0  0  0
M  END
> <DATABASE_ID>
DB13418

> <DATABASE_NAME>
drugbank

> <ORIGINAL_SOURCE>
PUBCHEM

> <ORIGINAL_SOURCE_URL>
https://pubchem.ncbi.nlm.nih.gov/rest/pug/compound/inchikey/MTMZZIPTQITGCY-OLGWUGKESA-N/SDF?record_type=3d

> <SMILES>
CO[C@H]1C[C@@]2(C)[C@@H](CC[C@@]2(O)C#C)[C@@H]2CCC3=CC(O)=CC=C3[C@@H]12

> <INCHI_IDENTIFIER>
InChI=1S/C21H26O3/c1-4-21(23)10-9-17-16-7-5-13-11-14(22)6-8-15(13)19(16)18(24-3)12-20(17,21)2/h1,6,8,11,16-19,22-23H,5,7,9-10,12H2,2-3H3/t16-,17-,18-,19+,20-,21-/m0/s1

> <INCHI_KEY>
MTMZZIPTQITGCY-OLGWUGKESA-N

> <FORMULA>
C21H26O3

> <MOLECULAR_WEIGHT>
326.436

> <EXACT_MASS>
326.188194697

> <JCHEM_ACCEPTOR_COUNT>
3

> <JCHEM_ATOM_COUNT>
50

> <JCHEM_AVERAGE_POLARIZABILITY>
37.06470686802417

> <JCHEM_BIOAVAILABILITY>
1

> <JCHEM_DONOR_COUNT>
2

> <JCHEM_FORMAL_CHARGE>
0

> <JCHEM_GHOSE_FILTER>
1

> <JCHEM_IUPAC>
(1S,10S,11S,14R,15S,17S)-14-ethynyl-17-methoxy-15-methyltetracyclo[8.7.0.0^{2,7}.0^{11,15}]heptadeca-2,4,6-triene-5,14-diol

> <ALOGPS_LOGP>
2.84

> <JCHEM_LOGP>
3.231714794666667

> <ALOGPS_LOGS>
-4.55

> <JCHEM_MDDR_LIKE_RULE>
0

> <JCHEM_NUMBER_OF_RINGS>
4

> <JCHEM_PHYSIOLOGICAL_CHARGE>
0

> <JCHEM_PKA>
12.896435490115532

> <JCHEM_PKA_STRONGEST_ACIDIC>
10.210306004592573

> <JCHEM_PKA_STRONGEST_BASIC>
-3.719291652786837

> <JCHEM_POLAR_SURFACE_AREA>
49.69

> <JCHEM_REFRACTIVITY>
93.7182

> <JCHEM_ROTATABLE_BOND_COUNT>
1

> <JCHEM_RULE_OF_FIVE>
1

> <ALOGPS_SOLUBILITY>
9.28e-03 g/l

> <JCHEM_TRADITIONAL_IUPAC>
(1S,10S,11S,14R,15S,17S)-14-ethynyl-17-methoxy-15-methyltetracyclo[8.7.0.0^{2,7}.0^{11,15}]heptadeca-2,4,6-triene-5,14-diol

> <JCHEM_VEBER_RULE>
0

$$$$
