5805243
  -OEChem-09031812383D

 48 49  0     0  0  0  0  0  0999 V2000
   -3.9597   -1.8985   -0.1366 O   0  0  0  0  0  0  0  0  0  0  0  0
    3.9597   -1.8985    0.1365 O   0  0  0  0  0  0  0  0  0  0  0  0
   -2.3421   -2.9741    1.1698 O   0  0  0  0  0  0  0  0  0  0  0  0
    2.3422   -2.9741   -1.1698 O   0  0  0  0  0  0  0  0  0  0  0  0
   -0.6412    2.6131   -0.3572 C   0  0  0  0  0  0  0  0  0  0  0  0
    0.6413    2.6131    0.3573 C   0  0  0  0  0  0  0  0  0  0  0  0
   -1.5187    1.4200   -0.2996 C   0  0  0  0  0  0  0  0  0  0  0  0
    1.5187    1.4200    0.2996 C   0  0  0  0  0  0  0  0  0  0  0  0
   -1.1063    3.6704   -1.0570 C   0  0  0  0  0  0  0  0  0  0  0  0
    1.1060    3.6707    1.0568 C   0  0  0  0  0  0  0  0  0  0  0  0
   -1.3939    0.4483   -1.2730 C   0  0  0  0  0  0  0  0  0  0  0  0
    1.3940    0.4483    1.2731 C   0  0  0  0  0  0  0  0  0  0  0  0
   -2.4365    1.3138    0.7271 C   0  0  0  0  0  0  0  0  0  0  0  0
    2.4366    1.3138   -0.7271 C   0  0  0  0  0  0  0  0  0  0  0  0
   -2.2200   -0.6743   -1.2179 C   0  0  0  0  0  0  0  0  0  0  0  0
    2.2201   -0.6743    1.2179 C   0  0  0  0  0  0  0  0  0  0  0  0
   -3.2626    0.1911    0.7824 C   0  0  0  0  0  0  0  0  0  0  0  0
    3.2626    0.1912   -0.7825 C   0  0  0  0  0  0  0  0  0  0  0  0
   -3.1543   -0.8030   -0.1901 C   0  0  0  0  0  0  0  0  0  0  0  0
    3.1543   -0.8029    0.1900 C   0  0  0  0  0  0  0  0  0  0  0  0
   -2.4099    3.7811   -1.7852 C   0  0  0  0  0  0  0  0  0  0  0  0
    2.4096    3.7816    1.7851 C   0  0  0  0  0  0  0  0  0  0  0  0
   -3.4270   -2.9673    0.6033 C   0  0  0  0  0  0  0  0  0  0  0  0
    3.4270   -2.9673   -0.6033 C   0  0  0  0  0  0  0  0  0  0  0  0
   -4.3852   -4.1212    0.6024 C   0  0  0  0  0  0  0  0  0  0  0  0
    4.3853   -4.1211   -0.6023 C   0  0  0  0  0  0  0  0  0  0  0  0
   -0.4894    4.5656   -1.1247 H   0  0  0  0  0  0  0  0  0  0  0  0
    0.4891    4.5658    1.1243 H   0  0  0  0  0  0  0  0  0  0  0  0
   -0.6713    0.5374   -2.0795 H   0  0  0  0  0  0  0  0  0  0  0  0
    0.6715    0.5375    2.0796 H   0  0  0  0  0  0  0  0  0  0  0  0
   -2.5293    2.0814    1.4905 H   0  0  0  0  0  0  0  0  0  0  0  0
    2.5293    2.0813   -1.4905 H   0  0  0  0  0  0  0  0  0  0  0  0
   -2.1307   -1.4447   -1.9790 H   0  0  0  0  0  0  0  0  0  0  0  0
    2.1309   -1.4445    1.9791 H   0  0  0  0  0  0  0  0  0  0  0  0
   -3.9885    0.0975    1.5856 H   0  0  0  0  0  0  0  0  0  0  0  0
    3.9884    0.0975   -1.5857 H   0  0  0  0  0  0  0  0  0  0  0  0
   -2.2179    3.9857   -2.8434 H   0  0  0  0  0  0  0  0  0  0  0  0
   -3.0446    2.8945   -1.7313 H   0  0  0  0  0  0  0  0  0  0  0  0
   -2.9818    4.6216   -1.3789 H   0  0  0  0  0  0  0  0  0  0  0  0
    2.9815    4.6221    1.3787 H   0  0  0  0  0  0  0  0  0  0  0  0
    2.2175    3.9865    2.8433 H   0  0  0  0  0  0  0  0  0  0  0  0
    3.0443    2.8950    1.7314 H   0  0  0  0  0  0  0  0  0  0  0  0
   -5.3294   -3.8170    1.0607 H   0  0  0  0  0  0  0  0  0  0  0  0
   -3.9627   -4.9442    1.1856 H   0  0  0  0  0  0  0  0  0  0  0  0
   -4.5471   -4.4653   -0.4221 H   0  0  0  0  0  0  0  0  0  0  0  0
    5.3293   -3.8170   -1.0611 H   0  0  0  0  0  0  0  0  0  0  0  0
    3.9626   -4.9444   -1.1852 H   0  0  0  0  0  0  0  0  0  0  0  0
    4.5475   -4.4650    0.4221 H   0  0  0  0  0  0  0  0  0  0  0  0
  1 19  1  0  0  0  0
  1 23  1  0  0  0  0
  2 20  1  0  0  0  0
  2 24  1  0  0  0  0
  3 23  2  0  0  0  0
  4 24  2  0  0  0  0
  5  6  1  0  0  0  0
  5  7  1  0  0  0  0
  5  9  2  0  0  0  0
  6  8  1  0  0  0  0
  6 10  2  0  0  0  0
  7 11  2  0  0  0  0
  7 13  1  0  0  0  0
  8 12  2  0  0  0  0
  8 14  1  0  0  0  0
  9 21  1  0  0  0  0
  9 27  1  0  0  0  0
 10 22  1  0  0  0  0
 10 28  1  0  0  0  0
 11 15  1  0  0  0  0
 11 29  1  0  0  0  0
 12 16  1  0  0  0  0
 12 30  1  0  0  0  0
 13 17  2  0  0  0  0
 13 31  1  0  0  0  0
 14 18  2  0  0  0  0
 14 32  1  0  0  0  0
 15 19  2  0  0  0  0
 15 33  1  0  0  0  0
 16 20  2  0  0  0  0
 16 34  1  0  0  0  0
 17 19  1  0  0  0  0
 17 35  1  0  0  0  0
 18 20  1  0  0  0  0
 18 36  1  0  0  0  0
 21 37  1  0  0  0  0
 21 38  1  0  0  0  0
 21 39  1  0  0  0  0
 22 40  1  0  0  0  0
 22 41  1  0  0  0  0
 22 42  1  0  0  0  0
 23 25  1  0  0  0  0
 24 26  1  0  0  0  0
 25 43  1  0  0  0  0
 25 44  1  0  0  0  0
 25 45  1  0  0  0  0
 26 46  1  0  0  0  0
 26 47  1  0  0  0  0
 26 48  1  0  0  0  0
M  END
> <DATABASE_ID>
DB14668

> <DATABASE_NAME>
drugbank

> <ORIGINAL_SOURCE>
PUBCHEM

> <ORIGINAL_SOURCE_URL>
https://pubchem.ncbi.nlm.nih.gov/rest/pug/compound/inchikey/YWLLGDVBTLPARJ-OXAZHYLESA-N/SDF?record_type=3d

> <SMILES>
C\C=C(\C(=C\C)\C1=CC=C(OC(C)=O)C=C1)/C1=CC=C(OC(C)=O)C=C1

> <INCHI_IDENTIFIER>
InChI=1S/C22H22O4/c1-5-21(17-7-11-19(12-8-17)25-15(3)23)22(6-2)18-9-13-20(14-10-18)26-16(4)24/h5-14H,1-4H3/b21-5+,22-6+

> <INCHI_KEY>
YWLLGDVBTLPARJ-OXAZHYLESA-N

> <FORMULA>
C22H22O4

> <MOLECULAR_WEIGHT>
350.414

> <EXACT_MASS>
350.151809188

> <JCHEM_ACCEPTOR_COUNT>
2

> <JCHEM_ATOM_COUNT>
48

> <JCHEM_AVERAGE_POLARIZABILITY>
39.00742486705574

> <JCHEM_BIOAVAILABILITY>
1

> <JCHEM_DONOR_COUNT>
0

> <JCHEM_FORMAL_CHARGE>
0

> <JCHEM_GHOSE_FILTER>
1

> <JCHEM_IUPAC>
4-[(2E,4E)-4-[4-(acetyloxy)phenyl]hexa-2,4-dien-3-yl]phenyl acetate

> <ALOGPS_LOGP>
5.90

> <JCHEM_LOGP>
4.653613683333333

> <ALOGPS_LOGS>
-5.82

> <JCHEM_MDDR_LIKE_RULE>
0

> <JCHEM_NUMBER_OF_RINGS>
2

> <JCHEM_PHYSIOLOGICAL_CHARGE>
0

> <JCHEM_PKA_STRONGEST_BASIC>
-6.840152856815998

> <JCHEM_POLAR_SURFACE_AREA>
52.6

> <JCHEM_REFRACTIVITY>
102.66020000000003

> <JCHEM_ROTATABLE_BOND_COUNT>
7

> <JCHEM_RULE_OF_FIVE>
1

> <ALOGPS_SOLUBILITY>
5.34e-04 g/l

> <JCHEM_TRADITIONAL_IUPAC>
4-[(2E,4E)-4-[4-(acetyloxy)phenyl]hexa-2,4-dien-3-yl]phenyl acetate

> <JCHEM_VEBER_RULE>
0

$$$$
