
     RDKit          3D

 67 74  0  0  0  0  0  0  0  0999 V2000
   -2.4829    0.9626    3.6719 C   0  0  0  0  0  0  0  0  0  0  0  0
   -2.2624   -0.5356    3.1016 C   0  0  2  0  0  0  0  0  0  0  0  0
   -1.0950   -0.0912    2.0906 C   0  0  0  0  0  0  0  0  0  0  0  0
   -1.4505    1.1700    1.3719 C   0  0  0  0  0  0  0  0  0  0  0  0
   -2.2115    0.6307    0.2224 C   0  0  2  0  0  0  0  0  0  0  0  0
   -1.1979   -0.0176   -0.6649 C   0  0  0  0  0  0  0  0  0  0  0  0
   -1.4042    0.1505   -1.8974 O   0  0  0  0  0  0  0  0  0  0  0  0
   -0.3813   -1.0643   -0.5080 O   0  0  0  0  0  0  0  0  0  0  0  0
    1.0811   -0.9491   -1.0385 C   0  0  2  0  0  0  0  0  0  0  0  0
    1.5487   -0.5004    0.3276 O   0  0  0  0  0  0  0  0  0  0  0  0
    2.9363    0.0080    0.0706 C   0  0  2  0  0  0  0  0  0  0  0  0
    3.2982    0.1199    1.6687 C   0  0  0  0  0  0  0  0  0  0  0  0
    4.6140   -0.3491    1.7300 O   0  0  0  0  0  0  0  0  0  0  0  0
    5.3061    1.0133    1.6991 C   0  0  2  0  0  0  0  0  0  0  0  0
    6.3826    0.6351    0.7570 O   0  0  0  0  0  0  0  0  0  0  0  0
    7.3391   -0.4333    1.0429 C   0  0  2  0  0  0  0  0  0  0  0  0
    6.6328   -1.2683    2.2657 C   0  0  0  0  0  0  0  0  0  0  0  0
    7.0577   -2.5234    2.2469 O   0  0  0  0  0  0  0  0  0  0  0  0
    8.3450    0.3401    2.2152 C   0  0  1  0  0  0  0  0  0  0  0  0
    9.2358    1.0334    1.2504 O   0  0  0  0  0  0  0  0  0  0  0  0
    9.3405    0.1248    0.0475 C   0  0  2  0  0  0  0  0  0  0  0  0
    9.6887   -1.1080    0.8704 O   0  0  0  0  0  0  0  0  0  0  0  0
   10.7970   -1.7209    0.0571 C   0  0  1  0  0  0  0  0  0  0  0  0
   10.1051   -3.2062    0.0778 C   0  0  0  0  0  0  0  0  0  0  0  0
   10.0522   -1.3783   -1.4460 C   0  0  2  0  0  0  0  0  0  0  0  0
   10.9981   -2.2784   -2.1689 O   0  0  0  0  0  0  0  0  0  0  0  0
   11.0455   -0.0222   -1.7460 C   0  0  1  0  0  0  0  0  0  0  0  0
    9.8561    0.7561   -2.2275 O   0  0  0  0  0  0  0  0  0  0  0  0
   11.0126    0.5193   -0.1262 C   0  0  1  0  0  0  0  0  0  0  0  0
   10.7269    1.9516   -0.4333 O   0  0  0  0  0  0  0  0  0  0  0  0
    7.4111    1.7494    2.3886 C   0  0  2  0  0  0  0  0  0  0  0  0
    8.1166    2.1119    3.6568 O   0  0  0  0  0  0  0  0  0  0  0  0
    6.1943    0.8498    3.1690 C   0  0  1  0  0  0  0  0  0  0  0  0
    5.5769    2.0982    3.7029 O   0  0  0  0  0  0  0  0  0  0  0  0
    2.2045    1.5634   -0.0161 C   0  0  1  0  0  0  0  0  0  0  0  0
    3.4881    2.3357   -0.0771 O   0  0  0  0  0  0  0  0  0  0  0  0
    2.3317    1.2409   -1.6851 C   0  0  2  0  0  0  0  0  0  0  0  0
    1.7785    2.6033   -1.9891 O   0  0  0  0  0  0  0  0  0  0  0  0
    0.7809    0.5862   -1.7518 C   0  0  1  0  0  0  0  0  0  0  0  0
    1.0782   -0.0199   -3.0917 O   0  0  0  0  0  0  0  0  0  0  0  0
   -3.0128    1.5520   -0.5433 C   0  0  0  0  0  0  0  0  0  0  0  0
   -4.2631    2.0530    0.1717 C   0  0  0  0  0  0  0  0  0  0  0  0
   -5.0588    0.7860    0.2199 C   0  0  2  0  0  0  0  0  0  0  0  0
   -5.8406    0.7307    1.4967 C   0  0  0  0  0  0  0  0  0  0  0  0
   -4.3193   -0.4323   -0.1191 C   0  0  0  0  0  0  0  0  0  0  0  0
   -4.3851   -1.0722   -1.3054 C   0  0  0  0  0  0  0  0  0  0  0  0
   -5.6766   -1.1050   -2.0772 C   0  0  0  0  0  0  0  0  0  0  0  0
   -6.6320   -0.6156   -0.8436 C   0  0  2  0  0  0  0  0  0  0  0  0
   -7.9739   -0.3886   -1.7599 C   0  0  1  0  0  0  0  0  0  0  0  0
   -7.8023    0.6520   -2.6807 C   0  0  0  0  0  0  0  0  0  0  0  0
   -8.1732   -1.7176   -2.2009 C   0  0  0  0  0  0  0  0  0  0  0  0
   -9.7261   -2.1365   -2.4694 C   0  0  1  0  0  0  0  0  0  0  0  0
   -9.4549   -3.5656   -2.0369 O   0  0  0  0  0  0  0  0  0  0  0  0
  -10.2506   -1.7637   -0.8704 C   0  0  2  0  0  0  0  0  0  0  0  0
  -11.7073   -1.8790   -1.2627 O   0  0  0  0  0  0  0  0  0  0  0  0
  -10.2500   -0.1343   -1.0846 C   0  0  1  0  0  0  0  0  0  0  0  0
  -10.3792    0.2160   -2.4207 C   0  0  0  0  0  0  0  0  0  0  0  0
  -11.1217    0.2650    0.0280 C   0  0  0  0  0  0  0  0  0  0  0  0
  -11.3189    1.6227    0.2152 O   0  0  0  0  0  0  0  0  0  0  0  0
   -8.7829   -0.0172   -0.4068 C   0  0  2  0  0  0  0  0  0  0  0  0
   -8.5813    1.5868   -0.6725 C   0  0  0  0  0  0  0  0  0  0  0  0
   -7.1391    1.8292   -0.3351 C   0  0  0  0  0  0  0  0  0  0  0  0
   -6.1299    0.9322   -0.8698 C   0  0  1  0  0  0  0  0  0  0  0  0
   -5.3779    1.3047   -2.0396 C   0  0  0  0  0  0  0  0  0  0  0  0
   -2.9282   -0.7632    0.6051 C   0  0  2  0  0  0  0  0  0  0  0  0
   -3.5892   -0.3416    2.0930 C   0  0  1  0  0  0  0  0  0  0  0  0
   -3.9999   -1.8795    2.3340 C   0  0  0  0  0  0  0  0  0  0  0  0
  2  1  1  1
  2  3  1  0
  3  4  1  0
  4  5  1  0
  5  6  1  6
  6  7  2  0
  6  8  1  0
  9  8  1  1
  9 10  1  0
 10 11  1  0
 11 12  1  1
 12 13  1  0
 14 13  1  1
 14 15  1  0
 15 16  1  0
 16 17  1  1
 17 18  1  0
 16 19  1  0
 19 20  1  6
 21 20  1  1
 21 22  1  0
 22 23  1  0
 23 24  1  1
 23 25  1  0
 25 26  1  6
 25 27  1  0
 27 28  1  6
 27 29  1  0
 29 30  1  6
 19 31  1  0
 31 32  1  1
 31 33  1  0
 33 34  1  1
 11 35  1  0
 35 36  1  6
 35 37  1  0
 37 38  1  6
 37 39  1  0
 39 40  1  6
  5 41  1  0
 41 42  1  0
 42 43  1  0
 43 44  1  1
 43 45  1  0
 45 46  2  0
 46 47  1  0
 48 47  1  6
 48 49  1  0
 49 50  1  6
 49 51  1  0
 51 52  1  0
 52 53  1  1
 52 54  1  0
 54 55  1  6
 54 56  1  0
 56 57  1  6
 56 58  1  0
 58 59  1  0
 56 60  1  0
 60 61  1  6
 61 62  1  0
 62 63  1  0
 63 64  1  6
 65 45  1  6
 65 66  1  0
 66 67  1  1
 66  2  1  0
 65  5  1  0
 39  9  1  0
 63 43  1  0
 33 14  1  0
 63 48  1  0
 29 21  1  0
 60 49  1  0
M  END
>  <zinc_id>  (1) 
ZINC000253529453

>  <smiles>  (1) 
C[C@@H]1[C@H]2C3=CC[C@@H]4[C@@]5(C)C[C@@H](O)[C@H](O)[C@@](C)(CO)[C@@H]5CC[C@@]4(C)[C@]3(C)CC[C@@]2(C(=O)O[C@@H]2O[C@H](CO[C@@H]3O[C@H](CO)[C@@H](O[C@@H]4O[C@@H](C)[C@H](O)[C@@H](O)[C@H]4O)[C@H](O)[C@H]3O)[C@@H](O)[C@H](O)[C@H]2O)CC[C@H]1C

$$$$
