
     RDKit          2D

 68 75  0  0  0  0  0  0  0  0999 V2000
    7.9635   -6.1395    0.0000 C   0  0  0  0  0  0  0  0  0  0  0  0
    6.7607   -5.2433    0.0000 C   0  0  0  0  0  0  0  0  0  0  0  0
    5.3831   -5.8369    0.0000 C   0  0  0  0  0  0  0  0  0  0  0  0
    4.1803   -4.9407    0.0000 C   0  0  0  0  0  0  0  0  0  0  0  0
    4.3550   -3.4509    0.0000 C   0  0  0  0  0  0  0  0  0  0  0  0
    2.9774   -4.0445    0.0000 C   0  0  0  0  0  0  0  0  0  0  0  0
    2.8027   -5.5343    0.0000 O   0  0  0  0  0  0  0  0  0  0  0  0
    1.7746   -3.1483    0.0000 O   0  0  0  0  0  0  0  0  0  0  0  0
    0.3971   -3.7419    0.0000 C   0  0  0  0  0  0  0  0  0  0  0  0
   -0.8058   -2.8456    0.0000 O   0  0  0  0  0  0  0  0  0  0  0  0
   -2.1833   -3.4392    0.0000 C   0  0  0  0  0  0  0  0  0  0  0  0
   -3.3862   -2.5430    0.0000 C   0  0  0  0  0  0  0  0  0  0  0  0
   -3.2114   -1.0532    0.0000 O   0  0  0  0  0  0  0  0  0  0  0  0
   -4.4143   -0.1570    0.0000 C   0  0  0  0  0  0  0  0  0  0  0  0
   -4.2395    1.3328    0.0000 O   0  0  0  0  0  0  0  0  0  0  0  0
   -5.4424    2.2290    0.0000 C   0  0  0  0  0  0  0  0  0  0  0  0
   -5.2677    3.7188    0.0000 C   0  0  0  0  0  0  0  0  0  0  0  0
   -3.8901    4.3124    0.0000 O   0  0  0  0  0  0  0  0  0  0  0  0
   -6.8199    1.6354    0.0000 C   0  0  0  0  0  0  0  0  0  0  0  0
   -8.0228    2.5316    0.0000 O   0  0  0  0  0  0  0  0  0  0  0  0
   -9.4003    1.9380    0.0000 C   0  0  0  0  0  0  0  0  0  0  0  0
   -9.5751    0.4483    0.0000 O   0  0  0  0  0  0  0  0  0  0  0  0
  -10.9526   -0.1453    0.0000 C   0  0  0  0  0  0  0  0  0  0  0  0
  -11.1273   -1.6351    0.0000 C   0  0  0  0  0  0  0  0  0  0  0  0
  -12.1554    0.7509    0.0000 C   0  0  0  0  0  0  0  0  0  0  0  0
  -13.5330    0.1573    0.0000 O   0  0  0  0  0  0  0  0  0  0  0  0
  -11.9807    2.2407    0.0000 C   0  0  0  0  0  0  0  0  0  0  0  0
  -13.1836    3.1369    0.0000 O   0  0  0  0  0  0  0  0  0  0  0  0
  -10.6032    2.8343    0.0000 C   0  0  0  0  0  0  0  0  0  0  0  0
  -10.4284    4.3240    0.0000 O   0  0  0  0  0  0  0  0  0  0  0  0
   -6.9947    0.1456    0.0000 C   0  0  0  0  0  0  0  0  0  0  0  0
   -8.3722   -0.4480    0.0000 O   0  0  0  0  0  0  0  0  0  0  0  0
   -5.7918   -0.7506    0.0000 C   0  0  0  0  0  0  0  0  0  0  0  0
   -5.9666   -2.2404    0.0000 O   0  0  0  0  0  0  0  0  0  0  0  0
   -2.3581   -4.9290    0.0000 C   0  0  0  0  0  0  0  0  0  0  0  0
   -3.7356   -5.5226    0.0000 O   0  0  0  0  0  0  0  0  0  0  0  0
   -1.1552   -5.8252    0.0000 C   0  0  0  0  0  0  0  0  0  0  0  0
   -1.3300   -7.3150    0.0000 O   0  0  0  0  0  0  0  0  0  0  0  0
    0.2223   -5.2316    0.0000 C   0  0  0  0  0  0  0  0  0  0  0  0
    1.4252   -6.1279    0.0000 O   0  0  0  0  0  0  0  0  0  0  0  0
    3.1522   -2.5547    0.0000 C   0  0  0  0  0  0  0  0  0  0  0  0
    3.3269   -1.0649    0.0000 C   0  0  0  0  0  0  0  0  0  0  0  0
    4.7045   -0.4713    0.0000 C   0  0  0  0  0  0  0  0  0  0  0  0
    3.8495    0.0161    0.0000 C   0  0  0  0  0  0  0  0  0  0  0  0
    5.9073   -1.3675    0.0000 C   0  0  0  0  0  0  0  0  0  0  0  0
    7.2848   -0.7740    0.0000 C   0  0  0  0  0  0  0  0  0  0  0  0
    7.4596    0.7158    0.0000 C   0  0  0  0  0  0  0  0  0  0  0  0
    6.2567    1.6120    0.0000 C   0  0  0  0  0  0  0  0  0  0  0  0
    6.4315    3.1018    0.0000 C   0  0  0  0  0  0  0  0  0  0  0  0
    7.6343    2.2056    0.0000 C   0  0  0  0  0  0  0  0  0  0  0  0
    7.8090    3.6954    0.0000 C   0  0  0  0  0  0  0  0  0  0  0  0
    7.9837    5.1852    0.0000 C   0  0  0  0  0  0  0  0  0  0  0  0
    9.3613    5.7788    0.0000 O   0  0  0  0  0  0  0  0  0  0  0  0
    6.7809    6.0814    0.0000 C   0  0  0  0  0  0  0  0  0  0  0  0
    6.9556    7.5712    0.0000 O   0  0  0  0  0  0  0  0  0  0  0  0
    5.4034    5.4878    0.0000 C   0  0  0  0  0  0  0  0  0  0  0  0
    3.9059    5.4012    0.0000 C   0  0  0  0  0  0  0  0  0  0  0  0
    5.0580    6.9475    0.0000 C   0  0  0  0  0  0  0  0  0  0  0  0
    3.6212    7.3783    0.0000 O   0  0  0  0  0  0  0  0  0  0  0  0
    5.2286    3.9980    0.0000 C   0  0  0  0  0  0  0  0  0  0  0  0
    3.8511    3.4045    0.0000 C   0  0  0  0  0  0  0  0  0  0  0  0
    2.6482    4.3007    0.0000 O   0  0  0  0  0  0  0  0  0  0  0  0
    3.6763    1.9147    0.0000 C   0  0  0  0  0  0  0  0  0  0  0  0
    4.8792    1.0185    0.0000 C   0  0  0  0  0  0  0  0  0  0  0  0
    3.9346    0.7421    0.0000 C   0  0  0  0  0  0  0  0  0  0  0  0
    5.7326   -2.8573    0.0000 C   0  0  0  0  0  0  0  0  0  0  0  0
    6.9354   -3.7535    0.0000 C   0  0  0  0  0  0  0  0  0  0  0  0
    8.3130   -3.1600    0.0000 C   0  0  0  0  0  0  0  0  0  0  0  0
  2  1  1  6
  2  3  1  0
  3  4  1  0
  4  5  1  0
  5  6  1  1
  6  7  2  0
  6  8  1  0
  9  8  1  1
  9 10  1  0
 10 11  1  0
 11 12  1  1
 12 13  1  0
 14 13  1  1
 14 15  1  0
 15 16  1  0
 16 17  1  1
 17 18  1  0
 16 19  1  0
 19 20  1  6
 21 20  1  6
 21 22  1  0
 22 23  1  0
 23 24  1  1
 23 25  1  0
 25 26  1  6
 25 27  1  0
 27 28  1  1
 27 29  1  0
 29 30  1  1
 19 31  1  0
 31 32  1  1
 31 33  1  0
 33 34  1  6
 11 35  1  0
 35 36  1  6
 35 37  1  0
 37 38  1  1
 37 39  1  0
 39 40  1  6
  5 41  1  0
 41 42  1  0
 42 43  1  0
 43 44  1  6
 43 45  1  0
 45 46  2  0
 46 47  1  0
 48 47  1  1
 48 49  1  0
 49 50  1  1
 49 51  1  0
 51 52  1  0
 52 53  1  6
 52 54  1  0
 54 55  1  1
 54 56  1  0
 56 57  1  1
 56 58  1  0
 58 59  1  0
 56 60  1  0
 60 61  1  1
 61 62  1  1
 61 63  1  0
 63 64  1  0
 64 65  1  1
 66 45  1  6
 66 67  1  0
 67 68  1  1
 67  2  1  0
 66  5  1  0
 39  9  1  0
 64 43  1  0
 33 14  1  0
 64 48  1  0
 29 21  1  0
 60 49  1  0
M  END
>  <zinc_id>  (1) 
ZINC000253529433

>  <smiles>  (1) 
C[C@@H]1[C@H]2C3=CC[C@@H]4[C@@]5(C)C[C@@H](O)[C@H](O)[C@@](C)(CO)[C@@H]5[C@H](O)C[C@@]4(C)[C@]3(C)CC[C@@]2(C(=O)O[C@@H]2O[C@H](CO[C@@H]3O[C@H](CO)[C@@H](O[C@@H]4O[C@@H](C)[C@H](O)[C@@H](O)[C@H]4O)[C@H](O)[C@H]3O)[C@@H](O)[C@H](O)[C@H]2O)CC[C@H]1C

$$$$
