
     RDKit          3D

 55 56  0  0  0  0  0  0  0  0999 V2000
    4.0805    4.2692    0.7278 O   0  0  0  0  0  0  0  0  0  0  0  0
    5.0504    3.3061    0.2290 S   0  0  0  0  0  0  0  0  0  0  0  0
    4.8888    3.1874   -1.2548 O   0  0  0  0  0  0  0  0  0  0  0  0
    6.5793    3.9502    0.5501 O   0  0  0  0  0  0  0  0  0  0  0  0
    4.9056    1.8072    0.9615 O   0  0  0  0  0  0  0  0  0  0  0  0
    4.4670    0.8088    0.0902 C   0  0  0  0  0  0  0  0  0  0  0  0
    2.9881    0.5272    0.7678 C   0  0  1  0  0  0  0  0  0  0  0  0
    2.3215    0.3286   -0.5916 O   0  0  0  0  0  0  0  0  0  0  0  0
    1.1939    0.0198    0.0464 C   0  0  1  0  0  0  0  0  0  0  0  0
    0.9176    1.0226    1.0786 C   0  0  0  0  0  0  0  0  0  0  0  0
    0.9198    2.2522    0.6379 O   0  0  0  0  0  0  0  0  0  0  0  0
    1.1106    2.8865   -0.7729 S   0  0  0  0  0  0  0  0  0  0  0  0
    0.6007    2.1717   -2.0003 O   0  0  0  0  0  0  0  0  0  0  0  0
    0.3594    4.2096   -0.8199 O   0  0  0  0  0  0  0  0  0  0  0  0
    2.6674    3.3951   -1.2160 O   0  0  0  0  0  0  0  0  0  0  0  0
    0.0286   -0.2025   -0.6165 O   0  0  0  0  0  0  0  0  0  0  0  0
   -0.7871   -1.1191    0.3299 C   0  0  1  0  0  0  0  0  0  0  0  0
   -1.8195   -0.0527    0.6791 O   0  0  0  0  0  0  0  0  0  0  0  0
   -2.1096    0.5707   -0.6451 C   0  0  2  0  0  0  0  0  0  0  0  0
   -2.7362    1.9504    0.0208 C   0  0  0  0  0  0  0  0  0  0  0  0
   -2.3444    2.1067    1.2730 O   0  0  0  0  0  0  0  0  0  0  0  0
   -3.4146    2.0105    2.5056 S   0  0  0  0  0  0  0  0  0  0  0  0
   -3.6000    3.3855    3.1088 O   0  0  0  0  0  0  0  0  0  0  0  0
   -4.7183    1.5076    1.9457 O   0  0  0  0  0  0  0  0  0  0  0  0
   -2.8916    1.0396    3.7882 O   0  0  0  0  0  0  0  0  0  0  0  0
   -3.6707   -0.1542   -0.6430 C   0  0  1  0  0  0  0  0  0  0  0  0
   -3.7852   -0.3195   -2.1399 O   0  0  0  0  0  0  0  0  0  0  0  0
   -4.4919    1.0279   -2.7663 S   0  0  0  0  0  0  0  0  0  0  0  0
   -5.7253    1.3372   -1.9947 O   0  0  0  0  0  0  0  0  0  0  0  0
   -4.8657    0.7304   -4.1949 O   0  0  0  0  0  0  0  0  0  0  0  0
   -3.4833    2.3658   -2.8561 O   0  0  0  0  0  0  0  0  0  0  0  0
   -3.2560   -1.8023   -0.3970 C   0  0  2  0  0  0  0  0  0  0  0  0
   -2.9324   -1.7000    1.0844 O   0  0  0  0  0  0  0  0  0  0  0  0
   -4.3878   -1.8631    1.8143 S   0  0  0  0  0  0  0  0  0  0  0  0
   -5.5326   -1.4620    0.9273 O   0  0  0  0  0  0  0  0  0  0  0  0
   -4.6143   -3.2710    2.2864 O   0  0  0  0  0  0  0  0  0  0  0  0
   -4.5150   -0.8879    3.1897 O   0  0  0  0  0  0  0  0  0  0  0  0
   -1.6432   -1.9160   -0.9722 C   0  0  1  0  0  0  0  0  0  0  0  0
   -1.6561   -0.8214   -1.9911 O   0  0  0  0  0  0  0  0  0  0  0  0
   -0.9072   -1.3793   -3.3605 S   0  0  0  0  0  0  0  0  0  0  0  0
   -1.8216   -1.5974   -4.5123 O   0  0  0  0  0  0  0  0  0  0  0  0
   -0.2226   -2.6964   -3.0824 O   0  0  0  0  0  0  0  0  0  0  0  0
    0.3460   -0.3236   -3.7707 O   0  0  0  0  0  0  0  0  0  0  0  0
    1.5194   -1.4338    0.7359 C   0  0  1  0  0  0  0  0  0  0  0  0
    1.5911   -2.0612   -0.6496 O   0  0  0  0  0  0  0  0  0  0  0  0
    2.1684   -3.5548   -0.6294 S   0  0  0  0  0  0  0  0  0  0  0  0
    3.3562   -3.6063   -1.5717 O   0  0  0  0  0  0  0  0  0  0  0  0
    1.1734   -4.5342   -1.2208 O   0  0  0  0  0  0  0  0  0  0  0  0
    2.6328   -4.2050    0.8090 O   0  0  0  0  0  0  0  0  0  0  0  0
    3.2253   -1.1708    0.8037 C   0  0  2  0  0  0  0  0  0  0  0  0
    3.2249   -1.1658    2.3057 O   0  0  0  0  0  0  0  0  0  0  0  0
    4.5769   -1.9924    2.8432 S   0  0  0  0  0  0  0  0  0  0  0  0
    4.1327   -3.3000    3.4721 O   0  0  0  0  0  0  0  0  0  0  0  0
    5.4372   -2.4374    1.6795 O   0  0  0  0  0  0  0  0  0  0  0  0
    5.4689   -1.1442    3.9782 O   0  0  0  0  0  0  0  0  0  0  0  0
  1  2  2  0
  2  3  2  0
  2  4  1  0
  2  5  1  0
  5  6  1  0
  7  6  1  6
  7  8  1  0
  8  9  1  0
  9 10  1  1
 10 11  1  0
 11 12  1  0
 12 13  2  0
 12 14  2  0
 12 15  1  0
  9 16  1  0
 17 16  1  6
 17 18  1  0
 18 19  1  0
 19 20  1  1
 20 21  1  0
 21 22  1  0
 22 23  2  0
 22 24  2  0
 22 25  1  0
 19 26  1  0
 26 27  1  6
 27 28  1  0
 28 29  2  0
 28 30  2  0
 28 31  1  0
 26 32  1  0
 32 33  1  1
 33 34  1  0
 34 35  2  0
 34 36  2  0
 34 37  1  0
 32 38  1  0
 38 39  1  6
 39 40  1  0
 40 41  2  0
 40 42  2  0
 40 43  1  0
  9 44  1  0
 44 45  1  6
 45 46  1  0
 46 47  2  0
 46 48  2  0
 46 49  1  0
 44 50  1  0
 50 51  1  1
 51 52  1  0
 52 53  2  0
 52 54  2  0
 52 55  1  0
 50  7  1  0
 38 17  1  0
M  END
>  <zinc_id>  (1) 
ZINC000169654783

>  <smiles>  (1) 
O=S(=O)(O)OC[C@H]1O[C@H](O[C@]2(COS(=O)(=O)O)O[C@H](COS(=O)(=O)O)[C@@H](OS(=O)(=O)O)[C@@H]2OS(=O)(=O)O)[C@H](OS(=O)(=O)O)[C@@H](OS(=O)(=O)O)[C@@H]1OS(=O)(=O)O

$$$$
