446724
  -OEChem-10051719463D

 61 64  0     1  0  0  0  0  0999 V2000
   -2.4403   -3.4732    0.1130 P   0  0  2  0  0  0  0  0  0  0  0  0
   -4.9053   -1.4970    0.6130 P   0  0  1  0  0  0  0  0  0  0  0  0
    1.3694   -0.4753    0.5109 O   0  0  0  0  0  0  0  0  0  0  0  0
    0.4725   -2.0749   -2.5788 O   0  0  0  0  0  0  0  0  0  0  0  0
   -5.0801    2.9061    0.3920 O   0  0  0  0  0  0  0  0  0  0  0  0
    1.4254    0.4792   -2.5516 O   0  0  0  0  0  0  0  0  0  0  0  0
   -0.8884   -3.2343   -0.2718 O   0  0  0  0  0  0  0  0  0  0  0  0
   -4.9883    0.1171    0.5606 O   0  0  0  0  0  0  0  0  0  0  0  0
   -2.2309    1.8372   -1.5138 O   0  0  0  0  0  0  0  0  0  0  0  0
   -2.7732    4.4137   -0.7216 O   0  0  0  0  0  0  0  0  0  0  0  0
   -4.2876    4.8663    1.4833 O   0  0  0  0  0  0  0  0  0  0  0  0
   -2.4110   -3.9008    1.6725 O   0  0  0  0  0  0  0  0  0  0  0  0
   -4.9234   -1.8386    2.1924 O   0  0  0  0  0  0  0  0  0  0  0  0
   -3.1590   -4.4436   -0.7784 O   0  0  0  0  0  0  0  0  0  0  0  0
   -5.9242   -2.2295   -0.2085 O   0  0  0  0  0  0  0  0  0  0  0  0
    3.6990   -0.1700    0.1724 N   0  0  0  0  0  0  0  0  0  0  0  0
    5.3460   -1.2489    1.2179 N   0  0  0  0  0  0  0  0  0  0  0  0
    4.8842    1.8365   -0.5129 N   0  0  0  0  0  0  0  0  0  0  0  0
    7.2154    1.7784    0.2072 N   0  0  0  0  0  0  0  0  0  0  0  0
    8.1373   -0.0617    1.4283 N   0  0  0  0  0  0  0  0  0  0  0  0
    1.2902   -1.7024   -1.4902 C   0  0  1  0  0  0  0  0  0  0  0  0
    2.1367   -0.4733   -1.7631 C   0  0  2  0  0  0  0  0  0  0  0  0
    0.4748   -1.2712   -0.2835 C   0  0  1  0  0  0  0  0  0  0  0  0
    2.3637    0.1004   -0.3633 C   0  0  1  0  0  0  0  0  0  0  0  0
   -0.0480   -2.4341    0.5405 C   0  0  0  0  0  0  0  0  0  0  0  0
   -4.4926    2.1130   -0.6580 C   0  0  1  0  0  0  0  0  0  0  0  0
   -3.0017    2.0502   -0.3507 C   0  0  2  0  0  0  0  0  0  0  0  0
   -2.7701    3.4038    0.2853 C   0  0  2  0  0  0  0  0  0  0  0  0
   -4.0179    3.5164    1.1499 C   0  0  2  0  0  0  0  0  0  0  0  0
   -5.1542    0.7467   -0.6976 C   0  0  0  0  0  0  0  0  0  0  0  0
    4.7973    0.6367    0.0809 C   0  0  0  0  0  0  0  0  0  0  0  0
    4.0783   -1.2898    0.8641 C   0  0  0  0  0  0  0  0  0  0  0  0
   -3.1922   -1.8280    0.1358 C   0  0  0  0  0  0  0  0  0  0  0  0
    5.8076   -0.0503    0.7348 C   0  0  0  0  0  0  0  0  0  0  0  0
    7.0547    0.5641    0.7863 C   0  0  0  0  0  0  0  0  0  0  0  0
    6.1360    2.3310   -0.3975 C   0  0  0  0  0  0  0  0  0  0  0  0
    1.9481   -2.5417   -1.2332 H   0  0  0  0  0  0  0  0  0  0  0  0
    3.0561   -0.7173   -2.3051 H   0  0  0  0  0  0  0  0  0  0  0  0
   -0.3673   -0.6421   -0.5998 H   0  0  0  0  0  0  0  0  0  0  0  0
    2.2266    1.1874   -0.3323 H   0  0  0  0  0  0  0  0  0  0  0  0
    0.7777   -3.0570    0.9021 H   0  0  0  0  0  0  0  0  0  0  0  0
   -0.5677   -2.0692    1.4325 H   0  0  0  0  0  0  0  0  0  0  0  0
   -4.6788    2.6237   -1.6108 H   0  0  0  0  0  0  0  0  0  0  0  0
   -2.7687    1.2627    0.3747 H   0  0  0  0  0  0  0  0  0  0  0  0
   -1.8328    3.4821    0.8426 H   0  0  0  0  0  0  0  0  0  0  0  0
   -3.8955    2.9357    2.0723 H   0  0  0  0  0  0  0  0  0  0  0  0
   -4.7285    0.1349   -1.4991 H   0  0  0  0  0  0  0  0  0  0  0  0
   -6.2302    0.8512   -0.8702 H   0  0  0  0  0  0  0  0  0  0  0  0
   -0.0818   -2.8195   -2.2897 H   0  0  0  0  0  0  0  0  0  0  0  0
    2.0005    1.2564   -2.6564 H   0  0  0  0  0  0  0  0  0  0  0  0
    3.3988   -2.1034    1.0785 H   0  0  0  0  0  0  0  0  0  0  0  0
   -3.0684   -1.4385   -0.8805 H   0  0  0  0  0  0  0  0  0  0  0  0
   -2.5783   -1.1961    0.7852 H   0  0  0  0  0  0  0  0  0  0  0  0
   -1.2951    1.9190   -1.2625 H   0  0  0  0  0  0  0  0  0  0  0  0
   -2.7565    5.2732   -0.2669 H   0  0  0  0  0  0  0  0  0  0  0  0
   -4.8260    4.8603    2.2927 H   0  0  0  0  0  0  0  0  0  0  0  0
   -2.1009   -4.7999    1.9120 H   0  0  0  0  0  0  0  0  0  0  0  0
   -4.0760   -1.9553    2.6726 H   0  0  0  0  0  0  0  0  0  0  0  0
    6.3008    3.3028   -0.8505 H   0  0  0  0  0  0  0  0  0  0  0  0
    9.0339    0.4047    1.4517 H   0  0  0  0  0  0  0  0  0  0  0  0
    8.0203   -0.9682    1.8604 H   0  0  0  0  0  0  0  0  0  0  0  0
  1  7  1  0  0  0  0
  1 12  1  0  0  0  0
  1 14  2  0  0  0  0
  1 33  1  0  0  0  0
  2  8  1  0  0  0  0
  2 13  1  0  0  0  0
  2 15  2  0  0  0  0
  2 33  1  0  0  0  0
  3 23  1  0  0  0  0
  3 24  1  0  0  0  0
  4 21  1  0  0  0  0
  4 49  1  0  0  0  0
  5 26  1  0  0  0  0
  5 29  1  0  0  0  0
  6 22  1  0  0  0  0
  6 50  1  0  0  0  0
  7 25  1  0  0  0  0
  8 30  1  0  0  0  0
  9 27  1  0  0  0  0
  9 54  1  0  0  0  0
 10 28  1  0  0  0  0
 10 55  1  0  0  0  0
 11 29  1  0  0  0  0
 11 56  1  0  0  0  0
 12 57  1  0  0  0  0
 13 58  1  0  0  0  0
 16 24  1  0  0  0  0
 16 31  1  0  0  0  0
 16 32  1  0  0  0  0
 17 32  2  0  0  0  0
 17 34  1  0  0  0  0
 18 31  2  0  0  0  0
 18 36  1  0  0  0  0
 19 35  1  0  0  0  0
 19 36  2  0  0  0  0
 20 35  1  0  0  0  0
 20 60  1  0  0  0  0
 20 61  1  0  0  0  0
 21 22  1  0  0  0  0
 21 23  1  0  0  0  0
 21 37  1  0  0  0  0
 22 24  1  0  0  0  0
 22 38  1  0  0  0  0
 23 25  1  0  0  0  0
 23 39  1  0  0  0  0
 24 40  1  0  0  0  0
 25 41  1  0  0  0  0
 25 42  1  0  0  0  0
 26 27  1  0  0  0  0
 26 30  1  0  0  0  0
 26 43  1  0  0  0  0
 27 28  1  0  0  0  0
 27 44  1  0  0  0  0
 28 29  1  0  0  0  0
 28 45  1  0  0  0  0
 29 46  1  0  0  0  0
 30 47  1  0  0  0  0
 30 48  1  0  0  0  0
 31 34  1  0  0  0  0
 32 51  1  0  0  0  0
 33 52  1  0  0  0  0
 33 53  1  0  0  0  0
 34 35  2  0  0  0  0
 36 59  1  0  0  0  0
M  END
> <DATABASE_ID>
DB01975

> <DATABASE_NAME>
drugbank

> <ORIGINAL_SOURCE>
PUBCHEM

> <ORIGINAL_SOURCE_URL>
https://pubchem.ncbi.nlm.nih.gov/rest/pug/compound/inchikey/ZPZRETFSCSWNDT-DBXCYWGHSA-N/SDF?record_type=3d

> <SMILES>
[H][C@]1(O)O[C@]([H])(COP(O)(=O)CP(O)(=O)OC[C@@]2([H])O[C@@]([H])(N3C=NC4=C(N)N=CN=C34)[C@]([H])(O)[C@]2([H])O)[C@@]([H])(O)[C@@]1([H])O

> <INCHI_IDENTIFIER>
InChI=1S/C16H25N5O13P2/c17-13-8-14(19-3-18-13)21(4-20-8)15-11(24)9(22)6(33-15)1-31-35(27,28)5-36(29,30)32-2-7-10(23)12(25)16(26)34-7/h3-4,6-7,9-12,15-16,22-26H,1-2,5H2,(H,27,28)(H,29,30)(H2,17,18,19)/t6-,7-,9-,10-,11-,12-,15-,16+/m1/s1

> <INCHI_KEY>
ZPZRETFSCSWNDT-DBXCYWGHSA-N

> <FORMULA>
C16H25N5O13P2

> <MOLECULAR_WEIGHT>
557.3429

> <EXACT_MASS>
557.092408935

> <JCHEM_ACCEPTOR_COUNT>
15

> <JCHEM_ATOM_COUNT>
61

> <JCHEM_AVERAGE_NEUTRAL_MICROSPECIES_CHARGE>
-1.9918244269563568

> <JCHEM_AVERAGE_POLARIZABILITY>
47.57026882094897

> <JCHEM_BIOAVAILABILITY>
0

> <JCHEM_DONOR_COUNT>
8

> <JCHEM_FORMAL_CHARGE>
0

> <JCHEM_GHOSE_FILTER>
0

> <JCHEM_IUPAC>
[({[(2R,3S,4R,5R)-5-(6-amino-9H-purin-9-yl)-3,4-dihydroxyoxolan-2-yl]methoxy}(hydroxy)phosphoryl)methyl]({[(2R,3S,4R,5S)-3,4,5-trihydroxyoxolan-2-yl]methoxy})phosphinic acid

> <ALOGPS_LOGP>
-2.02

> <JCHEM_LOGP>
-7.598669537373742

> <ALOGPS_LOGS>
-2.12

> <JCHEM_MDDR_LIKE_RULE>
1

> <JCHEM_NEUTRAL_CHARGE>
-2

> <JCHEM_NUMBER_OF_RINGS>
4

> <JCHEM_PHYSIOLOGICAL_CHARGE>
-2

> <JCHEM_PKA>
0.8131989067332998

> <JCHEM_PKA_STRONGEST_ACIDIC>
0.6013267909350518

> <JCHEM_PKA_STRONGEST_BASIC>
4.9213088542480365

> <JCHEM_POLAR_SURFACE_AREA>
282.28999999999996

> <JCHEM_REFRACTIVITY>
113.47699999999998

> <JCHEM_ROTATABLE_BOND_COUNT>
9

> <JCHEM_RULE_OF_FIVE>
0

> <ALOGPS_SOLUBILITY>
4.24e+00 g/l

> <JCHEM_TRADITIONAL_IUPAC>
biotin

> <JCHEM_VEBER_RULE>
0

$$$$
