
     RDKit          2D

 52 56  0  0  0  0  0  0  0  0999 V2000
   10.0039   -2.5004    0.0000 C   0  0  0  0  0  0  0  0  0  0  0  0
    8.5383   -2.1811    0.0000 C   0  0  0  0  0  0  0  0  0  0  0  0
    7.4184   -3.1791    0.0000 C   0  0  0  0  0  0  0  0  0  0  0  0
    7.5828   -1.6881    0.0000 C   0  0  0  0  0  0  0  0  0  0  0  0
    6.3738   -0.8003    0.0000 C   0  0  0  0  0  0  0  0  0  0  0  0
    6.5382    0.6907    0.0000 C   0  0  0  0  0  0  0  0  0  0  0  0
    5.3292    1.5786    0.0000 C   0  0  0  0  0  0  0  0  0  0  0  0
    3.9558    0.9755    0.0000 C   0  0  0  0  0  0  0  0  0  0  0  0
    2.7468    1.8633    0.0000 C   0  0  0  0  0  0  0  0  0  0  0  0
    1.9143    3.1111    0.0000 C   0  0  0  0  0  0  0  0  0  0  0  0
    0.4175    3.0141    0.0000 O   0  0  0  0  0  0  0  0  0  0  0  0
    2.4099    4.5269    0.0000 O   0  0  0  0  0  0  0  0  0  0  0  0
    3.8311    2.8998    0.0000 C   0  0  0  0  0  0  0  0  0  0  0  0
    5.2708    2.4790    0.0000 O   0  0  0  0  0  0  0  0  0  0  0  0
    3.6559    4.3895    0.0000 O   0  0  0  0  0  0  0  0  0  0  0  0
    1.3734    1.2602    0.0000 C   0  0  0  0  0  0  0  0  0  0  0  0
    1.2090   -0.2308    0.0000 C   0  0  0  0  0  0  0  0  0  0  0  0
   -0.1644   -0.8339    0.0000 O   0  0  0  0  0  0  0  0  0  0  0  0
   -1.3735    0.0540    0.0000 C   0  0  0  0  0  0  0  0  0  0  0  0
   -1.2091    1.5449    0.0000 O   0  0  0  0  0  0  0  0  0  0  0  0
   -2.4181    2.4328    0.0000 C   0  0  0  0  0  0  0  0  0  0  0  0
   -2.2537    3.9238    0.0000 C   0  0  0  0  0  0  0  0  0  0  0  0
   -3.4627    4.8116    0.0000 O   0  0  0  0  0  0  0  0  0  0  0  0
   -3.2983    6.3026    0.0000 O   0  0  0  0  0  0  0  0  0  0  0  0
   -3.7915    1.8297    0.0000 C   0  0  0  0  0  0  0  0  0  0  0  0
   -5.0005    2.7175    0.0000 O   0  0  0  0  0  0  0  0  0  0  0  0
   -6.3739    2.1144    0.0000 S   0  0  0  0  0  0  0  0  0  0  0  0
   -5.7708    0.7410    0.0000 O   0  0  0  0  0  0  0  0  0  0  0  0
   -6.9770    3.4878    0.0000 O   0  0  0  0  0  0  0  0  0  0  0  0
   -7.7473    1.5113    0.0000 O   0  0  0  0  0  0  0  0  0  0  0  0
   -3.9559    0.3387    0.0000 C   0  0  0  0  0  0  0  0  0  0  0  0
   -5.3293   -0.2644    0.0000 O   0  0  0  0  0  0  0  0  0  0  0  0
   -5.4937   -1.7554    0.0000 S   0  0  0  0  0  0  0  0  0  0  0  0
   -4.7460   -2.0319    0.0000 O   0  0  0  0  0  0  0  0  0  0  0  0
   -6.9847   -1.5910    0.0000 O   0  0  0  0  0  0  0  0  0  0  0  0
   -5.6581   -3.2463    0.0000 O   0  0  0  0  0  0  0  0  0  0  0  0
   -2.7469   -0.5491    0.0000 C   0  0  0  0  0  0  0  0  0  0  0  0
   -2.9113   -2.0401    0.0000 O   0  0  0  0  0  0  0  0  0  0  0  0
   -4.2847   -2.6432    0.0000 C   0  0  0  0  0  0  0  0  0  0  0  0
   -5.6726   -2.0743    0.0000 O   0  0  0  0  0  0  0  0  0  0  0  0
   -4.4491   -4.1342    0.0000 C   0  0  0  0  0  0  0  0  0  0  0  0
   -5.8225   -4.7373    0.0000 C   0  0  0  0  0  0  0  0  0  0  0  0
   -5.9869   -6.2282    0.0000 C   0  0  0  0  0  0  0  0  0  0  0  0
   -7.0315   -3.8494    0.0000 C   0  0  0  0  0  0  0  0  0  0  0  0
    2.4180   -1.1186    0.0000 C   0  0  0  0  0  0  0  0  0  0  0  0
    3.7914   -0.5155    0.0000 C   0  0  0  0  0  0  0  0  0  0  0  0
    3.6270   -2.0065    0.0000 C   0  0  0  0  0  0  0  0  0  0  0  0
    5.0004   -1.4034    0.0000 C   0  0  0  0  0  0  0  0  0  0  0  0
    4.8360   -2.8943    0.0000 C   0  0  0  0  0  0  0  0  0  0  0  0
    6.0450   -3.7822    0.0000 C   0  0  0  0  0  0  0  0  0  0  0  0
    7.9351   -0.8077    0.0000 C   0  0  0  0  0  0  0  0  0  0  0  0
    8.6918    0.4875    0.0000 O   0  0  0  0  0  0  0  0  0  0  0  0
  1  2  2  0
  3  2  1  6
  3  4  1  0
  4  5  1  0
  5  6  1  1
  6  7  1  0
  8  7  1  6
  8  9  1  0
  9 10  1  0
 10 11  2  0
 10 12  1  0
  9 13  1  0
 13 14  2  0
 13 15  1  0
  9 16  1  0
 16 17  1  0
 17 18  1  1
 19 18  1  6
 19 20  1  0
 20 21  1  0
 21 22  1  6
 22 23  1  0
 23 24  1  0
 21 25  1  0
 25 26  1  1
 26 27  1  0
 27 28  2  0
 27 29  2  0
 27 30  1  0
 25 31  1  0
 31 32  1  1
 32 33  1  0
 33 34  2  0
 33 35  2  0
 33 36  1  0
 31 37  1  0
 37 38  1  6
 38 39  1  0
 39 40  2  0
 39 41  1  0
 41 42  1  0
 42 43  1  0
 42 44  1  0
 17 45  1  0
 45 46  1  0
 46 47  1  6
 46 48  1  0
 48 49  1  6
 49 50  1  0
  5 51  1  0
 51 52  1  1
 51  2  1  0
 50  3  1  0
 48  5  1  0
 46  8  1  0
 37 19  1  0
M  END
>  <zinc_id>  (1) 
ZINC000096006053

>  <smiles>  (1) 
C=C1[C@H](O)[C@@]23CC[C@H]4C(C(=O)O)(C(=O)O)C[C@H](O[C@H]5O[C@@H](COO)[C@H](OS(=O)(=O)O)[C@H](OS(=O)(=O)O)[C@H]5OC(=O)CC(C)C)C[C@]4(C)[C@H]2CC[C@@H]1C3

$$$$
