
     RDKit          3D

 32 32  0  0  0  0  0  0  0  0999 V2000
    3.1614   -1.8323    0.1888 O   0  0  0  0  0  0  0  0  0  0  0  0
    3.1180   -1.8715    0.2198 P   0  0  0  0  0  0  0  0  0  0  0  0
    4.3016   -1.5926    1.2584 O   0  0  0  0  0  0  0  0  0  0  0  0
    3.4358   -2.0206   -1.3907 O   0  0  0  0  0  0  0  0  0  0  0  0
    1.5842   -1.2702    0.5785 O   0  0  0  0  0  0  0  0  0  0  0  0
    1.5909   -0.0549   -0.3080 C   0  0  1  0  0  0  0  0  0  0  0  0
    0.1214   -0.4119   -1.1540 C   0  0  1  0  0  0  0  0  0  0  0  0
    0.3607   -1.8819   -1.2584 O   0  0  0  0  0  0  0  0  0  0  0  0
   -0.3648   -2.9602   -0.4327 P   0  0  0  0  0  0  0  0  0  0  0  0
    0.5511   -4.1951   -0.4565 O   0  0  0  0  0  0  0  0  0  0  0  0
   -1.7575   -3.7460   -1.0516 O   0  0  0  0  0  0  0  0  0  0  0  0
   -0.6883   -2.8145    1.2199 O   0  0  0  0  0  0  0  0  0  0  0  0
   -0.8510   -0.4814    0.2574 C   0  0  2  0  0  0  0  0  0  0  0  0
   -2.0088   -1.0242   -0.5183 O   0  0  0  0  0  0  0  0  0  0  0  0
   -2.4758   -0.1907   -1.7890 P   0  0  0  0  0  0  0  0  0  0  0  0
   -3.0327   -1.2180   -2.7797 O   0  0  0  0  0  0  0  0  0  0  0  0
   -3.8462    0.7489   -1.4023 O   0  0  0  0  0  0  0  0  0  0  0  0
   -1.4779    0.7589   -2.6861 O   0  0  0  0  0  0  0  0  0  0  0  0
   -1.4891    1.1066    0.0569 C   0  0  1  0  0  0  0  0  0  0  0  0
   -1.4296    1.3467    1.5403 O   0  0  0  0  0  0  0  0  0  0  0  0
   -2.9437    1.3982    2.1840 P   0  0  0  0  0  0  0  0  0  0  0  0
   -3.5950    2.7571    2.1516 O   0  0  0  0  0  0  0  0  0  0  0  0
   -2.7878    0.9861    3.8308 O   0  0  0  0  0  0  0  0  0  0  0  0
   -4.0299    0.2899    1.5504 O   0  0  0  0  0  0  0  0  0  0  0  0
    0.0364    1.8308   -0.2841 C   0  0  1  0  0  0  0  0  0  0  0  0
   -0.1655    3.0213    0.6171 O   0  0  0  0  0  0  0  0  0  0  0  0
    0.8294    0.8883    0.9131 C   0  0  2  0  0  0  0  0  0  0  0  0
    1.9547    1.8578    1.0895 O   0  0  0  0  0  0  0  0  0  0  0  0
    2.6731    2.4268   -0.1843 P   0  0  0  0  0  0  0  0  0  0  0  0
    3.2445    3.7835    0.2525 O   0  0  0  0  0  0  0  0  0  0  0  0
    4.0905    1.5791   -0.6121 O   0  0  0  0  0  0  0  0  0  0  0  0
    1.8899    2.7860   -1.6012 O   0  0  0  0  0  0  0  0  0  0  0  0
  1  2  2  0
  2  3  1  0
  2  4  1  0
  2  5  1  0
  6  5  1  1
  6  7  1  0
  7  8  1  1
  8  9  1  0
  9 10  2  0
  9 11  1  0
  9 12  1  0
  7 13  1  0
 13 14  1  6
 14 15  1  0
 15 16  2  0
 15 17  1  0
 15 18  1  0
 13 19  1  0
 19 20  1  1
 20 21  1  0
 21 22  2  0
 21 23  1  0
 21 24  1  0
 19 25  1  0
 25 26  1  1
 25 27  1  0
 27 28  1  6
 28 29  1  0
 29 30  2  0
 29 31  1  0
 29 32  1  0
 27  6  1  0
M  END
>  <zinc_id>  (1) 
ZINC000253803467

>  <smiles>  (1) 
O=P(O)(O)O[C@H]1[C@H](OP(=O)(O)O)[C@@H](OP(=O)(O)O)[C@@H](O)[C@H](OP(=O)(O)O)[C@H]1OP(=O)(O)O

$$$$
