448923
  -OEChem-12201913263D

 59 61  0     1  0  0  0  0  0999 V2000
    0.5077   -3.7072    0.6766 P   0  0  2  0  0  0  0  0  0  0  0  0
    2.6543   -1.8443    1.4376 P   0  0  1  0  0  0  0  0  0  0  0  0
    4.9216   -0.3504   -0.8746 F   0  0  0  0  0  0  0  0  0  0  0  0
   -3.1728   -1.6353   -0.2326 O   0  0  0  0  0  0  0  0  0  0  0  0
    1.5340    0.8570   -0.6779 O   0  0  0  0  0  0  0  0  0  0  0  0
   -3.9814   -1.5814   -3.1192 O   0  0  0  0  0  0  0  0  0  0  0  0
   -3.4172    1.0379   -2.6102 O   0  0  0  0  0  0  0  0  0  0  0  0
   -0.9565   -3.3327    0.0995 O   0  0  0  0  0  0  0  0  0  0  0  0
    2.8445   -0.3357    0.8971 O   0  0  0  0  0  0  0  0  0  0  0  0
    3.2858    4.0518   -0.2169 O   0  0  0  0  0  0  0  0  0  0  0  0
    5.2578    2.3726   -1.6052 O   0  0  0  0  0  0  0  0  0  0  0  0
    1.1612   -2.2596    0.9774 O   0  0  0  0  0  0  0  0  0  0  0  0
    0.2913    3.0843   -1.7856 O   0  0  0  0  0  0  0  0  0  0  0  0
   -4.8333    2.0993    0.1973 O   0  0  0  0  0  0  0  0  0  0  0  0
    1.3227   -4.2102   -0.6271 O   0  0  0  0  0  0  0  0  0  0  0  0
    3.6003   -2.7427    0.4808 O   0  0  0  0  0  0  0  0  0  0  0  0
    0.5261   -4.6547    1.8402 O   0  0  0  0  0  0  0  0  0  0  0  0
    2.9163   -2.0169    2.9057 O   0  0  0  0  0  0  0  0  0  0  0  0
   -1.8871    2.8830    3.6543 O   0  0  0  0  0  0  0  0  0  0  0  0
   -3.1003    0.5701    0.5393 N   0  0  0  0  0  0  0  0  0  0  0  0
   -3.3647    2.4882    1.9179 N   0  0  0  0  0  0  0  0  0  0  0  0
   -2.7145   -1.2886   -2.5307 C   0  0  1  0  0  0  0  0  0  0  0  0
   -2.7558    0.0570   -1.8379 C   0  0  2  0  0  0  0  0  0  0  0  0
   -2.5082   -2.2428   -1.3622 C   0  0  1  0  0  0  0  0  0  0  0  0
   -3.4960   -0.2725   -0.5532 C   0  0  1  0  0  0  0  0  0  0  0  0
    3.0066    2.8016   -0.8419 C   0  0  1  0  0  0  0  0  0  0  0  0
    4.2329    1.8921   -0.7349 C   0  0  1  0  0  0  0  0  0  0  0  0
    1.7859    2.1681   -0.1625 C   0  0  1  0  0  0  0  0  0  0  0  0
    3.8811    0.4751   -1.1684 C   0  0  2  0  0  0  0  0  0  0  0  0
   -1.0428   -2.4424   -0.9994 C   0  0  0  0  0  0  0  0  0  0  0  0
    2.6239   -0.0455   -0.4813 C   0  0  2  0  0  0  0  0  0  0  0  0
    0.5244    2.9962   -0.3920 C   0  0  0  0  0  0  0  0  0  0  0  0
   -3.8396    1.7401    0.8324 C   0  0  0  0  0  0  0  0  0  0  0  0
   -1.9912    0.2350    1.3074 C   0  0  0  0  0  0  0  0  0  0  0  0
   -1.5508    0.9581    2.3391 C   0  0  0  0  0  0  0  0  0  0  0  0
   -2.2662    2.1953    2.7111 C   0  0  0  0  0  0  0  0  0  0  0  0
   -1.9551   -1.3517   -3.3152 H   0  0  0  0  0  0  0  0  0  0  0  0
   -1.7339    0.4032   -1.6403 H   0  0  0  0  0  0  0  0  0  0  0  0
   -2.9878   -3.2149   -1.5232 H   0  0  0  0  0  0  0  0  0  0  0  0
   -4.5818   -0.2059   -0.6926 H   0  0  0  0  0  0  0  0  0  0  0  0
    2.8067    3.0056   -1.9003 H   0  0  0  0  0  0  0  0  0  0  0  0
    4.6502    1.8982    0.2779 H   0  0  0  0  0  0  0  0  0  0  0  0
    1.9417    2.1027    0.9222 H   0  0  0  0  0  0  0  0  0  0  0  0
    3.7434    0.4489   -2.2562 H   0  0  0  0  0  0  0  0  0  0  0  0
   -0.5516   -1.5000   -0.7454 H   0  0  0  0  0  0  0  0  0  0  0  0
   -0.5227   -2.8791   -1.8574 H   0  0  0  0  0  0  0  0  0  0  0  0
    2.3389   -0.9748   -0.9862 H   0  0  0  0  0  0  0  0  0  0  0  0
   -0.3434    2.5077    0.0581 H   0  0  0  0  0  0  0  0  0  0  0  0
    0.6218    4.0050    0.0204 H   0  0  0  0  0  0  0  0  0  0  0  0
   -3.9194   -2.4667   -3.5169 H   0  0  0  0  0  0  0  0  0  0  0  0
   -3.4732    1.8449   -2.0708 H   0  0  0  0  0  0  0  0  0  0  0  0
   -1.4532   -0.6657    1.0526 H   0  0  0  0  0  0  0  0  0  0  0  0
    3.4760    3.8826    0.7216 H   0  0  0  0  0  0  0  0  0  0  0  0
    4.9047    2.3912   -2.5110 H   0  0  0  0  0  0  0  0  0  0  0  0
   -3.8807    3.3333    2.1465 H   0  0  0  0  0  0  0  0  0  0  0  0
   -0.6802    0.6663    2.9137 H   0  0  0  0  0  0  0  0  0  0  0  0
   -0.5228    3.6018   -1.9082 H   0  0  0  0  0  0  0  0  0  0  0  0
    1.4605   -3.5975   -1.3801 H   0  0  0  0  0  0  0  0  0  0  0  0
    3.7460   -3.6856    0.7084 H   0  0  0  0  0  0  0  0  0  0  0  0
  1  8  1  0  0  0  0
  1 12  1  0  0  0  0
  1 15  1  0  0  0  0
  1 17  2  0  0  0  0
  2  9  1  0  0  0  0
  2 12  1  0  0  0  0
  2 16  1  0  0  0  0
  2 18  2  0  0  0  0
  3 29  1  0  0  0  0
  4 24  1  0  0  0  0
  4 25  1  0  0  0  0
  5 28  1  0  0  0  0
  5 31  1  0  0  0  0
  6 22  1  0  0  0  0
  6 50  1  0  0  0  0
  7 23  1  0  0  0  0
  7 51  1  0  0  0  0
  8 30  1  0  0  0  0
  9 31  1  0  0  0  0
 10 26  1  0  0  0  0
 10 53  1  0  0  0  0
 11 27  1  0  0  0  0
 11 54  1  0  0  0  0
 13 32  1  0  0  0  0
 13 57  1  0  0  0  0
 14 33  2  0  0  0  0
 15 58  1  0  0  0  0
 16 59  1  0  0  0  0
 19 36  2  0  0  0  0
 20 25  1  0  0  0  0
 20 33  1  0  0  0  0
 20 34  1  0  0  0  0
 21 33  1  0  0  0  0
 21 36  1  0  0  0  0
 21 55  1  0  0  0  0
 22 23  1  0  0  0  0
 22 24  1  0  0  0  0
 22 37  1  0  0  0  0
 23 25  1  0  0  0  0
 23 38  1  0  0  0  0
 24 30  1  0  0  0  0
 24 39  1  0  0  0  0
 25 40  1  0  0  0  0
 26 27  1  0  0  0  0
 26 28  1  0  0  0  0
 26 41  1  0  0  0  0
 27 29  1  0  0  0  0
 27 42  1  0  0  0  0
 28 32  1  0  0  0  0
 28 43  1  0  0  0  0
 29 31  1  0  0  0  0
 29 44  1  0  0  0  0
 30 45  1  0  0  0  0
 30 46  1  0  0  0  0
 31 47  1  0  0  0  0
 32 48  1  0  0  0  0
 32 49  1  0  0  0  0
 34 35  2  0  0  0  0
 34 52  1  0  0  0  0
 35 36  1  0  0  0  0
 35 56  1  0  0  0  0
M  END
> <DATABASE_ID>
DB03488

> <DATABASE_NAME>
drugbank

> <ORIGINAL_SOURCE>
PUBCHEM

> <ORIGINAL_SOURCE_URL>
https://pubchem.ncbi.nlm.nih.gov/rest/pug/compound/inchikey/NGTCPFGWXMBZEP-NQQHDEILSA-N/SDF?record_type=3d

> <SMILES>
OC[C@H]1O[C@H](OP(O)(=O)OP(O)(=O)OC[C@H]2O[C@H]([C@H](O)[C@@H]2O)N2C=CC(=O)NC2=O)[C@H](F)[C@@H](O)[C@@H]1O

> <INCHI_IDENTIFIER>
InChI=1S/C15H23FN2O16P2/c16-8-11(23)9(21)5(3-19)32-14(8)33-36(28,29)34-35(26,27)30-4-6-10(22)12(24)13(31-6)18-2-1-7(20)17-15(18)25/h1-2,5-6,8-14,19,21-24H,3-4H2,(H,26,27)(H,28,29)(H,17,20,25)/t5-,6-,8-,9-,10-,11-,12-,13-,14-/m1/s1

> <INCHI_KEY>
NGTCPFGWXMBZEP-NQQHDEILSA-N

> <FORMULA>
C15H23FN2O16P2

> <MOLECULAR_WEIGHT>
568.2928

> <EXACT_MASS>
568.050683927

> <JCHEM_ACCEPTOR_COUNT>
13

> <JCHEM_ATOM_COUNT>
59

> <JCHEM_AVERAGE_NEUTRAL_MICROSPECIES_CHARGE>
-2.0019000178716166

> <JCHEM_AVERAGE_POLARIZABILITY>
45.30710506419192

> <JCHEM_BIOAVAILABILITY>
0

> <JCHEM_DONOR_COUNT>
8

> <JCHEM_FORMAL_CHARGE>
0

> <JCHEM_GHOSE_FILTER>
0

> <JCHEM_IUPAC>
{[(2R,3S,4R,5R)-5-(2,4-dioxo-1,2,3,4-tetrahydropyrimidin-1-yl)-3,4-dihydroxyoxolan-2-yl]methoxy}[({[(2R,3R,4S,5S,6R)-3-fluoro-4,5-dihydroxy-6-(hydroxymethyl)oxan-2-yl]oxy}(hydroxy)phosphoryl)oxy]phosphinic acid

> <ALOGPS_LOGP>
-0.94

> <JCHEM_LOGP>
-4.105516304666667

> <ALOGPS_LOGS>
-1.42

> <JCHEM_MDDR_LIKE_RULE>
1

> <JCHEM_NEUTRAL_CHARGE>
-2

> <JCHEM_NUMBER_OF_RINGS>
3

> <JCHEM_PHYSIOLOGICAL_CHARGE>
-2

> <JCHEM_PKA>
3.175445804691092

> <JCHEM_PKA_STRONGEST_ACIDIC>
1.7311594968845387

> <JCHEM_PKA_STRONGEST_BASIC>
-2.981111056554834

> <JCHEM_POLAR_SURFACE_AREA>
271.31

> <JCHEM_REFRACTIVITY>
104.76369999999999

> <JCHEM_ROTATABLE_BOND_COUNT>
9

> <JCHEM_RULE_OF_FIVE>
0

> <ALOGPS_SOLUBILITY>
2.17e+01 g/l

> <JCHEM_TRADITIONAL_IUPAC>
N-{3-[4-(3-aminopropyl)piperazin-1-yl]propyl}-3-[2-(thiophen-2-yl)acetamido]-5-{[(2R,3R,4S,5R,6R)-3,4,5-trihydroxy-6-(hydroxymethyl)oxan-2-yl]oxy}benzamide

> <JCHEM_VEBER_RULE>
0

$$$$
