49866641
  -OEChem-06112217033D

 68 71  0     1  0  0  0  0  0999 V2000
   -0.0687    1.9939    3.0172 P   0  0  0  0  0  0  0  0  0  0  0  0
    4.6370    0.7767   -1.4537 P   0  0  1  0  0  0  0  0  0  0  0  0
    3.5210   -1.0929    0.5253 P   0  0  2  0  0  0  0  0  0  0  0  0
   -0.0033    2.6693   -1.9059 O   0  0  0  0  0  0  0  0  0  0  0  0
   -0.6915    2.5511    1.6284 O   0  0  0  0  0  0  0  0  0  0  0  0
    0.8904    4.4320    0.3903 O   0  0  0  0  0  0  0  0  0  0  0  0
    3.4860    1.8886   -1.2129 O   0  0  0  0  0  0  0  0  0  0  0  0
    0.5267   -2.8757    1.3952 O   0  0  0  0  0  0  0  0  0  0  0  0
   -0.1382   -5.2403   -1.2194 O   0  0  0  0  0  0  0  0  0  0  0  0
   -1.1664   -5.3587    1.3241 O   0  0  0  0  0  0  0  0  0  0  0  0
    3.1144   -2.6411    0.2911 O   0  0  0  0  0  0  0  0  0  0  0  0
   -1.5264   -1.7822    1.0403 O   0  0  0  0  0  0  0  0  0  0  0  0
    3.9745   -0.6089   -0.9488 O   0  0  0  0  0  0  0  0  0  0  0  0
   -1.1545    2.4658    4.1188 O   0  0  0  0  0  0  0  0  0  0  0  0
   -0.3010    0.3961    2.9271 O   0  0  0  0  0  0  0  0  0  0  0  0
    1.3425    2.4226    3.2943 O   0  0  0  0  0  0  0  0  0  0  0  0
    4.6935    0.5965   -3.0604 O   0  0  0  0  0  0  0  0  0  0  0  0
    5.9602    1.0934   -0.8191 O   0  0  0  0  0  0  0  0  0  0  0  0
    4.9228   -1.1761    1.3282 O   0  0  0  0  0  0  0  0  0  0  0  0
    2.4717   -0.2344    1.1693 O   0  0  0  0  0  0  0  0  0  0  0  0
   -1.8943    1.3539   -1.0987 N   0  0  0  0  0  0  0  0  0  0  0  0
   -3.8604    2.0875    0.1006 N   0  0  0  0  0  0  0  0  0  0  0  0
   -2.6824   -0.5731   -1.9260 N   0  0  0  0  0  0  0  0  0  0  0  0
   -5.9064    0.6913   -0.5447 N   0  0  0  0  0  0  0  0  0  0  0  0
   -5.5640   -1.1155   -2.0923 N   0  0  0  0  0  0  0  0  0  0  0  0
   -0.0535    2.2074    0.4146 C   0  0  1  0  0  0  0  0  0  0  0  0
   -0.9217    2.4731   -0.8109 C   0  0  1  0  0  0  0  0  0  0  0  0
    1.1674    3.0576    0.1254 C   0  0  1  0  0  0  0  0  0  0  0  0
    1.3245    2.8917   -1.3806 C   0  0  1  0  0  0  0  0  0  0  0  0
    2.1938    1.7015   -1.7627 C   0  0  0  0  0  0  0  0  0  0  0  0
   -3.1763    1.2346   -0.6738 C   0  0  0  0  0  0  0  0  0  0  0  0
   -3.6556    0.0571   -1.1955 C   0  0  0  0  0  0  0  0  0  0  0  0
   -1.6404    0.2349   -1.8558 C   0  0  0  0  0  0  0  0  0  0  0  0
   -0.2884   -4.0413   -0.4895 C   0  0  2  0  0  0  0  0  0  0  0  0
    0.9661   -3.6897    0.2932 C   0  0  1  0  0  0  0  0  0  0  0  0
   -5.0329   -0.4476   -0.9117 C   0  0  1  0  0  0  0  0  0  0  0  0
   -1.3229   -4.1342    0.6139 C   0  0  2  0  0  0  0  0  0  0  0  0
   -0.9069   -2.9747    1.5073 C   0  0  1  0  0  0  0  0  0  0  0  0
   -5.2303    1.6397    0.3842 C   0  0  0  0  0  0  0  0  0  0  0  0
    1.9939   -2.9298   -0.5265 C   0  0  0  0  0  0  0  0  0  0  0  0
    0.2266    1.1476    0.4407 H   0  0  0  0  0  0  0  0  0  0  0  0
   -1.5344    3.3765   -0.7098 H   0  0  0  0  0  0  0  0  0  0  0  0
    2.0434    2.7767    0.7151 H   0  0  0  0  0  0  0  0  0  0  0  0
    1.7239    3.8019   -1.8427 H   0  0  0  0  0  0  0  0  0  0  0  0
    2.2617    1.6273   -2.8535 H   0  0  0  0  0  0  0  0  0  0  0  0
    1.7630    0.7613   -1.4043 H   0  0  0  0  0  0  0  0  0  0  0  0
   -0.6809    0.0575   -2.3220 H   0  0  0  0  0  0  0  0  0  0  0  0
    1.6888    4.9388    0.1634 H   0  0  0  0  0  0  0  0  0  0  0  0
   -0.5517   -3.2335   -1.1837 H   0  0  0  0  0  0  0  0  0  0  0  0
    1.4373   -4.5836    0.7213 H   0  0  0  0  0  0  0  0  0  0  0  0
   -4.9892   -1.1549   -0.0749 H   0  0  0  0  0  0  0  0  0  0  0  0
   -2.3478   -4.0746    0.2356 H   0  0  0  0  0  0  0  0  0  0  0  0
   -3.4982    2.9373    0.5184 H   0  0  0  0  0  0  0  0  0  0  0  0
   -1.1709   -3.1328    2.5580 H   0  0  0  0  0  0  0  0  0  0  0  0
   -5.8634    2.5310    0.4551 H   0  0  0  0  0  0  0  0  0  0  0  0
   -5.2284    1.1853    1.3834 H   0  0  0  0  0  0  0  0  0  0  0  0
   -6.7686    0.3467   -0.1249 H   0  0  0  0  0  0  0  0  0  0  0  0
    2.3356   -3.5282   -1.3765 H   0  0  0  0  0  0  0  0  0  0  0  0
    1.5652   -1.9977   -0.9125 H   0  0  0  0  0  0  0  0  0  0  0  0
   -5.0119   -1.9485   -2.2947 H   0  0  0  0  0  0  0  0  0  0  0  0
   -6.5079   -1.4445   -1.8935 H   0  0  0  0  0  0  0  0  0  0  0  0
   -1.0063   -5.4620   -1.5972 H   0  0  0  0  0  0  0  0  0  0  0  0
   -1.8042   -5.3518    2.0582 H   0  0  0  0  0  0  0  0  0  0  0  0
   -1.5251   -1.1505    1.7792 H   0  0  0  0  0  0  0  0  0  0  0  0
   -0.9578    2.3251    5.0695 H   0  0  0  0  0  0  0  0  0  0  0  0
    0.0686   -0.1784    3.6309 H   0  0  0  0  0  0  0  0  0  0  0  0
    5.4149    0.0596   -3.4523 H   0  0  0  0  0  0  0  0  0  0  0  0
    5.6591   -1.6974    0.9431 H   0  0  0  0  0  0  0  0  0  0  0  0
  1  5  1  0  0  0  0
  1 14  1  0  0  0  0
  1 15  1  0  0  0  0
  1 16  2  0  0  0  0
  2  7  1  0  0  0  0
  2 13  1  0  0  0  0
  2 17  1  0  0  0  0
  2 18  2  0  0  0  0
  3 11  1  0  0  0  0
  3 13  1  0  0  0  0
  3 19  1  0  0  0  0
  3 20  2  0  0  0  0
  4 27  1  0  0  0  0
  4 29  1  0  0  0  0
  5 26  1  0  0  0  0
  6 28  1  0  0  0  0
  6 48  1  0  0  0  0
  7 30  1  0  0  0  0
  8 35  1  0  0  0  0
  8 38  1  0  0  0  0
  9 34  1  0  0  0  0
  9 62  1  0  0  0  0
 10 37  1  0  0  0  0
 10 63  1  0  0  0  0
 11 40  1  0  0  0  0
 12 38  1  0  0  0  0
 12 64  1  0  0  0  0
 14 65  1  0  0  0  0
 15 66  1  0  0  0  0
 17 67  1  0  0  0  0
 19 68  1  0  0  0  0
 21 27  1  0  0  0  0
 21 31  1  0  0  0  0
 21 33  1  0  0  0  0
 22 31  1  0  0  0  0
 22 39  1  0  0  0  0
 22 53  1  0  0  0  0
 23 32  1  0  0  0  0
 23 33  2  0  0  0  0
 24 36  1  0  0  0  0
 24 39  1  0  0  0  0
 24 57  1  0  0  0  0
 25 36  1  0  0  0  0
 25 60  1  0  0  0  0
 25 61  1  0  0  0  0
 26 27  1  0  0  0  0
 26 28  1  0  0  0  0
 26 41  1  0  0  0  0
 27 42  1  0  0  0  0
 28 29  1  0  0  0  0
 28 43  1  0  0  0  0
 29 30  1  0  0  0  0
 29 44  1  0  0  0  0
 30 45  1  0  0  0  0
 30 46  1  0  0  0  0
 31 32  2  0  0  0  0
 32 36  1  0  0  0  0
 33 47  1  0  0  0  0
 34 35  1  0  0  0  0
 34 37  1  0  0  0  0
 34 49  1  0  0  0  0
 35 40  1  0  0  0  0
 35 50  1  0  0  0  0
 36 51  1  0  0  0  0
 37 38  1  0  0  0  0
 37 52  1  0  0  0  0
 38 54  1  0  0  0  0
 39 55  1  0  0  0  0
 39 56  1  0  0  0  0
 40 58  1  0  0  0  0
 40 59  1  0  0  0  0
M  END
> <PUBCHEM_COMPOUND_CID>
49866641

> <PUBCHEM_CONFORMER_RMSD>
1.4

> <PUBCHEM_CONFORMER_DIVERSEORDER>
1
151
192
57
90
216
4
169
110
212
36
94
201
128
6
140
118
119
167
78
24
195
224
55
10
137
190
69
217
139
222
202
67
157
75
233
142
98
77
108
193
64
59
46
158
144
179
83
26
113
100
160
120
85
210
176
35
213
70
41
225
14
87
178
173
28
204
125
50
96
61
66
131
72
62
164
185
45
166
33
25
103
136
170
76
143
73
44
180
207
194
186
162
184
117
147
82
154
37
135
145
116
161
49
80
208
81
34
231
51
218
148
122
149
99
187
104
92
126
123
93
163
89
203
68
219
138
42
19
221
150
205
106
84
29
196
214
223
199
229
197
183
121
127
56
215
133
9
198
112
31
177
175
156
174
101
71
146
220
5
43
226
152
200
88
38
30
168
134
102
189
228
206
181
107
3
2
159
39
209
155
47
12
129
211
16
54
74
23
114
109
63
13
32
111
40
171
8
20
17
105
227
53
58
188
141
79
11
130
182
124
232
22
18
115
91
27
230
86
153
15
60
191
52
65
95
172
21
48
7
132
97
165

> <PUBCHEM_MMFF94_PARTIAL_CHARGES>
53
1 1.51
10 -0.68
11 -0.55
12 -0.68
13 -0.54
14 -0.77
15 -0.77
16 -0.7
17 -0.77
18 -0.7
19 -0.77
2 1.51
20 -0.7
21 0.05
22 -0.85
23 -0.57
24 -0.9
25 -0.99
26 0.28
27 0.54
28 0.28
29 0.28
3 1.51
30 0.28
31 -0.07
32 0.05
33 0.04
34 0.28
35 0.28
36 0.72
37 0.28
38 0.56
39 0.64
4 -0.56
40 0.28
47 0.15
48 0.4
5 -0.55
53 0.4
57 0.36
6 -0.68
60 0.36
61 0.36
62 0.4
63 0.4
64 0.4
65 0.5
66 0.5
67 0.5
68 0.5
7 -0.55
8 -0.56
9 -0.68

> <PUBCHEM_EFFECTIVE_ROTOR_COUNT>
13.8

> <PUBCHEM_PHARMACOPHORE_FEATURES>
29
1 10 acceptor
1 10 donor
1 12 acceptor
1 12 donor
1 14 acceptor
1 15 acceptor
1 16 acceptor
1 17 acceptor
1 18 acceptor
1 19 acceptor
1 20 acceptor
1 22 cation
1 22 donor
1 24 cation
1 24 donor
1 25 cation
1 25 donor
1 4 acceptor
1 6 acceptor
1 6 donor
1 8 acceptor
1 9 acceptor
1 9 donor
3 21 23 33 cation
4 1 14 15 16 anion
5 21 23 31 32 33 rings
5 4 26 27 28 29 rings
5 8 34 35 37 38 rings
6 22 24 31 32 36 39 rings

> <PUBCHEM_HEAVY_ATOM_COUNT>
40

> <PUBCHEM_ATOM_DEF_STEREO_COUNT>
9

> <PUBCHEM_ATOM_UDEF_STEREO_COUNT>
0

> <PUBCHEM_BOND_DEF_STEREO_COUNT>
0

> <PUBCHEM_BOND_UDEF_STEREO_COUNT>
0

> <PUBCHEM_ISOTOPIC_ATOM_COUNT>
0

> <PUBCHEM_COMPONENT_COUNT>
1

> <PUBCHEM_CACTVS_TAUTO_COUNT>
1

> <PUBCHEM_CONFORMER_ID>
02F8E79100000001

> <PUBCHEM_MMFF94_ENERGY>
16.8807

> <PUBCHEM_FEATURE_SELFOVERLAP>
147.521

> <PUBCHEM_SHAPE_FINGERPRINT>
12156800 1 17831274449177468144
12355185 1 17986955361369294943
13560911 43 17827354384765414642
1361 2 18260834756476516013
14028597 1 17916043282401245329
14932702 115 18194697083783419708
15968369 153 17838047466358659159
161222 619 18117303400981453811
17492 54 17967812756016994228
19319366 153 18267857290305033855
19930381 70 17972038046132417063
20764821 26 18118392088848363118
21133410 90 17916308431568466712
24941158 1 16554534787886775778
463206 1 18335983155431741484
469060 322 17685782315422937154
6287921 2 17978508628922717639
66674814 147 18334009471492257174

> <PUBCHEM_SHAPE_MULTIPOLES>
710.05
9.28
6.49
2.96
2.08
7.82
2.48
-2
-5.62
-0.41
1.56
-0.39
-2.12
-1.2

> <PUBCHEM_SHAPE_SELFOVERLAP>
1446.564

> <PUBCHEM_SHAPE_VOLUME>
413.5

> <PUBCHEM_COORDINATE_TYPE>
2
5
10

$$$$
