9900246
  -OEChem-02072016333D

 48 51  0     1  0  0  0  0  0999 V2000
   -5.1425    1.0583   -0.1194 O   0  0  0  0  0  0  0  0  0  0  0  0
    5.9526    0.0856   -0.2456 O   0  0  0  0  0  0  0  0  0  0  0  0
   -1.9763   -0.6881    0.3666 C   0  0  2  0  0  0  0  0  0  0  0  0
   -2.7146    0.5675   -0.1354 C   0  0  2  0  0  0  0  0  0  0  0  0
   -0.5327   -0.7605   -0.1312 C   0  0  1  0  0  0  0  0  0  0  0  0
    0.2391    0.4956    0.3563 C   0  0  2  0  0  0  0  0  0  0  0  0
   -1.9949    1.7981    0.4322 C   0  0  0  0  0  0  0  0  0  0  0  0
   -4.1063    0.2959    0.4689 C   0  0  2  0  0  0  0  0  0  0  0  0
   -0.5072    1.8161    0.0390 C   0  0  0  0  0  0  0  0  0  0  0  0
   -2.9339   -1.8268    0.0291 C   0  0  0  0  0  0  0  0  0  0  0  0
    1.6895    0.4955   -0.2132 C   0  0  2  0  0  0  0  0  0  0  0  0
   -4.3298   -1.2102    0.2324 C   0  0  0  0  0  0  0  0  0  0  0  0
    0.1758   -2.0304    0.3635 C   0  0  0  0  0  0  0  0  0  0  0  0
   -2.8105    0.6890   -1.6771 C   0  0  0  0  0  0  0  0  0  0  0  0
    2.3327   -0.8840   -0.2010 C   0  0  0  0  0  0  0  0  0  0  0  0
    2.5705    1.5064    0.5538 C   0  0  0  0  0  0  0  0  0  0  0  0
    1.6483   -2.0028    0.0918 C   0  0  0  0  0  0  0  0  0  0  0  0
    3.7933   -0.9384   -0.5672 C   0  0  0  0  0  0  0  0  0  0  0  0
    4.0328    1.4691    0.1165 C   0  0  0  0  0  0  0  0  0  0  0  0
    4.6143    0.0642    0.2400 C   0  0  2  0  0  0  0  0  0  0  0  0
   -1.9299   -0.6455    1.4681 H   0  0  0  0  0  0  0  0  0  0  0  0
   -0.5224   -0.7815   -1.2289 H   0  0  0  0  0  0  0  0  0  0  0  0
    0.3040    0.4297    1.4535 H   0  0  0  0  0  0  0  0  0  0  0  0
   -2.0642    1.8011    1.5279 H   0  0  0  0  0  0  0  0  0  0  0  0
   -2.4783    2.7212    0.0906 H   0  0  0  0  0  0  0  0  0  0  0  0
   -4.1102    0.5020    1.5461 H   0  0  0  0  0  0  0  0  0  0  0  0
   -0.4138    2.0447   -1.0291 H   0  0  0  0  0  0  0  0  0  0  0  0
   -0.0313    2.6484    0.5699 H   0  0  0  0  0  0  0  0  0  0  0  0
   -2.7830   -2.6960    0.6773 H   0  0  0  0  0  0  0  0  0  0  0  0
   -2.8111   -2.1605   -1.0073 H   0  0  0  0  0  0  0  0  0  0  0  0
    1.6475    0.8108   -1.2657 H   0  0  0  0  0  0  0  0  0  0  0  0
   -4.9715   -1.4126   -0.6325 H   0  0  0  0  0  0  0  0  0  0  0  0
   -4.8257   -1.6542    1.1030 H   0  0  0  0  0  0  0  0  0  0  0  0
   -0.2567   -2.9026   -0.1412 H   0  0  0  0  0  0  0  0  0  0  0  0
    0.0217   -2.1726    1.4400 H   0  0  0  0  0  0  0  0  0  0  0  0
   -3.3303    1.6116   -1.9607 H   0  0  0  0  0  0  0  0  0  0  0  0
   -1.8297    0.7207   -2.1591 H   0  0  0  0  0  0  0  0  0  0  0  0
   -3.3575   -0.1438   -2.1304 H   0  0  0  0  0  0  0  0  0  0  0  0
    2.5184    1.3033    1.6316 H   0  0  0  0  0  0  0  0  0  0  0  0
    2.1958    2.5250    0.4054 H   0  0  0  0  0  0  0  0  0  0  0  0
    2.1598   -2.9617    0.1062 H   0  0  0  0  0  0  0  0  0  0  0  0
    4.2109   -1.9435   -0.4272 H   0  0  0  0  0  0  0  0  0  0  0  0
    3.9004   -0.7255   -1.6393 H   0  0  0  0  0  0  0  0  0  0  0  0
    4.1234    1.8223   -0.9191 H   0  0  0  0  0  0  0  0  0  0  0  0
    4.6228    2.1687    0.7210 H   0  0  0  0  0  0  0  0  0  0  0  0
    4.6451   -0.2308    1.2960 H   0  0  0  0  0  0  0  0  0  0  0  0
   -5.2931    0.7402   -1.0249 H   0  0  0  0  0  0  0  0  0  0  0  0
    6.3096   -0.8148   -0.1593 H   0  0  0  0  0  0  0  0  0  0  0  0
  1  8  1  0  0  0  0
  1 47  1  0  0  0  0
  2 20  1  0  0  0  0
  2 48  1  0  0  0  0
  3  4  1  0  0  0  0
  3  5  1  0  0  0  0
  3 10  1  0  0  0  0
  3 21  1  0  0  0  0
  4  7  1  0  0  0  0
  4  8  1  0  0  0  0
  4 14  1  0  0  0  0
  5  6  1  0  0  0  0
  5 13  1  0  0  0  0
  5 22  1  0  0  0  0
  6  9  1  0  0  0  0
  6 11  1  0  0  0  0
  6 23  1  0  0  0  0
  7  9  1  0  0  0  0
  7 24  1  0  0  0  0
  7 25  1  0  0  0  0
  8 12  1  0  0  0  0
  8 26  1  0  0  0  0
  9 27  1  0  0  0  0
  9 28  1  0  0  0  0
 10 12  1  0  0  0  0
 10 29  1  0  0  0  0
 10 30  1  0  0  0  0
 11 15  1  0  0  0  0
 11 16  1  0  0  0  0
 11 31  1  0  0  0  0
 12 32  1  0  0  0  0
 12 33  1  0  0  0  0
 13 17  1  0  0  0  0
 13 34  1  0  0  0  0
 13 35  1  0  0  0  0
 14 36  1  0  0  0  0
 14 37  1  0  0  0  0
 14 38  1  0  0  0  0
 15 17  2  0  0  0  0
 15 18  1  0  0  0  0
 16 19  1  0  0  0  0
 16 39  1  0  0  0  0
 16 40  1  0  0  0  0
 17 41  1  0  0  0  0
 18 20  1  0  0  0  0
 18 42  1  0  0  0  0
 18 43  1  0  0  0  0
 19 20  1  0  0  0  0
 19 44  1  0  0  0  0
 19 45  1  0  0  0  0
 20 46  1  0  0  0  0
M  END
> <DATABASE_ID>
DB01455

> <DATABASE_NAME>
drugbank

> <ORIGINAL_SOURCE>
PUBCHEM

> <ORIGINAL_SOURCE_URL>
https://pubchem.ncbi.nlm.nih.gov/rest/pug/compound/inchikey/VVUQRXPUVKXAIO-XFUVECHXSA-N/SDF?record_type=3d

> <SMILES>
[H][C@@]12CC[C@H](O)[C@@]1(C)CC[C@]1([H])[C@@]3([H])CC[C@H](O)CC3=CC[C@@]21[H]

> <INCHI_IDENTIFIER>
InChI=1S/C18H28O2/c1-18-9-8-14-13-5-3-12(19)10-11(13)2-4-15(14)16(18)6-7-17(18)20/h2,12-17,19-20H,3-10H2,1H3/t12-,13-,14+,15+,16-,17-,18-/m0/s1

> <INCHI_KEY>
VVUQRXPUVKXAIO-XFUVECHXSA-N

> <FORMULA>
C18H28O2

> <MOLECULAR_WEIGHT>
276.4137

> <EXACT_MASS>
276.20893014

> <JCHEM_ACCEPTOR_COUNT>
2

> <JCHEM_ATOM_COUNT>
48

> <JCHEM_AVERAGE_NEUTRAL_MICROSPECIES_CHARGE>
1.6174974343774184e-08

> <JCHEM_AVERAGE_POLARIZABILITY>
33.210168027715895

> <JCHEM_BIOAVAILABILITY>
1

> <JCHEM_DONOR_COUNT>
2

> <JCHEM_FORMAL_CHARGE>
0

> <JCHEM_GHOSE_FILTER>
1

> <JCHEM_IUPAC>
(1S,3aS,3bR,7S,9aR,9bS,11aS)-11a-methyl-1H,2H,3H,3aH,3bH,4H,6H,7H,8H,9H,9aH,9bH,10H,11H,11aH-cyclopenta[a]phenanthrene-1,7-diol

> <ALOGPS_LOGP>
3.06

> <JCHEM_LOGP>
2.4981302296666668

> <ALOGPS_LOGS>
-3.63

> <JCHEM_MDDR_LIKE_RULE>
0

> <JCHEM_NEUTRAL_CHARGE>
0

> <JCHEM_NUMBER_OF_RINGS>
4

> <JCHEM_PHYSIOLOGICAL_CHARGE>
0

> <JCHEM_PKA>
19.377698803650205

> <JCHEM_PKA_STRONGEST_ACIDIC>
18.22693865327216

> <JCHEM_PKA_STRONGEST_BASIC>
-0.7654641939741446

> <JCHEM_POLAR_SURFACE_AREA>
40.46

> <JCHEM_REFRACTIVITY>
81.00609999999998

> <JCHEM_ROTATABLE_BOND_COUNT>
0

> <JCHEM_RULE_OF_FIVE>
1

> <ALOGPS_SOLUBILITY>
6.45e-02 g/l

> <JCHEM_TRADITIONAL_IUPAC>
Ogen

> <JCHEM_VEBER_RULE>
0

$$$$
