6446
  -OEChem-10051719313D

 53 56  0     1  0  0  0  0  0999 V2000
   -0.5052    0.0041    1.4359 F   0  0  0  0  0  0  0  0  0  0  0  0
    5.0459   -0.8064    0.0684 O   0  0  0  0  0  0  0  0  0  0  0  0
    0.3789   -2.3093   -1.1699 O   0  0  0  0  0  0  0  0  0  0  0  0
   -5.7099    0.3200    1.1359 O   0  0  0  0  0  0  0  0  0  0  0  0
    2.6184   -0.4150   -0.0940 C   0  0  1  0  0  0  0  0  0  0  0  0
    1.8103    0.8867    0.0768 C   0  0  2  0  0  0  0  0  0  0  0  0
    0.4119    0.8246   -0.5585 C   0  0  1  0  0  0  0  0  0  0  0  0
   -0.3988   -0.3391    0.0957 C   0  0  2  0  0  0  0  0  0  0  0  0
    3.9779    0.0059    0.5529 C   0  0  2  0  0  0  0  0  0  0  0  0
    1.8393   -1.5447    0.6094 C   0  0  0  0  0  0  0  0  0  0  0  0
   -1.8868   -0.4217   -0.4394 C   0  0  2  0  0  0  0  0  0  0  0  0
    0.3846   -1.6858    0.1046 C   0  0  2  0  0  0  0  0  0  0  0  0
    2.7791    1.9689   -0.3895 C   0  0  0  0  0  0  0  0  0  0  0  0
    4.1632    1.4696    0.0660 C   0  0  0  0  0  0  0  0  0  0  0  0
   -0.3202    2.1624   -0.3612 C   0  0  0  0  0  0  0  0  0  0  0  0
    2.8682   -0.7949   -1.5830 C   0  0  0  0  0  0  0  0  0  0  0  0
   -2.5329    0.9677   -0.3388 C   0  0  0  0  0  0  0  0  0  0  0  0
   -1.7389    2.1181   -0.9092 C   0  0  0  0  0  0  0  0  0  0  0  0
   -2.6722   -1.4394    0.4400 C   0  0  0  0  0  0  0  0  0  0  0  0
    4.0339   -0.0655    2.0843 C   0  0  0  0  0  0  0  0  0  0  0  0
   -1.9897   -0.8597   -1.9192 C   0  0  0  0  0  0  0  0  0  0  0  0
   -4.1818   -1.3245    0.3018 C   0  0  0  0  0  0  0  0  0  0  0  0
   -3.7507    1.1969    0.1801 C   0  0  0  0  0  0  0  0  0  0  0  0
   -4.6244    0.0813    0.6110 C   0  0  0  0  0  0  0  0  0  0  0  0
    1.6510    1.0656    1.1511 H   0  0  0  0  0  0  0  0  0  0  0  0
    0.5059    0.6532   -1.6355 H   0  0  0  0  0  0  0  0  0  0  0  0
    1.7844   -1.3482    1.6865 H   0  0  0  0  0  0  0  0  0  0  0  0
    2.3758   -2.4934    0.4860 H   0  0  0  0  0  0  0  0  0  0  0  0
   -0.1178   -2.3750    0.7934 H   0  0  0  0  0  0  0  0  0  0  0  0
    2.5478    2.9441    0.0511 H   0  0  0  0  0  0  0  0  0  0  0  0
    2.7556    2.0850   -1.4789 H   0  0  0  0  0  0  0  0  0  0  0  0
    4.8786    1.5346   -0.7622 H   0  0  0  0  0  0  0  0  0  0  0  0
    4.5505    2.1120    0.8654 H   0  0  0  0  0  0  0  0  0  0  0  0
    0.2246    2.9673   -0.8685 H   0  0  0  0  0  0  0  0  0  0  0  0
   -0.3486    2.4247    0.7045 H   0  0  0  0  0  0  0  0  0  0  0  0
    3.5431   -0.0941   -2.0856 H   0  0  0  0  0  0  0  0  0  0  0  0
    3.3276   -1.7877   -1.6557 H   0  0  0  0  0  0  0  0  0  0  0  0
    1.9567   -0.8173   -2.1827 H   0  0  0  0  0  0  0  0  0  0  0  0
   -1.7063    2.0213   -2.0014 H   0  0  0  0  0  0  0  0  0  0  0  0
   -2.2254    3.0793   -0.7023 H   0  0  0  0  0  0  0  0  0  0  0  0
   -2.4219   -1.2872    1.4988 H   0  0  0  0  0  0  0  0  0  0  0  0
   -2.3742   -2.4670    0.1989 H   0  0  0  0  0  0  0  0  0  0  0  0
    3.2577    0.5336    2.5679 H   0  0  0  0  0  0  0  0  0  0  0  0
    3.9505   -1.0998    2.4355 H   0  0  0  0  0  0  0  0  0  0  0  0
    5.0063    0.2916    2.4445 H   0  0  0  0  0  0  0  0  0  0  0  0
   -1.2690   -0.3410   -2.5585 H   0  0  0  0  0  0  0  0  0  0  0  0
   -1.8298   -1.9354   -2.0405 H   0  0  0  0  0  0  0  0  0  0  0  0
   -2.9851   -0.6525   -2.3314 H   0  0  0  0  0  0  0  0  0  0  0  0
    4.8636   -1.7244    0.3325 H   0  0  0  0  0  0  0  0  0  0  0  0
   -4.6612   -2.0052    1.0140 H   0  0  0  0  0  0  0  0  0  0  0  0
   -4.5215   -1.5892   -0.7044 H   0  0  0  0  0  0  0  0  0  0  0  0
    0.8356   -3.1633   -1.0854 H   0  0  0  0  0  0  0  0  0  0  0  0
   -4.1691    2.1958    0.2431 H   0  0  0  0  0  0  0  0  0  0  0  0
  1  8  1  0  0  0  0
  2  9  1  0  0  0  0
  2 49  1  0  0  0  0
  3 12  1  0  0  0  0
  3 52  1  0  0  0  0
  4 24  2  0  0  0  0
  5  6  1  0  0  0  0
  5  9  1  0  0  0  0
  5 10  1  0  0  0  0
  5 16  1  0  0  0  0
  6  7  1  0  0  0  0
  6 13  1  0  0  0  0
  6 25  1  0  0  0  0
  7  8  1  0  0  0  0
  7 15  1  0  0  0  0
  7 26  1  0  0  0  0
  8 11  1  0  0  0  0
  8 12  1  0  0  0  0
  9 14  1  0  0  0  0
  9 20  1  0  0  0  0
 10 12  1  0  0  0  0
 10 27  1  0  0  0  0
 10 28  1  0  0  0  0
 11 17  1  0  0  0  0
 11 19  1  0  0  0  0
 11 21  1  0  0  0  0
 12 29  1  0  0  0  0
 13 14  1  0  0  0  0
 13 30  1  0  0  0  0
 13 31  1  0  0  0  0
 14 32  1  0  0  0  0
 14 33  1  0  0  0  0
 15 18  1  0  0  0  0
 15 34  1  0  0  0  0
 15 35  1  0  0  0  0
 16 36  1  0  0  0  0
 16 37  1  0  0  0  0
 16 38  1  0  0  0  0
 17 18  1  0  0  0  0
 17 23  2  0  0  0  0
 18 39  1  0  0  0  0
 18 40  1  0  0  0  0
 19 22  1  0  0  0  0
 19 41  1  0  0  0  0
 19 42  1  0  0  0  0
 20 43  1  0  0  0  0
 20 44  1  0  0  0  0
 20 45  1  0  0  0  0
 21 46  1  0  0  0  0
 21 47  1  0  0  0  0
 21 48  1  0  0  0  0
 22 24  1  0  0  0  0
 22 50  1  0  0  0  0
 22 51  1  0  0  0  0
 23 24  1  0  0  0  0
 23 53  1  0  0  0  0
M  END
> <DATABASE_ID>
DB01185

> <DATABASE_NAME>
drugbank

> <ORIGINAL_SOURCE>
PUBCHEM

> <ORIGINAL_SOURCE_URL>
https://pubchem.ncbi.nlm.nih.gov/rest/pug/compound/inchikey/YLRFCQOZQXIBAB-RBZZARIASA-N/SDF?record_type=3d

> <SMILES>
[H][C@@]12CC[C@](C)(O)[C@@]1(C)C[C@H](O)[C@@]1(F)[C@@]2([H])CCC2=CC(=O)CC[C@]12C

> <INCHI_IDENTIFIER>
InChI=1S/C20H29FO3/c1-17-8-6-13(22)10-12(17)4-5-15-14-7-9-19(3,24)18(14,2)11-16(23)20(15,17)21/h10,14-16,23-24H,4-9,11H2,1-3H3/t14-,15-,16-,17-,18-,19-,20-/m0/s1

> <INCHI_KEY>
YLRFCQOZQXIBAB-RBZZARIASA-N

> <FORMULA>
C20H29FO3

> <MOLECULAR_WEIGHT>
336.4409

> <EXACT_MASS>
336.210072999

> <JCHEM_ACCEPTOR_COUNT>
3

> <JCHEM_ATOM_COUNT>
53

> <JCHEM_AVERAGE_NEUTRAL_MICROSPECIES_CHARGE>
-2.741086320790729e-07

> <JCHEM_AVERAGE_POLARIZABILITY>
36.647837329005206

> <JCHEM_BIOAVAILABILITY>
1

> <JCHEM_DONOR_COUNT>
2

> <JCHEM_FORMAL_CHARGE>
0

> <JCHEM_GHOSE_FILTER>
1

> <JCHEM_IUPAC>
(1S,3aS,3bS,9aS,9bR,10S,11aS)-9b-fluoro-1,10-dihydroxy-1,9a,11a-trimethyl-1H,2H,3H,3aH,3bH,4H,5H,7H,8H,9H,9aH,9bH,10H,11H,11aH-cyclopenta[a]phenanthren-7-one

> <ALOGPS_LOGP>
2.50

> <JCHEM_LOGP>
2.3808420980000005

> <ALOGPS_LOGS>
-3.87

> <JCHEM_MDDR_LIKE_RULE>
0

> <JCHEM_NEUTRAL_CHARGE>
0

> <JCHEM_NUMBER_OF_RINGS>
4

> <JCHEM_PHYSIOLOGICAL_CHARGE>
0

> <JCHEM_PKA>
14.619093837476962

> <JCHEM_PKA_STRONGEST_ACIDIC>
13.601723478310447

> <JCHEM_PKA_STRONGEST_BASIC>
-2.9899243323854225

> <JCHEM_POLAR_SURFACE_AREA>
57.53

> <JCHEM_REFRACTIVITY>
90.18849999999999

> <JCHEM_ROTATABLE_BOND_COUNT>
0

> <JCHEM_RULE_OF_FIVE>
1

> <ALOGPS_SOLUBILITY>
4.52e-02 g/l

> <JCHEM_TRADITIONAL_IUPAC>
tetrahydrofolic acid

> <JCHEM_VEBER_RULE>
0

$$$$
