160615
  -OEChem-04091911433D

 50 53  0     1  0  0  0  0  0999 V2000
   -5.4043    0.8901    0.4181 O   0  0  0  0  0  0  0  0  0  0  0  0
    4.0604   -2.0469    0.3000 O   0  0  0  0  0  0  0  0  0  0  0  0
    5.4028    0.2592    0.9354 O   0  0  0  0  0  0  0  0  0  0  0  0
   -2.1505   -0.7515    0.3337 C   0  0  2  0  0  0  0  0  0  0  0  0
   -2.9976    0.5034    0.0490 C   0  0  2  0  0  0  0  0  0  0  0  0
   -0.7795   -0.7048   -0.3476 C   0  0  1  0  0  0  0  0  0  0  0  0
    0.0018    0.5396    0.1773 C   0  0  1  0  0  0  0  0  0  0  0  0
    1.4535    0.6544   -0.4326 C   0  0  2  0  0  0  0  0  0  0  0  0
   -2.2607    1.7149    0.6329 C   0  0  0  0  0  0  0  0  0  0  0  0
   -0.8382    1.8423    0.0577 C   0  0  0  0  0  0  0  0  0  0  0  0
   -4.2862    0.1108    0.7967 C   0  0  2  0  0  0  0  0  0  0  0  0
   -3.1009   -1.9029    0.0152 C   0  0  0  0  0  0  0  0  0  0  0  0
    0.0242   -1.9806   -0.0762 C   0  0  0  0  0  0  0  0  0  0  0  0
   -4.4820   -1.3772    0.4471 C   0  0  0  0  0  0  0  0  0  0  0  0
    2.1848   -0.6932   -0.2917 C   0  0  0  0  0  0  0  0  0  0  0  0
    1.3987   -1.9134   -0.7290 C   0  0  0  0  0  0  0  0  0  0  0  0
   -3.2995    0.7541   -1.4503 C   0  0  0  0  0  0  0  0  0  0  0  0
    2.2159    1.7637    0.3465 C   0  0  0  0  0  0  0  0  0  0  0  0
    1.4205    1.0310   -1.9318 C   0  0  0  0  0  0  0  0  0  0  0  0
    3.7162    1.7386    0.1197 C   0  0  0  0  0  0  0  0  0  0  0  0
    3.4496   -0.8169    0.1595 C   0  0  0  0  0  0  0  0  0  0  0  0
    4.2709    0.3854    0.4704 C   0  0  0  0  0  0  0  0  0  0  0  0
   -1.9632   -0.8056    1.4196 H   0  0  0  0  0  0  0  0  0  0  0  0
   -0.9194   -0.6247   -1.4311 H   0  0  0  0  0  0  0  0  0  0  0  0
    0.1336    0.3754    1.2595 H   0  0  0  0  0  0  0  0  0  0  0  0
   -2.1871    1.6207    1.7242 H   0  0  0  0  0  0  0  0  0  0  0  0
   -2.8203    2.6382    0.4405 H   0  0  0  0  0  0  0  0  0  0  0  0
   -0.9046    2.1556   -0.9888 H   0  0  0  0  0  0  0  0  0  0  0  0
   -0.3401    2.6589    0.5917 H   0  0  0  0  0  0  0  0  0  0  0  0
   -4.1512    0.2179    1.8804 H   0  0  0  0  0  0  0  0  0  0  0  0
   -2.8358   -2.8160    0.5580 H   0  0  0  0  0  0  0  0  0  0  0  0
   -3.1000   -2.1404   -1.0544 H   0  0  0  0  0  0  0  0  0  0  0  0
   -0.5104   -2.8525   -0.4710 H   0  0  0  0  0  0  0  0  0  0  0  0
    0.1345   -2.1376    1.0047 H   0  0  0  0  0  0  0  0  0  0  0  0
   -5.2198   -1.5204   -0.3504 H   0  0  0  0  0  0  0  0  0  0  0  0
   -4.8504   -1.9230    1.3229 H   0  0  0  0  0  0  0  0  0  0  0  0
    1.2852   -1.8849   -1.8199 H   0  0  0  0  0  0  0  0  0  0  0  0
    1.8848   -2.8652   -0.5055 H   0  0  0  0  0  0  0  0  0  0  0  0
   -2.3939    0.8789   -2.0497 H   0  0  0  0  0  0  0  0  0  0  0  0
   -3.8695   -0.0627   -1.9043 H   0  0  0  0  0  0  0  0  0  0  0  0
   -3.8919    1.6679   -1.5765 H   0  0  0  0  0  0  0  0  0  0  0  0
    2.0325    1.6473    1.4239 H   0  0  0  0  0  0  0  0  0  0  0  0
    1.8418    2.7576    0.0734 H   0  0  0  0  0  0  0  0  0  0  0  0
    2.4176    0.9715   -2.3836 H   0  0  0  0  0  0  0  0  0  0  0  0
    0.7707    0.3695   -2.5127 H   0  0  0  0  0  0  0  0  0  0  0  0
    1.0636    2.0552   -2.0827 H   0  0  0  0  0  0  0  0  0  0  0  0
    4.1892    2.4865    0.7658 H   0  0  0  0  0  0  0  0  0  0  0  0
    3.9792    1.9708   -0.9169 H   0  0  0  0  0  0  0  0  0  0  0  0
   -6.1831    0.5212    0.8684 H   0  0  0  0  0  0  0  0  0  0  0  0
    3.6912   -2.6817   -0.3309 H   0  0  0  0  0  0  0  0  0  0  0  0
  1 11  1  0  0  0  0
  1 49  1  0  0  0  0
  2 21  1  0  0  0  0
  2 50  1  0  0  0  0
  3 22  2  0  0  0  0
  4  5  1  0  0  0  0
  4  6  1  0  0  0  0
  4 12  1  0  0  0  0
  4 23  1  0  0  0  0
  5  9  1  0  0  0  0
  5 11  1  0  0  0  0
  5 17  1  0  0  0  0
  6  7  1  0  0  0  0
  6 13  1  0  0  0  0
  6 24  1  0  0  0  0
  7  8  1  0  0  0  0
  7 10  1  0  0  0  0
  7 25  1  0  0  0  0
  8 15  1  0  0  0  0
  8 18  1  0  0  0  0
  8 19  1  0  0  0  0
  9 10  1  0  0  0  0
  9 26  1  0  0  0  0
  9 27  1  0  0  0  0
 10 28  1  0  0  0  0
 10 29  1  0  0  0  0
 11 14  1  0  0  0  0
 11 30  1  0  0  0  0
 12 14  1  0  0  0  0
 12 31  1  0  0  0  0
 12 32  1  0  0  0  0
 13 16  1  0  0  0  0
 13 33  1  0  0  0  0
 13 34  1  0  0  0  0
 14 35  1  0  0  0  0
 14 36  1  0  0  0  0
 15 16  1  0  0  0  0
 15 21  2  0  0  0  0
 16 37  1  0  0  0  0
 16 38  1  0  0  0  0
 17 39  1  0  0  0  0
 17 40  1  0  0  0  0
 17 41  1  0  0  0  0
 18 20  1  0  0  0  0
 18 42  1  0  0  0  0
 18 43  1  0  0  0  0
 19 44  1  0  0  0  0
 19 45  1  0  0  0  0
 19 46  1  0  0  0  0
 20 22  1  0  0  0  0
 20 47  1  0  0  0  0
 20 48  1  0  0  0  0
 21 22  1  0  0  0  0
M  END
> <DATABASE_ID>
DB01485

> <DATABASE_NAME>
drugbank

> <ORIGINAL_SOURCE>
PUBCHEM

> <ORIGINAL_SOURCE_URL>
https://pubchem.ncbi.nlm.nih.gov/rest/pug/compound/inchikey/BQOIJSIMMIDHMO-FBPKJDBXSA-N/SDF?record_type=3d

> <SMILES>
[H][C@@]12CC[C@H](O)[C@@]1(C)CC[C@@]1([H])[C@@]2([H])CCC2=C(O)C(=O)CC[C@]12C

> <INCHI_IDENTIFIER>
InChI=1S/C19H28O3/c1-18-10-8-15(20)17(22)14(18)4-3-11-12-5-6-16(21)19(12,2)9-7-13(11)18/h11-13,16,21-22H,3-10H2,1-2H3/t11-,12-,13-,16-,18+,19-/m0/s1

> <INCHI_KEY>
BQOIJSIMMIDHMO-FBPKJDBXSA-N

> <FORMULA>
C19H28O3

> <MOLECULAR_WEIGHT>
304.43

> <EXACT_MASS>
304.203844762

> <JCHEM_ACCEPTOR_COUNT>
3

> <JCHEM_ATOM_COUNT>
50

> <JCHEM_AVERAGE_POLARIZABILITY>
34.733044491892144

> <JCHEM_BIOAVAILABILITY>
1

> <JCHEM_DONOR_COUNT>
2

> <JCHEM_FORMAL_CHARGE>
0

> <JCHEM_GHOSE_FILTER>
1

> <JCHEM_IUPAC>
(1S,3aS,3bR,9aR,9bS,11aS)-1,6-dihydroxy-9a,11a-dimethyl-1H,2H,3H,3aH,3bH,4H,5H,7H,8H,9H,9aH,9bH,10H,11H,11aH-cyclopenta[a]phenanthren-7-one

> <ALOGPS_LOGP>
2.48

> <JCHEM_LOGP>
2.846765616333334

> <ALOGPS_LOGS>
-3.65

> <JCHEM_MDDR_LIKE_RULE>
0

> <JCHEM_NUMBER_OF_RINGS>
4

> <JCHEM_PHYSIOLOGICAL_CHARGE>
0

> <JCHEM_PKA>
19.377705208100718

> <JCHEM_PKA_STRONGEST_ACIDIC>
9.283947715347164

> <JCHEM_PKA_STRONGEST_BASIC>
-0.8839907302035628

> <JCHEM_POLAR_SURFACE_AREA>
57.53

> <JCHEM_REFRACTIVITY>
86.39719999999998

> <JCHEM_ROTATABLE_BOND_COUNT>
0

> <JCHEM_RULE_OF_FIVE>
1

> <ALOGPS_SOLUBILITY>
6.80e-02 g/l

> <JCHEM_TRADITIONAL_IUPAC>
4-hydroxytestosterone

> <JCHEM_VEBER_RULE>
0

$$$$
