242332
  -OEChem-10071916103D

 53 56  0     1  0  0  0  0  0999 V2000
   -5.2242   -1.1151   -0.1771 O   0  0  0  0  0  0  0  0  0  0  0  0
    5.9118   -0.0335   -0.1464 O   0  0  0  0  0  0  0  0  0  0  0  0
    0.1625   -0.4347   -0.3048 C   0  0  1  0  0  0  0  0  0  0  0  0
   -0.6504    0.7922    0.2247 C   0  0  2  0  0  0  0  0  0  0  0  0
   -2.0675    0.7233   -0.3544 C   0  0  1  0  0  0  0  0  0  0  0  0
    1.6533   -0.4130    0.2000 C   0  0  2  0  0  0  0  0  0  0  0  0
   -2.8130   -0.5653    0.0477 C   0  0  2  0  0  0  0  0  0  0  0  0
    2.2746    0.9528   -0.2381 C   0  0  1  0  0  0  0  0  0  0  0  0
   -0.5795   -1.7757   -0.0586 C   0  0  0  0  0  0  0  0  0  0  0  0
   -2.0450   -1.7606   -0.5316 C   0  0  0  0  0  0  0  0  0  0  0  0
    0.0393    2.1158   -0.1343 C   0  0  0  0  0  0  0  0  0  0  0  0
   -3.0641    1.8309   -0.0209 C   0  0  0  0  0  0  0  0  0  0  0  0
   -4.1713   -0.2845   -0.6268 C   0  0  2  0  0  0  0  0  0  0  0  0
    1.4985    2.1533    0.3142 C   0  0  0  0  0  0  0  0  0  0  0  0
    2.4779   -1.5452   -0.4767 C   0  0  0  0  0  0  0  0  0  0  0  0
   -4.4360    1.2065   -0.3358 C   0  0  0  0  0  0  0  0  0  0  0  0
    3.7709    1.0581    0.0821 C   0  0  0  0  0  0  0  0  0  0  0  0
    1.7172   -0.6139    1.7360 C   0  0  0  0  0  0  0  0  0  0  0  0
   -2.9888   -0.7574    1.5753 C   0  0  0  0  0  0  0  0  0  0  0  0
    3.9813   -1.4508   -0.2074 C   0  0  0  0  0  0  0  0  0  0  0  0
    4.5525   -0.0833   -0.5671 C   0  0  2  0  0  0  0  0  0  0  0  0
    0.2062   -0.3263   -1.4005 H   0  0  0  0  0  0  0  0  0  0  0  0
   -0.7144    0.7485    1.3167 H   0  0  0  0  0  0  0  0  0  0  0  0
   -1.9600    0.7344   -1.4523 H   0  0  0  0  0  0  0  0  0  0  0  0
    2.1948    1.0111   -1.3352 H   0  0  0  0  0  0  0  0  0  0  0  0
   -0.5504   -2.0395    1.0028 H   0  0  0  0  0  0  0  0  0  0  0  0
   -0.0693   -2.5861   -0.5909 H   0  0  0  0  0  0  0  0  0  0  0  0
   -2.0553   -1.7182   -1.6286 H   0  0  0  0  0  0  0  0  0  0  0  0
   -2.5315   -2.7038   -0.2555 H   0  0  0  0  0  0  0  0  0  0  0  0
   -0.4934    2.9555    0.3271 H   0  0  0  0  0  0  0  0  0  0  0  0
   -0.0049    2.2741   -1.2196 H   0  0  0  0  0  0  0  0  0  0  0  0
   -2.8911    2.7321   -0.6180 H   0  0  0  0  0  0  0  0  0  0  0  0
   -3.0080    2.1167    1.0353 H   0  0  0  0  0  0  0  0  0  0  0  0
   -4.0914   -0.4252   -1.7121 H   0  0  0  0  0  0  0  0  0  0  0  0
    1.9514    3.0858   -0.0445 H   0  0  0  0  0  0  0  0  0  0  0  0
    1.5539    2.1840    1.4083 H   0  0  0  0  0  0  0  0  0  0  0  0
    2.3173   -1.5142   -1.5625 H   0  0  0  0  0  0  0  0  0  0  0  0
    2.1329   -2.5293   -0.1390 H   0  0  0  0  0  0  0  0  0  0  0  0
   -5.1297    1.3523    0.4996 H   0  0  0  0  0  0  0  0  0  0  0  0
   -4.8899    1.6840   -1.2115 H   0  0  0  0  0  0  0  0  0  0  0  0
    4.1701    2.0116   -0.2877 H   0  0  0  0  0  0  0  0  0  0  0  0
    3.9464    1.0788    1.1643 H   0  0  0  0  0  0  0  0  0  0  0  0
    1.3743   -1.6145    2.0196 H   0  0  0  0  0  0  0  0  0  0  0  0
    2.7336   -0.5151    2.1272 H   0  0  0  0  0  0  0  0  0  0  0  0
    1.1039    0.1066    2.2824 H   0  0  0  0  0  0  0  0  0  0  0  0
   -3.5113   -1.6976    1.7874 H   0  0  0  0  0  0  0  0  0  0  0  0
   -2.0365   -0.7987    2.1102 H   0  0  0  0  0  0  0  0  0  0  0  0
   -3.5740    0.0465    2.0328 H   0  0  0  0  0  0  0  0  0  0  0  0
    4.1954   -1.6861    0.8424 H   0  0  0  0  0  0  0  0  0  0  0  0
    4.5058   -2.2246   -0.7821 H   0  0  0  0  0  0  0  0  0  0  0  0
    4.5427    0.0407   -1.6562 H   0  0  0  0  0  0  0  0  0  0  0  0
   -5.4465   -0.8671    0.7358 H   0  0  0  0  0  0  0  0  0  0  0  0
    5.9308   -0.1257    0.8214 H   0  0  0  0  0  0  0  0  0  0  0  0
  1 13  1  0  0  0  0
  1 52  1  0  0  0  0
  2 21  1  0  0  0  0
  2 53  1  0  0  0  0
  3  4  1  0  0  0  0
  3  6  1  0  0  0  0
  3  9  1  0  0  0  0
  3 22  1  0  0  0  0
  4  5  1  0  0  0  0
  4 11  1  0  0  0  0
  4 23  1  0  0  0  0
  5  7  1  0  0  0  0
  5 12  1  0  0  0  0
  5 24  1  0  0  0  0
  6  8  1  0  0  0  0
  6 15  1  0  0  0  0
  6 18  1  0  0  0  0
  7 10  1  0  0  0  0
  7 13  1  0  0  0  0
  7 19  1  0  0  0  0
  8 14  1  0  0  0  0
  8 17  1  0  0  0  0
  8 25  1  0  0  0  0
  9 10  1  0  0  0  0
  9 26  1  0  0  0  0
  9 27  1  0  0  0  0
 10 28  1  0  0  0  0
 10 29  1  0  0  0  0
 11 14  1  0  0  0  0
 11 30  1  0  0  0  0
 11 31  1  0  0  0  0
 12 16  1  0  0  0  0
 12 32  1  0  0  0  0
 12 33  1  0  0  0  0
 13 16  1  0  0  0  0
 13 34  1  0  0  0  0
 14 35  1  0  0  0  0
 14 36  1  0  0  0  0
 15 20  1  0  0  0  0
 15 37  1  0  0  0  0
 15 38  1  0  0  0  0
 16 39  1  0  0  0  0
 16 40  1  0  0  0  0
 17 21  1  0  0  0  0
 17 41  1  0  0  0  0
 17 42  1  0  0  0  0
 18 43  1  0  0  0  0
 18 44  1  0  0  0  0
 18 45  1  0  0  0  0
 19 46  1  0  0  0  0
 19 47  1  0  0  0  0
 19 48  1  0  0  0  0
 20 21  1  0  0  0  0
 20 49  1  0  0  0  0
 20 50  1  0  0  0  0
 21 51  1  0  0  0  0
M  END
> <DATABASE_ID>
DB03882

> <DATABASE_NAME>
drugbank

> <ORIGINAL_SOURCE>
PUBCHEM

> <ORIGINAL_SOURCE_URL>
https://pubchem.ncbi.nlm.nih.gov/rest/pug/compound/inchikey/CBMYJHIOYJEBSB-YSZCXEEOSA-N/SDF?record_type=3d

> <SMILES>
[H][C@@]12CC[C@H](O)[C@@]1(C)CC[C@@]1([H])[C@@]2([H])CC[C@@]2([H])C[C@@H](O)CC[C@]12C

> <INCHI_IDENTIFIER>
InChI=1S/C19H32O2/c1-18-9-7-13(20)11-12(18)3-4-14-15-5-6-17(21)19(15,2)10-8-16(14)18/h12-17,20-21H,3-11H2,1-2H3/t12-,13-,14-,15-,16-,17-,18-,19-/m0/s1

> <INCHI_KEY>
CBMYJHIOYJEBSB-YSZCXEEOSA-N

> <FORMULA>
C19H32O2

> <MOLECULAR_WEIGHT>
292.4562

> <EXACT_MASS>
292.240230268

> <JCHEM_ACCEPTOR_COUNT>
2

> <JCHEM_ATOM_COUNT>
53

> <JCHEM_AVERAGE_POLARIZABILITY>
35.56109148865969

> <JCHEM_BIOAVAILABILITY>
1

> <JCHEM_DONOR_COUNT>
2

> <JCHEM_FORMAL_CHARGE>
0

> <JCHEM_GHOSE_FILTER>
1

> <JCHEM_IUPAC>
(1S,3aS,3bR,5aS,7S,9aS,9bS,11aS)-9a,11a-dimethyl-hexadecahydro-1H-cyclopenta[a]phenanthrene-1,7-diol

> <ALOGPS_LOGP>
3.56

> <JCHEM_LOGP>
3.2037568309999997

> <ALOGPS_LOGS>
-4.18

> <JCHEM_MDDR_LIKE_RULE>
0

> <JCHEM_NUMBER_OF_RINGS>
4

> <JCHEM_PHYSIOLOGICAL_CHARGE>
0

> <JCHEM_PKA>
19.377705356554483

> <JCHEM_PKA_STRONGEST_ACIDIC>
18.2963963211217

> <JCHEM_PKA_STRONGEST_BASIC>
-0.7580100340749988

> <JCHEM_POLAR_SURFACE_AREA>
40.46

> <JCHEM_REFRACTIVITY>
84.63119999999999

> <JCHEM_ROTATABLE_BOND_COUNT>
0

> <JCHEM_RULE_OF_FIVE>
1

> <ALOGPS_SOLUBILITY>
1.93e-02 g/l

> <JCHEM_TRADITIONAL_IUPAC>
3-methyl-[1,2,4]triazino[3,4-a]phthalazin-4-one

> <JCHEM_VEBER_RULE>
0

$$$$
