446934
  -OEChem-02212013253D

 53 56  0     1  0  0  0  0  0999 V2000
   -4.3055   -0.7293   -1.6905 O   0  0  0  0  0  0  0  0  0  0  0  0
    5.8583    0.0543   -0.2885 O   0  0  0  0  0  0  0  0  0  0  0  0
    0.1179   -0.4748   -0.2042 C   0  0  1  0  0  0  0  0  0  0  0  0
   -0.7032    0.7616    0.2872 C   0  0  2  0  0  0  0  0  0  0  0  0
   -2.1411    0.6332   -0.2309 C   0  0  1  0  0  0  0  0  0  0  0  0
    1.6256   -0.3939    0.2409 C   0  0  2  0  0  0  0  0  0  0  0  0
   -2.8424   -0.6460    0.2712 C   0  0  2  0  0  0  0  0  0  0  0  0
    2.1986    0.9578   -0.2957 C   0  0  1  0  0  0  0  0  0  0  0  0
   -0.5834   -1.8134    0.1462 C   0  0  0  0  0  0  0  0  0  0  0  0
   -2.0643   -1.8526   -0.2743 C   0  0  0  0  0  0  0  0  0  0  0  0
   -0.0573    2.0776   -0.1697 C   0  0  0  0  0  0  0  0  0  0  0  0
   -3.1392    1.7407    0.0923 C   0  0  0  0  0  0  0  0  0  0  0  0
   -4.2598   -0.4270   -0.2991 C   0  0  1  0  0  0  0  0  0  0  0  0
    1.4163    2.1706    0.2195 C   0  0  0  0  0  0  0  0  0  0  0  0
    2.4502   -1.5447   -0.4038 C   0  0  0  0  0  0  0  0  0  0  0  0
   -4.5185    1.0820   -0.1051 C   0  0  0  0  0  0  0  0  0  0  0  0
    3.7030    1.1121   -0.0398 C   0  0  0  0  0  0  0  0  0  0  0  0
    1.7516   -0.5070    1.7820 C   0  0  0  0  0  0  0  0  0  0  0  0
   -2.9529   -0.7496    1.8139 C   0  0  0  0  0  0  0  0  0  0  0  0
    3.9600   -1.4042   -0.1975 C   0  0  0  0  0  0  0  0  0  0  0  0
    4.4861   -0.0476   -0.6540 C   0  0  2  0  0  0  0  0  0  0  0  0
    0.1180   -0.4277   -1.3051 H   0  0  0  0  0  0  0  0  0  0  0  0
   -0.7255    0.7765    1.3818 H   0  0  0  0  0  0  0  0  0  0  0  0
   -2.0776    0.5908   -1.3307 H   0  0  0  0  0  0  0  0  0  0  0  0
    2.0764    0.9531   -1.3904 H   0  0  0  0  0  0  0  0  0  0  0  0
   -0.5098   -2.0165    1.2186 H   0  0  0  0  0  0  0  0  0  0  0  0
   -0.0751   -2.6427   -0.3583 H   0  0  0  0  0  0  0  0  0  0  0  0
   -2.0961   -1.8725   -1.3706 H   0  0  0  0  0  0  0  0  0  0  0  0
   -2.5201   -2.7898    0.0667 H   0  0  0  0  0  0  0  0  0  0  0  0
   -0.5912    2.9305    0.2654 H   0  0  0  0  0  0  0  0  0  0  0  0
   -0.1456    2.1744   -1.2595 H   0  0  0  0  0  0  0  0  0  0  0  0
   -3.0165    2.6061   -0.5672 H   0  0  0  0  0  0  0  0  0  0  0  0
   -3.0285    2.0946    1.1235 H   0  0  0  0  0  0  0  0  0  0  0  0
   -5.0282   -1.0274    0.1993 H   0  0  0  0  0  0  0  0  0  0  0  0
    1.8338    3.0910   -0.2070 H   0  0  0  0  0  0  0  0  0  0  0  0
    1.5118    2.2633    1.3074 H   0  0  0  0  0  0  0  0  0  0  0  0
    2.2490   -1.5777   -1.4827 H   0  0  0  0  0  0  0  0  0  0  0  0
    2.1404   -2.5154    0.0004 H   0  0  0  0  0  0  0  0  0  0  0  0
   -5.1321    1.2596    0.7852 H   0  0  0  0  0  0  0  0  0  0  0  0
   -5.0367    1.5179   -0.9659 H   0  0  0  0  0  0  0  0  0  0  0  0
    4.0662    2.0513   -0.4771 H   0  0  0  0  0  0  0  0  0  0  0  0
    3.9182    1.1975    1.0320 H   0  0  0  0  0  0  0  0  0  0  0  0
    1.4434   -1.4973    2.1333 H   0  0  0  0  0  0  0  0  0  0  0  0
    2.7791   -0.3644    2.1277 H   0  0  0  0  0  0  0  0  0  0  0  0
    1.1421    0.2295    2.3111 H   0  0  0  0  0  0  0  0  0  0  0  0
   -3.4890   -1.6648    2.0919 H   0  0  0  0  0  0  0  0  0  0  0  0
   -1.9798   -0.7841    2.3101 H   0  0  0  0  0  0  0  0  0  0  0  0
   -3.5032    0.0874    2.2547 H   0  0  0  0  0  0  0  0  0  0  0  0
    4.2179   -1.5757    0.8547 H   0  0  0  0  0  0  0  0  0  0  0  0
    4.4804   -2.1981   -0.7480 H   0  0  0  0  0  0  0  0  0  0  0  0
    4.4335    0.0148   -1.7471 H   0  0  0  0  0  0  0  0  0  0  0  0
   -4.2963   -1.6975   -1.7788 H   0  0  0  0  0  0  0  0  0  0  0  0
    5.9150    0.0169    0.6816 H   0  0  0  0  0  0  0  0  0  0  0  0
  1 13  1  0  0  0  0
  1 52  1  0  0  0  0
  2 21  1  0  0  0  0
  2 53  1  0  0  0  0
  3  4  1  0  0  0  0
  3  6  1  0  0  0  0
  3  9  1  0  0  0  0
  3 22  1  0  0  0  0
  4  5  1  0  0  0  0
  4 11  1  0  0  0  0
  4 23  1  0  0  0  0
  5  7  1  0  0  0  0
  5 12  1  0  0  0  0
  5 24  1  0  0  0  0
  6  8  1  0  0  0  0
  6 15  1  0  0  0  0
  6 18  1  0  0  0  0
  7 10  1  0  0  0  0
  7 13  1  0  0  0  0
  7 19  1  0  0  0  0
  8 14  1  0  0  0  0
  8 17  1  0  0  0  0
  8 25  1  0  0  0  0
  9 10  1  0  0  0  0
  9 26  1  0  0  0  0
  9 27  1  0  0  0  0
 10 28  1  0  0  0  0
 10 29  1  0  0  0  0
 11 14  1  0  0  0  0
 11 30  1  0  0  0  0
 11 31  1  0  0  0  0
 12 16  1  0  0  0  0
 12 32  1  0  0  0  0
 12 33  1  0  0  0  0
 13 16  1  0  0  0  0
 13 34  1  0  0  0  0
 14 35  1  0  0  0  0
 14 36  1  0  0  0  0
 15 20  1  0  0  0  0
 15 37  1  0  0  0  0
 15 38  1  0  0  0  0
 16 39  1  0  0  0  0
 16 40  1  0  0  0  0
 17 21  1  0  0  0  0
 17 41  1  0  0  0  0
 17 42  1  0  0  0  0
 18 43  1  0  0  0  0
 18 44  1  0  0  0  0
 18 45  1  0  0  0  0
 19 46  1  0  0  0  0
 19 47  1  0  0  0  0
 19 48  1  0  0  0  0
 20 21  1  0  0  0  0
 20 49  1  0  0  0  0
 20 50  1  0  0  0  0
 21 51  1  0  0  0  0
M  END
> <DATABASE_ID>
DB03926

> <DATABASE_NAME>
drugbank

> <ORIGINAL_SOURCE>
PUBCHEM

> <ORIGINAL_SOURCE_URL>
https://pubchem.ncbi.nlm.nih.gov/rest/pug/compound/inchikey/CBMYJHIOYJEBSB-MFXFBURESA-N/SDF?record_type=3d

> <SMILES>
[H][C@@]12CC[C@@H](O)[C@@]1(C)CC[C@@]1([H])[C@@]2([H])CC[C@@]2([H])C[C@@H](O)CC[C@]12C

> <INCHI_IDENTIFIER>
InChI=1S/C19H32O2/c1-18-9-7-13(20)11-12(18)3-4-14-15-5-6-17(21)19(15,2)10-8-16(14)18/h12-17,20-21H,3-11H2,1-2H3/t12-,13-,14-,15-,16-,17+,18-,19-/m0/s1

> <INCHI_KEY>
CBMYJHIOYJEBSB-MFXFBURESA-N

> <FORMULA>
C19H32O2

> <MOLECULAR_WEIGHT>
292.4562

> <EXACT_MASS>
292.240230268

> <JCHEM_ACCEPTOR_COUNT>
2

> <JCHEM_ATOM_COUNT>
53

> <JCHEM_AVERAGE_NEUTRAL_MICROSPECIES_CHARGE>
1.6345085952779137e-08

> <JCHEM_AVERAGE_POLARIZABILITY>
35.4484790485719

> <JCHEM_BIOAVAILABILITY>
1

> <JCHEM_DONOR_COUNT>
2

> <JCHEM_FORMAL_CHARGE>
0

> <JCHEM_GHOSE_FILTER>
1

> <JCHEM_IUPAC>
(1R,3aS,3bR,5aS,7S,9aS,9bS,11aS)-9a,11a-dimethyl-hexadecahydro-1H-cyclopenta[a]phenanthrene-1,7-diol

> <ALOGPS_LOGP>
3.56

> <JCHEM_LOGP>
3.2037568309999997

> <ALOGPS_LOGS>
-4.18

> <JCHEM_MDDR_LIKE_RULE>
0

> <JCHEM_NEUTRAL_CHARGE>
0

> <JCHEM_NUMBER_OF_RINGS>
4

> <JCHEM_PHYSIOLOGICAL_CHARGE>
0

> <JCHEM_PKA>
19.377705356554483

> <JCHEM_PKA_STRONGEST_ACIDIC>
18.2963963211217

> <JCHEM_PKA_STRONGEST_BASIC>
-0.7580100340749988

> <JCHEM_POLAR_SURFACE_AREA>
40.46

> <JCHEM_REFRACTIVITY>
84.63119999999999

> <JCHEM_ROTATABLE_BOND_COUNT>
0

> <JCHEM_RULE_OF_FIVE>
1

> <ALOGPS_SOLUBILITY>
1.93e-02 g/l

> <JCHEM_TRADITIONAL_IUPAC>
4-(2-sulfonatoethyl)morpholin-4-ium

> <JCHEM_VEBER_RULE>
0

$$$$
