3037705
  -OEChem-10061700283D

 52 55  0     1  0  0  0  0  0999 V2000
    5.3397    1.0520   -0.1083 O   0  0  0  0  0  0  0  0  0  0  0  0
   -5.7093   -0.4257   -0.3585 O   0  0  0  0  0  0  0  0  0  0  0  0
    0.7640   -0.8503    0.1843 C   0  0  1  0  0  0  0  0  0  0  0  0
    2.1636   -0.7145   -0.4308 C   0  0  1  0  0  0  0  0  0  0  0  0
   -0.0916    0.4187   -0.1987 C   0  0  1  0  0  0  0  0  0  0  0  0
    2.9345    0.5020    0.1091 C   0  0  2  0  0  0  0  0  0  0  0  0
   -1.6076    0.3121    0.3026 C   0  0  2  0  0  0  0  0  0  0  0  0
    0.6943    1.6894    0.2601 C   0  0  0  0  0  0  0  0  0  0  0  0
    2.1426    1.7565   -0.2641 C   0  0  0  0  0  0  0  0  0  0  0  0
   -2.1521   -1.1009   -0.1376 C   0  0  1  0  0  0  0  0  0  0  0  0
    0.1085   -2.1560   -0.2569 C   0  0  0  0  0  0  0  0  0  0  0  0
    3.1676   -1.8568   -0.2890 C   0  0  0  0  0  0  0  0  0  0  0  0
    4.2598    0.3204   -0.6553 C   0  0  2  0  0  0  0  0  0  0  0  0
   -1.2897   -2.2781    0.3148 C   0  0  0  0  0  0  0  0  0  0  0  0
    4.5276   -1.1953   -0.5787 C   0  0  0  0  0  0  0  0  0  0  0  0
    3.1913    0.4855    1.6380 C   0  0  0  0  0  0  0  0  0  0  0  0
   -2.6057    1.3458   -0.2982 C   0  0  0  0  0  0  0  0  0  0  0  0
   -1.6642    0.4884    1.8404 C   0  0  0  0  0  0  0  0  0  0  0  0
   -3.6022   -1.3491    0.2849 C   0  0  0  0  0  0  0  0  0  0  0  0
   -3.9011    1.0595   -0.5362 C   0  0  0  0  0  0  0  0  0  0  0  0
   -4.4982   -0.2577   -0.2274 C   0  0  0  0  0  0  0  0  0  0  0  0
   -2.1721    2.7540   -0.5942 C   0  0  0  0  0  0  0  0  0  0  0  0
    0.8566   -0.8959    1.2753 H   0  0  0  0  0  0  0  0  0  0  0  0
    2.0147   -0.5808   -1.5159 H   0  0  0  0  0  0  0  0  0  0  0  0
   -0.1358    0.4579   -1.2980 H   0  0  0  0  0  0  0  0  0  0  0  0
    0.7088    1.7477    1.3528 H   0  0  0  0  0  0  0  0  0  0  0  0
    0.2182    2.6045   -0.0820 H   0  0  0  0  0  0  0  0  0  0  0  0
    2.1124    1.8756   -1.3551 H   0  0  0  0  0  0  0  0  0  0  0  0
    2.6342    2.6543    0.1297 H   0  0  0  0  0  0  0  0  0  0  0  0
   -2.1405   -1.1149   -1.2404 H   0  0  0  0  0  0  0  0  0  0  0  0
    0.7003   -3.0142    0.0822 H   0  0  0  0  0  0  0  0  0  0  0  0
    0.0691   -2.2103   -1.3522 H   0  0  0  0  0  0  0  0  0  0  0  0
    2.9658   -2.6714   -0.9921 H   0  0  0  0  0  0  0  0  0  0  0  0
    3.1557   -2.2793    0.7218 H   0  0  0  0  0  0  0  0  0  0  0  0
    4.1516    0.6133   -1.7074 H   0  0  0  0  0  0  0  0  0  0  0  0
   -1.7283   -3.2209   -0.0351 H   0  0  0  0  0  0  0  0  0  0  0  0
   -1.2514   -2.3399    1.4085 H   0  0  0  0  0  0  0  0  0  0  0  0
    5.2575   -1.4483    0.1986 H   0  0  0  0  0  0  0  0  0  0  0  0
    4.9392   -1.5520   -1.5296 H   0  0  0  0  0  0  0  0  0  0  0  0
    3.7983   -0.3698    1.9510 H   0  0  0  0  0  0  0  0  0  0  0  0
    3.7282    1.3897    1.9478 H   0  0  0  0  0  0  0  0  0  0  0  0
    2.2696    0.4496    2.2241 H   0  0  0  0  0  0  0  0  0  0  0  0
   -1.0217   -0.2260    2.3626 H   0  0  0  0  0  0  0  0  0  0  0  0
   -1.3506    1.4940    2.1413 H   0  0  0  0  0  0  0  0  0  0  0  0
   -2.6773    0.3605    2.2361 H   0  0  0  0  0  0  0  0  0  0  0  0
   -3.7124   -1.4203    1.3714 H   0  0  0  0  0  0  0  0  0  0  0  0
   -3.9516   -2.2930   -0.1512 H   0  0  0  0  0  0  0  0  0  0  0  0
   -4.5845    1.8016   -0.9381 H   0  0  0  0  0  0  0  0  0  0  0  0
    5.0975    1.9932   -0.1357 H   0  0  0  0  0  0  0  0  0  0  0  0
   -1.7746    3.2321    0.3056 H   0  0  0  0  0  0  0  0  0  0  0  0
   -3.0026    3.3857   -0.9316 H   0  0  0  0  0  0  0  0  0  0  0  0
   -1.4325    2.7677   -1.3999 H   0  0  0  0  0  0  0  0  0  0  0  0
  1 13  1  0  0  0  0
  1 49  1  0  0  0  0
  2 21  2  0  0  0  0
  3  4  1  0  0  0  0
  3  5  1  0  0  0  0
  3 11  1  0  0  0  0
  3 23  1  0  0  0  0
  4  6  1  0  0  0  0
  4 12  1  0  0  0  0
  4 24  1  0  0  0  0
  5  7  1  0  0  0  0
  5  8  1  0  0  0  0
  5 25  1  0  0  0  0
  6  9  1  0  0  0  0
  6 13  1  0  0  0  0
  6 16  1  0  0  0  0
  7 10  1  0  0  0  0
  7 17  1  0  0  0  0
  7 18  1  0  0  0  0
  8  9  1  0  0  0  0
  8 26  1  0  0  0  0
  8 27  1  0  0  0  0
  9 28  1  0  0  0  0
  9 29  1  0  0  0  0
 10 14  1  0  0  0  0
 10 19  1  0  0  0  0
 10 30  1  0  0  0  0
 11 14  1  0  0  0  0
 11 31  1  0  0  0  0
 11 32  1  0  0  0  0
 12 15  1  0  0  0  0
 12 33  1  0  0  0  0
 12 34  1  0  0  0  0
 13 15  1  0  0  0  0
 13 35  1  0  0  0  0
 14 36  1  0  0  0  0
 14 37  1  0  0  0  0
 15 38  1  0  0  0  0
 15 39  1  0  0  0  0
 16 40  1  0  0  0  0
 16 41  1  0  0  0  0
 16 42  1  0  0  0  0
 17 20  2  0  0  0  0
 17 22  1  0  0  0  0
 18 43  1  0  0  0  0
 18 44  1  0  0  0  0
 18 45  1  0  0  0  0
 19 21  1  0  0  0  0
 19 46  1  0  0  0  0
 19 47  1  0  0  0  0
 20 21  1  0  0  0  0
 20 48  1  0  0  0  0
 22 50  1  0  0  0  0
 22 51  1  0  0  0  0
 22 52  1  0  0  0  0
M  END
> <DATABASE_ID>
DB13710

> <DATABASE_NAME>
drugbank

> <ORIGINAL_SOURCE>
PUBCHEM

> <ORIGINAL_SOURCE_URL>
https://pubchem.ncbi.nlm.nih.gov/rest/pug/compound/inchikey/ANJQEDFWRSLVBR-VHUDCFPWSA-N/SDF?record_type=3d

> <SMILES>
[H][C@]1(O)CC[C@@]2([H])[C@]3([H])CC[C@@]4([H])CC(=O)C=C(C)[C@]4(C)[C@@]3([H])CC[C@]12C

> <INCHI_IDENTIFIER>
InChI=1S/C20H30O2/c1-12-10-14(21)11-13-4-5-15-16-6-7-18(22)19(16,2)9-8-17(15)20(12,13)3/h10,13,15-18,22H,4-9,11H2,1-3H3/t13-,15-,16-,17-,18-,19-,20-/m0/s1

> <INCHI_KEY>
ANJQEDFWRSLVBR-VHUDCFPWSA-N

> <FORMULA>
C20H30O2

> <MOLECULAR_WEIGHT>
302.451

> <EXACT_MASS>
302.224580204

> <JCHEM_ACCEPTOR_COUNT>
2

> <JCHEM_ATOM_COUNT>
52

> <JCHEM_AVERAGE_NEUTRAL_MICROSPECIES_CHARGE>
1.3063403170254324e-08

> <JCHEM_AVERAGE_POLARIZABILITY>
35.88060918364845

> <JCHEM_BIOAVAILABILITY>
1

> <JCHEM_DONOR_COUNT>
1

> <JCHEM_FORMAL_CHARGE>
0

> <JCHEM_GHOSE_FILTER>
1

> <JCHEM_IUPAC>
(1S,3aS,3bR,5aS,9aS,9bS,11aS)-1-hydroxy-9,9a,11a-trimethyl-1H,2H,3H,3aH,3bH,4H,5H,5aH,6H,7H,9aH,9bH,10H,11H,11aH-cyclopenta[a]phenanthren-7-one

> <ALOGPS_LOGP>
3.45

> <JCHEM_LOGP>
3.652442394000001

> <ALOGPS_LOGS>
-4.14

> <JCHEM_MDDR_LIKE_RULE>
0

> <JCHEM_NEUTRAL_CHARGE>
0

> <JCHEM_NUMBER_OF_RINGS>
4

> <JCHEM_PHYSIOLOGICAL_CHARGE>
0

> <JCHEM_PKA_STRONGEST_ACIDIC>
19.377705256743777

> <JCHEM_PKA_STRONGEST_BASIC>
-0.8839297228827189

> <JCHEM_POLAR_SURFACE_AREA>
37.3

> <JCHEM_REFRACTIVITY>
88.97839999999997

> <JCHEM_ROTATABLE_BOND_COUNT>
0

> <JCHEM_RULE_OF_FIVE>
1

> <ALOGPS_SOLUBILITY>
2.20e-02 g/l

> <JCHEM_TRADITIONAL_IUPAC>
biotin

> <JCHEM_VEBER_RULE>
1

$$$$
