
     RDKit          3D

 63 67  0  0  0  0  0  0  0  0999 V2000
   -4.1047   -0.0858   -1.0420 C   0  0  0  0  0  0  0  0  0  0  0  0
   -3.0603   -0.2077   -0.3455 C   0  0  0  0  0  0  0  0  0  0  0  0
   -2.6147   -1.3791    0.1155 C   0  0  0  0  0  0  0  0  0  0  0  0
   -1.3352   -1.6964    0.4794 N   0  0  0  0  0  0  0  0  0  0  0  0
   -1.2489   -2.9444    0.6845 C   0  0  0  0  0  0  0  0  0  0  0  0
   -0.0339   -3.4004    1.3788 C   0  0  0  0  0  0  0  0  0  0  0  0
    1.0928   -3.0356    0.8454 C   0  0  0  0  0  0  0  0  0  0  0  0
    1.2038   -1.7375    0.3059 N   0  0  0  0  0  0  0  0  0  0  0  0
    2.4325   -1.6013   -0.1049 C   0  0  0  0  0  0  0  0  0  0  0  0
    3.1507   -0.3182   -0.1190 C   0  0  0  0  0  0  0  0  0  0  0  0
    4.4149   -0.1343   -0.9032 C   0  0  0  0  0  0  0  0  0  0  0  0
    2.4351    0.7326   -0.0556 C   0  0  0  0  0  0  0  0  0  0  0  0
    1.0834    0.6635    0.1598 N   0  0  0  0  0  0  0  0  0  0  0  0
    0.4104    1.7162   -0.5407 C   0  0  1  0  0  0  0  0  0  0  0  0
   -0.4510    1.3069   -1.6550 C   0  0  0  0  0  0  0  0  0  0  0  0
   -0.4747    2.1559    0.7411 C   0  0  2  0  0  0  0  0  0  0  0  0
   -1.2858    0.8277    0.7301 N   0  0  0  0  0  0  0  0  0  0  0  0
   -2.3781    0.9556    0.2019 C   0  0  0  0  0  0  0  0  0  0  0  0
   -2.8759    2.3172    0.3910 C   0  0  2  0  0  0  0  0  0  0  0  0
   -3.0839    2.5993    1.7927 C   0  0  0  0  0  0  0  0  0  0  0  0
   -3.8931    2.7806   -0.5863 C   0  0  0  0  0  0  0  0  0  0  0  0
   -5.3140    2.6873   -0.2106 C   0  0  0  0  0  0  0  0  0  0  0  0
   -5.6687    3.1149    1.1454 C   0  0  0  0  0  0  0  0  0  0  0  0
   -5.9364    4.3419    1.3190 O   0  0  0  0  0  0  0  0  0  0  0  0
   -6.4243    2.2021    1.8883 O   0  0  0  0  0  0  0  0  0  0  0  0
   -1.5618    3.0325   -0.2167 C   0  0  1  0  0  0  0  0  0  0  0  0
   -1.6450    4.3272    0.7420 C   0  0  0  0  0  0  0  0  0  0  0  0
   -0.9480    4.1859    1.9907 C   0  0  0  0  0  0  0  0  0  0  0  0
   -1.4325    4.8504    2.9634 O   0  0  0  0  0  0  0  0  0  0  0  0
    0.4325    4.0254    2.1719 O   0  0  0  0  0  0  0  0  0  0  0  0
    1.4796    2.6002   -0.9247 C   0  0  1  0  0  0  0  0  0  0  0  0
    1.9264    2.0275   -2.2662 C   0  0  0  0  0  0  0  0  0  0  0  0
    1.2897    4.0387   -1.0809 C   0  0  0  0  0  0  0  0  0  0  0  0
    1.0723    4.4125   -2.5161 C   0  0  0  0  0  0  0  0  0  0  0  0
    0.2564    3.8286   -3.2632 O   0  0  0  0  0  0  0  0  0  0  0  0
    1.5792    5.5979   -3.0625 O   0  0  0  0  0  0  0  0  0  0  0  0
    2.6766    2.2944    0.1436 C   0  0  2  0  0  0  0  0  0  0  0  0
    3.9144    2.3391   -0.9206 C   0  0  0  0  0  0  0  0  0  0  0  0
    4.0593    3.6512   -1.4977 C   0  0  0  0  0  0  0  0  0  0  0  0
    4.4917    4.7794   -0.6816 C   0  0  0  0  0  0  0  0  0  0  0  0
    5.3529    4.6924    0.2461 O   0  0  0  0  0  0  0  0  0  0  0  0
    4.4546    6.0128   -1.3491 O   0  0  0  0  0  0  0  0  0  0  0  0
    3.0596   -2.9461   -0.2812 C   0  0  1  0  0  0  0  0  0  0  0  0
    2.3022   -3.6194   -1.3477 C   0  0  0  0  0  0  0  0  0  0  0  0
    4.5202   -2.9484   -0.3401 C   0  0  0  0  0  0  0  0  0  0  0  0
    5.2246   -3.0345    0.9494 C   0  0  0  0  0  0  0  0  0  0  0  0
    6.2516   -3.7769    1.0082 O   0  0  0  0  0  0  0  0  0  0  0  0
    4.9804   -2.2017    2.0251 O   0  0  0  0  0  0  0  0  0  0  0  0
    2.5833   -3.4946    1.1774 C   0  0  2  0  0  0  0  0  0  0  0  0
    2.3558   -5.0246    0.6461 C   0  0  0  0  0  0  0  0  0  0  0  0
    2.2263   -5.9018    1.8422 C   0  0  0  0  0  0  0  0  0  0  0  0
    2.1944   -5.1912    3.1308 C   0  0  0  0  0  0  0  0  0  0  0  0
    3.3164   -4.8177    3.5904 O   0  0  0  0  0  0  0  0  0  0  0  0
    1.3045   -5.6782    4.0944 O   0  0  0  0  0  0  0  0  0  0  0  0
   -2.4438   -3.7206    0.5496 C   0  0  0  0  0  0  0  0  0  0  0  0
   -2.9215   -4.2006    1.9050 C   0  0  0  0  0  0  0  0  0  0  0  0
   -2.4213   -4.8873   -0.3668 C   0  0  0  0  0  0  0  0  0  0  0  0
   -3.5586   -2.6622    0.0331 C   0  0  2  0  0  0  0  0  0  0  0  0
   -3.2111   -2.8851   -1.5543 C   0  0  0  0  0  0  0  0  0  0  0  0
   -4.6097   -3.1146   -2.1282 C   0  0  0  0  0  0  0  0  0  0  0  0
   -4.6728   -2.8316   -3.5743 C   0  0  0  0  0  0  0  0  0  0  0  0
   -5.2331   -1.7546   -3.9411 O   0  0  0  0  0  0  0  0  0  0  0  0
   -4.6857   -3.8654   -4.5126 O   0  0  0  0  0  0  0  0  0  0  0  0
  1  2  1  0
  2  3  2  0
  3  4  1  0
  4  5  2  0
  5  6  1  0
  6  7  2  0
  7  8  1  0
  8  9  2  0
  9 10  1  0
 10 11  1  0
 10 12  2  0
 12 13  1  0
 13 14  1  0
 14 15  1  6
 14 16  1  0
 16 17  1  6
 17 18  2  0
 18 19  1  0
 19 20  1  1
 19 21  1  0
 21 22  1  0
 22 23  1  0
 23 24  2  0
 23 25  1  0
 19 26  1  0
 26 27  1  1
 27 28  1  0
 28 29  2  0
 28 30  1  0
 14 31  1  0
 31 32  1  6
 31 33  1  0
 33 34  1  0
 34 35  2  0
 34 36  1  0
 31 37  1  0
 37 38  1  6
 38 39  1  0
 39 40  1  0
 40 41  2  0
 40 42  1  0
  9 43  1  0
 43 44  1  6
 43 45  1  0
 45 46  1  0
 46 47  2  0
 46 48  1  0
 43 49  1  0
 49 50  1  6
 50 51  1  0
 51 52  1  0
 52 53  2  0
 52 54  1  0
  5 55  1  0
 55 56  1  0
 55 57  1  0
 55 58  1  0
 58 59  1  6
 59 60  1  0
 60 61  1  0
 61 62  2  0
 61 63  1  0
 18  2  1  0
 58  3  1  0
 49  7  1  0
 37 12  1  0
 26 16  1  0
M  END
>  <zinc_id>  (1) 
ZINC000096077688

>  <smiles>  (1) 
C/C1=C2/N=C(/C=C3\N=C(/C(C)=C4\N[C@@](C)([C@@H]5N=C1[C@](C)(CCC(=O)O)[C@H]5CC(=O)O)[C@@](C)(CC(=O)O)[C@@H]4CCC(=O)O)[C@@](C)(CC(=O)O)[C@@H]3CCC(=O)O)C(C)(C)[C@@H]2CCC(=O)O

$$$$
