15376
  -OEChem-10061700203D

 52 56  0     1  0  0  0  0  0999 V2000
    0.2073   -1.7040   -1.8489 O   0  0  0  0  0  0  0  0  0  0  0  0
    1.5288   -2.2163    1.3589 O   0  0  0  0  0  0  0  0  0  0  0  0
    1.3046   -3.6888   -0.4070 O   0  0  0  0  0  0  0  0  0  0  0  0
   -2.3718    1.8219    0.6622 N   0  0  2  0  0  0  0  0  0  0  0  0
    0.6380   -0.2184   -0.0905 N   0  0  0  0  0  0  0  0  0  0  0  0
   -2.2538   -0.6423    0.0061 C   0  0  2  0  0  0  0  0  0  0  0  0
   -1.6223    0.5429    0.7787 C   0  0  1  0  0  0  0  0  0  0  0  0
   -1.2696   -1.8513    0.0512 C   0  0  0  0  0  0  0  0  0  0  0  0
   -0.1901    0.7445    0.4085 C   0  0  0  0  0  0  0  0  0  0  0  0
   -2.5860   -0.2241   -1.4446 C   0  0  0  0  0  0  0  0  0  0  0  0
    0.1719   -1.5610   -0.4339 C   0  0  1  0  0  0  0  0  0  0  0  0
   -3.5580   -1.0859    0.7154 C   0  0  0  0  0  0  0  0  0  0  0  0
   -3.3841    1.0784   -1.4913 C   0  0  0  0  0  0  0  0  0  0  0  0
   -2.6726    2.1951   -0.7280 C   0  0  0  0  0  0  0  0  0  0  0  0
    0.4873    1.9365    0.4878 C   0  0  0  0  0  0  0  0  0  0  0  0
   -1.6543    2.9117    1.3749 C   0  0  0  0  0  0  0  0  0  0  0  0
   -0.2060    3.1934    0.8895 C   0  0  0  0  0  0  0  0  0  0  0  0
    1.8956    0.3295   -0.2910 C   0  0  0  0  0  0  0  0  0  0  0  0
    1.8197    1.6874    0.0681 C   0  0  0  0  0  0  0  0  0  0  0  0
   -4.1655   -2.2751    0.0139 C   0  0  0  0  0  0  0  0  0  0  0  0
    1.0589   -2.6254    0.1461 C   0  0  0  0  0  0  0  0  0  0  0  0
    3.0907   -0.2315   -0.7726 C   0  0  0  0  0  0  0  0  0  0  0  0
    2.9672    2.4968   -0.0624 C   0  0  0  0  0  0  0  0  0  0  0  0
    4.2153    0.5913   -0.8840 C   0  0  0  0  0  0  0  0  0  0  0  0
    4.1567    1.9360   -0.5347 C   0  0  0  0  0  0  0  0  0  0  0  0
    2.3920   -3.1413    2.0277 C   0  0  0  0  0  0  0  0  0  0  0  0
   -1.6228    0.2743    1.8461 H   0  0  0  0  0  0  0  0  0  0  0  0
   -1.6566   -2.6806   -0.5517 H   0  0  0  0  0  0  0  0  0  0  0  0
   -1.2289   -2.2129    1.0894 H   0  0  0  0  0  0  0  0  0  0  0  0
   -3.0924   -1.0037   -2.0184 H   0  0  0  0  0  0  0  0  0  0  0  0
   -1.6565   -0.0393   -1.9966 H   0  0  0  0  0  0  0  0  0  0  0  0
   -4.2920   -0.2746    0.7637 H   0  0  0  0  0  0  0  0  0  0  0  0
   -3.3472   -1.3605    1.7571 H   0  0  0  0  0  0  0  0  0  0  0  0
   -3.5126    1.3841   -2.5365 H   0  0  0  0  0  0  0  0  0  0  0  0
   -4.3925    0.9286   -1.0901 H   0  0  0  0  0  0  0  0  0  0  0  0
   -1.7662    2.4700   -1.2810 H   0  0  0  0  0  0  0  0  0  0  0  0
   -3.3230    3.0782   -0.7312 H   0  0  0  0  0  0  0  0  0  0  0  0
   -1.6165    2.6417    2.4393 H   0  0  0  0  0  0  0  0  0  0  0  0
   -2.2402    3.8382    1.3344 H   0  0  0  0  0  0  0  0  0  0  0  0
    0.3539    3.7005    1.6832 H   0  0  0  0  0  0  0  0  0  0  0  0
   -0.2383    3.8676    0.0250 H   0  0  0  0  0  0  0  0  0  0  0  0
   -4.4714   -2.0790   -1.0151 H   0  0  0  0  0  0  0  0  0  0  0  0
   -3.5449   -3.1731    0.0450 H   0  0  0  0  0  0  0  0  0  0  0  0
   -5.0883   -2.5473    0.5423 H   0  0  0  0  0  0  0  0  0  0  0  0
   -0.1483   -2.5783   -2.0823 H   0  0  0  0  0  0  0  0  0  0  0  0
    3.1523   -1.2746   -1.0644 H   0  0  0  0  0  0  0  0  0  0  0  0
    2.9339    3.5505    0.2010 H   0  0  0  0  0  0  0  0  0  0  0  0
    5.1476    0.1731   -1.2547 H   0  0  0  0  0  0  0  0  0  0  0  0
    5.0418    2.5585   -0.6331 H   0  0  0  0  0  0  0  0  0  0  0  0
    2.6959   -2.6955    2.9785 H   0  0  0  0  0  0  0  0  0  0  0  0
    3.2862   -3.3275    1.4253 H   0  0  0  0  0  0  0  0  0  0  0  0
    1.8605   -4.0757    2.2312 H   0  0  0  0  0  0  0  0  0  0  0  0
  1 11  1  0  0  0  0
  1 45  1  0  0  0  0
  2 21  1  0  0  0  0
  2 26  1  0  0  0  0
  3 21  2  0  0  0  0
  4  7  1  0  0  0  0
  4 14  1  0  0  0  0
  4 16  1  0  0  0  0
  5  9  1  0  0  0  0
  5 11  1  0  0  0  0
  5 18  1  0  0  0  0
  6  7  1  0  0  0  0
  6  8  1  0  0  0  0
  6 10  1  0  0  0  0
  6 12  1  0  0  0  0
  7  9  1  0  0  0  0
  7 27  1  0  0  0  0
  8 11  1  0  0  0  0
  8 28  1  0  0  0  0
  8 29  1  0  0  0  0
  9 15  2  0  0  0  0
 10 13  1  0  0  0  0
 10 30  1  0  0  0  0
 10 31  1  0  0  0  0
 11 21  1  0  0  0  0
 12 20  1  0  0  0  0
 12 32  1  0  0  0  0
 12 33  1  0  0  0  0
 13 14  1  0  0  0  0
 13 34  1  0  0  0  0
 13 35  1  0  0  0  0
 14 36  1  0  0  0  0
 14 37  1  0  0  0  0
 15 17  1  0  0  0  0
 15 19  1  0  0  0  0
 16 17  1  0  0  0  0
 16 38  1  0  0  0  0
 16 39  1  0  0  0  0
 17 40  1  0  0  0  0
 17 41  1  0  0  0  0
 18 19  1  0  0  0  0
 18 22  2  0  0  0  0
 19 23  2  0  0  0  0
 20 42  1  0  0  0  0
 20 43  1  0  0  0  0
 20 44  1  0  0  0  0
 22 24  1  0  0  0  0
 22 46  1  0  0  0  0
 23 25  1  0  0  0  0
 23 47  1  0  0  0  0
 24 25  2  0  0  0  0
 24 48  1  0  0  0  0
 25 49  1  0  0  0  0
 26 50  1  0  0  0  0
 26 51  1  0  0  0  0
 26 52  1  0  0  0  0
M  END
> <DATABASE_ID>
DB13374

> <DATABASE_NAME>
drugbank

> <ORIGINAL_SOURCE>
PUBCHEM

> <ORIGINAL_SOURCE_URL>
https://pubchem.ncbi.nlm.nih.gov/rest/pug/compound/inchikey/RXPRRQLKFXBCSJ-GIVPXCGWSA-N/SDF?record_type=3d

> <SMILES>
[H][C@]12N3CCC[C@@]1(CC)C[C@@](O)(N1C4=CC=CC=C4C(CC3)=C21)C(=O)OC

> <INCHI_IDENTIFIER>
InChI=1S/C21H26N2O3/c1-3-20-10-6-11-22-12-9-15-14-7-4-5-8-16(14)23(17(15)18(20)22)21(25,13-20)19(24)26-2/h4-5,7-8,18,25H,3,6,9-13H2,1-2H3/t18-,20+,21+/m1/s1

> <INCHI_KEY>
RXPRRQLKFXBCSJ-GIVPXCGWSA-N

> <FORMULA>
C21H26N2O3

> <MOLECULAR_WEIGHT>
354.45

> <EXACT_MASS>
354.194342705

> <JCHEM_ACCEPTOR_COUNT>
3

> <JCHEM_ATOM_COUNT>
52

> <JCHEM_AVERAGE_POLARIZABILITY>
39.38673737303381

> <JCHEM_BIOAVAILABILITY>
1

> <JCHEM_DONOR_COUNT>
1

> <JCHEM_FORMAL_CHARGE>
0

> <JCHEM_GHOSE_FILTER>
1

> <JCHEM_IUPAC>
methyl (15S,17S,19S)-15-ethyl-17-hydroxy-1,11-diazapentacyclo[9.6.2.0²,⁷.0⁸,¹⁸.0¹⁵,¹⁹]nonadeca-2,4,6,8(18)-tetraene-17-carboxylate

> <ALOGPS_LOGP>
2.62

> <JCHEM_LOGP>
3.3907502936666667

> <ALOGPS_LOGS>
-3.21

> <JCHEM_MDDR_LIKE_RULE>
0

> <JCHEM_NUMBER_OF_RINGS>
5

> <JCHEM_PHYSIOLOGICAL_CHARGE>
0

> <JCHEM_PKA_STRONGEST_ACIDIC>
10.520702993749815

> <JCHEM_PKA_STRONGEST_BASIC>
6.699323210636179

> <JCHEM_POLAR_SURFACE_AREA>
54.7

> <JCHEM_REFRACTIVITY>
99.5741

> <JCHEM_ROTATABLE_BOND_COUNT>
3

> <JCHEM_RULE_OF_FIVE>
1

> <ALOGPS_SOLUBILITY>
2.16e-01 g/l

> <JCHEM_TRADITIONAL_IUPAC>
minorin

> <JCHEM_VEBER_RULE>
0

$$$$
