3034026
  -OEChem-12022011403D

 52 55  0     1  0  0  0  0  0999 V2000
   -3.6593    3.3736   -0.1593 Cl  0  0  0  0  0  0  0  0  0  0  0  0
    3.2548    0.2289    1.9671 O   0  0  0  0  0  0  0  0  0  0  0  0
   -0.1556   -2.5071   -1.0505 O   0  0  0  0  0  0  0  0  0  0  0  0
    5.4992    0.6378   -0.3441 O   0  0  0  0  0  0  0  0  0  0  0  0
    6.0887   -1.9339    0.4553 O   0  0  0  0  0  0  0  0  0  0  0  0
   -5.9664   -0.9488    1.5556 O   0  0  0  0  0  0  0  0  0  0  0  0
    2.0409    0.0212   -0.1785 C   0  0  1  0  0  0  0  0  0  0  0  0
    1.0346    1.1147    0.2602 C   0  0  2  0  0  0  0  0  0  0  0  0
   -0.3416    0.9757   -0.4118 C   0  0  1  0  0  0  0  0  0  0  0  0
   -0.9525   -0.4125   -0.0414 C   0  0  1  0  0  0  0  0  0  0  0  0
    3.3033    0.5158    0.5727 C   0  0  1  0  0  0  0  0  0  0  0  0
    1.8105    2.4142    0.0603 C   0  0  0  0  0  0  0  0  0  0  0  0
    1.4683   -1.3346    0.2483 C   0  0  0  0  0  0  0  0  0  0  0  0
    3.2686    2.0501    0.4018 C   0  0  0  0  0  0  0  0  0  0  0  0
   -2.3983   -0.6194   -0.6175 C   0  0  1  0  0  0  0  0  0  0  0  0
   -1.2792    2.1197    0.0012 C   0  0  0  0  0  0  0  0  0  0  0  0
    0.0866   -1.5125   -0.3703 C   0  0  0  0  0  0  0  0  0  0  0  0
    2.2988    0.0013   -1.7119 C   0  0  0  0  0  0  0  0  0  0  0  0
   -2.6737    1.9464   -0.6019 C   0  0  1  0  0  0  0  0  0  0  0  0
   -3.2549    0.5991   -0.1942 C   0  0  0  0  0  0  0  0  0  0  0  0
    4.6027   -0.0717    0.1101 C   0  0  0  0  0  0  0  0  0  0  0  0
   -2.4181   -0.7278   -2.1601 C   0  0  0  0  0  0  0  0  0  0  0  0
   -2.9807   -1.9231   -0.0851 C   0  0  0  0  0  0  0  0  0  0  0  0
   -4.3952    0.4628    0.5072 C   0  0  0  0  0  0  0  0  0  0  0  0
    4.7413   -1.5742    0.2347 C   0  0  0  0  0  0  0  0  0  0  0  0
   -4.1121   -2.0428    0.6135 C   0  0  0  0  0  0  0  0  0  0  0  0
   -4.9109   -0.8530    0.9385 C   0  0  0  0  0  0  0  0  0  0  0  0
    0.8650    1.0206    1.3454 H   0  0  0  0  0  0  0  0  0  0  0  0
   -0.2110    1.0394   -1.4978 H   0  0  0  0  0  0  0  0  0  0  0  0
   -1.0444   -0.4507    1.0568 H   0  0  0  0  0  0  0  0  0  0  0  0
    1.4408    3.2134    0.7111 H   0  0  0  0  0  0  0  0  0  0  0  0
    1.7371    2.7707   -0.9734 H   0  0  0  0  0  0  0  0  0  0  0  0
    1.3588   -1.4199    1.3349 H   0  0  0  0  0  0  0  0  0  0  0  0
    2.0976   -2.1644   -0.0865 H   0  0  0  0  0  0  0  0  0  0  0  0
    3.9071    2.4144   -0.4105 H   0  0  0  0  0  0  0  0  0  0  0  0
    3.5763    2.5709    1.3160 H   0  0  0  0  0  0  0  0  0  0  0  0
   -0.8546    3.0749   -0.3325 H   0  0  0  0  0  0  0  0  0  0  0  0
   -1.3437    2.1671    1.0971 H   0  0  0  0  0  0  0  0  0  0  0  0
    3.0024   -0.7908   -1.9863 H   0  0  0  0  0  0  0  0  0  0  0  0
    1.3884   -0.1901   -2.2878 H   0  0  0  0  0  0  0  0  0  0  0  0
    2.7167    0.9436   -2.0794 H   0  0  0  0  0  0  0  0  0  0  0  0
   -2.6092    1.9915   -1.6935 H   0  0  0  0  0  0  0  0  0  0  0  0
   -1.9641   -1.6581   -2.5178 H   0  0  0  0  0  0  0  0  0  0  0  0
   -3.4473   -0.7148   -2.5419 H   0  0  0  0  0  0  0  0  0  0  0  0
   -1.8839    0.0919   -2.6492 H   0  0  0  0  0  0  0  0  0  0  0  0
   -2.4531   -2.8466   -0.3085 H   0  0  0  0  0  0  0  0  0  0  0  0
    3.9900    0.6926    2.4035 H   0  0  0  0  0  0  0  0  0  0  0  0
   -5.0015    1.3058    0.8162 H   0  0  0  0  0  0  0  0  0  0  0  0
    4.4059   -2.0488   -0.6896 H   0  0  0  0  0  0  0  0  0  0  0  0
    4.1576   -1.9595    1.0737 H   0  0  0  0  0  0  0  0  0  0  0  0
   -4.4715   -3.0095    0.9459 H   0  0  0  0  0  0  0  0  0  0  0  0
    6.3492   -1.5764    1.3213 H   0  0  0  0  0  0  0  0  0  0  0  0
  1 19  1  0  0  0  0
  2 11  1  0  0  0  0
  2 47  1  0  0  0  0
  3 17  2  0  0  0  0
  4 21  2  0  0  0  0
  5 25  1  0  0  0  0
  5 52  1  0  0  0  0
  6 27  2  0  0  0  0
  7  8  1  0  0  0  0
  7 11  1  0  0  0  0
  7 13  1  0  0  0  0
  7 18  1  0  0  0  0
  8  9  1  0  0  0  0
  8 12  1  0  0  0  0
  8 28  1  0  0  0  0
  9 10  1  0  0  0  0
  9 16  1  0  0  0  0
  9 29  1  0  0  0  0
 10 15  1  0  0  0  0
 10 17  1  0  0  0  0
 10 30  1  0  0  0  0
 11 14  1  0  0  0  0
 11 21  1  0  0  0  0
 12 14  1  0  0  0  0
 12 31  1  0  0  0  0
 12 32  1  0  0  0  0
 13 17  1  0  0  0  0
 13 33  1  0  0  0  0
 13 34  1  0  0  0  0
 14 35  1  0  0  0  0
 14 36  1  0  0  0  0
 15 20  1  0  0  0  0
 15 22  1  0  0  0  0
 15 23  1  0  0  0  0
 16 19  1  0  0  0  0
 16 37  1  0  0  0  0
 16 38  1  0  0  0  0
 18 39  1  0  0  0  0
 18 40  1  0  0  0  0
 18 41  1  0  0  0  0
 19 20  1  0  0  0  0
 19 42  1  0  0  0  0
 20 24  2  0  0  0  0
 21 25  1  0  0  0  0
 22 43  1  0  0  0  0
 22 44  1  0  0  0  0
 22 45  1  0  0  0  0
 23 26  2  0  0  0  0
 23 46  1  0  0  0  0
 24 27  1  0  0  0  0
 24 48  1  0  0  0  0
 25 49  1  0  0  0  0
 25 50  1  0  0  0  0
 26 27  1  0  0  0  0
 26 51  1  0  0  0  0
M  END
> <DATABASE_ID>
DB15970

> <DATABASE_NAME>
drugbank

> <ORIGINAL_SOURCE>
PUBCHEM

> <ORIGINAL_SOURCE_URL>
https://pubchem.ncbi.nlm.nih.gov/rest/pug/compound/inchikey/NPSLCOWKFFNQKK-ZPSUVKRCSA-N/SDF?record_type=3d

> <SMILES>
[H][C@@]12CC[C@](O)(C(=O)CO)[C@@]1(C)CC(=O)[C@@]1([H])[C@@]2([H])C[C@H](Cl)C2=CC(=O)C=C[C@]12C

> <INCHI_IDENTIFIER>
InChI=1S/C21H25ClO5/c1-19-5-3-11(24)7-14(19)15(22)8-12-13-4-6-21(27,17(26)10-23)20(13,2)9-16(25)18(12)19/h3,5,7,12-13,15,18,23,27H,4,6,8-10H2,1-2H3/t12-,13-,15-,18+,19-,20-,21-/m0/s1

> <INCHI_KEY>
NPSLCOWKFFNQKK-ZPSUVKRCSA-N

> <FORMULA>
C21H25ClO5

> <MOLECULAR_WEIGHT>
392.88

> <EXACT_MASS>
392.1390516

> <JCHEM_ACCEPTOR_COUNT>
5

> <JCHEM_ATOM_COUNT>
52

> <JCHEM_AVERAGE_NEUTRAL_MICROSPECIES_CHARGE>
-2.7838280331587313e-06

> <JCHEM_AVERAGE_POLARIZABILITY>
40.505902239487384

> <JCHEM_BIOAVAILABILITY>
1

> <JCHEM_DONOR_COUNT>
2

> <JCHEM_FORMAL_CHARGE>
0

> <JCHEM_GHOSE_FILTER>
1

> <JCHEM_IUPAC>
(1R,3aS,3bS,5S,9aR,9bS,11aS)-5-chloro-1-hydroxy-1-(2-hydroxyacetyl)-9a,11a-dimethyl-1H,2H,3H,3aH,3bH,4H,5H,7H,9aH,9bH,10H,11H,11aH-cyclopenta[a]phenanthrene-7,10-dione

> <ALOGPS_LOGP>
2.14

> <JCHEM_LOGP>
1.782284966999999

> <ALOGPS_LOGS>
-4.00

> <JCHEM_MDDR_LIKE_RULE>
0

> <JCHEM_NEUTRAL_CHARGE>
0

> <JCHEM_NUMBER_OF_RINGS>
4

> <JCHEM_PHYSIOLOGICAL_CHARGE>
0

> <JCHEM_PKA>
13.90112397919107

> <JCHEM_PKA_STRONGEST_ACIDIC>
12.57717838276134

> <JCHEM_PKA_STRONGEST_BASIC>
-3.329989118896315

> <JCHEM_POLAR_SURFACE_AREA>
91.67

> <JCHEM_REFRACTIVITY>
102.13459999999998

> <JCHEM_ROTATABLE_BOND_COUNT>
2

> <JCHEM_RULE_OF_FIVE>
1

> <ALOGPS_SOLUBILITY>
3.95e-02 g/l

> <JCHEM_TRADITIONAL_IUPAC>
butropium

> <JCHEM_VEBER_RULE>
0

$$$$
