
     RDKit          3D

 40 39  0  0  0  0  0  0  0  0999 V2000
  -12.7161   -0.8939   -0.5838 C   0  0  0  0  0  0  0  0  0  0  0  0
  -11.6255   -1.8991   -0.7454 C   0  0  0  0  0  0  0  0  0  0  0  0
  -11.8872   -3.2651   -0.2054 C   0  0  0  0  0  0  0  0  0  0  0  0
  -10.3786   -1.4385   -0.6139 C   0  0  0  0  0  0  0  0  0  0  0  0
  -10.1195   -0.3274    0.3564 C   0  0  0  0  0  0  0  0  0  0  0  0
   -8.6593   -0.3304    0.7245 C   0  0  0  0  0  0  0  0  0  0  0  0
   -8.1409    1.0154    1.0519 C   0  0  0  0  0  0  0  0  0  0  0  0
   -7.1758    1.1475    2.1836 C   0  0  0  0  0  0  0  0  0  0  0  0
   -8.1902    2.0429    0.2033 C   0  0  0  0  0  0  0  0  0  0  0  0
   -7.0515    2.9667    0.1213 C   0  0  0  0  0  0  0  0  0  0  0  0
   -6.2813    3.0721   -0.9366 C   0  0  0  0  0  0  0  0  0  0  0  0
   -4.8152    3.0815   -0.8728 C   0  0  0  0  0  0  0  0  0  0  0  0
   -4.1725    3.8921    0.1998 C   0  0  0  0  0  0  0  0  0  0  0  0
   -4.2139    1.9403   -1.1880 C   0  0  0  0  0  0  0  0  0  0  0  0
   -2.8877    1.6314   -0.6821 C   0  0  0  0  0  0  0  0  0  0  0  0
   -2.2610    2.4312    0.1794 C   0  0  0  0  0  0  0  0  0  0  0  0
   -0.8106    2.2288    0.2922 C   0  0  0  0  0  0  0  0  0  0  0  0
    0.0919    2.5685   -0.8513 C   0  0  0  0  0  0  0  0  0  0  0  0
   -0.2939    1.4152    1.2135 C   0  0  0  0  0  0  0  0  0  0  0  0
    0.7576    0.4570    0.9378 C   0  0  0  0  0  0  0  0  0  0  0  0
    0.5801   -0.8408    1.1891 C   0  0  0  0  0  0  0  0  0  0  0  0
    1.7064   -1.7147    0.8917 C   0  0  0  0  0  0  0  0  0  0  0  0
    1.5898   -2.9257    0.3804 C   0  0  0  0  0  0  0  0  0  0  0  0
    0.2953   -3.6289    0.6428 C   0  0  0  0  0  0  0  0  0  0  0  0
    2.3702   -3.3826   -0.7773 C   0  0  0  0  0  0  0  0  0  0  0  0
    3.6304   -3.7343   -0.7190 C   0  0  0  0  0  0  0  0  0  0  0  0
    4.6746   -3.1746   -1.5897 C   0  0  0  0  0  0  0  0  0  0  0  0
    5.7403   -2.5974   -1.0557 C   0  0  0  0  0  0  0  0  0  0  0  0
    6.3200   -3.2932    0.1359 C   0  0  0  0  0  0  0  0  0  0  0  0
    6.2463   -1.2919   -1.4990 C   0  0  0  0  0  0  0  0  0  0  0  0
    5.8605   -0.2500   -0.7955 C   0  0  0  0  0  0  0  0  0  0  0  0
    6.6276    0.9607   -0.6087 C   0  0  0  0  0  0  0  0  0  0  0  0
    7.4740    1.0261    0.4185 C   0  0  0  0  0  0  0  0  0  0  0  0
    7.2462    0.2341    1.6554 C   0  0  0  0  0  0  0  0  0  0  0  0
    8.2591    2.2945    0.5251 C   0  0  0  0  0  0  0  0  0  0  0  0
    9.6993    1.9610    0.1619 C   0  0  0  0  0  0  0  0  0  0  0  0
   10.0270    0.5715    0.5860 C   0  0  0  0  0  0  0  0  0  0  0  0
   10.6449   -0.2915   -0.2300 C   0  0  0  0  0  0  0  0  0  0  0  0
   10.1124   -0.4673   -1.6104 C   0  0  0  0  0  0  0  0  0  0  0  0
   11.7265   -1.1911    0.2806 C   0  0  0  0  0  0  0  0  0  0  0  0
  1  2  1  0
  2  3  1  0
  2  4  2  3
  4  5  1  0
  5  6  1  0
  6  7  1  0
  7  8  1  0
  7  9  2  0
  9 10  1  0
 10 11  2  0
 11 12  1  0
 12 13  1  0
 12 14  2  0
 14 15  1  0
 15 16  2  0
 16 17  1  0
 17 18  1  0
 17 19  2  0
 19 20  1  0
 20 21  2  0
 21 22  1  0
 22 23  2  0
 23 24  1  0
 23 25  1  0
 25 26  2  0
 26 27  1  0
 27 28  2  0
 28 29  1  0
 28 30  1  0
 30 31  2  0
 31 32  1  0
 32 33  2  0
 33 34  1  0
 33 35  1  0
 35 36  1  0
 36 37  1  0
 37 38  2  3
 38 39  1  0
 38 40  1  0
M  END
>  <zinc_id>  (1) 
ZINC000008214943

>  <smiles>  (1) 
CC(C)=CCC/C(C)=C/C=C/C(C)=C/C=C/C(C)=C/C=C/C=C(C)/C=C/C=C(C)/C=C/C=C(\C)CCC=C(C)C

$$$$
