
     RDKit          3D

 48 49  0  0  0  0  0  0  0  0999 V2000
   13.4902   -0.9732    0.0697 C   0  0  0  0  0  0  0  0  0  0  0  0
   13.1581    0.1141   -0.8886 C   0  0  0  0  0  0  0  0  0  0  0  0
   14.1422    0.4187   -1.9564 C   0  0  0  0  0  0  0  0  0  0  0  0
   12.2511    0.9976   -0.5230 C   0  0  0  0  0  0  0  0  0  0  0  0
   11.5606    1.0127    0.7850 C   0  0  0  0  0  0  0  0  0  0  0  0
   10.0950    0.6881    0.6836 C   0  0  0  0  0  0  0  0  0  0  0  0
    9.5768    0.8251   -0.6991 C   0  0  0  0  0  0  0  0  0  0  0  0
    8.8330    2.0445   -1.1135 C   0  0  0  0  0  0  0  0  0  0  0  0
    9.7903   -0.1641   -1.5569 C   0  0  0  0  0  0  0  0  0  0  0  0
    9.3422   -0.0591   -2.9636 C   0  0  0  0  0  0  0  0  0  0  0  0
    8.3897   -1.1518   -3.3622 C   0  0  0  0  0  0  0  0  0  0  0  0
    7.7918   -1.8448   -2.1752 C   0  0  0  0  0  0  0  0  0  0  0  0
    8.6758   -2.6376   -1.2604 C   0  0  0  0  0  0  0  0  0  0  0  0
    6.5441   -2.3102   -2.3139 C   0  0  0  0  0  0  0  0  0  0  0  0
    5.8216   -2.6238   -1.0384 C   0  0  0  0  0  0  0  0  0  0  0  0
    5.8409   -1.3579   -0.1967 C   0  0  0  0  0  0  0  0  0  0  0  0
    4.5509   -0.6365   -0.2587 C   0  0  0  0  0  0  0  0  0  0  0  0
    4.2156    0.2769    0.8750 C   0  0  0  0  0  0  0  0  0  0  0  0
    3.9516   -0.3579   -1.4233 C   0  0  0  0  0  0  0  0  0  0  0  0
    2.4856   -0.1648   -1.3845 C   0  0  0  0  0  0  0  0  0  0  0  0
    2.0728    1.2810   -1.4432 C   0  0  0  0  0  0  0  0  0  0  0  0
    0.6850    1.4331   -0.9151 C   0  0  0  0  0  0  0  0  0  0  0  0
   -0.4561    1.8500   -1.7733 C   0  0  0  0  0  0  0  0  0  0  0  0
    0.4190    0.9254    0.2718 C   0  0  0  0  0  0  0  0  0  0  0  0
   -0.9299    0.5028    0.7234 C   0  0  0  0  0  0  0  0  0  0  0  0
   -0.7604   -0.8716    1.3606 C   0  0  0  0  0  0  0  0  0  0  0  0
   -1.6717   -1.7884    0.6030 C   0  0  0  0  0  0  0  0  0  0  0  0
   -1.3354   -2.0230   -0.8391 C   0  0  0  0  0  0  0  0  0  0  0  0
   -2.9091   -2.0532    0.9716 C   0  0  0  0  0  0  0  0  0  0  0  0
   -4.0781   -2.0099    0.0333 C   0  0  0  0  0  0  0  0  0  0  0  0
   -4.6398   -0.5971    0.1416 C   0  0  0  0  0  0  0  0  0  0  0  0
   -5.1622   -0.3718    1.5255 C   0  0  0  0  0  0  0  0  0  0  0  0
   -4.3383    0.2591    2.6001 C   0  0  0  0  0  0  0  0  0  0  0  0
   -6.3875   -0.7657    1.8949 C   0  0  0  0  0  0  0  0  0  0  0  0
   -7.2082    0.1230    2.7807 C   0  0  0  0  0  0  0  0  0  0  0  0
   -8.4552    0.4218    2.0096 C   0  0  0  0  0  0  0  0  0  0  0  0
   -8.3040    1.0137    0.8249 C   0  0  0  0  0  0  0  0  0  0  0  0
   -7.3711    2.1710    0.7867 C   0  0  0  0  0  0  0  0  0  0  0  0
   -9.4329    0.9336   -0.1107 C   0  0  0  0  0  0  0  0  0  0  0  0
   -9.3232    1.4755   -1.2298 O   0  0  0  0  0  0  0  0  0  0  0  0
  -10.6792    0.2557    0.2450 C   0  0  0  0  0  0  0  0  0  0  0  0
  -11.8128    0.3072   -0.5271 C   0  0  0  0  0  0  0  0  0  0  0  0
  -13.0431    0.3685    0.1127 C   0  0  0  0  0  0  0  0  0  0  0  0
  -13.2246   -0.1352    1.3906 C   0  0  0  0  0  0  0  0  0  0  0  0
  -12.0770   -0.4625    2.0977 C   0  0  0  0  0  0  0  0  0  0  0  0
  -10.8329   -0.2474    1.5306 C   0  0  0  0  0  0  0  0  0  0  0  0
   -9.6146   -0.4280    2.3078 C   0  0  0  0  0  0  0  0  0  0  0  0
   -9.6365   -1.1577    3.3275 O   0  0  0  0  0  0  0  0  0  0  0  0
  1  2  1  0
  2  3  1  0
  2  4  2  3
  4  5  1  0
  5  6  1  0
  6  7  1  0
  7  8  1  0
  7  9  2  0
  9 10  1  0
 10 11  1  0
 11 12  1  0
 12 13  1  0
 12 14  2  0
 14 15  1  0
 15 16  1  0
 16 17  1  0
 17 18  1  0
 17 19  2  0
 19 20  1  0
 20 21  1  0
 21 22  1  0
 22 23  1  0
 22 24  2  0
 24 25  1  0
 25 26  1  0
 26 27  1  0
 27 28  1  0
 27 29  2  0
 29 30  1  0
 30 31  1  0
 31 32  1  0
 32 33  1  0
 32 34  2  0
 34 35  1  0
 35 36  1  0
 36 37  2  0
 37 38  1  0
 37 39  1  0
 39 40  2  0
 39 41  1  0
 41 42  2  0
 42 43  1  0
 43 44  2  0
 44 45  1  0
 45 46  2  0
 46 47  1  0
 47 48  2  0
 47 36  1  0
 46 41  1  0
M  END
>  <zinc_id>  (1) 
ZINC000058638423

>  <smiles>  (1) 
CC(C)=CCC/C(C)=C/CC/C(C)=C/CC/C(C)=C/CC/C(C)=C/CC/C(C)=C/CC/C(C)=C/CC1=C(C)C(=O)c2ccccc2C1=O

$$$$
