13789
  -OEChem-05061911523D

 53 57  0     1  0  0  0  0  0999 V2000
   -4.4352   -0.0638    0.4578 O   0  0  0  0  0  0  0  0  0  0  0  0
   -5.8698   -1.8328    0.2137 O   0  0  0  0  0  0  0  0  0  0  0  0
    6.4704   -0.6642   -0.9233 O   0  0  0  0  0  0  0  0  0  0  0  0
   -1.9524    0.0589    0.4225 C   0  0  1  0  0  0  0  0  0  0  0  0
   -1.0230    1.1598   -0.1473 C   0  0  2  0  0  0  0  0  0  0  0  0
   -3.3030    0.4656   -0.2499 C   0  0  2  0  0  0  0  0  0  0  0  0
    0.3988    1.0888    0.4306 C   0  0  1  0  0  0  0  0  0  0  0  0
    1.0060   -0.2995    0.0505 C   0  0  2  0  0  0  0  0  0  0  0  0
   -1.3514   -1.3118    0.0622 C   0  0  0  0  0  0  0  0  0  0  0  0
   -1.8287    2.4408    0.0523 C   0  0  0  0  0  0  0  0  0  0  0  0
   -3.2937    2.0134   -0.1433 C   0  0  0  0  0  0  0  0  0  0  0  0
    0.1058   -1.4570    0.5446 C   0  0  0  0  0  0  0  0  0  0  0  0
    2.5203   -0.4036    0.4580 C   0  0  2  0  0  0  0  0  0  0  0  0
   -3.5364    0.0008   -1.6850 C   0  0  0  0  0  0  0  0  0  0  0  0
   -2.1172    0.1211    1.9707 C   0  0  0  0  0  0  0  0  0  0  0  0
    1.2935    2.2032   -0.0433 C   0  0  0  0  0  0  0  0  0  0  0  0
    3.2864    0.7594   -0.1908 C   0  0  0  0  0  0  0  0  0  0  0  0
    3.1067   -1.7434   -0.0617 C   0  0  0  0  0  0  0  0  0  0  0  0
   -4.2705   -1.3114   -1.5230 C   0  0  0  0  0  0  0  0  0  0  0  0
    2.7039   -0.3288    1.9923 C   0  0  0  0  0  0  0  0  0  0  0  0
    2.5913    2.0314   -0.3289 C   0  0  0  0  0  0  0  0  0  0  0  0
   -4.9681   -1.1276   -0.2120 C   0  0  0  0  0  0  0  0  0  0  0  0
    4.6234   -1.8262    0.0551 C   0  0  0  0  0  0  0  0  0  0  0  0
    4.5442    0.6493   -0.6510 C   0  0  0  0  0  0  0  0  0  0  0  0
    5.2987   -0.6224   -0.5509 C   0  0  0  0  0  0  0  0  0  0  0  0
   -0.9314    1.0209   -1.2362 H   0  0  0  0  0  0  0  0  0  0  0  0
    0.3388    1.1914    1.5194 H   0  0  0  0  0  0  0  0  0  0  0  0
    0.9821   -0.3649   -1.0510 H   0  0  0  0  0  0  0  0  0  0  0  0
   -1.3480   -1.4581   -1.0237 H   0  0  0  0  0  0  0  0  0  0  0  0
   -1.9569   -2.1219    0.4856 H   0  0  0  0  0  0  0  0  0  0  0  0
   -1.5467    3.2160   -0.6678 H   0  0  0  0  0  0  0  0  0  0  0  0
   -1.6840    2.8558    1.0561 H   0  0  0  0  0  0  0  0  0  0  0  0
   -3.9018    2.3610    0.7004 H   0  0  0  0  0  0  0  0  0  0  0  0
   -3.7079    2.4915   -1.0378 H   0  0  0  0  0  0  0  0  0  0  0  0
    0.1318   -1.5253    1.6365 H   0  0  0  0  0  0  0  0  0  0  0  0
    0.4807   -2.4145    0.1671 H   0  0  0  0  0  0  0  0  0  0  0  0
   -2.6348   -0.0857   -2.2963 H   0  0  0  0  0  0  0  0  0  0  0  0
   -4.2073    0.6943   -2.2090 H   0  0  0  0  0  0  0  0  0  0  0  0
   -1.1705    0.0199    2.5067 H   0  0  0  0  0  0  0  0  0  0  0  0
   -2.5706    1.0580    2.3089 H   0  0  0  0  0  0  0  0  0  0  0  0
   -2.7635   -0.6927    2.3204 H   0  0  0  0  0  0  0  0  0  0  0  0
    0.8737    3.2008   -0.1357 H   0  0  0  0  0  0  0  0  0  0  0  0
    2.8334   -1.8756   -1.1180 H   0  0  0  0  0  0  0  0  0  0  0  0
    2.6765   -2.5932    0.4813 H   0  0  0  0  0  0  0  0  0  0  0  0
   -3.5924   -2.1650   -1.4561 H   0  0  0  0  0  0  0  0  0  0  0  0
   -4.9924   -1.4640   -2.3290 H   0  0  0  0  0  0  0  0  0  0  0  0
    3.7626   -0.3236    2.2752 H   0  0  0  0  0  0  0  0  0  0  0  0
    2.2697    0.5794    2.4218 H   0  0  0  0  0  0  0  0  0  0  0  0
    2.2411   -1.1865    2.4915 H   0  0  0  0  0  0  0  0  0  0  0  0
    3.1622    2.8881   -0.6785 H   0  0  0  0  0  0  0  0  0  0  0  0
    4.9716   -2.7194   -0.4758 H   0  0  0  0  0  0  0  0  0  0  0  0
    4.9397   -1.9105    1.0996 H   0  0  0  0  0  0  0  0  0  0  0  0
    5.0659    1.4829   -1.1114 H   0  0  0  0  0  0  0  0  0  0  0  0
  1  6  1  0  0  0  0
  1 22  1  0  0  0  0
  2 22  2  0  0  0  0
  3 25  2  0  0  0  0
  4  5  1  0  0  0  0
  4  6  1  0  0  0  0
  4  9  1  0  0  0  0
  4 15  1  0  0  0  0
  5  7  1  0  0  0  0
  5 10  1  0  0  0  0
  5 26  1  0  0  0  0
  6 11  1  0  0  0  0
  6 14  1  0  0  0  0
  7  8  1  0  0  0  0
  7 16  1  0  0  0  0
  7 27  1  0  0  0  0
  8 12  1  0  0  0  0
  8 13  1  0  0  0  0
  8 28  1  0  0  0  0
  9 12  1  0  0  0  0
  9 29  1  0  0  0  0
  9 30  1  0  0  0  0
 10 11  1  0  0  0  0
 10 31  1  0  0  0  0
 10 32  1  0  0  0  0
 11 33  1  0  0  0  0
 11 34  1  0  0  0  0
 12 35  1  0  0  0  0
 12 36  1  0  0  0  0
 13 17  1  0  0  0  0
 13 18  1  0  0  0  0
 13 20  1  0  0  0  0
 14 19  1  0  0  0  0
 14 37  1  0  0  0  0
 14 38  1  0  0  0  0
 15 39  1  0  0  0  0
 15 40  1  0  0  0  0
 15 41  1  0  0  0  0
 16 21  2  0  0  0  0
 16 42  1  0  0  0  0
 17 21  1  0  0  0  0
 17 24  2  0  0  0  0
 18 23  1  0  0  0  0
 18 43  1  0  0  0  0
 18 44  1  0  0  0  0
 19 22  1  0  0  0  0
 19 45  1  0  0  0  0
 19 46  1  0  0  0  0
 20 47  1  0  0  0  0
 20 48  1  0  0  0  0
 20 49  1  0  0  0  0
 21 50  1  0  0  0  0
 23 25  1  0  0  0  0
 23 51  1  0  0  0  0
 23 52  1  0  0  0  0
 24 25  1  0  0  0  0
 24 53  1  0  0  0  0
M  END
> <DATABASE_ID>
DB12221

> <DATABASE_NAME>
drugbank

> <ORIGINAL_SOURCE>
PUBCHEM

> <ORIGINAL_SOURCE_URL>
https://pubchem.ncbi.nlm.nih.gov/rest/pug/compound/inchikey/UJVLDDZCTMKXJK-WNHSNXHDSA-N/SDF?record_type=3d

> <SMILES>
[H][C@@]12CC[C@@]3(CCC(=O)O3)[C@@]1(C)CC[C@@]1([H])[C@@]2([H])C=CC2=CC(=O)CC[C@]12C

> <INCHI_IDENTIFIER>
InChI=1S/C22H28O3/c1-20-9-5-15(23)13-14(20)3-4-16-17(20)6-10-21(2)18(16)7-11-22(21)12-8-19(24)25-22/h3-4,13,16-18H,5-12H2,1-2H3/t16-,17+,18+,20+,21+,22-/m1/s1

> <INCHI_KEY>
UJVLDDZCTMKXJK-WNHSNXHDSA-N

> <FORMULA>
C22H28O3

> <MOLECULAR_WEIGHT>
340.4559

> <EXACT_MASS>
340.203844762

> <JCHEM_ACCEPTOR_COUNT>
2

> <JCHEM_ATOM_COUNT>
53

> <JCHEM_AVERAGE_POLARIZABILITY>
38.669085243856564

> <JCHEM_BIOAVAILABILITY>
1

> <JCHEM_DONOR_COUNT>
0

> <JCHEM_FORMAL_CHARGE>
0

> <JCHEM_GHOSE_FILTER>
1

> <JCHEM_IUPAC>
(1R,3aS,3bR,9aR,9bS,11aS)-9a,11a-dimethyl-2,3,3a,3b,7,8,9,9a,9b,10,11,11a-dodecahydrospiro[cyclopenta[a]phenanthrene-1,2'-oxolane]-5',7-dione

> <ALOGPS_LOGP>
2.79

> <JCHEM_LOGP>
3.595398729

> <ALOGPS_LOGS>
-4.91

> <JCHEM_MDDR_LIKE_RULE>
0

> <JCHEM_NUMBER_OF_RINGS>
5

> <JCHEM_PHYSIOLOGICAL_CHARGE>
0

> <JCHEM_PKA_STRONGEST_BASIC>
-4.771554231331754

> <JCHEM_POLAR_SURFACE_AREA>
43.370000000000005

> <JCHEM_REFRACTIVITY>
97.48279999999998

> <JCHEM_ROTATABLE_BOND_COUNT>
0

> <JCHEM_RULE_OF_FIVE>
1

> <ALOGPS_SOLUBILITY>
4.20e-03 g/l

> <JCHEM_TRADITIONAL_IUPAC>
7Î±-thiospirolactone

> <JCHEM_VEBER_RULE>
0

$$$$
