
  Mrv1572004121619222D          

 72 76  0  0  0  0            999 V2000
    2.4822    0.3642    0.0000 N   0  0  0  0  0  0  0  0  0  0  0  0
    2.4822   -0.4607    0.0000 C   0  0  2  0  0  0  0  0  0  0  0  0
    1.7730   -0.8805    0.0000 C   0  0  0  0  0  0  0  0  0  0  0  0
    1.7778   -1.7055    0.0000 N   0  0  0  0  0  0  0  0  0  0  0  0
   -1.7971   -0.4703    0.0000 N   0  0  0  0  0  0  0  0  0  0  0  0
   -1.1361    1.5944    0.0000 N   0  0  0  0  0  0  0  0  0  0  0  0
   -2.5111   -0.8901    0.0000 C   0  0  0  0  0  0  0  0  0  0  0  0
    1.0542    1.9997    0.0000 N   0  0  0  0  0  0  0  0  0  0  0  0
    1.7634    0.7694    0.0000 C   0  0  0  0  0  0  0  0  0  0  0  0
    0.3305    1.5848    0.0000 C   0  0  0  0  0  0  0  0  0  0  0  0
   -1.1313    0.7694    0.0000 C   0  0  0  0  0  0  0  0  0  0  0  0
    0.3884    3.2010    0.0000 C   0  0  0  0  0  0  0  0  0  0  0  0
    1.0686   -2.1348    0.0000 C   0  0  2  0  0  0  0  0  0  0  0  0
   -2.5207   -1.7344    0.0000 C   0  0  1  0  0  0  0  0  0  0  0  0
    1.0831   -2.9502    0.0000 C   0  0  0  0  0  0  0  0  0  0  0  0
   -0.3835    1.9997    0.0000 C   0  0  1  0  0  0  0  0  0  0  0  0
   -3.1576   -2.1397    0.0000 N   0  0  0  0  0  0  0  0  0  0  0  0
   -1.7971    0.3642    0.0000 C   0  0  2  0  0  0  0  0  0  0  0  0
   -3.9151   -1.7923    0.0000 C   0  0  0  0  0  0  0  0  0  0  0  0
    1.7199    3.2300    0.0000 N   0  0  0  0  0  0  0  0  0  0  0  0
    0.3690   -3.3699    0.0000 N   0  0  0  0  0  0  0  0  0  0  0  0
    1.0638    2.7379    0.0000 C   0  0  0  0  0  0  0  0  0  0  0  0
    1.7634    1.5944    0.0000 C   0  0  2  0  0  0  0  0  0  0  0  0
   -0.3835    2.8247    0.0000 C   0  0  0  0  0  0  0  0  0  0  0  0
    0.6344    3.9875    0.0000 C   0  0  0  0  0  0  0  0  0  0  0  0
    0.3594   -4.1949    0.0000 C   0  0  1  0  0  0  0  0  0  0  0  0
   -0.2918   -2.1348    0.0000 S   0  0  0  0  0  0  0  0  0  0  0  0
   -1.1796   -1.7199    0.0000 S   0  0  0  0  0  0  0  0  0  0  0  0
    1.4594    3.9875    0.0000 C   0  0  0  0  0  0  0  0  0  0  0  0
   -4.6243   -2.2265    0.0000 C   0  0  1  0  0  0  0  0  0  0  0  0
    1.0493   -0.4752    0.0000 O   0  0  0  0  0  0  0  0  0  0  0  0
   -3.2348   -0.4897    0.0000 O   0  0  0  0  0  0  0  0  0  0  0  0
    1.0493    0.3642    0.0000 O   0  0  0  0  0  0  0  0  0  0  0  0
    0.3305    0.7694    0.0000 O   0  0  0  0  0  0  0  0  0  0  0  0
   -0.3835    0.3642    0.0000 O   0  0  0  0  0  0  0  0  0  0  0  0
    1.7634   -3.3410    0.0000 O   0  0  0  0  0  0  0  0  0  0  0  0
   -2.5111    0.7694    0.0000 C   0  0  0  0  0  0  0  0  0  0  0  0
   -3.9151   -0.9673    0.0000 O   0  0  0  0  0  0  0  0  0  0  0  0
    0.3835   -1.7344    0.0000 C   0  0  0  0  0  0  0  0  0  0  0  0
   -1.8453   -2.0963    0.0000 C   0  0  0  0  0  0  0  0  0  0  0  0
    3.2059   -0.8660    0.0000 C   0  0  2  0  0  0  0  0  0  0  0  0
   -4.6194   -3.0515    0.0000 C   0  0  0  0  0  0  0  0  0  0  0  0
    1.0976   -4.6002    0.0000 C   0  0  2  0  0  0  0  0  0  0  0  0
   -5.3480   -1.8357    0.0000 N   0  0  0  0  0  0  0  0  0  0  0  0
   -2.5063    1.5848    0.0000 C   0  0  0  0  0  0  0  0  0  0  0  0
   -3.9102   -3.4568    0.0000 C   0  0  0  0  0  0  0  0  0  0  0  0
    5.3480    2.0142    0.0000 N   0  0  0  0  0  0  0  0  0  0  0  0
    3.2107   -1.6910    0.0000 O   0  0  0  0  0  0  0  0  0  0  0  0
    1.1072   -5.4348    0.0000 O   0  0  0  0  0  0  0  0  0  0  0  0
   -0.3352   -4.6292    0.0000 C   0  0  0  0  0  0  0  0  0  0  0  0
   -1.0589   -4.2190    0.0000 O   0  0  0  0  0  0  0  0  0  0  0  0
    0.2147    4.7111    0.0000 C   0  0  0  0  0  0  0  0  0  0  0  0
    2.4822    2.0142    0.0000 C   0  0  0  0  0  0  0  0  0  0  0  0
    1.8888    4.7111    0.0000 C   0  0  0  0  0  0  0  0  0  0  0  0
    4.6292    1.5993    0.0000 C   0  0  0  0  0  0  0  0  0  0  0  0
    3.9151   -0.4414    0.0000 C   0  0  0  0  0  0  0  0  0  0  0  0
    1.8068   -4.1805    0.0000 C   0  0  0  0  0  0  0  0  0  0  0  0
   -3.9006   -4.2818    0.0000 C   0  0  0  0  0  0  0  0  0  0  0  0
   -3.2300    2.0142    0.0000 C   0  0  0  0  0  0  0  0  0  0  0  0
   -1.7730    1.9756    0.0000 C   0  0  0  0  0  0  0  0  0  0  0  0
   -3.1865   -3.0467    0.0000 C   0  0  0  0  0  0  0  0  0  0  0  0
    3.1963    1.5993    0.0000 C   0  0  0  0  0  0  0  0  0  0  0  0
    3.9151    2.0142    0.0000 C   0  0  0  0  0  0  0  0  0  0  0  0
    0.6296    5.4300    0.0000 C   0  0  0  0  0  0  0  0  0  0  0  0
    1.4594    5.4348    0.0000 C   0  0  0  0  0  0  0  0  0  0  0  0
   -2.5063   -3.4568    0.0000 C   0  0  0  0  0  0  0  0  0  0  0  0
   -3.2155   -4.6677    0.0000 C   0  0  0  0  0  0  0  0  0  0  0  0
   -3.2300    2.8392    0.0000 C   0  0  0  0  0  0  0  0  0  0  0  0
   -1.7681    2.8102    0.0000 C   0  0  0  0  0  0  0  0  0  0  0  0
   -2.4677    3.2348    0.0000 C   0  0  0  0  0  0  0  0  0  0  0  0
   -2.5063   -4.2818    0.0000 C   0  0  0  0  0  0  0  0  0  0  0  0
    3.1528   -0.0651    0.0000 H   0  0  0  0  0  0  0  0  0  0  0  0
  2  1  1  0  0  0  0
  3  2  1  0  0  0  0
  4  3  1  0  0  0  0
  5 18  1  0  0  0  0
  6 16  1  0  0  0  0
  7  5  1  0  0  0  0
  8 23  1  0  0  0  0
  9  1  1  0  0  0  0
 10  8  1  0  0  0  0
 11  6  1  0  0  0  0
 12 24  1  0  0  0  0
 13  4  1  0  0  0  0
 14 40  1  0  0  0  0
 13 15  1  6  0  0  0
 16 10  1  0  0  0  0
 14 17  1  6  0  0  0
 18 11  1  0  0  0  0
 19 17  1  0  0  0  0
 20 22  1  0  0  0  0
 21 15  1  0  0  0  0
 22 12  2  0  0  0  0
 23  9  1  0  0  0  0
 16 24  1  6  0  0  0
 25 12  1  0  0  0  0
 26 21  1  0  0  0  0
 27 39  1  0  0  0  0
 28 27  1  0  0  0  0
 29 25  2  0  0  0  0
 30 19  1  0  0  0  0
 31  3  2  0  0  0  0
 32  7  2  0  0  0  0
 33  9  2  0  0  0  0
 34 10  2  0  0  0  0
 35 11  2  0  0  0  0
 36 15  2  0  0  0  0
 18 37  1  1  0  0  0
 38 19  2  0  0  0  0
 39 13  1  0  0  0  0
 40 28  1  0  0  0  0
 41  2  1  0  0  0  0
 30 42  1  1  0  0  0
 43 26  1  0  0  0  0
 44 30  1  0  0  0  0
 45 37  1  0  0  0  0
 46 42  1  0  0  0  0
 47 55  1  0  0  0  0
 41 48  1  1  0  0  0
 43 49  1  1  0  0  0
 26 50  1  1  0  0  0
 51 50  1  0  0  0  0
 52 25  1  0  0  0  0
 23 53  1  1  0  0  0
 54 29  1  0  0  0  0
 55 63  1  0  0  0  0
 56 41  1  0  0  0  0
 57 43  1  0  0  0  0
 58 46  1  0  0  0  0
 59 45  2  0  0  0  0
 60 45  1  0  0  0  0
 61 46  2  0  0  0  0
 62 53  1  0  0  0  0
 63 62  1  0  0  0  0
 64 52  2  0  0  0  0
 65 64  1  0  0  0  0
 66 61  1  0  0  0  0
 67 58  2  0  0  0  0
 68 59  1  0  0  0  0
 69 60  2  0  0  0  0
 70 69  1  0  0  0  0
 71 66  2  0  0  0  0
  2 72  1  6  0  0  0
 29 20  1  0  0  0  0
 14  7  1  0  0  0  0
 54 65  2  0  0  0  0
 68 70  2  0  0  0  0
 71 67  1  0  0  0  0
M  END
> <DATABASE_ID>
DB00104

> <DATABASE_NAME>
drugbank

> <SMILES>
[H][C@]1(NC(=O)[C@H](CCCCN)NC(=O)[C@@H](CC2=CNC3=C2C=CC=C3)NC(=O)[C@H](CC2=CC=CC=C2)NC(=O)[C@H](CSSC[C@H](NC1=O)C(=O)N[C@H](CO)[C@@H](C)O)NC(=O)[C@H](N)CC1=CC=CC=C1)[C@@H](C)O

> <INCHI_IDENTIFIER>
InChI=1S/C49H66N10O10S2/c1-28(61)39(25-60)56-48(68)41-27-71-70-26-40(57-43(63)34(51)21-30-13-5-3-6-14-30)47(67)54-37(22-31-15-7-4-8-16-31)45(65)55-38(23-32-24-52-35-18-10-9-17-33(32)35)46(66)53-36(19-11-12-20-50)44(64)59-42(29(2)62)49(69)58-41/h3-10,13-18,24,28-29,34,36-42,52,60-62H,11-12,19-23,25-27,50-51H2,1-2H3,(H,53,66)(H,54,67)(H,55,65)(H,56,68)(H,57,63)(H,58,69)(H,59,64)/t28-,29-,34-,36+,37+,38-,39-,40+,41+,42+/m1/s1

> <INCHI_KEY>
DEQANNDTNATYII-OULOTJBUSA-N

> <FORMULA>
C49H66N10O10S2

> <MOLECULAR_WEIGHT>
1019.25

> <EXACT_MASS>
1018.440480713

> <JCHEM_ACCEPTOR_COUNT>
12

> <JCHEM_ATOM_COUNT>
137

> <JCHEM_AVERAGE_POLARIZABILITY>
107.65312334480934

> <JCHEM_BIOAVAILABILITY>
0

> <JCHEM_DONOR_COUNT>
13

> <JCHEM_FORMAL_CHARGE>
0

> <JCHEM_GHOSE_FILTER>
0

> <JCHEM_IUPAC>
(4R,7S,10S,13R,16S,19R)-19-[(2R)-2-amino-3-phenylpropanamido]-10-(4-aminobutyl)-16-benzyl-N-[(2R,3R)-1,3-dihydroxybutan-2-yl]-7-[(1R)-1-hydroxyethyl]-13-[(1H-indol-3-yl)methyl]-6,9,12,15,18-pentaoxo-1,2-dithia-5,8,11,14,17-pentaazacycloicosane-4-carboxamide

> <ALOGPS_LOGP>
0.42

> <JCHEM_LOGP>
-1.4112649113972529

> <ALOGPS_LOGS>
-4.92

> <JCHEM_MDDR_LIKE_RULE>
1

> <JCHEM_NUMBER_OF_RINGS>
5

> <JCHEM_PHYSIOLOGICAL_CHARGE>
2

> <JCHEM_PKA>
11.802606911063746

> <JCHEM_PKA_STRONGEST_ACIDIC>
11.401008168102589

> <JCHEM_PKA_STRONGEST_BASIC>
10.173664169156496

> <JCHEM_POLAR_SURFACE_AREA>
332.22

> <JCHEM_REFRACTIVITY>
269.76959999999997

> <JCHEM_ROTATABLE_BOND_COUNT>
17

> <JCHEM_RULE_OF_FIVE>
0

> <ALOGPS_SOLUBILITY>
1.22e-02 g/l

> <JCHEM_TRADITIONAL_IUPAC>
(4R,7S,10S,13R,16S,19R)-19-[(2R)-2-amino-3-phenylpropanamido]-10-(4-aminobutyl)-16-benzyl-N-[(2R,3R)-1,3-dihydroxybutan-2-yl]-7-[(1R)-1-hydroxyethyl]-13-(1H-indol-3-ylmethyl)-6,9,12,15,18-pentaoxo-1,2-dithia-5,8,11,14,17-pentaazacycloicosane-4-carboxamide

> <JCHEM_VEBER_RULE>
0

> <DRUGBANK_ID>
DB00104

> <SECONDARY_ACCESSION_NUMBERS>
BTD00088; BIOD00088

> <DRUG_GROUPS>
approved; investigational

> <GENERIC_NAME>
Octreotide

> <SYNONYMS>
Octreotida; Octreotide; Octreotidum; Octrotide

> <PRODUCTS>
BYNFEZIA Pen; Mycapssa; Ocphyl; Octreotide; Octreotide Acetate; Octreotide Acetate Injection; Octreotide Acetate Injection - 100mcg/ml; Octreotide Acetate Injection - 200mcg/ml; Octreotide Acetate Injection - 500mcg/ml; Octreotide Acetate Injection - 50mcg/ml; Octreotide Acetate Omega; Octreotide Injection; Octreotide acetate; Octreotide for Injectable Suspension; Sandostatin; Sandostatin LAR Depot; Sandostatin LAR Depot Demonstration kit; Sandostatin Lar

> <INTERNATIONAL_BRANDS>
Sandostatin LAR

> <SALTS>
Octreotide acetate; Octreotide pamoate

$$$$
