
     RDKit          3D

 69 71  0  0  0  0  0  0  0  0999 V2000
   -6.6192   -5.2404   -0.0823 C   0  0  0  0  0  0  0  0  0  0  0  0
   -6.2820   -4.1907    0.5043 C   0  0  0  0  0  0  0  0  0  0  0  0
   -5.9776   -3.1939   -0.7334 C   0  0  2  0  0  0  0  0  0  0  0  0
   -4.9428   -4.1782   -1.5006 C   0  0  0  0  0  0  0  0  0  0  0  0
   -4.8357   -2.1721    0.0371 C   0  0  2  0  0  0  0  0  0  0  0  0
   -4.4421   -1.6840   -1.4120 N   0  0  0  0  0  0  0  0  0  0  0  0
   -5.3656   -0.7620   -1.9147 C   0  0  0  0  0  0  0  0  0  0  0  0
   -5.5397   -0.4755   -3.1380 O   0  0  0  0  0  0  0  0  0  0  0  0
   -6.0929    0.3224   -0.9675 C   0  0  2  0  0  0  0  0  0  0  0  0
   -5.1581    1.5475   -1.5396 C   0  0  0  0  0  0  0  0  0  0  0  0
   -6.0614    2.7493   -1.5529 C   0  0  0  0  0  0  0  0  0  0  0  0
   -6.9814    3.0034   -0.5416 C   0  0  0  0  0  0  0  0  0  0  0  0
   -7.0046    4.2384    0.1050 C   0  0  0  0  0  0  0  0  0  0  0  0
   -6.2140    5.2957   -0.3223 C   0  0  0  0  0  0  0  0  0  0  0  0
   -6.5928    6.5997   -0.0076 O   0  0  0  0  0  0  0  0  0  0  0  0
   -7.8938    6.9010    0.4588 C   0  0  0  0  0  0  0  0  0  0  0  0
   -5.3283    5.0642   -1.3670 C   0  0  0  0  0  0  0  0  0  0  0  0
   -5.5496    3.9111   -2.1164 C   0  0  0  0  0  0  0  0  0  0  0  0
   -5.2183    0.0442    0.3054 N   0  0  0  0  0  0  0  0  0  0  0  0
   -4.5283    1.1020    0.9082 C   0  0  0  0  0  0  0  0  0  0  0  0
   -4.2282    1.1716    2.1033 O   0  0  0  0  0  0  0  0  0  0  0  0
   -3.5073    1.5849   -0.0598 C   0  0  0  0  0  0  0  0  0  0  0  0
   -2.1372    1.0714    0.1803 C   0  0  0  0  0  0  0  0  0  0  0  0
   -1.2718    1.7345   -0.8882 C   0  0  0  0  0  0  0  0  0  0  0  0
   -0.7932    0.4101   -2.0340 S   0  0  0  0  0  0  0  0  0  0  0  0
    0.8673    0.1088   -2.2289 C   0  0  0  0  0  0  0  0  0  0  0  0
    1.5251   -1.0338   -1.2490 C   0  0  1  0  0  0  0  0  0  0  0  0
    3.0136   -0.5183   -1.5918 C   0  0  0  0  0  0  0  0  0  0  0  0
    3.2526    0.6535   -1.7665 O   0  0  0  0  0  0  0  0  0  0  0  0
    3.9910   -1.4945   -1.8596 N   0  0  0  0  0  0  0  0  0  0  0  0
    4.9581   -1.4261   -2.8566 C   0  0  0  0  0  0  0  0  0  0  0  0
    5.7003   -2.7047   -2.7071 C   0  0  0  0  0  0  0  0  0  0  0  0
    5.7018   -3.0562   -1.3062 C   0  0  0  0  0  0  0  0  0  0  0  0
    4.6895   -2.0120   -0.5466 C   0  0  1  0  0  0  0  0  0  0  0  0
    5.7278   -0.7738   -0.4751 C   0  0  0  0  0  0  0  0  0  0  0  0
    6.7101   -0.7520   -1.2034 O   0  0  0  0  0  0  0  0  0  0  0  0
    5.9349   -0.5064    0.8829 N   0  0  0  0  0  0  0  0  0  0  0  0
    7.1871    0.3100    1.3607 C   0  0  1  0  0  0  0  0  0  0  0  0
    8.2006   -0.4077    0.2824 C   0  0  0  0  0  0  0  0  0  0  0  0
    9.4932   -0.6453    1.0210 C   0  0  0  0  0  0  0  0  0  0  0  0
   10.5904   -0.5524   -0.0369 C   0  0  0  0  0  0  0  0  0  0  0  0
    9.4696   -2.1209    1.4120 C   0  0  0  0  0  0  0  0  0  0  0  0
    6.8894    1.5310    0.3477 C   0  0  0  0  0  0  0  0  0  0  0  0
    5.7601    2.0557    0.4573 O   0  0  0  0  0  0  0  0  0  0  0  0
    7.9669    2.4698    0.4853 N   0  0  0  0  0  0  0  0  0  0  0  0
    8.0166    3.6142   -0.4031 C   0  0  0  0  0  0  0  0  0  0  0  0
    9.4331    3.7265   -0.8530 C   0  0  0  0  0  0  0  0  0  0  0  0
   10.1653    4.9373   -0.7109 N   0  0  0  0  0  0  0  0  0  0  0  0
   10.0139    2.6954   -1.1591 O   0  0  0  0  0  0  0  0  0  0  0  0
    1.4086   -0.1538    0.0486 N   0  0  0  0  0  0  0  0  0  0  0  0
    1.1731   -0.7629    1.2526 C   0  0  0  0  0  0  0  0  0  0  0  0
    1.4379   -0.2144    2.3589 O   0  0  0  0  0  0  0  0  0  0  0  0
    0.9738   -2.3456    1.4148 C   0  0  2  0  0  0  0  0  0  0  0  0
    0.0059   -2.5346    0.1070 C   0  0  0  0  0  0  0  0  0  0  0  0
    0.1777   -4.0233   -0.0276 C   0  0  0  0  0  0  0  0  0  0  0  0
    0.2210   -4.6768   -1.2728 N   0  0  0  0  0  0  0  0  0  0  0  0
    0.0205   -4.7779    0.9817 O   0  0  0  0  0  0  0  0  0  0  0  0
   -0.2361   -2.2112    2.4153 N   0  0  0  0  0  0  0  0  0  0  0  0
   -1.2416   -1.3048    2.1861 C   0  0  0  0  0  0  0  0  0  0  0  0
   -2.0266   -0.9592    3.1198 O   0  0  0  0  0  0  0  0  0  0  0  0
   -1.9109   -1.6712    0.7663 C   0  0  2  0  0  0  0  0  0  0  0  0
   -2.9248   -0.3938    0.8516 C   0  0  0  0  0  0  0  0  0  0  0  0
   -2.2097    0.8395    1.1168 C   0  0  0  0  0  0  0  0  0  0  0  0
   -3.2866    1.8832    1.1312 C   0  0  0  0  0  0  0  0  0  0  0  0
   -3.1916    3.0061    0.2433 N   0  0  0  0  0  0  0  0  0  0  0  0
   -4.4947    1.5854    1.3955 O   0  0  0  0  0  0  0  0  0  0  0  0
   -2.9778   -2.6269    1.4125 N   0  0  0  0  0  0  0  0  0  0  0  0
   -3.6651   -3.2284    0.2792 C   0  0  0  0  0  0  0  0  0  0  0  0
   -3.9455   -4.3822    0.7213 O   0  0  0  0  0  0  0  0  0  0  0  0
  1  2  1  0
  3  2  1  1
  3  4  1  0
  3  5  1  0
  5  6  1  6
  6  7  1  0
  7  8  2  0
  7  9  1  0
  9 10  1  6
 10 11  1  0
 11 12  2  0
 12 13  1  0
 13 14  2  0
 14 15  1  0
 15 16  1  0
 14 17  1  0
 17 18  2  0
  9 19  1  0
 19 20  1  0
 20 21  2  0
 20 22  1  0
 22 23  1  0
 23 24  1  0
 24 25  1  0
 25 26  1  0
 26 27  1  0
 27 28  1  6
 28 29  2  0
 28 30  1  0
 30 31  1  0
 31 32  1  0
 32 33  1  0
 33 34  1  0
 34 35  1  6
 35 36  2  0
 35 37  1  0
 38 37  1  6
 38 39  1  0
 39 40  1  0
 40 41  1  0
 40 42  1  0
 38 43  1  0
 43 44  2  0
 43 45  1  0
 45 46  1  0
 46 47  1  0
 47 48  1  0
 47 49  2  0
 27 50  1  0
 50 51  1  0
 51 52  2  0
 51 53  1  0
 53 54  1  6
 54 55  1  0
 55 56  1  0
 55 57  2  0
 53 58  1  0
 58 59  1  0
 59 60  2  0
 59 61  1  0
 61 62  1  1
 62 63  1  0
 63 64  1  0
 64 65  1  0
 64 66  2  0
 61 67  1  0
 67 68  1  0
 68 69  2  0
 68  5  1  0
 18 11  1  0
 34 30  1  0
M  END
>  <zinc_id>  (1) 
ZINC000150338703

>  <smiles>  (1) 
CC[C@H](C)[C@@H]1NC(=O)[C@H](Cc2ccc(OC)cc2)NC(=O)CCCSC[C@@H](C(=O)N2CCC[C@H]2C(=O)N[C@@H](CC(C)C)C(=O)NCC(N)=O)NC(=O)[C@H](CC(N)=O)NC(=O)[C@H](CCC(N)=O)NC1=O

$$$$
