
     RDKit          3D

 39 40  0  0  0  0  0  0  0  0999 V2000
    2.5303   -1.1612    1.0827 C   0  0  0  0  0  0  0  0  0  0  0  0
    2.4599   -1.2392   -0.3687 N   0  0  0  0  0  0  0  0  0  0  0  0
    3.4853   -1.9963   -1.0054 C   0  0  0  0  0  0  0  0  0  0  0  0
    4.2836   -1.3176   -2.0427 C   0  0  0  0  0  0  0  0  0  0  0  0
    5.6459   -0.8705   -1.6879 C   0  0  0  0  0  0  0  0  0  0  0  0
    6.3422   -1.5357   -0.5946 C   0  0  0  0  0  0  0  0  0  0  0  0
    6.5832   -0.7811    0.6565 C   0  0  0  0  0  0  0  0  0  0  0  0
    7.6795   -1.5254    1.4127 C   0  0  0  0  0  0  0  0  0  0  0  0
    8.4569   -2.4072    0.4529 C   0  0  0  0  0  0  0  0  0  0  0  0
    7.5873   -3.5493   -0.0534 C   0  0  0  0  0  0  0  0  0  0  0  0
    6.2261   -3.0066   -0.4754 C   0  0  0  0  0  0  0  0  0  0  0  0
    1.2002   -0.8682   -0.9445 C   0  0  0  0  0  0  0  0  0  0  0  0
    0.9030   -1.7055   -1.8665 O   0  0  0  0  0  0  0  0  0  0  0  0
    1.1831    0.5657   -1.7297 C   0  0  2  0  0  0  0  0  0  0  0  0
    2.4762    1.2015   -0.9036 C   0  0  0  0  0  0  0  0  0  0  0  0
    2.1784    2.6363   -0.6455 C   0  0  0  0  0  0  0  0  0  0  0  0
    2.5797    2.9081    0.7737 C   0  0  0  0  0  0  0  0  0  0  0  0
    3.4237    2.1680    1.3632 O   0  0  0  0  0  0  0  0  0  0  0  0
    1.7035    3.5414    1.6638 O   0  0  0  0  0  0  0  0  0  0  0  0
    0.1628    1.3006   -0.7698 N   0  0  0  0  0  0  0  0  0  0  0  0
   -0.6005    0.6262    0.1388 C   0  0  0  0  0  0  0  0  0  0  0  0
   -0.8844   -0.5616   -0.0838 O   0  0  0  0  0  0  0  0  0  0  0  0
   -1.6289    1.4254    0.7456 N   0  0  0  0  0  0  0  0  0  0  0  0
   -1.2654    2.7560    1.2294 C   0  0  0  0  0  0  0  0  0  0  0  0
   -1.7192    3.8267    0.3284 C   0  0  0  0  0  0  0  0  0  0  0  0
   -0.8562    4.3140   -0.4636 O   0  0  0  0  0  0  0  0  0  0  0  0
   -2.8095    4.6012    0.6506 O   0  0  0  0  0  0  0  0  0  0  0  0
   -2.7441    0.8211    1.4522 C   0  0  0  0  0  0  0  0  0  0  0  0
   -4.0404    1.1297    0.7636 C   0  0  0  0  0  0  0  0  0  0  0  0
   -4.3522    0.5863   -0.4787 C   0  0  0  0  0  0  0  0  0  0  0  0
   -5.5715   -0.0548   -0.6740 C   0  0  0  0  0  0  0  0  0  0  0  0
   -6.5323   -0.1172    0.3309 C   0  0  0  0  0  0  0  0  0  0  0  0
   -7.2514   -1.2895    0.5869 O   0  0  0  0  0  0  0  0  0  0  0  0
   -6.5408   -2.8422    0.4782 P   0  0  0  0  0  0  0  0  0  0  0  0
   -7.0195   -3.4872   -0.7841 O   0  0  0  0  0  0  0  0  0  0  0  0
   -4.8613   -2.6543    0.3403 O   0  0  0  0  0  0  0  0  0  0  0  0
   -6.8478   -3.8031    1.8135 O   0  0  0  0  0  0  0  0  0  0  0  0
   -6.4039    0.8924    1.2793 C   0  0  0  0  0  0  0  0  0  0  0  0
   -5.1614    1.4735    1.5136 C   0  0  0  0  0  0  0  0  0  0  0  0
  1  2  1  0
  2  3  1  0
  3  4  1  0
  4  5  1  0
  5  6  1  0
  6  7  1  0
  7  8  1  0
  8  9  1  0
  9 10  1  0
 10 11  1  0
  2 12  1  0
 12 13  2  0
 14 12  1  1
 14 15  1  0
 15 16  1  0
 16 17  1  0
 17 18  2  0
 17 19  1  0
 14 20  1  0
 20 21  1  0
 21 22  2  0
 21 23  1  0
 23 24  1  0
 24 25  1  0
 25 26  2  0
 25 27  1  0
 23 28  1  0
 28 29  1  0
 29 30  2  0
 30 31  1  0
 31 32  2  0
 32 33  1  0
 33 34  1  0
 34 35  2  0
 34 36  1  0
 34 37  1  0
 32 38  1  0
 38 39  2  0
 11  6  1  0
 39 29  1  0
M  END
>  <zinc_id>  (1) 
ZINC000014880066

>  <smiles>  (1) 
CN(CCCC1CCCCC1)C(=O)[C@H](CCC(=O)O)NC(=O)N(CC(=O)O)Cc1ccc(OP(=O)(O)O)cc1

$$$$
