
     RDKit          3D

 59 61  0  0  0  0  0  0  0  0999 V2000
   13.0366    1.7652   -0.6807 C   0  0  0  0  0  0  0  0  0  0  0  0
   12.6194    1.9116   -0.0441 C   0  0  0  0  0  0  0  0  0  0  0  0
   12.6179    3.2170    0.7244 C   0  0  0  0  0  0  0  0  0  0  0  0
   11.7526    0.9343    0.7258 C   0  0  0  0  0  0  0  0  0  0  0  0
   12.0221   -0.4817    0.2662 C   0  0  0  0  0  0  0  0  0  0  0  0
   10.7869   -1.3383    0.4515 C   0  0  0  0  0  0  0  0  0  0  0  0
   11.1395   -2.7864    0.2280 C   0  0  0  0  0  0  0  0  0  0  0  0
    9.9112   -3.6494    0.0898 C   0  0  0  0  0  0  0  0  0  0  0  0
    8.6274   -2.8830    0.2463 C   0  0  0  0  0  0  0  0  0  0  0  0
    8.4058   -2.0551   -0.9869 C   0  0  0  0  0  0  0  0  0  0  0  0
    7.1394   -1.2508   -0.9567 C   0  0  0  0  0  0  0  0  0  0  0  0
    6.7869   -0.7442    0.3812 C   0  0  0  0  0  0  0  0  0  0  0  0
    6.7591   -1.5412    1.3673 O   0  0  0  0  0  0  0  0  0  0  0  0
    6.0958    0.4955    0.5899 N   0  0  0  0  0  0  0  0  0  0  0  0
    6.9833    1.6061    0.9350 C   0  0  0  0  0  0  0  0  0  0  0  0
    5.1507    0.9102   -0.6060 C   0  0  2  0  0  0  0  0  0  0  0  0
    4.2101    1.8459    0.3719 C   0  0  0  0  0  0  0  0  0  0  0  0
    4.7867    3.1033    0.1309 O   0  0  0  0  0  0  0  0  0  0  0  0
    4.1934   -0.3667   -0.4376 C   0  0  0  0  0  0  0  0  0  0  0  0
    3.7400   -0.8627   -1.4799 O   0  0  0  0  0  0  0  0  0  0  0  0
    3.8060   -0.7579    0.8157 N   0  0  0  0  0  0  0  0  0  0  0  0
    2.9034   -2.0308    0.9746 C   0  0  2  0  0  0  0  0  0  0  0  0
    3.6193   -2.8518   -0.2623 C   0  0  0  0  0  0  0  0  0  0  0  0
    1.7393   -1.4300    0.0191 C   0  0  0  0  0  0  0  0  0  0  0  0
    1.0541   -2.4331   -0.3541 O   0  0  0  0  0  0  0  0  0  0  0  0
    0.9892   -0.3729    0.5994 N   0  0  0  0  0  0  0  0  0  0  0  0
   -0.3722   -0.4015    1.0289 C   0  0  0  0  0  0  0  0  0  0  0  0
   -1.3410   -0.7780   -0.0567 C   0  0  0  0  0  0  0  0  0  0  0  0
   -0.8171   -0.4790   -1.1777 O   0  0  0  0  0  0  0  0  0  0  0  0
   -2.3215   -1.7130    0.1940 N   0  0  0  0  0  0  0  0  0  0  0  0
   -2.1649   -2.5904    1.3587 C   0  0  0  0  0  0  0  0  0  0  0  0
   -3.8732   -1.3920    0.1464 C   0  0  1  0  0  0  0  0  0  0  0  0
   -3.6521    0.2063    0.1730 C   0  0  0  0  0  0  0  0  0  0  0  0
   -3.4302    0.9285   -0.9065 C   0  0  0  0  0  0  0  0  0  0  0  0
   -3.6403    2.3056   -0.8461 C   0  0  0  0  0  0  0  0  0  0  0  0
   -4.5264    2.8823    0.0727 C   0  0  0  0  0  0  0  0  0  0  0  0
   -5.5725    3.5526   -0.5948 O   0  0  0  0  0  0  0  0  0  0  0  0
   -4.7853    1.9999    1.1211 C   0  0  0  0  0  0  0  0  0  0  0  0
   -4.0655    0.8433    1.3403 C   0  0  0  0  0  0  0  0  0  0  0  0
   -5.9761    2.1920    1.9203 C   0  0  0  0  0  0  0  0  0  0  0  0
   -6.8212    1.1432    2.2936 C   0  0  0  0  0  0  0  0  0  0  0  0
   -7.9616    1.1873    1.4698 C   0  0  0  0  0  0  0  0  0  0  0  0
   -8.5915    2.4308    1.6059 C   0  0  0  0  0  0  0  0  0  0  0  0
   -7.8995    3.5644    2.0500 C   0  0  0  0  0  0  0  0  0  0  0  0
   -6.5403    3.4604    1.7771 C   0  0  0  0  0  0  0  0  0  0  0  0
   -5.6021    4.4606    1.8460 O   0  0  0  0  0  0  0  0  0  0  0  0
   -7.5791    0.6933    0.1057 C   0  0  0  0  0  0  0  0  0  0  0  0
   -8.5418   -0.5877   -0.2434 C   0  0  1  0  0  0  0  0  0  0  0  0
   -9.7520    0.3462   -0.7764 C   0  0  0  0  0  0  0  0  0  0  0  0
  -10.6859   -0.3549   -1.2801 O   0  0  0  0  0  0  0  0  0  0  0  0
   -9.4177    1.4307   -1.5647 O   0  0  0  0  0  0  0  0  0  0  0  0
   -7.9541   -0.7283   -1.6978 N   0  0  0  0  0  0  0  0  0  0  0  0
   -6.5479   -1.0143   -1.7049 C   0  0  0  0  0  0  0  0  0  0  0  0
   -6.1241   -0.9347   -2.9083 O   0  0  0  0  0  0  0  0  0  0  0  0
   -6.3992   -2.5171   -1.1157 C   0  0  2  0  0  0  0  0  0  0  0  0
   -5.9569   -2.0881    0.4048 C   0  0  0  0  0  0  0  0  0  0  0  0
   -4.9062   -2.6954   -1.5803 N   0  0  0  0  0  0  0  0  0  0  0  0
   -4.0308   -1.5629   -1.4564 C   0  0  0  0  0  0  0  0  0  0  0  0
   -3.0256   -1.7433   -2.1562 O   0  0  0  0  0  0  0  0  0  0  0  0
  1  2  1  0
  2  3  1  0
  2  4  1  0
  4  5  1  0
  5  6  1  0
  6  7  1  0
  7  8  1  0
  8  9  1  0
  9 10  1  0
 10 11  1  0
 11 12  1  0
 12 13  2  0
 12 14  1  0
 14 15  1  0
 16 14  1  1
 16 17  1  0
 17 18  1  0
 16 19  1  0
 19 20  2  0
 19 21  1  0
 22 21  1  6
 22 23  1  0
 22 24  1  0
 24 25  2  0
 24 26  1  0
 26 27  1  0
 27 28  1  0
 28 29  2  0
 28 30  1  0
 30 31  1  0
 32 30  1  6
 32 33  1  0
 33 34  1  0
 34 35  2  0
 35 36  1  0
 36 37  1  0
 36 38  2  0
 38 39  1  0
 38 40  1  0
 40 41  1  0
 41 42  2  0
 42 43  1  0
 43 44  2  0
 44 45  1  0
 45 46  1  0
 42 47  1  0
 47 48  1  0
 48 49  1  6
 49 50  2  0
 49 51  1  0
 48 52  1  0
 52 53  1  0
 53 54  2  0
 53 55  1  0
 55 56  1  1
 55 57  1  0
 57 58  1  0
 58 59  2  0
 58 32  1  0
 39 33  2  0
 45 40  2  0
M  END
>  <zinc_id>  (1) 
ZINC000085740056

>  <smiles>  (1) 
CC(C)CCCCCCCCC(=O)N(C)[C@H](CO)C(=O)N[C@H](C)C(=O)NCC(=O)N(C)[C@@H]1C(=O)N[C@@H](C)C(=O)N[C@H](C(=O)O)Cc2ccc(O)c(c2)-c2cc1ccc2O

$$$$
