
     RDKit          3D

 58 60  0  0  0  0  0  0  0  0999 V2000
    0.4264   -4.8703    0.2389 C   0  0  0  0  0  0  0  0  0  0  0  0
   -0.6912   -4.1016    0.7690 C   0  0  0  0  0  0  0  0  0  0  0  0
   -1.1705   -4.4130    1.9006 O   0  0  0  0  0  0  0  0  0  0  0  0
   -1.4358   -3.1823   -0.0413 N   0  0  0  0  0  0  0  0  0  0  0  0
   -1.9118   -1.9349    0.7362 C   0  0  1  0  0  0  0  0  0  0  0  0
   -0.8599   -0.7619    0.0438 C   0  0  1  0  0  0  0  0  0  0  0  0
    0.2979   -1.3588    0.8389 O   0  0  0  0  0  0  0  0  0  0  0  0
    1.6047   -1.0785   -0.0848 P   0  0  1  0  0  0  0  0  0  0  0  0
    1.7490   -2.1876   -1.1178 O   0  0  0  0  0  0  0  0  0  0  0  0
    1.5435    0.4594   -0.7495 O   0  0  0  0  0  0  0  0  0  0  0  0
    3.1019   -1.0803    0.6448 O   0  0  0  0  0  0  0  0  0  0  0  0
    4.1579   -0.8106   -0.6596 P   0  0  1  0  0  0  0  0  0  0  0  0
    5.0862   -1.9654   -0.6752 O   0  0  0  0  0  0  0  0  0  0  0  0
    3.3801   -0.8636   -2.1638 O   0  0  0  0  0  0  0  0  0  0  0  0
    4.8739    0.6862   -0.5191 O   0  0  0  0  0  0  0  0  0  0  0  0
    5.7642    0.7909    0.5296 C   0  0  0  0  0  0  0  0  0  0  0  0
    7.1995    0.5885   -0.2375 C   0  0  1  0  0  0  0  0  0  0  0  0
    7.8293    1.7330    0.5050 O   0  0  0  0  0  0  0  0  0  0  0  0
    9.1109    1.1453   -0.0625 C   0  0  1  0  0  0  0  0  0  0  0  0
    9.9859    2.3320    0.4945 N   0  0  0  0  0  0  0  0  0  0  0  0
   10.4437    3.0322   -0.5797 C   0  0  0  0  0  0  0  0  0  0  0  0
   11.7973    3.3134   -0.7441 C   0  0  0  0  0  0  0  0  0  0  0  0
   12.7348    2.7733    0.1313 C   0  0  0  0  0  0  0  0  0  0  0  0
   13.9251    2.5909   -0.1951 O   0  0  0  0  0  0  0  0  0  0  0  0
   12.2122    2.3962    1.3259 N   0  0  0  0  0  0  0  0  0  0  0  0
   10.9278    2.0190    1.3840 C   0  0  0  0  0  0  0  0  0  0  0  0
   10.3796    1.5327    2.4203 O   0  0  0  0  0  0  0  0  0  0  0  0
    9.1054    0.2185    1.3690 C   0  0  2  0  0  0  0  0  0  0  0  0
   10.1165   -0.7517    0.8372 O   0  0  0  0  0  0  0  0  0  0  0  0
    7.6994   -0.6024    0.8789 C   0  0  2  0  0  0  0  0  0  0  0  0
    8.2958   -1.3969   -0.2495 O   0  0  0  0  0  0  0  0  0  0  0  0
   -0.4739   -1.5225   -1.2053 O   0  0  0  0  0  0  0  0  0  0  0  0
   -1.6821   -1.4597   -2.0889 C   0  0  2  0  0  0  0  0  0  0  0  0
   -1.0761   -0.2352   -2.9962 C   0  0  0  0  0  0  0  0  0  0  0  0
   -0.7622   -0.7621   -4.2190 O   0  0  0  0  0  0  0  0  0  0  0  0
   -2.5510   -0.3479   -1.1228 C   0  0  1  0  0  0  0  0  0  0  0  0
   -3.6696   -0.3286   -2.1106 O   0  0  0  0  0  0  0  0  0  0  0  0
   -3.2321   -1.6672   -0.2914 C   0  0  2  0  0  0  0  0  0  0  0  0
   -3.8680   -0.7195    0.6687 O   0  0  0  0  0  0  0  0  0  0  0  0
   -5.1037   -1.4538    1.1506 C   0  0  2  0  0  0  0  0  0  0  0  0
   -5.4560   -2.1198   -0.3209 C   0  0  0  0  0  0  0  0  0  0  0  0
   -6.0321   -0.1426    0.9377 C   0  0  0  0  0  0  0  0  0  0  0  0
   -5.6832    0.7742    1.7334 O   0  0  0  0  0  0  0  0  0  0  0  0
   -6.6022    0.1563   -0.2686 N   0  0  0  0  0  0  0  0  0  0  0  0
   -6.5502    1.6333   -0.8106 C   0  0  1  0  0  0  0  0  0  0  0  0
   -7.4863    1.2603   -2.1108 C   0  0  0  0  0  0  0  0  0  0  0  0
   -7.8105    2.0905    0.0733 C   0  0  0  0  0  0  0  0  0  0  0  0
   -7.6812    3.2620    0.4549 O   0  0  0  0  0  0  0  0  0  0  0  0
   -8.9451    1.2915    0.1006 N   0  0  0  0  0  0  0  0  0  0  0  0
   -9.9389    1.8653    1.1774 C   0  0  2  0  0  0  0  0  0  0  0  0
  -11.0452    0.6872    0.8767 C   0  0  0  0  0  0  0  0  0  0  0  0
  -10.4174   -0.4804    1.6016 C   0  0  0  0  0  0  0  0  0  0  0  0
   -9.9943   -1.5445    0.6549 C   0  0  0  0  0  0  0  0  0  0  0  0
   -9.2536   -2.4497    1.0914 O   0  0  0  0  0  0  0  0  0  0  0  0
  -10.3381   -1.4624   -0.6810 O   0  0  0  0  0  0  0  0  0  0  0  0
  -10.6103    2.8882    0.1317 C   0  0  0  0  0  0  0  0  0  0  0  0
  -10.4418    4.0995    0.4373 O   0  0  0  0  0  0  0  0  0  0  0  0
  -10.9749    2.4358   -1.0923 O   0  0  0  0  0  0  0  0  0  0  0  0
  1  2  1  0
  2  3  2  0
  2  4  1  0
  5  4  1  6
  5  6  1  0
  6  7  1  1
  8  7  1  1
  8  9  2  0
  8 10  1  0
  8 11  1  0
 12 11  1  1
 12 13  2  0
 12 14  1  0
 12 15  1  0
 15 16  1  0
 17 16  1  1
 17 18  1  0
 18 19  1  0
 19 20  1  1
 20 21  1  0
 21 22  2  0
 22 23  1  0
 23 24  2  0
 23 25  1  0
 25 26  1  0
 26 27  2  0
 19 28  1  0
 28 29  1  6
 28 30  1  0
 30 31  1  6
  6 32  1  0
 32 33  1  0
 33 34  1  6
 34 35  1  0
 33 36  1  0
 36 37  1  6
 36 38  1  0
 38 39  1  1
 40 39  1  6
 40 41  1  0
 40 42  1  0
 42 43  2  0
 42 44  1  0
 45 44  1  1
 45 46  1  0
 45 47  1  0
 47 48  2  0
 47 49  1  0
 50 49  1  6
 50 51  1  0
 51 52  1  0
 52 53  1  0
 53 54  2  0
 53 55  1  0
 50 56  1  0
 56 57  2  0
 56 58  1  0
 38  5  1  0
 30 17  1  0
 26 20  1  0
M  END
>  <zinc_id>  (1) 
ZINC000096068408

>  <smiles>  (1) 
CC(=O)N[C@H]1[C@@H](O[P@@](=O)(O)O[P@@](=O)(O)OC[C@H]2O[C@@H](n3ccc(=O)[nH]c3=O)[C@H](O)[C@@H]2O)O[C@H](CO)[C@@H](O)[C@@H]1O[C@H](C)C(=O)N[C@@H](C)C(=O)N[C@H](CCC(=O)O)C(=O)O

$$$$
