
     RDKit          3D

 52 53  0  0  0  0  0  0  0  0999 V2000
   -0.0442    3.0711   -1.4615 C   0  0  0  0  0  0  0  0  0  0  0  0
   -0.3794    1.9654   -1.6914 C   0  0  0  0  0  0  0  0  0  0  0  0
   -0.2279    1.4774   -3.1041 C   0  0  0  0  0  0  0  0  0  0  0  0
    0.1084    0.9764   -0.6675 C   0  0  0  0  0  0  0  0  0  0  0  0
   -0.6147   -0.4483   -1.0817 C   0  0  2  0  0  0  0  0  0  0  0  0
   -1.2015   -0.6080    0.3732 N   0  0  0  0  0  0  0  0  0  0  0  0
   -2.4431   -1.1821    0.5538 C   0  0  0  0  0  0  0  0  0  0  0  0
   -2.6602   -2.2083   -0.1446 O   0  0  0  0  0  0  0  0  0  0  0  0
   -3.7464   -0.1773    0.6173 C   0  0  2  0  0  0  0  0  0  0  0  0
   -3.0057    0.8429    1.7266 C   0  0  0  0  0  0  0  0  0  0  0  0
   -3.8503    2.0548    1.7417 C   0  0  0  0  0  0  0  0  0  0  0  0
   -4.3517    2.3825    2.8565 O   0  0  0  0  0  0  0  0  0  0  0  0
   -3.4351    3.1052    0.8563 N   0  0  0  0  0  0  0  0  0  0  0  0
   -3.3889    2.7032   -0.5480 C   0  0  0  0  0  0  0  0  0  0  0  0
   -4.5187    3.4662   -1.2341 C   0  0  0  0  0  0  0  0  0  0  0  0
   -5.5601    3.8893   -0.2176 C   0  0  0  0  0  0  0  0  0  0  0  0
   -6.9634    3.6014   -0.6523 C   0  0  0  0  0  0  0  0  0  0  0  0
   -7.0316    2.5538   -1.7476 C   0  0  0  0  0  0  0  0  0  0  0  0
   -6.8086    1.1908   -1.1086 C   0  0  0  0  0  0  0  0  0  0  0  0
   -6.2350    0.3868   -2.0941 O   0  0  0  0  0  0  0  0  0  0  0  0
   -6.0863   -0.9654   -1.8972 C   0  0  0  0  0  0  0  0  0  0  0  0
   -5.5074   -1.5945   -2.8362 O   0  0  0  0  0  0  0  0  0  0  0  0
   -6.0036   -1.5458   -0.6191 N   0  0  0  0  0  0  0  0  0  0  0  0
   -6.6788   -0.7084    0.5654 C   0  0  1  0  0  0  0  0  0  0  0  0
   -7.8408   -1.8977    0.8063 C   0  0  0  0  0  0  0  0  0  0  0  0
   -8.7754   -1.8211   -0.3465 C   0  0  0  0  0  0  0  0  0  0  0  0
   -7.0868   -3.1901    0.8204 C   0  0  0  0  0  0  0  0  0  0  0  0
   -5.7190   -1.3746    1.7238 C   0  0  0  0  0  0  0  0  0  0  0  0
   -6.3427   -1.3389    2.8354 O   0  0  0  0  0  0  0  0  0  0  0  0
   -4.3987   -1.0370    1.7933 N   0  0  0  0  0  0  0  0  0  0  0  0
    0.8174   -1.4269   -0.7830 C   0  0  1  0  0  0  0  0  0  0  0  0
    1.6830   -0.4745   -1.6264 O   0  0  0  0  0  0  0  0  0  0  0  0
    1.1358   -0.7529    0.7007 C   0  0  0  0  0  0  0  0  0  0  0  0
    2.5152    0.1073    0.4343 C   0  0  1  0  0  0  0  0  0  0  0  0
    2.5159    0.6058    2.0203 C   0  0  0  0  0  0  0  0  0  0  0  0
    3.5078   -1.1637    0.7287 C   0  0  0  0  0  0  0  0  0  0  0  0
    3.7875   -1.7717   -0.3537 O   0  0  0  0  0  0  0  0  0  0  0  0
    4.5161   -1.0221    1.6359 N   0  0  0  0  0  0  0  0  0  0  0  0
    6.0428   -1.3501    1.2832 C   0  0  2  0  0  0  0  0  0  0  0  0
    6.0747   -0.2597    0.0531 C   0  0  0  0  0  0  0  0  0  0  0  0
    5.7839    0.9015    0.4812 O   0  0  0  0  0  0  0  0  0  0  0  0
    7.0021   -0.4549   -0.9481 N   0  0  0  0  0  0  0  0  0  0  0  0
    7.6132    0.7500   -1.5069 C   0  0  0  0  0  0  0  0  0  0  0  0
    8.8655    0.9410   -0.7045 C   0  0  0  0  0  0  0  0  0  0  0  0
   10.0400    0.5542   -1.3396 C   0  0  0  0  0  0  0  0  0  0  0  0
   11.0249   -0.1742   -0.6814 C   0  0  0  0  0  0  0  0  0  0  0  0
   10.8923   -0.4342    0.6779 C   0  0  0  0  0  0  0  0  0  0  0  0
   10.0454    0.4424    1.3461 C   0  0  0  0  0  0  0  0  0  0  0  0
    8.8733    0.7791    0.6777 C   0  0  0  0  0  0  0  0  0  0  0  0
    5.6462   -2.6231    0.2637 C   0  0  0  0  0  0  0  0  0  0  0  0
    6.9884   -2.9988   -0.3661 C   0  0  0  0  0  0  0  0  0  0  0  0
    5.4264   -3.7444    1.2823 C   0  0  0  0  0  0  0  0  0  0  0  0
  1  2  1  0
  2  3  1  0
  2  4  1  0
  5  4  1  1
  5  6  1  0
  6  7  1  0
  7  8  2  0
  9  7  1  1
  9 10  1  0
 10 11  1  0
 11 12  2  0
 11 13  1  0
 13 14  1  0
 14 15  1  0
 15 16  1  0
 16 17  1  0
 17 18  1  0
 18 19  1  0
 19 20  1  0
 20 21  1  0
 21 22  2  0
 21 23  1  0
 23 24  1  0
 24 25  1  1
 25 26  1  0
 25 27  1  0
 24 28  1  0
 28 29  2  0
 28 30  1  0
  5 31  1  0
 31 32  1  6
 31 33  1  0
 34 33  1  1
 34 35  1  0
 34 36  1  0
 36 37  2  0
 36 38  1  0
 39 38  1  1
 39 40  1  0
 40 41  2  0
 40 42  1  0
 42 43  1  0
 43 44  1  0
 44 45  2  0
 45 46  1  0
 46 47  2  0
 47 48  1  0
 48 49  2  0
 39 50  1  0
 50 51  1  0
 50 52  1  0
 30  9  1  0
 49 44  1  0
M  END
>  <zinc_id>  (1) 
ZINC000028353688

>  <smiles>  (1) 
CC(C)C[C@H](NC(=O)[C@@H]1CC(=O)NCCCCCCOC(=O)N[C@@H](C(C)C)C(=O)N1)[C@@H](O)C[C@@H](C)C(=O)N[C@H](C(=O)NCc1ccccc1)C(C)C

$$$$
