
     RDKit          3D

 39 40  0  0  0  0  0  0  0  0999 V2000
    1.3309   -8.0587   -0.4764 C   0  0  0  0  0  0  0  0  0  0  0  0
    1.0206   -7.2434    0.0339 C   0  0  0  0  0  0  0  0  0  0  0  0
    1.6025   -5.9755    0.5513 C   0  0  0  0  0  0  0  0  0  0  0  0
    2.3234   -5.1651   -0.5145 C   0  0  0  0  0  0  0  0  0  0  0  0
    1.3751   -4.1969   -1.2108 C   0  0  0  0  0  0  0  0  0  0  0  0
    0.5036   -3.6642   -0.2023 N   0  0  0  0  0  0  0  0  0  0  0  0
   -0.0755   -2.3821   -0.3775 C   0  0  0  0  0  0  0  0  0  0  0  0
   -0.0565   -1.7493   -1.4224 O   0  0  0  0  0  0  0  0  0  0  0  0
   -0.1025   -1.5685    1.0204 C   0  0  2  0  0  0  0  0  0  0  0  0
   -1.7133   -1.2642    0.9083 C   0  0  0  0  0  0  0  0  0  0  0  0
   -1.9459   -0.2318   -0.1089 C   0  0  0  0  0  0  0  0  0  0  0  0
   -1.8123    1.1403    0.0916 C   0  0  0  0  0  0  0  0  0  0  0  0
   -2.9032    2.0031   -0.0102 C   0  0  0  0  0  0  0  0  0  0  0  0
   -4.1672    1.5189   -0.3527 C   0  0  0  0  0  0  0  0  0  0  0  0
   -5.2311    1.8374    0.4604 O   0  0  0  0  0  0  0  0  0  0  0  0
   -6.5268    1.5173    0.4417 C   0  0  0  0  0  0  0  0  0  0  0  0
   -7.3458    2.5142   -0.2507 C   0  0  0  0  0  0  0  0  0  0  0  0
   -7.4089    2.4096   -1.5144 O   0  0  0  0  0  0  0  0  0  0  0  0
   -7.1835    3.8283    0.2093 O   0  0  0  0  0  0  0  0  0  0  0  0
   -6.9727    0.1501    0.4158 C   0  0  0  0  0  0  0  0  0  0  0  0
   -6.7199   -0.6295    1.3845 O   0  0  0  0  0  0  0  0  0  0  0  0
   -7.6155   -0.4406   -0.6528 O   0  0  0  0  0  0  0  0  0  0  0  0
   -4.0898    0.3518   -1.1068 C   0  0  0  0  0  0  0  0  0  0  0  0
   -2.9606   -0.4655   -1.0327 C   0  0  0  0  0  0  0  0  0  0  0  0
    0.3893   -0.1885    0.4094 N   0  0  0  0  0  0  0  0  0  0  0  0
    1.8094   -0.1397    0.6054 C   0  0  0  0  0  0  0  0  0  0  0  0
    2.5205   -1.1814    0.4663 O   0  0  0  0  0  0  0  0  0  0  0  0
    2.5476    1.0872    0.6354 N   0  0  0  0  0  0  0  0  0  0  0  0
    3.9536    0.9364    1.3425 C   0  0  1  0  0  0  0  0  0  0  0  0
    4.7007    0.6307   -0.0905 C   0  0  0  0  0  0  0  0  0  0  0  0
    5.5567    1.7435   -0.4333 C   0  0  0  0  0  0  0  0  0  0  0  0
    6.9310    1.6404   -0.3514 C   0  0  0  0  0  0  0  0  0  0  0  0
    7.6851    2.6589   -0.9208 C   0  0  0  0  0  0  0  0  0  0  0  0
    7.1063    3.7245   -1.5571 C   0  0  0  0  0  0  0  0  0  0  0  0
    5.7798    3.6217   -1.9570 C   0  0  0  0  0  0  0  0  0  0  0  0
    5.0612    2.6070   -1.4034 C   0  0  0  0  0  0  0  0  0  0  0  0
    4.2896    2.5171    1.3751 C   0  0  0  0  0  0  0  0  0  0  0  0
    5.0532    2.6992    2.3762 O   0  0  0  0  0  0  0  0  0  0  0  0
    3.2910    3.4069    1.1881 O   0  0  0  0  0  0  0  0  0  0  0  0
  1  2  1  0
  2  3  1  0
  3  4  1  0
  4  5  1  0
  5  6  1  0
  6  7  1  0
  7  8  2  0
  9  7  1  6
  9 10  1  0
 10 11  1  0
 11 12  2  0
 12 13  1  0
 13 14  2  0
 14 15  1  0
 15 16  1  0
 16 17  1  0
 17 18  2  0
 17 19  1  0
 16 20  1  0
 20 21  2  0
 20 22  1  0
 14 23  1  0
 23 24  2  0
  9 25  1  0
 25 26  1  0
 26 27  2  0
 26 28  1  0
 29 28  1  6
 29 30  1  0
 30 31  1  0
 31 32  2  0
 32 33  1  0
 33 34  2  0
 34 35  1  0
 35 36  2  0
 29 37  1  0
 37 38  2  0
 37 39  1  0
 24 11  1  0
 36 31  1  0
M  END
>  <zinc_id>  (1) 
ZINC000003874712

>  <smiles>  (1) 
CCCCCNC(=O)[C@H](Cc1ccc(OC(C(=O)O)C(=O)O)cc1)NC(=O)N[C@@H](Cc1ccccc1)C(=O)O

$$$$
