
     RDKit          3D

 43 45  0  0  0  0  0  0  0  0999 V2000
    8.1039    4.2354    1.8773 C   0  0  0  0  0  0  0  0  0  0  0  0
    8.8222    3.6007    0.9523 C   0  0  0  0  0  0  0  0  0  0  0  0
    9.8780    2.7894    1.2048 N   0  0  0  0  0  0  0  0  0  0  0  0
   10.2624    2.1869    0.0566 C   0  0  0  0  0  0  0  0  0  0  0  0
    9.2298    2.3966   -0.8490 C   0  0  0  0  0  0  0  0  0  0  0  0
    8.4055    3.3259   -0.3070 N   0  0  0  0  0  0  0  0  0  0  0  0
    7.0352    3.4815   -0.7568 C   0  0  0  0  0  0  0  0  0  0  0  0
    6.2500    2.1961   -0.5764 C   0  0  0  0  0  0  0  0  0  0  0  0
    7.0236    1.3276    0.3907 C   0  0  0  0  0  0  0  0  0  0  0  0
    6.7456   -0.1524    0.1552 C   0  0  0  0  0  0  0  0  0  0  0  0
    5.2640   -0.3652    0.1513 C   0  0  0  0  0  0  0  0  0  0  0  0
    4.5637   -0.2569   -1.0436 C   0  0  0  0  0  0  0  0  0  0  0  0
    3.2583    0.2184   -1.0452 C   0  0  0  0  0  0  0  0  0  0  0  0
    2.6081    0.5911    0.1248 C   0  0  0  0  0  0  0  0  0  0  0  0
    1.1413    0.9032    0.1473 C   0  0  0  0  0  0  0  0  0  0  0  0
    0.4529   -0.2863    0.6766 C   0  0  0  0  0  0  0  0  0  0  0  0
    1.0722   -0.9908    1.5247 O   0  0  0  0  0  0  0  0  0  0  0  0
   -0.6857   -0.9389    0.1062 N   0  0  0  0  0  0  0  0  0  0  0  0
   -0.2990   -2.2972   -0.6077 C   0  0  1  0  0  0  0  0  0  0  0  0
    0.2213   -2.9810    0.7945 C   0  0  0  0  0  0  0  0  0  0  0  0
   -0.8128   -3.1000    1.6479 O   0  0  0  0  0  0  0  0  0  0  0  0
   -1.7628   -2.9597   -0.5493 C   0  0  0  0  0  0  0  0  0  0  0  0
   -2.0404   -3.2911   -1.7442 O   0  0  0  0  0  0  0  0  0  0  0  0
   -2.7868   -2.4773    0.2437 N   0  0  0  0  0  0  0  0  0  0  0  0
   -3.9638   -3.5296    0.1394 C   0  0  1  0  0  0  0  0  0  0  0  0
   -4.2944   -3.4723    1.7473 C   0  0  0  0  0  0  0  0  0  0  0  0
   -4.8149   -2.1671    2.1274 C   0  0  0  0  0  0  0  0  0  0  0  0
   -3.8633   -1.0228    2.1783 C   0  0  0  0  0  0  0  0  0  0  0  0
   -4.7021    0.2501    2.1388 C   0  0  0  0  0  0  0  0  0  0  0  0
   -4.3565    1.0945    1.0229 N   0  0  0  0  0  0  0  0  0  0  0  0
   -5.0696   -2.4153   -0.2433 C   0  0  0  0  0  0  0  0  0  0  0  0
   -6.2068   -2.8915    0.0671 O   0  0  0  0  0  0  0  0  0  0  0  0
   -4.9974   -1.9223   -1.5736 N   0  0  0  0  0  0  0  0  0  0  0  0
   -6.1607   -1.1816   -2.0548 C   0  0  0  0  0  0  0  0  0  0  0  0
   -7.1467   -0.8886   -0.9563 C   0  0  0  0  0  0  0  0  0  0  0  0
   -7.2929    0.5988   -0.7594 C   0  0  0  0  0  0  0  0  0  0  0  0
   -6.0363    1.2351   -0.2074 C   0  0  0  0  0  0  0  0  0  0  0  0
   -6.2348    2.7422   -0.2416 C   0  0  0  0  0  0  0  0  0  0  0  0
   -7.4614    3.1601    0.5531 C   0  0  0  0  0  0  0  0  0  0  0  0
   -8.7059    2.4215    0.0843 C   0  0  0  0  0  0  0  0  0  0  0  0
   -8.4287    0.9253    0.1704 C   0  0  0  0  0  0  0  0  0  0  0  0
    3.2724    0.2504    1.2975 C   0  0  0  0  0  0  0  0  0  0  0  0
    4.5134   -0.3431    1.3089 C   0  0  0  0  0  0  0  0  0  0  0  0
  1  2  1  0
  2  3  2  0
  3  4  1  0
  4  5  2  0
  5  6  1  0
  6  7  1  0
  7  8  1  0
  8  9  1  0
  9 10  1  0
 10 11  1  0
 11 12  2  0
 12 13  1  0
 13 14  2  0
 14 15  1  0
 15 16  1  0
 16 17  2  0
 16 18  1  0
 19 18  1  1
 19 20  1  0
 20 21  1  0
 19 22  1  0
 22 23  2  0
 22 24  1  0
 25 24  1  1
 25 26  1  0
 26 27  1  0
 27 28  1  0
 28 29  1  0
 29 30  1  0
 25 31  1  0
 31 32  2  0
 31 33  1  0
 33 34  1  0
 34 35  1  0
 35 36  1  0
 36 37  1  0
 37 38  1  0
 38 39  1  0
 39 40  1  0
 40 41  1  0
 14 42  1  0
 42 43  2  0
  6  2  1  0
 43 11  1  0
 41 36  1  0
M  END
>  <zinc_id>  (1) 
ZINC000014880363

>  <smiles>  (1) 
Cc1nccn1CCCCc1ccc(CC(=O)N[C@@H](CO)C(=O)N[C@@H](CCCCN)C(=O)NCCC2CCCCC2)cc1

$$$$
