
     RDKit          3D

 52 55  0  0  0  0  0  0  0  0999 V2000
    0.4596   -7.9286    2.0852 N   0  0  0  0  0  0  0  0  0  0  0  0
   -0.1874   -7.4303    1.0486 C   0  0  0  0  0  0  0  0  0  0  0  0
   -1.4123   -6.8913    1.2655 N   0  0  0  0  0  0  0  0  0  0  0  0
   -1.9286   -5.9249    0.4638 C   0  0  0  0  0  0  0  0  0  0  0  0
   -2.8885   -5.0269    0.9250 C   0  0  0  0  0  0  0  0  0  0  0  0
   -2.7768   -3.6721    0.6204 C   0  0  0  0  0  0  0  0  0  0  0  0
   -1.6380   -3.1484    0.0020 C   0  0  0  0  0  0  0  0  0  0  0  0
   -1.0309   -2.0727    0.7220 C   0  0  0  0  0  0  0  0  0  0  0  0
   -0.1229   -1.1081    0.0923 C   0  0  1  0  0  0  0  0  0  0  0  0
    0.8601   -0.9653    1.0633 O   0  0  0  0  0  0  0  0  0  0  0  0
    0.2529   -1.5862   -1.2283 C   0  0  0  0  0  0  0  0  0  0  0  0
    1.5703   -1.4589   -1.7049 N   0  0  0  0  0  0  0  0  0  0  0  0
    2.4386   -0.9079   -0.7777 C   0  0  0  0  0  0  0  0  0  0  0  0
    3.8844   -1.1952   -0.8918 C   0  0  0  0  0  0  0  0  0  0  0  0
    4.4777   -1.4760    0.1971 O   0  0  0  0  0  0  0  0  0  0  0  0
    4.6761   -0.6870   -1.8841 N   0  0  0  0  0  0  0  0  0  0  0  0
    6.0673    0.0002   -1.6229 C   0  0  2  0  0  0  0  0  0  0  0  0
    5.7674    0.3564   -0.1983 O   0  0  0  0  0  0  0  0  0  0  0  0
    6.8540    1.3306    0.0778 C   0  0  2  0  0  0  0  0  0  0  0  0
    5.7723    2.3524    0.7879 C   0  0  0  0  0  0  0  0  0  0  0  0
    6.2118    3.6256    0.5567 O   0  0  0  0  0  0  0  0  0  0  0  0
    6.9263    4.2082    1.9637 P   0  0  0  0  0  0  0  0  0  0  0  0
    6.8426    3.1755    3.0677 O   0  0  0  0  0  0  0  0  0  0  0  0
    8.5640    4.4151    1.6039 O   0  0  0  0  0  0  0  0  0  0  0  0
    6.1823    5.6276    2.4489 O   0  0  0  0  0  0  0  0  0  0  0  0
    6.7910    2.2417   -1.3661 C   0  0  1  0  0  0  0  0  0  0  0  0
    7.7703    1.3222   -2.0445 O   0  0  0  0  0  0  0  0  0  0  0  0
    5.3637    1.5317   -1.9307 C   0  0  1  0  0  0  0  0  0  0  0  0
    5.8100    1.5393   -3.3579 O   0  0  0  0  0  0  0  0  0  0  0  0
   -0.8875    0.1886    0.0988 C   0  0  0  0  0  0  0  0  0  0  0  0
   -1.6897    0.4939    1.1952 C   0  0  0  0  0  0  0  0  0  0  0  0
   -2.8165    1.3036    1.0764 C   0  0  0  0  0  0  0  0  0  0  0  0
   -3.5213    1.1163   -0.1074 C   0  0  0  0  0  0  0  0  0  0  0  0
   -4.8711    1.5953   -0.2832 C   0  0  0  0  0  0  0  0  0  0  0  0
   -5.7292    0.8215   -0.7457 O   0  0  0  0  0  0  0  0  0  0  0  0
   -5.0842    2.9798   -0.1918 N   0  0  0  0  0  0  0  0  0  0  0  0
   -6.0650    3.5908   -1.2602 C   0  0  1  0  0  0  0  0  0  0  0  0
   -7.4201    3.2559   -0.3999 C   0  0  0  0  0  0  0  0  0  0  0  0
   -7.1143    3.0359    1.0099 C   0  0  0  0  0  0  0  0  0  0  0  0
   -7.6471    4.0276    1.9544 C   0  0  0  0  0  0  0  0  0  0  0  0
   -8.9069    4.1639    1.9576 O   0  0  0  0  0  0  0  0  0  0  0  0
   -6.9711    4.2450    3.1465 O   0  0  0  0  0  0  0  0  0  0  0  0
   -5.9801    5.0892   -0.6715 C   0  0  0  0  0  0  0  0  0  0  0  0
   -6.3107    5.8461   -1.6415 O   0  0  0  0  0  0  0  0  0  0  0  0
   -4.8060    5.4935   -0.0815 O   0  0  0  0  0  0  0  0  0  0  0  0
   -2.7350    1.0198   -1.2479 C   0  0  0  0  0  0  0  0  0  0  0  0
   -1.4255    0.5707   -1.1247 C   0  0  0  0  0  0  0  0  0  0  0  0
   -1.0578   -4.0818   -0.8496 C   0  0  0  0  0  0  0  0  0  0  0  0
   -1.1838   -5.4539   -0.6181 C   0  0  0  0  0  0  0  0  0  0  0  0
   -0.2114   -6.3561   -1.0445 C   0  0  0  0  0  0  0  0  0  0  0  0
    0.5499   -5.9269   -1.9639 O   0  0  0  0  0  0  0  0  0  0  0  0
    0.3272   -7.2656   -0.1920 N   0  0  0  0  0  0  0  0  0  0  0  0
  1  2  1  0
  2  3  2  0
  3  4  1  0
  4  5  2  0
  5  6  1  0
  6  7  2  0
  7  8  1  0
  9  8  1  1
  9 10  1  0
  9 11  1  0
 11 12  1  0
 12 13  1  0
 13 14  1  0
 14 15  2  0
 14 16  1  0
 17 16  1  6
 17 18  1  0
 18 19  1  0
 19 20  1  1
 20 21  1  0
 21 22  1  0
 22 23  2  0
 22 24  1  0
 22 25  1  0
 19 26  1  0
 26 27  1  6
 26 28  1  0
 28 29  1  6
  9 30  1  0
 30 31  2  0
 31 32  1  0
 32 33  2  0
 33 34  1  0
 34 35  2  0
 34 36  1  0
 37 36  1  1
 37 38  1  0
 38 39  1  0
 39 40  1  0
 40 41  2  0
 40 42  1  0
 37 43  1  0
 43 44  2  0
 43 45  1  0
 33 46  1  0
 46 47  2  0
  7 48  1  0
 48 49  2  0
 49 50  1  0
 50 51  2  0
 50 52  1  0
 52  2  1  0
 49  4  1  0
 28 17  1  0
 47 30  1  0
M  END
>  <zinc_id>  (1) 
ZINC000098207915

>  <smiles>  (1) 
Nc1nc2ccc(C[C@@](O)(CNCC(=O)N[C@@H]3O[C@H](COP(=O)(O)O)[C@@H](O)[C@H]3O)c3ccc(C(=O)N[C@@H](CCC(=O)O)C(=O)O)cc3)cc2c(=O)[nH]1

$$$$
