
     RDKit          3D

 29 28  0  0  0  0  0  0  0  0999 V2000
    8.5839    2.3411    0.1025 N   0  0  0  0  0  0  0  0  0  0  0  0
    8.7157    0.9379    0.4841 C   0  0  0  0  0  0  0  0  0  0  0  0
    8.5756    0.0506   -0.7219 C   0  0  0  0  0  0  0  0  0  0  0  0
    7.2914   -0.7563   -0.5676 C   0  0  0  0  0  0  0  0  0  0  0  0
    6.3453    0.1403    0.2187 C   0  0  0  0  0  0  0  0  0  0  0  0
    5.8142    1.0803   -0.7682 N   0  0  0  0  0  0  0  0  0  0  0  0
    4.5706    1.6450   -0.2475 C   0  0  0  0  0  0  0  0  0  0  0  0
    3.8332    0.6779    0.6343 C   0  0  0  0  0  0  0  0  0  0  0  0
    3.7900   -0.7208    0.1073 C   0  0  0  0  0  0  0  0  0  0  0  0
    2.8502   -0.9479   -0.9470 N   0  0  0  0  0  0  0  0  0  0  0  0
    1.7438   -0.1250   -1.2305 C   0  0  0  0  0  0  0  0  0  0  0  0
    1.5547    0.8775   -0.5000 O   0  0  0  0  0  0  0  0  0  0  0  0
    0.4955   -0.7551   -1.7680 C   0  0  0  0  0  0  0  0  0  0  0  0
   -0.2465   -1.1765   -0.6238 N   0  0  0  0  0  0  0  0  0  0  0  0
   -1.4909   -0.6027   -0.1788 C   0  0  0  0  0  0  0  0  0  0  0  0
   -1.3836    0.6665   -0.2924 O   0  0  0  0  0  0  0  0  0  0  0  0
   -1.5088   -0.8401    1.4454 C   0  0  2  0  0  0  0  0  0  0  0  0
   -2.2039   -2.3489    1.3746 C   0  0  0  0  0  0  0  0  0  0  0  0
   -1.6455   -3.2477   -0.0019 S   0  0  0  0  0  0  0  0  0  0  0  0
   -2.9140   -0.1117    1.6308 N   0  0  0  0  0  0  0  0  0  0  0  0
   -3.9594   -0.4590    0.7990 C   0  0  0  0  0  0  0  0  0  0  0  0
   -3.6977   -0.9350   -0.3499 O   0  0  0  0  0  0  0  0  0  0  0  0
   -5.3997   -0.4580    1.1109 C   0  0  0  0  0  0  0  0  0  0  0  0
   -6.0052    0.8001    1.5441 C   0  0  0  0  0  0  0  0  0  0  0  0
   -7.2263    1.1296    0.4614 C   0  0  2  0  0  0  0  0  0  0  0  0
   -7.6994   -0.3940    0.4059 N   0  0  0  0  0  0  0  0  0  0  0  0
   -6.2149    0.9351   -0.8076 C   0  0  0  0  0  0  0  0  0  0  0  0
   -5.6335    2.0565   -0.9555 O   0  0  0  0  0  0  0  0  0  0  0  0
   -6.9348    0.5406   -1.9426 O   0  0  0  0  0  0  0  0  0  0  0  0
  1  2  1  0
  2  3  1  0
  3  4  1  0
  4  5  1  0
  5  6  1  0
  6  7  1  0
  7  8  1  0
  8  9  1  0
  9 10  1  0
 10 11  1  0
 11 12  2  0
 11 13  1  0
 13 14  1  0
 14 15  1  0
 15 16  2  0
 17 15  1  6
 17 18  1  0
 18 19  1  0
 17 20  1  0
 20 21  1  0
 21 22  2  0
 21 23  1  0
 23 24  1  0
 25 24  1  1
 25 26  1  0
 25 27  1  0
 27 28  2  0
 27 29  1  0
M  END
>  <zinc_id>  (1) 
ZINC000003869959

>  <smiles>  (1) 
NCCCCNCCCNC(=O)CNC(=O)[C@H](CS)NC(=O)CC[C@H](N)C(=O)O

$$$$
