
     RDKit          3D

 40 39  0  0  0  0  0  0  0  0999 V2000
    6.6366   -1.0019    0.6123 N   0  0  0  0  0  0  0  0  0  0  0  0
    5.8342   -1.5057    1.9113 C   0  0  1  0  0  0  0  0  0  0  0  0
    4.9683   -2.6432    1.0372 C   0  0  0  0  0  0  0  0  0  0  0  0
    4.5491   -1.9548   -0.2061 C   0  0  0  0  0  0  0  0  0  0  0  0
    3.3729   -1.0765   -0.0919 C   0  0  0  0  0  0  0  0  0  0  0  0
    2.5720   -1.1432   -1.0757 O   0  0  0  0  0  0  0  0  0  0  0  0
    3.2887   -0.0420    0.8988 N   0  0  0  0  0  0  0  0  0  0  0  0
    2.0048    0.8793    0.6154 C   0  0  1  0  0  0  0  0  0  0  0  0
    1.9430    1.4644    2.1852 C   0  0  0  0  0  0  0  0  0  0  0  0
    0.2377    2.1184    2.2199 S   0  0  0  0  0  0  0  0  0  0  0  0
   -0.5986    2.2748    0.2736 S   0  0  0  0  0  0  0  0  0  0  0  0
   -1.2949    0.6880   -0.2968 C   0  0  0  0  0  0  0  0  0  0  0  0
   -2.8547    0.7140    0.3119 C   0  0  2  0  0  0  0  0  0  0  0  0
   -3.3115   -0.4818   -0.6571 N   0  0  0  0  0  0  0  0  0  0  0  0
   -3.9711   -1.5371    0.0619 C   0  0  0  0  0  0  0  0  0  0  0  0
   -4.1257   -1.4201    1.3205 O   0  0  0  0  0  0  0  0  0  0  0  0
   -5.0518   -2.3756   -0.5314 C   0  0  0  0  0  0  0  0  0  0  0  0
   -4.6287   -3.6612   -1.1149 C   0  0  0  0  0  0  0  0  0  0  0  0
   -5.6893   -4.8214   -0.5347 C   0  0  2  0  0  0  0  0  0  0  0  0
   -6.9752   -3.9014   -0.8128 N   0  0  0  0  0  0  0  0  0  0  0  0
   -5.5525   -4.2695    1.0103 C   0  0  0  0  0  0  0  0  0  0  0  0
   -6.5714   -4.5853    1.7056 O   0  0  0  0  0  0  0  0  0  0  0  0
   -4.3853   -4.8605    1.5181 O   0  0  0  0  0  0  0  0  0  0  0  0
   -3.3281    1.8585   -0.7724 C   0  0  0  0  0  0  0  0  0  0  0  0
   -4.5486    1.7262   -1.0999 O   0  0  0  0  0  0  0  0  0  0  0  0
   -2.9923    3.1812   -0.3895 N   0  0  0  0  0  0  0  0  0  0  0  0
   -3.8235    4.1500    0.2402 C   0  0  0  0  0  0  0  0  0  0  0  0
   -4.3721    5.1732   -0.7131 C   0  0  0  0  0  0  0  0  0  0  0  0
   -4.1567    6.3681   -0.3333 O   0  0  0  0  0  0  0  0  0  0  0  0
   -5.7315    4.9672   -0.9936 O   0  0  0  0  0  0  0  0  0  0  0  0
    2.9309    2.1359    0.0981 C   0  0  0  0  0  0  0  0  0  0  0  0
    3.8681    2.4472    0.8409 O   0  0  0  0  0  0  0  0  0  0  0  0
    3.3798    1.7013   -1.1988 N   0  0  0  0  0  0  0  0  0  0  0  0
    4.1451    2.6416   -2.0026 C   0  0  0  0  0  0  0  0  0  0  0  0
    4.0997    1.9972   -3.3637 C   0  0  0  0  0  0  0  0  0  0  0  0
    2.9061    1.8446   -3.7754 O   0  0  0  0  0  0  0  0  0  0  0  0
    4.8618    0.8211   -3.4212 O   0  0  0  0  0  0  0  0  0  0  0  0
    7.0040   -2.5889    2.3087 C   0  0  0  0  0  0  0  0  0  0  0  0
    7.8838   -1.9289    2.9429 O   0  0  0  0  0  0  0  0  0  0  0  0
    7.4772   -3.3534    1.2721 O   0  0  0  0  0  0  0  0  0  0  0  0
  2  1  1  6
  2  3  1  0
  3  4  1  0
  4  5  1  0
  5  6  2  0
  5  7  1  0
  8  7  1  1
  8  9  1  0
  9 10  1  0
 10 11  1  0
 11 12  1  0
 13 12  1  6
 13 14  1  0
 14 15  1  0
 15 16  2  0
 15 17  1  0
 17 18  1  0
 19 18  1  6
 19 20  1  0
 19 21  1  0
 21 22  2  0
 21 23  1  0
 13 24  1  0
 24 25  2  0
 24 26  1  0
 26 27  1  0
 27 28  1  0
 28 29  2  0
 28 30  1  0
  8 31  1  0
 31 32  2  0
 31 33  1  0
 33 34  1  0
 34 35  1  0
 35 36  2  0
 35 37  1  0
  2 38  1  0
 38 39  2  0
 38 40  1  0
M  END
>  <zinc_id>  (1) 
ZINC000003870129

>  <smiles>  (1) 
N[C@@H](CCC(=O)N[C@@H](CSSC[C@H](NC(=O)CC[C@H](N)C(=O)O)C(=O)NCC(=O)O)C(=O)NCC(=O)O)C(=O)O

$$$$
