
     RDKit          3D

 28 30  0  0  0  0  0  0  0  0999 V2000
   -7.6632   -1.2537   -1.4312 N   0  0  0  0  0  0  0  0  0  0  0  0
   -7.0324   -0.0963   -0.3334 S   0  0  0  0  0  0  0  0  0  0  0  0
   -7.5380   -0.4656    1.0426 O   0  0  0  0  0  0  0  0  0  0  0  0
   -7.4679    1.2994   -0.6348 O   0  0  0  0  0  0  0  0  0  0  0  0
   -5.2822   -0.2250   -0.3830 C   0  0  0  0  0  0  0  0  0  0  0  0
   -4.5465    0.5337    0.5179 C   0  0  0  0  0  0  0  0  0  0  0  0
   -3.2562    0.2081    0.8312 C   0  0  0  0  0  0  0  0  0  0  0  0
   -2.8581   -1.1178    0.7089 C   0  0  0  0  0  0  0  0  0  0  0  0
   -1.5962   -1.6000    1.3542 C   0  0  0  0  0  0  0  0  0  0  0  0
   -0.7529   -0.4117    1.4689 N   0  0  0  0  0  0  0  0  0  0  0  0
    0.5715   -0.3580    0.9604 C   0  0  0  0  0  0  0  0  0  0  0  0
    1.2259   -1.4402    1.0501 O   0  0  0  0  0  0  0  0  0  0  0  0
    1.0669    0.7627    0.1522 C   0  0  0  0  0  0  0  0  0  0  0  0
    0.3629    1.7736   -0.4584 C   0  0  0  0  0  0  0  0  0  0  0  0
    0.9496    2.0349   -1.6516 N   0  0  0  0  0  0  0  0  0  0  0  0
    2.2107    1.6183   -1.5346 N   0  0  0  0  0  0  0  0  0  0  0  0
    2.2864    0.7422   -0.5034 C   0  0  0  0  0  0  0  0  0  0  0  0
    3.5373    0.1975    0.0326 C   0  0  0  0  0  0  0  0  0  0  0  0
    4.3389    1.0694    0.7595 C   0  0  0  0  0  0  0  0  0  0  0  0
    5.7094    0.9828    0.7778 C   0  0  0  0  0  0  0  0  0  0  0  0
    6.7374    2.2055    1.5085 Cl  0  0  0  0  0  0  0  0  0  0  0  0
    6.3361    0.0483   -0.0374 C   0  0  0  0  0  0  0  0  0  0  0  0
    7.6640    0.2102   -0.4313 O   0  0  0  0  0  0  0  0  0  0  0  0
    5.5405   -0.9679   -0.5443 C   0  0  0  0  0  0  0  0  0  0  0  0
    4.1581   -0.8605   -0.6141 C   0  0  0  0  0  0  0  0  0  0  0  0
    3.4546   -1.6771   -1.4984 O   0  0  0  0  0  0  0  0  0  0  0  0
   -3.4969   -1.8461   -0.2839 C   0  0  0  0  0  0  0  0  0  0  0  0
   -4.6596   -1.3666   -0.8718 C   0  0  0  0  0  0  0  0  0  0  0  0
  1  2  1  0
  2  3  2  0
  2  4  2  0
  2  5  1  0
  5  6  2  0
  6  7  1  0
  7  8  2  0
  8  9  1  0
  9 10  1  0
 10 11  1  0
 11 12  2  0
 11 13  1  0
 13 14  1  0
 14 15  2  0
 15 16  1  0
 16 17  1  0
 17 18  1  0
 18 19  2  0
 19 20  1  0
 20 21  1  0
 20 22  2  0
 22 23  1  0
 22 24  1  0
 24 25  2  0
 25 26  1  0
  8 27  1  0
 27 28  2  0
 28  5  1  0
 17 13  2  0
 25 18  1  0
M  END
>  <zinc_id>  (1) 
ZINC000014958419

>  <smiles>  (1) 
NS(=O)(=O)c1ccc(CNC(=O)c2cn[nH]c2-c2cc(Cl)c(O)cc2O)cc1

$$$$
