
     RDKit          3D

 41 41  0  0  0  0  0  0  0  0999 V2000
    9.6042    1.6584   -1.0541 C   0  0  0  0  0  0  0  0  0  0  0  0
    8.8454    0.6792   -0.3435 O   0  0  0  0  0  0  0  0  0  0  0  0
    7.4713    0.6970   -0.4090 C   0  0  0  0  0  0  0  0  0  0  0  0
    6.9696    1.7455   -0.9282 O   0  0  0  0  0  0  0  0  0  0  0  0
    6.7125    0.5434    1.0432 C   0  0  1  0  0  0  0  0  0  0  0  0
    5.6492   -0.4675    0.3979 N   0  0  0  0  0  0  0  0  0  0  0  0
    4.5626    0.1898   -0.2772 C   0  0  0  0  0  0  0  0  0  0  0  0
    4.1819    1.2596    0.2291 O   0  0  0  0  0  0  0  0  0  0  0  0
    3.3822   -0.9630   -0.2772 C   0  0  1  0  0  0  0  0  0  0  0  0
    2.3280   -0.0141   -1.0352 N   0  0  0  0  0  0  0  0  0  0  0  0
    1.2925    0.2802   -0.1049 C   0  0  0  0  0  0  0  0  0  0  0  0
    1.5448    0.5365    1.1111 O   0  0  0  0  0  0  0  0  0  0  0  0
   -0.1471    0.4380   -0.4765 C   0  0  0  0  0  0  0  0  0  0  0  0
   -0.9144   -0.5151    0.3870 C   0  0  0  0  0  0  0  0  0  0  0  0
   -1.4786    0.3868    1.6673 C   0  0  2  0  0  0  0  0  0  0  0  0
   -1.1969   -0.7368    2.6720 O   0  0  0  0  0  0  0  0  0  0  0  0
   -3.1493   -0.1276    1.4794 C   0  0  2  0  0  0  0  0  0  0  0  0
   -2.7814   -1.6761    1.0653 C   0  0  0  0  0  0  0  0  0  0  0  0
   -3.7059   -2.5470    1.8256 C   0  0  0  0  0  0  0  0  0  0  0  0
   -3.8152   -3.8582    1.3855 C   0  0  0  0  0  0  0  0  0  0  0  0
   -5.0433   -4.5105    1.2971 C   0  0  0  0  0  0  0  0  0  0  0  0
   -6.2174   -3.7863    1.4923 C   0  0  0  0  0  0  0  0  0  0  0  0
   -6.0516   -2.6474    2.2584 C   0  0  0  0  0  0  0  0  0  0  0  0
   -4.7927   -2.1277    2.5568 C   0  0  0  0  0  0  0  0  0  0  0  0
   -3.1854    0.4060   -0.0079 N   0  0  0  0  0  0  0  0  0  0  0  0
   -4.2786    0.0746   -0.8212 C   0  0  0  0  0  0  0  0  0  0  0  0
   -4.4760   -1.1495   -0.8510 O   0  0  0  0  0  0  0  0  0  0  0  0
   -5.6412    0.9822   -0.6793 C   0  0  2  0  0  0  0  0  0  0  0  0
   -6.5261    0.0140   -1.7269 C   0  0  0  0  0  0  0  0  0  0  0  0
   -5.2284    1.9516   -1.8931 N   0  0  0  0  0  0  0  0  0  0  0  0
   -5.8872    3.1874   -1.5596 C   0  0  0  0  0  0  0  0  0  0  0  0
   -7.1552    3.2141   -1.5137 O   0  0  0  0  0  0  0  0  0  0  0  0
   -5.4057    4.4326   -2.5178 C   0  0  2  0  0  0  0  0  0  0  0  0
   -3.8381    4.3310   -1.9342 C   0  0  0  0  0  0  0  0  0  0  0  0
   -5.7818    5.5125   -1.3895 N   0  0  0  0  0  0  0  0  0  0  0  0
    3.9708   -1.6166   -1.6984 C   0  0  0  0  0  0  0  0  0  0  0  0
    3.1654   -2.8351   -1.9553 C   0  0  0  0  0  0  0  0  0  0  0  0
    3.9639   -0.5572   -2.7071 C   0  0  0  0  0  0  0  0  0  0  0  0
    7.6816   -0.7395    1.5234 C   0  0  0  0  0  0  0  0  0  0  0  0
    8.6451   -0.0736    2.5028 C   0  0  0  0  0  0  0  0  0  0  0  0
    6.7264   -1.5717    2.3718 C   0  0  0  0  0  0  0  0  0  0  0  0
  1  2  1  0
  2  3  1  0
  3  4  2  0
  5  3  1  6
  5  6  1  0
  6  7  1  0
  7  8  2  0
  9  7  1  6
  9 10  1  0
 10 11  1  0
 11 12  2  0
 11 13  1  0
 13 14  1  0
 15 14  1  6
 15 16  1  0
 15 17  1  0
 17 18  1  6
 18 19  1  0
 19 20  2  0
 20 21  1  0
 21 22  2  0
 22 23  1  0
 23 24  2  0
 17 25  1  0
 25 26  1  0
 26 27  2  0
 28 26  1  6
 28 29  1  0
 28 30  1  0
 30 31  1  0
 31 32  2  0
 33 31  1  1
 33 34  1  0
 33 35  1  0
  9 36  1  0
 36 37  1  0
 36 38  1  0
  5 39  1  0
 39 40  1  0
 39 41  1  0
 24 19  1  0
M  END
>  <zinc_id>  (1) 
ZINC000003935186

>  <smiles>  (1) 
COC(=O)[C@@H](NC(=O)[C@@H](NC(=O)CC[C@H](O)[C@H](Cc1ccccc1)NC(=O)[C@H](C)NC(=O)[C@H](C)N)C(C)C)C(C)C

$$$$
