
     RDKit          3D

 46 49  0  0  0  0  0  0  0  0999 V2000
   -3.3539    2.9870   -4.7363 C   0  0  0  0  0  0  0  0  0  0  0  0
   -4.1250    2.6546   -4.0032 N   0  0  0  0  0  0  0  0  0  0  0  0
   -3.7702    1.8234   -2.8816 C   0  0  0  0  0  0  0  0  0  0  0  0
   -3.1667    0.7973   -3.3432 O   0  0  0  0  0  0  0  0  0  0  0  0
   -5.0277    1.3341   -1.9924 C   0  0  1  0  0  0  0  0  0  0  0  0
   -4.1529    0.4663   -1.0143 N   0  0  0  0  0  0  0  0  0  0  0  0
   -3.0065    1.0357   -0.4806 C   0  0  0  0  0  0  0  0  0  0  0  0
   -2.4840    2.0477   -0.8769 O   0  0  0  0  0  0  0  0  0  0  0  0
   -2.2811    0.0666    0.5723 C   0  0  2  0  0  0  0  0  0  0  0  0
   -1.8000    1.2248    1.4221 O   0  0  0  0  0  0  0  0  0  0  0  0
   -2.9256    1.4599    2.2297 C   0  0  0  0  0  0  0  0  0  0  0  0
   -2.9842    0.5068    3.3655 C   0  0  0  0  0  0  0  0  0  0  0  0
   -3.2239   -0.8360    3.1038 C   0  0  0  0  0  0  0  0  0  0  0  0
   -3.2916   -1.7492    4.1478 C   0  0  0  0  0  0  0  0  0  0  0  0
   -3.3391   -1.2853    5.4416 C   0  0  0  0  0  0  0  0  0  0  0  0
   -3.2935    0.0616    5.6905 C   0  0  0  0  0  0  0  0  0  0  0  0
   -2.9042    0.9362    4.6842 C   0  0  0  0  0  0  0  0  0  0  0  0
   -0.7849    0.0046   -0.2732 C   0  0  2  0  0  0  0  0  0  0  0  0
   -1.4518   -0.4353   -1.5350 O   0  0  0  0  0  0  0  0  0  0  0  0
   -0.5624   -1.6023    0.2488 C   0  0  1  0  0  0  0  0  0  0  0  0
    0.0433   -2.1198   -1.0185 O   0  0  0  0  0  0  0  0  0  0  0  0
    0.9163   -1.2761    1.0769 C   0  0  1  0  0  0  0  0  0  0  0  0
    1.4616   -2.6503    0.7552 O   0  0  0  0  0  0  0  0  0  0  0  0
    2.3852   -2.6081   -0.2054 C   0  0  0  0  0  0  0  0  0  0  0  0
    2.5305   -3.9162   -0.8434 C   0  0  0  0  0  0  0  0  0  0  0  0
    2.8774   -4.0988   -2.1788 C   0  0  0  0  0  0  0  0  0  0  0  0
    2.1672   -5.0244   -2.9356 C   0  0  0  0  0  0  0  0  0  0  0  0
    1.5252   -6.0777   -2.2951 C   0  0  0  0  0  0  0  0  0  0  0  0
    1.7289   -6.1858   -0.9244 C   0  0  0  0  0  0  0  0  0  0  0  0
    2.1509   -5.0833   -0.1899 C   0  0  0  0  0  0  0  0  0  0  0  0
    1.6632   -0.4697   -0.0806 C   0  0  0  0  0  0  0  0  0  0  0  0
    1.4981   -0.4585   -1.2411 O   0  0  0  0  0  0  0  0  0  0  0  0
    2.6927    0.3744    0.4612 N   0  0  0  0  0  0  0  0  0  0  0  0
    4.0888    0.2030   -0.2238 C   0  0  1  0  0  0  0  0  0  0  0  0
    4.4739    1.7481   -0.0934 C   0  0  0  0  0  0  0  0  0  0  0  0
    3.9740    2.8008   -0.7920 C   0  0  0  0  0  0  0  0  0  0  0  0
    4.5600    4.0427   -0.5825 C   0  0  0  0  0  0  0  0  0  0  0  0
    5.7642    4.1413    0.0625 C   0  0  0  0  0  0  0  0  0  0  0  0
    6.3882    3.0026    0.4887 C   0  0  0  0  0  0  0  0  0  0  0  0
    5.7901    1.7659    0.2687 C   0  0  0  0  0  0  0  0  0  0  0  0
    6.2506    0.4643    0.7651 C   0  0  0  0  0  0  0  0  0  0  0  0
    4.8476   -0.2104    1.2642 C   0  0  1  0  0  0  0  0  0  0  0  0
    4.4197    1.0265    2.0153 O   0  0  0  0  0  0  0  0  0  0  0  0
   -4.9948    2.6379   -0.9921 C   0  0  0  0  0  0  0  0  0  0  0  0
   -6.4443    2.6186   -0.5117 C   0  0  0  0  0  0  0  0  0  0  0  0
   -4.8295    3.8543   -1.8194 C   0  0  0  0  0  0  0  0  0  0  0  0
  1  2  1  0
  2  3  1  0
  3  4  2  0
  5  3  1  6
  5  6  1  0
  6  7  1  0
  7  8  2  0
  9  7  1  6
  9 10  1  0
 10 11  1  0
 11 12  1  0
 12 13  2  0
 13 14  1  0
 14 15  2  0
 15 16  1  0
 16 17  2  0
  9 18  1  0
 18 19  1  6
 18 20  1  0
 20 21  1  6
 20 22  1  0
 22 23  1  6
 23 24  1  0
 24 25  1  0
 25 26  2  0
 26 27  1  0
 27 28  2  0
 28 29  1  0
 29 30  2  0
 22 31  1  0
 31 32  2  0
 31 33  1  0
 34 33  1  1
 34 35  1  0
 35 36  2  0
 36 37  1  0
 37 38  2  0
 38 39  1  0
 39 40  2  0
 40 41  1  0
 41 42  1  0
 42 43  1  1
  5 44  1  0
 44 45  1  0
 44 46  1  0
 17 12  1  0
 30 25  1  0
 42 34  1  0
 40 35  1  0
M  END
>  <zinc_id>  (1) 
ZINC000024495650

>  <smiles>  (1) 
CNC(=O)[C@@H](NC(=O)[C@H](OCc1ccccc1)[C@H](O)[C@@H](O)[C@@H](OCc1ccccc1)C(=O)N[C@H]1c2ccccc2C[C@H]1O)C(C)C

$$$$
