
     RDKit          3D

 31 31  0  0  0  0  0  0  0  0999 V2000
    8.0208    2.6805    0.7528 C   0  0  0  0  0  0  0  0  0  0  0  0
    7.7540    2.6430    0.6463 C   0  0  0  0  0  0  0  0  0  0  0  0
    6.4310    2.5016    0.0497 C   0  0  0  0  0  0  0  0  0  0  0  0
    5.8322    1.1131    0.0506 C   0  0  0  0  0  0  0  0  0  0  0  0
    4.4602    1.2274   -0.6671 C   0  0  0  0  0  0  0  0  0  0  0  0
    3.7122   -0.1848   -0.1834 C   0  0  1  0  0  0  0  0  0  0  0  0
    4.1985   -0.0193    1.2156 O   0  0  0  0  0  0  0  0  0  0  0  0
    3.4108    1.0929    1.8741 C   0  0  1  0  0  0  0  0  0  0  0  0
    3.1030    2.0559    0.7081 O   0  0  0  0  0  0  0  0  0  0  0  0
    2.0136    0.2423    1.6037 C   0  0  0  0  0  0  0  0  0  0  0  0
    2.1383    0.3237    0.0527 C   0  0  2  0  0  0  0  0  0  0  0  0
    1.5145   -1.4671   -0.0372 S   0  0  0  0  0  0  0  0  0  0  0  0
   -0.1678   -1.3174    0.7182 C   0  0  0  0  0  0  0  0  0  0  0  0
   -0.8961   -1.1280   -0.7457 C   0  0  2  0  0  0  0  0  0  0  0  0
   -2.1279   -0.3958   -0.0890 N   0  0  0  0  0  0  0  0  0  0  0  0
   -1.9735    1.0046   -0.3127 C   0  0  0  0  0  0  0  0  0  0  0  0
   -1.5854    1.4559   -1.4300 O   0  0  0  0  0  0  0  0  0  0  0  0
   -2.4773    2.0084    0.6881 C   0  0  0  0  0  0  0  0  0  0  0  0
   -3.5909    2.7225    0.0228 C   0  0  0  0  0  0  0  0  0  0  0  0
   -4.5573    3.3183    1.2162 C   0  0  2  0  0  0  0  0  0  0  0  0
   -4.9777    1.8730    1.6985 N   0  0  0  0  0  0  0  0  0  0  0  0
   -5.8260    3.4839    0.2269 C   0  0  0  0  0  0  0  0  0  0  0  0
   -6.1439    2.5066   -0.4330 O   0  0  0  0  0  0  0  0  0  0  0  0
   -5.7487    4.6803   -0.5031 O   0  0  0  0  0  0  0  0  0  0  0  0
   -1.6262   -2.5665   -0.6957 C   0  0  0  0  0  0  0  0  0  0  0  0
   -1.9618   -2.7837   -1.9072 O   0  0  0  0  0  0  0  0  0  0  0  0
   -0.9680   -3.6531   -0.0840 N   0  0  0  0  0  0  0  0  0  0  0  0
   -0.8516   -4.9960   -0.5571 C   0  0  0  0  0  0  0  0  0  0  0  0
   -2.0589   -5.8324   -0.3978 C   0  0  0  0  0  0  0  0  0  0  0  0
   -2.0067   -6.9661   -0.9380 O   0  0  0  0  0  0  0  0  0  0  0  0
   -3.0433   -5.6239    0.5568 O   0  0  0  0  0  0  0  0  0  0  0  0
  1  2  1  0
  2  3  1  0
  3  4  1  0
  4  5  1  0
  6  5  1  6
  6  7  1  0
  7  8  1  0
  8  9  1  6
  8 10  1  0
 10 11  1  0
 11 12  1  6
 12 13  1  0
 14 13  1  1
 14 15  1  0
 15 16  1  0
 16 17  2  0
 16 18  1  0
 18 19  1  0
 20 19  1  6
 20 21  1  0
 20 22  1  0
 22 23  2  0
 22 24  1  0
 14 25  1  0
 25 26  2  0
 25 27  1  0
 27 28  1  0
 28 29  1  0
 29 30  2  0
 29 31  1  0
 11  6  1  0
M  END
>  <zinc_id>  (1) 
ZINC000031976570

>  <smiles>  (1) 
CCCCC[C@H]1O[C@@H](O)C[C@@H]1SC[C@H](NC(=O)CC[C@H](N)C(=O)O)C(=O)NCC(=O)O

$$$$
