
     RDKit          3D

 43 44  0  0  0  0  0  0  0  0999 V2000
    0.9161    0.6816    6.2142 C   0  0  0  0  0  0  0  0  0  0  0  0
    1.5597   -0.0736    6.3018 C   0  0  0  0  0  0  0  0  0  0  0  0
    1.3113   -1.5604    6.3433 C   0  0  0  0  0  0  0  0  0  0  0  0
    0.4593   -2.0309    5.1689 C   0  0  0  0  0  0  0  0  0  0  0  0
    0.0525   -0.7860    4.4182 C   0  0  0  0  0  0  0  0  0  0  0  0
   -0.1098   -1.0385    2.9871 N   0  0  0  0  0  0  0  0  0  0  0  0
    0.6539   -0.1788    2.1255 C   0  0  0  0  0  0  0  0  0  0  0  0
    1.9048   -0.2943    2.3154 O   0  0  0  0  0  0  0  0  0  0  0  0
    0.4016   -0.5191    0.5361 C   0  0  2  0  0  0  0  0  0  0  0  0
    0.7051    1.0684    0.1012 C   0  0  0  0  0  0  0  0  0  0  0  0
    2.0095    1.0272   -0.5871 C   0  0  0  0  0  0  0  0  0  0  0  0
    2.3443    0.0478   -1.5049 C   0  0  0  0  0  0  0  0  0  0  0  0
    3.6465   -0.2383   -1.8140 C   0  0  0  0  0  0  0  0  0  0  0  0
    4.6268    0.3398   -1.0550 C   0  0  0  0  0  0  0  0  0  0  0  0
    5.9438    0.1257   -1.4631 O   0  0  0  0  0  0  0  0  0  0  0  0
    6.2280    0.0859   -2.8597 C   0  0  0  0  0  0  0  0  0  0  0  0
    6.8248    1.3933   -3.2500 C   0  0  0  0  0  0  0  0  0  0  0  0
    6.1243    2.4407   -3.3356 O   0  0  0  0  0  0  0  0  0  0  0  0
    8.0812    1.4392   -3.8106 O   0  0  0  0  0  0  0  0  0  0  0  0
    4.3647    1.4590   -0.2984 C   0  0  0  0  0  0  0  0  0  0  0  0
    5.3852    1.9933    0.6145 C   0  0  0  0  0  0  0  0  0  0  0  0
    5.0134    2.7655    1.5493 O   0  0  0  0  0  0  0  0  0  0  0  0
    6.5273    1.2442    0.8607 O   0  0  0  0  0  0  0  0  0  0  0  0
    3.0434    1.8755   -0.2090 C   0  0  0  0  0  0  0  0  0  0  0  0
   -1.1666   -0.2145    0.6769 N   0  0  0  0  0  0  0  0  0  0  0  0
   -1.8560   -0.1458   -0.5645 C   0  0  0  0  0  0  0  0  0  0  0  0
   -1.2553   -0.2161   -1.6294 O   0  0  0  0  0  0  0  0  0  0  0  0
   -3.1870   -1.0971   -0.4091 C   0  0  2  0  0  0  0  0  0  0  0  0
   -3.6504   -0.9196   -2.0111 C   0  0  0  0  0  0  0  0  0  0  0  0
   -3.4038   -2.2933   -2.5337 C   0  0  0  0  0  0  0  0  0  0  0  0
   -2.2703   -3.0240   -2.2438 C   0  0  0  0  0  0  0  0  0  0  0  0
   -1.9762   -4.1658   -2.9430 C   0  0  0  0  0  0  0  0  0  0  0  0
   -2.9916   -4.7196   -3.6905 C   0  0  0  0  0  0  0  0  0  0  0  0
   -4.2974   -4.3141   -3.4361 C   0  0  0  0  0  0  0  0  0  0  0  0
   -4.5051   -3.0426   -2.9269 C   0  0  0  0  0  0  0  0  0  0  0  0
   -4.0643    0.1734    0.0220 N   0  0  0  0  0  0  0  0  0  0  0  0
   -5.2348   -0.1628    0.7589 C   0  0  0  0  0  0  0  0  0  0  0  0
   -5.9326   -1.0915    0.2455 O   0  0  0  0  0  0  0  0  0  0  0  0
   -6.0557    1.0317    1.1523 C   0  0  0  0  0  0  0  0  0  0  0  0
   -6.1803    1.8671   -0.1118 C   0  0  0  0  0  0  0  0  0  0  0  0
   -6.3888    3.3008    0.1749 C   0  0  0  0  0  0  0  0  0  0  0  0
   -6.0310    4.1207   -0.7191 O   0  0  0  0  0  0  0  0  0  0  0  0
   -7.5703    3.6457    0.8397 O   0  0  0  0  0  0  0  0  0  0  0  0
  1  2  1  0
  2  3  1  0
  3  4  1  0
  4  5  1  0
  5  6  1  0
  6  7  1  0
  7  8  2  0
  9  7  1  1
  9 10  1  0
 10 11  1  0
 11 12  2  0
 12 13  1  0
 13 14  2  0
 14 15  1  0
 15 16  1  0
 16 17  1  0
 17 18  2  0
 17 19  1  0
 14 20  1  0
 20 21  1  0
 21 22  2  0
 21 23  1  0
 20 24  2  0
  9 25  1  0
 25 26  1  0
 26 27  2  0
 28 26  1  6
 28 29  1  0
 29 30  1  0
 30 31  2  0
 31 32  1  0
 32 33  2  0
 33 34  1  0
 34 35  2  0
 28 36  1  0
 36 37  1  0
 37 38  2  0
 37 39  1  0
 39 40  1  0
 40 41  1  0
 41 42  2  0
 41 43  1  0
 24 11  1  0
 35 30  1  0
M  END
>  <zinc_id>  (1) 
ZINC000003965850

>  <smiles>  (1) 
CCCCCNC(=O)[C@H](Cc1ccc(OCC(=O)O)c(C(=O)O)c1)NC(=O)[C@H](Cc1ccccc1)NC(=O)CCC(=O)O

$$$$
