
     RDKit          3D

 32 32  0  0  0  0  0  0  0  0999 V2000
    8.5338   -0.0951    0.1035 C   0  0  0  0  0  0  0  0  0  0  0  0
    8.1835    0.7132    0.0316 C   0  0  0  0  0  0  0  0  0  0  0  0
    6.8997    1.1955    0.6998 C   0  0  0  0  0  0  0  0  0  0  0  0
    5.6514    1.2364   -0.5437 S   0  0  0  0  0  0  0  0  0  0  0  0
    6.0403    0.3628   -1.6879 O   0  0  0  0  0  0  0  0  0  0  0  0
    5.6237    2.6391   -1.1063 O   0  0  0  0  0  0  0  0  0  0  0  0
    4.0688    0.9739    0.0436 N   0  0  0  0  0  0  0  0  0  0  0  0
    4.0420   -0.4786    0.6731 C   0  0  1  0  0  0  0  0  0  0  0  0
    2.4343   -0.6082    0.6264 C   0  0  0  0  0  0  0  0  0  0  0  0
    2.0358   -1.6579    1.2267 O   0  0  0  0  0  0  0  0  0  0  0  0
    1.5969    0.4552    0.9829 N   0  0  0  0  0  0  0  0  0  0  0  0
    0.2613    0.2709    0.1039 C   0  0  1  0  0  0  0  0  0  0  0  0
    0.0029   -1.2957    0.6352 C   0  0  0  0  0  0  0  0  0  0  0  0
   -0.5167   -1.9236   -0.6278 C   0  0  0  0  0  0  0  0  0  0  0  0
    0.4838   -1.4635   -2.0795 S   0  0  0  0  0  0  0  0  0  0  0  0
    0.0545    0.1912   -2.6661 C   0  0  0  0  0  0  0  0  0  0  0  0
   -0.7216    0.8990    1.2535 C   0  0  0  0  0  0  0  0  0  0  0  0
   -0.5625    0.4782    2.3941 O   0  0  0  0  0  0  0  0  0  0  0  0
   -2.0559    1.1101    0.7856 N   0  0  0  0  0  0  0  0  0  0  0  0
   -3.2536    0.6821    1.4667 C   0  0  0  0  0  0  0  0  0  0  0  0
   -4.2399    0.2444    0.4284 C   0  0  0  0  0  0  0  0  0  0  0  0
   -4.9272    1.1527   -0.3675 C   0  0  0  0  0  0  0  0  0  0  0  0
   -6.2769    0.9969   -0.6660 C   0  0  0  0  0  0  0  0  0  0  0  0
   -6.9454   -0.1562   -0.2637 C   0  0  0  0  0  0  0  0  0  0  0  0
   -8.3418   -0.1066    0.1964 C   0  0  0  0  0  0  0  0  0  0  0  0
   -9.3434   -0.0316   -0.5950 N   0  0  0  0  0  0  0  0  0  0  0  0
   -8.5702    0.0386    1.6036 N   0  0  0  0  0  0  0  0  0  0  0  0
   -6.1124   -1.2301    0.0339 C   0  0  0  0  0  0  0  0  0  0  0  0
   -4.7801   -1.0347    0.3935 C   0  0  0  0  0  0  0  0  0  0  0  0
    4.2920   -1.2591   -0.8856 C   0  0  2  0  0  0  0  0  0  0  0  0
    3.0637   -0.4331   -1.6403 C   0  0  0  0  0  0  0  0  0  0  0  0
    3.3794   -2.4388   -0.5531 O   0  0  0  0  0  0  0  0  0  0  0  0
  1  2  1  0
  2  3  1  0
  3  4  1  0
  4  5  2  0
  4  6  2  0
  4  7  1  0
  8  7  1  6
  8  9  1  0
  9 10  2  0
  9 11  1  0
 12 11  1  1
 12 13  1  0
 13 14  1  0
 14 15  1  0
 15 16  1  0
 12 17  1  0
 17 18  2  0
 17 19  1  0
 19 20  1  0
 20 21  1  0
 21 22  2  0
 22 23  1  0
 23 24  2  0
 24 25  1  0
 25 26  2  0
 25 27  1  0
 24 28  1  0
 28 29  2  0
  8 30  1  0
 30 31  1  6
 30 32  1  0
 29 21  1  0
M  END
>  <zinc_id>  (1) 
ZINC000012504502

>  <smiles>  (1) 
CCCS(=O)(=O)N[C@@H](C(=O)N[C@@H](CCSC)C(=O)NCc1ccc(C(=N)N)cc1)[C@H](C)O

$$$$
