
     RDKit          3D

 47 47  0  0  0  0  0  0  0  0999 V2000
   -5.3731    3.3006    0.7908 N   0  0  0  0  0  0  0  0  0  0  0  0
   -4.4795    4.5710    0.4407 C   0  0  1  0  0  0  0  0  0  0  0  0
   -3.4588    3.6759   -0.5073 C   0  0  0  0  0  0  0  0  0  0  0  0
   -4.3253    2.8451   -1.4089 C   0  0  0  0  0  0  0  0  0  0  0  0
   -3.5813    1.5792   -1.7377 C   0  0  0  0  0  0  0  0  0  0  0  0
   -3.6457    1.0757   -2.9054 O   0  0  0  0  0  0  0  0  0  0  0  0
   -2.2296    1.5706   -1.3832 N   0  0  0  0  0  0  0  0  0  0  0  0
   -1.5153    0.1732   -1.1643 C   0  0  1  0  0  0  0  0  0  0  0  0
   -0.8462    0.7881    0.2310 C   0  0  0  0  0  0  0  0  0  0  0  0
    0.7661    0.1992    0.4073 S   0  0  0  0  0  0  0  0  0  0  0  0
    0.8788   -0.2651    1.8473 O   0  0  0  0  0  0  0  0  0  0  0  0
    1.0034   -0.9470   -0.4813 O   0  0  0  0  0  0  0  0  0  0  0  0
    1.8819    1.5530    0.2293 C   0  0  0  0  0  0  0  0  0  0  0  0
    2.9848    1.4868    1.2719 C   0  0  0  0  0  0  0  0  0  0  0  0
    3.2153    0.1427    1.5005 O   0  0  0  0  0  0  0  0  0  0  0  0
    4.5934   -0.3292    0.6826 P   0  0  0  0  0  0  0  0  0  0  0  0
    4.2908   -1.5526   -0.1701 O   0  0  0  0  0  0  0  0  0  0  0  0
    5.0909    0.9379   -0.4182 N   0  0  0  0  0  0  0  0  0  0  0  0
    6.4923    0.7416   -0.6830 C   0  0  0  0  0  0  0  0  0  0  0  0
    7.3716    1.6989    0.1130 C   0  0  0  0  0  0  0  0  0  0  0  0
    8.3517    2.5790   -1.0594 Cl  0  0  0  0  0  0  0  0  0  0  0  0
    4.3874    0.7005   -1.6688 C   0  0  0  0  0  0  0  0  0  0  0  0
    5.2924    0.4606   -2.8296 C   0  0  0  0  0  0  0  0  0  0  0  0
    6.0735   -1.1294   -2.6982 Cl  0  0  0  0  0  0  0  0  0  0  0  0
    5.8157   -0.6731    1.8913 N   0  0  0  0  0  0  0  0  0  0  0  0
    5.8766   -2.1292    1.9818 C   0  0  0  0  0  0  0  0  0  0  0  0
    6.7566   -2.7814    0.9765 C   0  0  0  0  0  0  0  0  0  0  0  0
    5.9385   -4.1646    0.1923 Cl  0  0  0  0  0  0  0  0  0  0  0  0
    5.3978   -0.2582    3.2218 C   0  0  0  0  0  0  0  0  0  0  0  0
    5.5798    1.1999    3.4891 C   0  0  0  0  0  0  0  0  0  0  0  0
    7.2909    1.6162    3.4160 Cl  0  0  0  0  0  0  0  0  0  0  0  0
   -2.7366   -0.5084   -0.3230 C   0  0  0  0  0  0  0  0  0  0  0  0
   -2.1895   -1.3918    0.4175 O   0  0  0  0  0  0  0  0  0  0  0  0
   -3.7084   -1.2170   -1.1190 N   0  0  0  0  0  0  0  0  0  0  0  0
   -4.9282   -1.3723   -0.0928 C   0  0  1  0  0  0  0  0  0  0  0  0
   -5.9578   -1.8885   -1.2560 C   0  0  0  0  0  0  0  0  0  0  0  0
   -6.4176   -0.8664   -1.8499 O   0  0  0  0  0  0  0  0  0  0  0  0
   -6.9123   -2.7452   -0.6845 O   0  0  0  0  0  0  0  0  0  0  0  0
   -4.4613   -2.8753    0.3256 C   0  0  0  0  0  0  0  0  0  0  0  0
   -4.3616   -3.8198   -0.6159 C   0  0  0  0  0  0  0  0  0  0  0  0
   -4.2567   -5.1362   -0.1704 C   0  0  0  0  0  0  0  0  0  0  0  0
   -4.6035   -5.4718    1.1333 C   0  0  0  0  0  0  0  0  0  0  0  0
   -4.4369   -4.4605    2.0707 C   0  0  0  0  0  0  0  0  0  0  0  0
   -4.4451   -3.1274    1.6681 C   0  0  0  0  0  0  0  0  0  0  0  0
   -5.4361    4.9538   -0.8251 C   0  0  0  0  0  0  0  0  0  0  0  0
   -6.2971    5.7551   -0.3461 O   0  0  0  0  0  0  0  0  0  0  0  0
   -4.7265    5.5058   -1.9002 O   0  0  0  0  0  0  0  0  0  0  0  0
  2  1  1  1
  2  3  1  0
  3  4  1  0
  4  5  1  0
  5  6  2  0
  5  7  1  0
  8  7  1  6
  8  9  1  0
  9 10  1  0
 10 11  2  0
 10 12  2  0
 10 13  1  0
 13 14  1  0
 14 15  1  0
 15 16  1  0
 16 17  2  0
 16 18  1  0
 18 19  1  0
 19 20  1  0
 20 21  1  0
 18 22  1  0
 22 23  1  0
 23 24  1  0
 16 25  1  0
 25 26  1  0
 26 27  1  0
 27 28  1  0
 25 29  1  0
 29 30  1  0
 30 31  1  0
  8 32  1  0
 32 33  2  0
 32 34  1  0
 35 34  1  6
 35 36  1  0
 36 37  2  0
 36 38  1  0
 35 39  1  0
 39 40  2  0
 40 41  1  0
 41 42  2  0
 42 43  1  0
 43 44  2  0
  2 45  1  0
 45 46  2  0
 45 47  1  0
 44 39  1  0
M  END
>  <zinc_id>  (1) 
ZINC000085537051

>  <smiles>  (1) 
N[C@@H](CCC(=O)N[C@@H](CS(=O)(=O)CCOP(=O)(N(CCCl)CCCl)N(CCCl)CCCl)C(=O)N[C@@H](C(=O)O)c1ccccc1)C(=O)O

$$$$
