
     RDKit          3D

 43 45  0  0  0  0  0  0  0  0999 V2000
   -7.7644    0.7396   -1.0307 C   0  0  0  0  0  0  0  0  0  0  0  0
   -7.4440   -0.0580   -2.0581 C   0  0  0  0  0  0  0  0  0  0  0  0
   -6.0350   -0.2420   -2.1973 O   0  0  0  0  0  0  0  0  0  0  0  0
   -5.4434   -1.4166   -1.7792 C   0  0  0  0  0  0  0  0  0  0  0  0
   -6.1846   -2.4451   -1.8045 O   0  0  0  0  0  0  0  0  0  0  0  0
   -4.3605   -1.4951   -0.8009 C   0  0  0  0  0  0  0  0  0  0  0  0
   -3.6513   -0.5042   -0.3644 C   0  0  0  0  0  0  0  0  0  0  0  0
   -3.6733   -0.5225    1.2734 C   0  0  2  0  0  0  0  0  0  0  0  0
   -2.8922    0.9397    1.4045 C   0  0  0  0  0  0  0  0  0  0  0  0
   -3.6049    1.7687    0.1685 C   0  0  2  0  0  0  0  0  0  0  0  0
   -2.9871    3.2036    0.6920 C   0  0  0  0  0  0  0  0  0  0  0  0
   -3.2893    3.1342    2.1514 C   0  0  0  0  0  0  0  0  0  0  0  0
   -4.6074    2.5795    2.1876 N   0  0  0  0  0  0  0  0  0  0  0  0
   -4.9841    1.9834    0.9898 C   0  0  0  0  0  0  0  0  0  0  0  0
   -5.9923    2.1472    0.2354 O   0  0  0  0  0  0  0  0  0  0  0  0
   -2.3696   -1.4326    1.3027 N   0  0  0  0  0  0  0  0  0  0  0  0
   -1.1401   -0.9601    1.6633 C   0  0  0  0  0  0  0  0  0  0  0  0
   -1.0485    0.1941    2.1252 O   0  0  0  0  0  0  0  0  0  0  0  0
    0.0511   -1.3689    0.6366 C   0  0  1  0  0  0  0  0  0  0  0  0
    1.2303   -1.2256    1.7802 C   0  0  0  0  0  0  0  0  0  0  0  0
    2.3440   -0.8088    0.8541 C   0  0  0  0  0  0  0  0  0  0  0  0
    2.9915   -1.7109    0.3359 O   0  0  0  0  0  0  0  0  0  0  0  0
    3.3961    0.2317    1.5472 C   0  0  1  0  0  0  0  0  0  0  0  0
    4.0342    0.6402    0.1451 N   0  0  0  0  0  0  0  0  0  0  0  0
    5.4099    0.3683    0.0064 C   0  0  0  0  0  0  0  0  0  0  0  0
    5.8019   -0.7688    0.3970 O   0  0  0  0  0  0  0  0  0  0  0  0
    6.4634    1.3880   -0.0991 C   0  0  0  0  0  0  0  0  0  0  0  0
    6.4576    2.5736   -0.8082 C   0  0  0  0  0  0  0  0  0  0  0  0
    7.1832    3.4709   -0.0310 C   0  0  0  0  0  0  0  0  0  0  0  0
    7.1488    4.9404   -0.2899 C   0  0  0  0  0  0  0  0  0  0  0  0
    7.6213    2.8477    1.0212 O   0  0  0  0  0  0  0  0  0  0  0  0
    7.4060    1.5832    0.8570 N   0  0  0  0  0  0  0  0  0  0  0  0
    2.2919    1.4723    1.4575 C   0  0  0  0  0  0  0  0  0  0  0  0
    1.7871    1.5570    2.8931 C   0  0  0  0  0  0  0  0  0  0  0  0
    3.1481    2.7038    1.2341 C   0  0  0  0  0  0  0  0  0  0  0  0
   -0.1658   -2.9822    0.9113 C   0  0  0  0  0  0  0  0  0  0  0  0
   -0.2018   -3.5942   -0.4604 C   0  0  0  0  0  0  0  0  0  0  0  0
    0.8945   -4.2696   -0.9949 C   0  0  0  0  0  0  0  0  0  0  0  0
    1.4605   -3.8596   -2.2014 C   0  0  0  0  0  0  0  0  0  0  0  0
    0.8175   -2.9133   -2.9965 C   0  0  0  0  0  0  0  0  0  0  0  0
    1.4889   -1.8900   -3.5987 F   0  0  0  0  0  0  0  0  0  0  0  0
   -0.5545   -2.8840   -2.7617 C   0  0  0  0  0  0  0  0  0  0  0  0
   -1.0337   -3.1150   -1.4694 C   0  0  0  0  0  0  0  0  0  0  0  0
  1  2  1  0
  2  3  1  0
  3  4  1  0
  4  5  2  0
  4  6  1  0
  6  7  2  0
  8  7  1  6
  8  9  1  0
 10  9  1  1
 10 11  1  0
 11 12  1  0
 12 13  1  0
 13 14  1  0
 14 15  2  0
  8 16  1  0
 16 17  1  0
 17 18  2  0
 19 17  1  1
 19 20  1  0
 20 21  1  0
 21 22  2  0
 23 21  1  6
 23 24  1  0
 24 25  1  0
 25 26  2  0
 25 27  1  0
 27 28  1  0
 28 29  2  0
 29 30  1  0
 29 31  1  0
 31 32  1  0
 23 33  1  0
 33 34  1  0
 33 35  1  0
 19 36  1  0
 36 37  1  0
 37 38  2  0
 38 39  1  0
 39 40  2  0
 40 41  1  0
 40 42  1  0
 42 43  2  0
 14 10  1  0
 32 27  2  0
 43 37  1  0
M  END
>  <zinc_id>  (1) 
ZINC000003919807

>  <smiles>  (1) 
CCOC(=O)/C=C/[C@H](C[C@@H]1CCNC1=O)NC(=O)[C@@H](CC(=O)[C@@H](NC(=O)c1cc(C)on1)C(C)C)Cc1ccc(F)cc1

$$$$
