
     RDKit          3D

 65 67  0  0  0  0  0  0  0  0999 V2000
   -8.5728    2.4852   -4.5628 C   0  0  0  0  0  0  0  0  0  0  0  0
   -8.8303    3.5139   -3.6002 N   0  0  0  0  0  0  0  0  0  0  0  0
   -9.5191    2.9799   -2.4344 C   0  0  0  0  0  0  0  0  0  0  0  0
   -8.5726    2.2567   -1.5600 C   0  0  0  0  0  0  0  0  0  0  0  0
   -7.5179    1.8344   -2.1245 O   0  0  0  0  0  0  0  0  0  0  0  0
   -8.8417    1.9150   -0.1944 N   0  0  0  0  0  0  0  0  0  0  0  0
   -7.5569    2.2676    0.6568 C   0  0  1  0  0  0  0  0  0  0  0  0
   -8.2513    1.8620    2.1008 C   0  0  0  0  0  0  0  0  0  0  0  0
   -6.9702    1.5374    2.8623 C   0  0  0  0  0  0  0  0  0  0  0  0
   -7.0986    1.5389    4.3359 C   0  0  0  0  0  0  0  0  0  0  0  0
   -8.2642    0.8839    4.8450 N   0  0  0  0  0  0  0  0  0  0  0  0
   -8.7140   -0.3627    4.3840 C   0  0  0  0  0  0  0  0  0  0  0  0
   -7.8780   -1.1275    3.7897 N   0  0  0  0  0  0  0  0  0  0  0  0
  -10.0893   -0.6734    4.3753 N   0  0  0  0  0  0  0  0  0  0  0  0
   -6.9154    0.8110    0.4149 C   0  0  0  0  0  0  0  0  0  0  0  0
   -7.3078   -0.1690    1.0119 O   0  0  0  0  0  0  0  0  0  0  0  0
   -5.6132    0.7536   -0.0950 N   0  0  0  0  0  0  0  0  0  0  0  0
   -4.4961    0.3935    0.9631 C   0  0  2  0  0  0  0  0  0  0  0  0
   -3.3557    0.2964   -0.1747 C   0  0  0  0  0  0  0  0  0  0  0  0
   -3.3238    1.2746   -0.9855 O   0  0  0  0  0  0  0  0  0  0  0  0
   -2.0135    0.2155    0.3309 N   0  0  0  0  0  0  0  0  0  0  0  0
   -1.2046   -0.6418   -0.7198 C   0  0  1  0  0  0  0  0  0  0  0  0
   -1.4964    0.3719   -1.9883 C   0  0  0  0  0  0  0  0  0  0  0  0
   -1.5850   -0.6449   -3.0906 C   0  0  0  0  0  0  0  0  0  0  0  0
   -2.7559   -1.3420   -3.3700 C   0  0  0  0  0  0  0  0  0  0  0  0
   -2.7555   -2.7052   -3.6513 C   0  0  0  0  0  0  0  0  0  0  0  0
   -1.5516   -3.4009   -3.6382 C   0  0  0  0  0  0  0  0  0  0  0  0
   -1.4060   -4.6473   -3.0302 O   0  0  0  0  0  0  0  0  0  0  0  0
   -0.4656   -2.6105   -3.9992 C   0  0  0  0  0  0  0  0  0  0  0  0
   -0.4484   -1.2848   -3.5757 C   0  0  0  0  0  0  0  0  0  0  0  0
    0.2309    0.0370   -0.4073 C   0  0  0  0  0  0  0  0  0  0  0  0
    0.3477    0.7440    0.5975 O   0  0  0  0  0  0  0  0  0  0  0  0
    1.2048   -1.0180   -0.5633 N   0  0  0  0  0  0  0  0  0  0  0  0
    2.2234   -1.1196    0.6385 C   0  0  2  0  0  0  0  0  0  0  0  0
    3.3660   -1.8706   -0.2360 C   0  0  0  0  0  0  0  0  0  0  0  0
    3.9134   -2.8369    0.3848 O   0  0  0  0  0  0  0  0  0  0  0  0
    4.3238   -0.9685   -0.8310 N   0  0  0  0  0  0  0  0  0  0  0  0
    5.8206   -1.1792   -0.3612 C   0  0  1  0  0  0  0  0  0  0  0  0
    6.4752   -1.3911   -1.8549 C   0  0  0  0  0  0  0  0  0  0  0  0
    5.4373   -1.6054   -2.8433 C   0  0  0  0  0  0  0  0  0  0  0  0
    4.6588   -2.7212   -3.1361 C   0  0  0  0  0  0  0  0  0  0  0  0
    4.4012   -2.8015   -4.4408 N   0  0  0  0  0  0  0  0  0  0  0  0
    5.0729   -1.7693   -4.9923 C   0  0  0  0  0  0  0  0  0  0  0  0
    5.4485   -0.9362   -4.0267 N   0  0  0  0  0  0  0  0  0  0  0  0
    6.1672    0.4044   -0.3246 C   0  0  0  0  0  0  0  0  0  0  0  0
    5.8715    1.0259   -1.3932 O   0  0  0  0  0  0  0  0  0  0  0  0
    5.8789    1.1096    0.8349 N   0  0  0  0  0  0  0  0  0  0  0  0
    4.9117    0.6716    1.8483 C   0  0  0  0  0  0  0  0  0  0  0  0
    5.6556   -0.4751    2.5243 C   0  0  0  0  0  0  0  0  0  0  0  0
    7.1214   -0.1810    2.2189 C   0  0  0  0  0  0  0  0  0  0  0  0
    6.8514    1.4382    2.0305 C   0  0  1  0  0  0  0  0  0  0  0  0
    8.1705    1.7467    1.1471 C   0  0  0  0  0  0  0  0  0  0  0  0
    8.8219    0.8215    0.6901 O   0  0  0  0  0  0  0  0  0  0  0  0
    8.8954    2.8152    1.7839 N   0  0  0  0  0  0  0  0  0  0  0  0
   10.1031    2.3764    2.7041 C   0  0  1  0  0  0  0  0  0  0  0  0
   11.1452    3.4086    1.9582 C   0  0  0  0  0  0  0  0  0  0  0  0
    9.7451    3.4651    3.8489 C   0  0  0  0  0  0  0  0  0  0  0  0
    8.5593    3.3608    4.2923 O   0  0  0  0  0  0  0  0  0  0  0  0
   10.7023    3.3747    4.8689 O   0  0  0  0  0  0  0  0  0  0  0  0
    1.5447   -2.5042    1.2123 C   0  0  0  0  0  0  0  0  0  0  0  0
    1.4612   -3.4601    0.1098 C   0  0  0  0  0  0  0  0  0  0  0  0
    2.2699   -2.8780    2.4386 C   0  0  0  0  0  0  0  0  0  0  0  0
   -4.8364   -1.2168    0.8959 C   0  0  0  0  0  0  0  0  0  0  0  0
   -4.9124   -1.5960   -0.5372 C   0  0  0  0  0  0  0  0  0  0  0  0
   -3.6806   -1.8526    1.6443 C   0  0  0  0  0  0  0  0  0  0  0  0
  1  2  1  0
  2  3  1  0
  3  4  1  0
  4  5  2  0
  4  6  1  0
  7  6  1  6
  7  8  1  0
  8  9  1  0
  9 10  1  0
 10 11  1  0
 11 12  1  0
 12 13  2  0
 12 14  1  0
  7 15  1  0
 15 16  2  0
 15 17  1  0
 18 17  1  6
 18 19  1  0
 19 20  2  0
 19 21  1  0
 22 21  1  1
 22 23  1  0
 23 24  1  0
 24 25  2  0
 25 26  1  0
 26 27  2  0
 27 28  1  0
 27 29  1  0
 29 30  2  0
 22 31  1  0
 31 32  2  0
 31 33  1  0
 34 33  1  6
 34 35  1  0
 35 36  2  0
 35 37  1  0
 38 37  1  6
 38 39  1  0
 39 40  1  0
 40 41  2  0
 41 42  1  0
 42 43  1  0
 43 44  2  0
 38 45  1  0
 45 46  2  0
 45 47  1  0
 47 48  1  0
 48 49  1  0
 49 50  1  0
 50 51  1  0
 51 52  1  6
 52 53  2  0
 52 54  1  0
 55 54  1  6
 55 56  1  0
 55 57  1  0
 57 58  2  0
 57 59  1  0
 34 60  1  0
 60 61  1  0
 60 62  1  0
 18 63  1  0
 63 64  1  0
 63 65  1  0
 30 24  1  0
 44 40  1  0
 51 47  1  0
M  END
>  <zinc_id>  (1) 
ZINC000169289386

>  <smiles>  (1) 
CNCC(=O)N[C@@H](CCCNC(=N)N)C(=O)N[C@H](C(=O)N[C@@H](Cc1ccc(O)cc1)C(=O)N[C@H](C(=O)N[C@@H](Cc1c[nH]cn1)C(=O)N1CCC[C@H]1C(=O)N[C@@H](C)C(=O)O)C(C)C)C(C)C

$$$$
