
     RDKit          3D

 43 42  0  0  0  0  0  0  0  0999 V2000
    8.2588   -2.7110    2.8544 C   0  0  0  0  0  0  0  0  0  0  0  0
    9.1797   -2.1342    1.8187 C   0  0  0  0  0  0  0  0  0  0  0  0
    9.1263   -2.9972    0.5785 C   0  0  0  0  0  0  0  0  0  0  0  0
    8.7363   -2.2061   -0.6539 C   0  0  0  0  0  0  0  0  0  0  0  0
    8.0154   -3.1592   -1.5840 C   0  0  0  0  0  0  0  0  0  0  0  0
    7.4170   -2.4576   -2.7393 C   0  0  0  0  0  0  0  0  0  0  0  0
    6.1753   -1.9961   -2.6080 C   0  0  0  0  0  0  0  0  0  0  0  0
    5.8221   -1.3090   -1.3516 C   0  0  0  0  0  0  0  0  0  0  0  0
    5.3778   -2.3027   -0.3274 C   0  0  0  0  0  0  0  0  0  0  0  0
    4.6247   -1.8016    0.6540 C   0  0  0  0  0  0  0  0  0  0  0  0
    3.7192   -0.7266    0.3095 C   0  0  0  0  0  0  0  0  0  0  0  0
    2.9718   -0.7211   -0.7984 C   0  0  0  0  0  0  0  0  0  0  0  0
    1.8323    0.1740   -0.7511 C   0  0  0  0  0  0  0  0  0  0  0  0
    1.0071    0.4495   -1.7259 C   0  0  0  0  0  0  0  0  0  0  0  0
   -0.1398    1.4559   -1.4708 C   0  0  1  0  0  0  0  0  0  0  0  0
   -0.7925    0.6354    0.0965 S   0  0  0  0  0  0  0  0  0  0  0  0
   -2.5246    0.2505   -0.3273 C   0  0  0  0  0  0  0  0  0  0  0  0
   -3.3346    1.7027   -0.0729 C   0  0  2  0  0  0  0  0  0  0  0  0
   -4.6377    1.0465    0.5932 N   0  0  0  0  0  0  0  0  0  0  0  0
   -4.5665   -0.2629    1.0448 C   0  0  0  0  0  0  0  0  0  0  0  0
   -4.1097   -1.0399    0.1473 O   0  0  0  0  0  0  0  0  0  0  0  0
   -5.5852   -0.7417    2.0202 C   0  0  0  0  0  0  0  0  0  0  0  0
   -6.0562   -2.1153    1.5607 C   0  0  0  0  0  0  0  0  0  0  0  0
   -5.2652   -3.1539    2.6133 C   0  0  2  0  0  0  0  0  0  0  0  0
   -6.2714   -4.3540    2.2547 N   0  0  0  0  0  0  0  0  0  0  0  0
   -6.1729   -2.6766    3.8968 C   0  0  0  0  0  0  0  0  0  0  0  0
   -7.3900   -2.6090    3.6894 O   0  0  0  0  0  0  0  0  0  0  0  0
   -5.4632   -1.7328    4.6195 O   0  0  0  0  0  0  0  0  0  0  0  0
   -4.0548    1.6900   -1.5517 C   0  0  0  0  0  0  0  0  0  0  0  0
   -4.4938    2.8706   -1.7357 O   0  0  0  0  0  0  0  0  0  0  0  0
   -3.2620    1.2440   -2.6305 N   0  0  0  0  0  0  0  0  0  0  0  0
   -4.0322    1.0308   -3.8605 C   0  0  0  0  0  0  0  0  0  0  0  0
   -3.9216   -0.4373   -4.1369 C   0  0  0  0  0  0  0  0  0  0  0  0
   -2.7587   -0.8197   -4.4724 O   0  0  0  0  0  0  0  0  0  0  0  0
   -4.7665   -1.2905   -3.4180 O   0  0  0  0  0  0  0  0  0  0  0  0
    0.8830    2.6481   -0.8005 C   0  0  1  0  0  0  0  0  0  0  0  0
    0.3195    3.7105   -1.7674 O   0  0  0  0  0  0  0  0  0  0  0  0
   -0.2289    3.0885    0.3764 C   0  0  0  0  0  0  0  0  0  0  0  0
    0.7441    3.0795    1.5545 C   0  0  0  0  0  0  0  0  0  0  0  0
    1.8241    4.0871    1.1766 C   0  0  0  0  0  0  0  0  0  0  0  0
    1.4981    5.3329    1.9388 C   0  0  0  0  0  0  0  0  0  0  0  0
    2.1558    5.5863    2.9949 O   0  0  0  0  0  0  0  0  0  0  0  0
    0.1397    5.6732    1.9916 O   0  0  0  0  0  0  0  0  0  0  0  0
  1  2  1  0
  2  3  1  0
  3  4  1  0
  4  5  1  0
  5  6  1  0
  6  7  2  0
  7  8  1  0
  8  9  1  0
  9 10  2  0
 10 11  1  0
 11 12  2  0
 12 13  1  0
 13 14  2  0
 15 14  1  6
 15 16  1  0
 16 17  1  0
 18 17  1  6
 18 19  1  0
 19 20  1  0
 20 21  2  0
 20 22  1  0
 22 23  1  0
 24 23  1  6
 24 25  1  0
 24 26  1  0
 26 27  2  0
 26 28  1  0
 18 29  1  0
 29 30  2  0
 29 31  1  0
 31 32  1  0
 32 33  1  0
 33 34  2  0
 33 35  1  0
 15 36  1  0
 36 37  1  6
 36 38  1  0
 38 39  1  0
 39 40  1  0
 40 41  1  0
 41 42  2  0
 41 43  1  0
M  END
>  <zinc_id>  (1) 
ZINC000004095814

>  <smiles>  (1) 
CCCCC/C=C\C/C=C\C=C\C=C\[C@@H](SC[C@H](NC(=O)CC[C@H](N)C(=O)O)C(=O)NCC(=O)O)[C@@H](O)CCCC(=O)O

$$$$
