
     RDKit          3D

 41 42  0  0  0  0  0  0  0  0999 V2000
   -7.0053   -0.9289   -2.8574 C   0  0  0  0  0  0  0  0  0  0  0  0
   -6.8641   -0.5784   -1.5177 C   0  0  0  0  0  0  0  0  0  0  0  0
   -6.2431    0.8003   -1.3271 C   0  0  0  0  0  0  0  0  0  0  0  0
   -6.1397   -1.6358   -0.8310 C   0  0  0  0  0  0  0  0  0  0  0  0
   -6.4670   -1.6517    0.7876 C   0  0  1  0  0  0  0  0  0  0  0  0
   -5.2560   -0.6954    1.1534 N   0  0  0  0  0  0  0  0  0  0  0  0
   -4.0198   -0.9296    0.4784 C   0  0  0  0  0  0  0  0  0  0  0  0
   -4.0734   -1.9427   -0.2884 O   0  0  0  0  0  0  0  0  0  0  0  0
   -2.7151   -0.9348    1.4560 C   0  0  2  0  0  0  0  0  0  0  0  0
   -2.3668    0.6757    1.3098 C   0  0  0  0  0  0  0  0  0  0  0  0
   -3.5566    1.3971    0.9101 C   0  0  0  0  0  0  0  0  0  0  0  0
   -3.7808    1.5853   -0.4555 C   0  0  0  0  0  0  0  0  0  0  0  0
   -4.8154    2.3858   -0.9067 C   0  0  0  0  0  0  0  0  0  0  0  0
   -5.1408    3.4500   -0.0750 C   0  0  0  0  0  0  0  0  0  0  0  0
   -4.3706    3.6846    1.0591 C   0  0  0  0  0  0  0  0  0  0  0  0
   -3.8183    2.5585    1.6360 C   0  0  0  0  0  0  0  0  0  0  0  0
   -1.7351   -1.3981    0.2979 N   0  0  0  0  0  0  0  0  0  0  0  0
   -1.1584   -0.4392   -0.5270 C   0  0  0  0  0  0  0  0  0  0  0  0
   -0.5431    0.4308    0.1687 O   0  0  0  0  0  0  0  0  0  0  0  0
   -0.7266   -0.7546   -1.9249 C   0  0  0  0  0  0  0  0  0  0  0  0
    0.7090   -0.5750   -1.9264 N   0  0  0  0  0  0  0  0  0  0  0  0
    1.5478   -1.0357   -0.8499 C   0  0  0  0  0  0  0  0  0  0  0  0
    1.1237   -2.1535   -0.4182 O   0  0  0  0  0  0  0  0  0  0  0  0
    3.0688   -1.1324   -1.4151 C   0  0  1  0  0  0  0  0  0  0  0  0
    3.1023    0.4945   -1.7381 C   0  0  0  0  0  0  0  0  0  0  0  0
    3.7252   -0.9165    0.0125 N   0  0  0  0  0  0  0  0  0  0  0  0
    4.9415   -1.6377    0.2682 C   0  0  0  0  0  0  0  0  0  0  0  0
    4.9988   -2.8145   -0.1726 O   0  0  0  0  0  0  0  0  0  0  0  0
    6.2934   -0.8097   -0.0998 C   0  0  1  0  0  0  0  0  0  0  0  0
    5.9211    0.3406    0.9281 N   0  0  0  0  0  0  0  0  0  0  0  0
    7.2580   -1.5444    1.0273 C   0  0  0  0  0  0  0  0  0  0  0  0
    8.3907   -0.5540    0.9140 C   0  0  0  0  0  0  0  0  0  0  0  0
    8.5652    0.3946    1.9171 C   0  0  0  0  0  0  0  0  0  0  0  0
    8.8289    1.7136    1.6238 C   0  0  0  0  0  0  0  0  0  0  0  0
    9.0945    2.1087    0.3173 C   0  0  0  0  0  0  0  0  0  0  0  0
    8.7257    3.3593   -0.1189 O   0  0  0  0  0  0  0  0  0  0  0  0
    9.5149    1.0767   -0.5149 C   0  0  0  0  0  0  0  0  0  0  0  0
    8.8651   -0.1423   -0.3276 C   0  0  0  0  0  0  0  0  0  0  0  0
   -7.5218   -0.4126    0.7350 C   0  0  0  0  0  0  0  0  0  0  0  0
   -7.6345    0.0950    1.8772 O   0  0  0  0  0  0  0  0  0  0  0  0
   -8.7221   -0.9337    0.2274 O   0  0  0  0  0  0  0  0  0  0  0  0
  1  2  1  0
  2  3  1  0
  2  4  1  0
  5  4  1  6
  5  6  1  0
  6  7  1  0
  7  8  2  0
  9  7  1  6
  9 10  1  0
 10 11  1  0
 11 12  2  0
 12 13  1  0
 13 14  2  0
 14 15  1  0
 15 16  2  0
  9 17  1  0
 17 18  1  0
 18 19  2  0
 18 20  1  0
 20 21  1  0
 21 22  1  0
 22 23  2  0
 24 22  1  1
 24 25  1  0
 24 26  1  0
 26 27  1  0
 27 28  2  0
 29 27  1  1
 29 30  1  0
 29 31  1  0
 31 32  1  0
 32 33  2  0
 33 34  1  0
 34 35  2  0
 35 36  1  0
 35 37  1  0
 37 38  2  0
  5 39  1  0
 39 40  2  0
 39 41  1  0
 16 11  1  0
 38 32  1  0
M  END
>  <zinc_id>  (1) 
ZINC000014952092

>  <smiles>  (1) 
CC(C)C[C@@H](NC(=O)[C@H](Cc1ccccc1)NC(=O)CNC(=O)[C@@H](C)NC(=O)[C@@H](N)Cc1ccc(O)cc1)C(=O)O

$$$$
