
     RDKit          3D

 68 70  0  0  0  0  0  0  0  0999 V2000
   -9.7210    4.7421   -0.1837 C   0  0  0  0  0  0  0  0  0  0  0  0
   -9.7822    4.7431   -0.3240 C   0  0  0  0  0  0  0  0  0  0  0  0
   -9.2970    3.4997    0.0832 O   0  0  0  0  0  0  0  0  0  0  0  0
   -8.3943    2.6922   -0.5001 C   0  0  0  0  0  0  0  0  0  0  0  0
   -8.5930    1.9907   -1.6677 C   0  0  0  0  0  0  0  0  0  0  0  0
   -7.4654    1.5007   -2.3152 C   0  0  0  0  0  0  0  0  0  0  0  0
   -6.4310    1.0543   -1.5270 C   0  0  0  0  0  0  0  0  0  0  0  0
   -5.2076    0.4228   -1.9796 C   0  0  0  0  0  0  0  0  0  0  0  0
   -5.2993   -1.1926   -1.6919 C   0  0  1  0  0  0  0  0  0  0  0  0
   -3.9314   -1.1714   -0.9080 N   0  0  0  0  0  0  0  0  0  0  0  0
   -2.8635   -0.9311   -1.8019 C   0  0  0  0  0  0  0  0  0  0  0  0
   -1.7387   -1.4984   -1.7223 O   0  0  0  0  0  0  0  0  0  0  0  0
   -2.8724    0.4719   -2.3159 C   0  0  0  0  0  0  0  0  0  0  0  0
   -1.6538    1.1155   -1.6542 C   0  0  0  0  0  0  0  0  0  0  0  0
   -0.3119    1.4905   -2.6930 S   0  0  0  0  0  0  0  0  0  0  0  0
    1.4530    0.5698   -2.6931 S   0  0  0  0  0  0  0  0  0  0  0  0
    2.4267    0.2534   -1.2613 C   0  0  0  0  0  0  0  0  0  0  0  0
    2.4367   -1.3962   -1.1907 C   0  0  1  0  0  0  0  0  0  0  0  0
    4.0368   -1.5447   -1.1316 C   0  0  0  0  0  0  0  0  0  0  0  0
    4.2768   -2.7332   -0.7638 O   0  0  0  0  0  0  0  0  0  0  0  0
    4.8831   -0.4813   -0.9817 N   0  0  0  0  0  0  0  0  0  0  0  0
    6.3118   -0.7840   -1.0339 C   0  0  0  0  0  0  0  0  0  0  0  0
    6.4577   -1.1822    0.4151 C   0  0  0  0  0  0  0  0  0  0  0  0
    5.5382   -0.3979    1.2378 C   0  0  0  0  0  0  0  0  0  0  0  0
    4.7567    0.5833    0.1781 C   0  0  1  0  0  0  0  0  0  0  0  0
    6.1031    1.3692   -0.2354 C   0  0  0  0  0  0  0  0  0  0  0  0
    5.9085    1.8979   -1.3567 O   0  0  0  0  0  0  0  0  0  0  0  0
    6.8213    2.0127    0.7874 N   0  0  0  0  0  0  0  0  0  0  0  0
    7.9962    2.8073    0.0858 C   0  0  1  0  0  0  0  0  0  0  0  0
    8.3355    3.6836    1.4399 C   0  0  0  0  0  0  0  0  0  0  0  0
    8.6730    5.0521    0.8627 C   0  0  0  0  0  0  0  0  0  0  0  0
    7.4861    5.4529    0.0238 C   0  0  0  0  0  0  0  0  0  0  0  0
    7.2561    6.8713   -0.0119 N   0  0  0  0  0  0  0  0  0  0  0  0
    9.0889    1.6754    0.4420 C   0  0  0  0  0  0  0  0  0  0  0  0
    9.1421    1.2343    1.5780 O   0  0  0  0  0  0  0  0  0  0  0  0
    9.5799    0.9580   -0.6832 N   0  0  0  0  0  0  0  0  0  0  0  0
   10.5260   -0.1073   -0.4721 C   0  0  0  0  0  0  0  0  0  0  0  0
    9.9245   -1.3053    0.1602 C   0  0  0  0  0  0  0  0  0  0  0  0
    8.7374   -1.8653   -0.3734 N   0  0  0  0  0  0  0  0  0  0  0  0
   10.4546   -1.7693    1.1987 O   0  0  0  0  0  0  0  0  0  0  0  0
    2.3616   -1.4306    0.3881 N   0  0  0  0  0  0  0  0  0  0  0  0
    1.1842   -1.9857    0.9724 C   0  0  0  0  0  0  0  0  0  0  0  0
    0.9507   -3.1909    1.1401 O   0  0  0  0  0  0  0  0  0  0  0  0
   -0.0040   -1.0687    0.3844 C   0  0  2  0  0  0  0  0  0  0  0  0
    0.5004    0.2532    1.2290 C   0  0  0  0  0  0  0  0  0  0  0  0
   -0.3744    0.6320    2.2632 C   0  0  0  0  0  0  0  0  0  0  0  0
   -1.0285    1.9063    2.2852 N   0  0  0  0  0  0  0  0  0  0  0  0
   -0.4127   -0.0108    3.3497 O   0  0  0  0  0  0  0  0  0  0  0  0
   -1.0882   -1.4424    1.4622 N   0  0  0  0  0  0  0  0  0  0  0  0
   -2.2604   -1.9059    0.7455 C   0  0  0  0  0  0  0  0  0  0  0  0
   -2.4616   -1.7148   -0.4809 O   0  0  0  0  0  0  0  0  0  0  0  0
   -1.9467   -3.4564    0.9835 C   0  0  2  0  0  0  0  0  0  0  0  0
   -3.0106   -4.1082   -0.2160 C   0  0  1  0  0  0  0  0  0  0  0  0
   -1.9926   -3.7525   -1.4563 C   0  0  0  0  0  0  0  0  0  0  0  0
   -2.3578   -5.4676   -0.0890 O   0  0  0  0  0  0  0  0  0  0  0  0
   -3.0468   -3.5756    2.0984 N   0  0  0  0  0  0  0  0  0  0  0  0
   -4.3136   -3.0994    1.8866 C   0  0  0  0  0  0  0  0  0  0  0  0
   -5.2009   -3.3818    2.7394 O   0  0  0  0  0  0  0  0  0  0  0  0
   -4.4270   -1.6460    1.2123 C   0  0  2  0  0  0  0  0  0  0  0  0
   -4.7777   -0.8820    2.7114 C   0  0  1  0  0  0  0  0  0  0  0  0
   -4.8500    0.6089    2.0733 C   0  0  0  0  0  0  0  0  0  0  0  0
   -6.3787   -1.0743    2.7450 C   0  0  0  0  0  0  0  0  0  0  0  0
   -7.0285    0.1842    3.1952 C   0  0  0  0  0  0  0  0  0  0  0  0
   -5.8858   -1.9050    0.7233 N   0  0  0  0  0  0  0  0  0  0  0  0
   -6.1882   -1.0321   -0.3497 C   0  0  0  0  0  0  0  0  0  0  0  0
   -7.3842   -1.2283   -0.7452 O   0  0  0  0  0  0  0  0  0  0  0  0
   -6.2806    1.7036   -0.3039 C   0  0  0  0  0  0  0  0  0  0  0  0
   -7.3459    2.2864    0.3274 C   0  0  0  0  0  0  0  0  0  0  0  0
  1  2  1  0
  2  3  1  0
  3  4  1  0
  4  5  2  0
  5  6  1  0
  6  7  2  0
  7  8  1  0
  9  8  1  6
  9 10  1  0
 10 11  1  0
 11 12  2  0
 11 13  1  0
 13 14  1  0
 14 15  1  0
 15 16  1  0
 16 17  1  0
 17 18  1  0
 18 19  1  1
 19 20  2  0
 19 21  1  0
 21 22  1  0
 22 23  1  0
 23 24  1  0
 24 25  1  0
 25 26  1  6
 26 27  2  0
 26 28  1  0
 29 28  1  1
 29 30  1  0
 30 31  1  0
 31 32  1  0
 32 33  1  0
 29 34  1  0
 34 35  2  0
 34 36  1  0
 36 37  1  0
 37 38  1  0
 38 39  1  0
 38 40  2  0
 18 41  1  0
 41 42  1  0
 42 43  2  0
 42 44  1  0
 44 45  1  1
 45 46  1  0
 46 47  1  0
 46 48  2  0
 44 49  1  0
 49 50  1  0
 50 51  2  0
 52 50  1  6
 52 53  1  0
 53 54  1  6
 53 55  1  0
 52 56  1  0
 56 57  1  0
 57 58  2  0
 59 57  1  1
 59 60  1  0
 60 61  1  6
 60 62  1  0
 62 63  1  0
 59 64  1  0
 64 65  1  0
 65 66  2  0
  7 67  1  0
 67 68  2  0
 68  4  1  0
 65  9  1  0
 25 21  1  0
M  END
>  <zinc_id>  (1) 
ZINC000169362009

>  <smiles>  (1) 
CCOc1ccc(C[C@H]2NC(=O)CCSSC[C@@H](C(=O)N3CCC[C@H]3C(=O)N[C@@H](CCCN)C(=O)NCC(N)=O)NC(=O)[C@H](CC(N)=O)NC(=O)[C@H]([C@@H](C)O)NC(=O)[C@H]([C@@H](C)CC)NC2=O)cc1

$$$$
