
     RDKit          3D

 64 66  0  0  0  0  0  0  0  0999 V2000
   -3.0965   -4.3790    1.6782 C   0  0  0  0  0  0  0  0  0  0  0  0
   -3.6945   -4.4143    1.4054 C   0  0  0  0  0  0  0  0  0  0  0  0
   -4.6592   -3.1217    1.3019 C   0  0  2  0  0  0  0  0  0  0  0  0
   -5.8657   -3.9637    0.6313 C   0  0  0  0  0  0  0  0  0  0  0  0
   -4.0232   -2.6949   -0.2195 C   0  0  2  0  0  0  0  0  0  0  0  0
   -2.6486   -2.2950    0.4271 N   0  0  0  0  0  0  0  0  0  0  0  0
   -1.7678   -1.6206   -0.4824 C   0  0  0  0  0  0  0  0  0  0  0  0
   -1.8098   -1.7361   -1.6873 O   0  0  0  0  0  0  0  0  0  0  0  0
   -0.6473   -0.6922    0.1986 C   0  0  2  0  0  0  0  0  0  0  0  0
   -0.7346    0.4870   -0.9506 C   0  0  0  0  0  0  0  0  0  0  0  0
   -0.6532    1.7540   -0.1958 C   0  0  0  0  0  0  0  0  0  0  0  0
    0.3123    2.6558   -0.6288 C   0  0  0  0  0  0  0  0  0  0  0  0
    0.5902    3.7435    0.1651 C   0  0  0  0  0  0  0  0  0  0  0  0
   -0.2656    4.0840    1.1998 C   0  0  0  0  0  0  0  0  0  0  0  0
    0.1727    4.8732    2.2660 O   0  0  0  0  0  0  0  0  0  0  0  0
   -1.5022    3.4530    1.2344 C   0  0  0  0  0  0  0  0  0  0  0  0
   -1.7415    2.3365    0.4430 C   0  0  0  0  0  0  0  0  0  0  0  0
    0.5405   -1.4068   -0.5508 N   0  0  0  0  0  0  0  0  0  0  0  0
    1.8371   -1.2138    0.0401 C   0  0  0  0  0  0  0  0  0  0  0  0
    1.8961   -0.4799    1.0604 O   0  0  0  0  0  0  0  0  0  0  0  0
    2.9100   -0.7766   -1.0841 C   0  0  1  0  0  0  0  0  0  0  0  0
    4.1500   -0.8629   -0.1100 N   0  0  0  0  0  0  0  0  0  0  0  0
    5.3982   -0.4720   -0.7247 C   0  0  0  0  0  0  0  0  0  0  0  0
    5.3625   -0.6942   -1.9563 O   0  0  0  0  0  0  0  0  0  0  0  0
    5.9325    0.9725   -0.2384 C   0  0  2  0  0  0  0  0  0  0  0  0
    7.0044    1.2058   -1.4683 C   0  0  0  0  0  0  0  0  0  0  0  0
    7.6292    0.0040   -1.7381 C   0  0  0  0  0  0  0  0  0  0  0  0
    8.9183   -0.5268   -1.7703 C   0  0  0  0  0  0  0  0  0  0  0  0
    8.7752   -1.8422   -1.1351 N   0  0  0  0  0  0  0  0  0  0  0  0
    9.7473   -2.8498   -1.2075 C   0  0  0  0  0  0  0  0  0  0  0  0
   10.7352   -2.6557   -1.9962 N   0  0  0  0  0  0  0  0  0  0  0  0
    9.8863   -3.6713   -0.0442 N   0  0  0  0  0  0  0  0  0  0  0  0
    7.0648    0.3468    0.6656 N   0  0  0  0  0  0  0  0  0  0  0  0
    7.2435    1.0605    1.8282 C   0  0  0  0  0  0  0  0  0  0  0  0
    6.2681    1.4214    2.5394 O   0  0  0  0  0  0  0  0  0  0  0  0
    8.6727    1.1721    2.5564 C   0  0  1  0  0  0  0  0  0  0  0  0
    9.1415   -0.2620    2.0989 N   0  0  0  0  0  0  0  0  0  0  0  0
    9.3914    1.8896    1.2620 C   0  0  0  0  0  0  0  0  0  0  0  0
   10.6423    2.4805    1.7671 C   0  0  0  0  0  0  0  0  0  0  0  0
   11.6643    2.4579    1.0208 O   0  0  0  0  0  0  0  0  0  0  0  0
   10.5624    3.5860    2.6189 O   0  0  0  0  0  0  0  0  0  0  0  0
    3.1327   -2.3155   -1.6045 C   0  0  0  0  0  0  0  0  0  0  0  0
    3.2713   -3.1874   -0.4177 C   0  0  0  0  0  0  0  0  0  0  0  0
    1.9832   -2.6254   -2.5047 C   0  0  0  0  0  0  0  0  0  0  0  0
   -4.6683   -1.2337   -0.1072 C   0  0  0  0  0  0  0  0  0  0  0  0
   -3.8965   -0.2828   -0.2090 O   0  0  0  0  0  0  0  0  0  0  0  0
   -5.9427   -1.0231   -0.6727 N   0  0  0  0  0  0  0  0  0  0  0  0
   -6.1767    0.3745   -1.3673 C   0  0  1  0  0  0  0  0  0  0  0  0
   -7.7914    0.0905   -1.4927 C   0  0  0  0  0  0  0  0  0  0  0  0
   -7.8991   -1.1878   -2.2166 C   0  0  0  0  0  0  0  0  0  0  0  0
   -7.0684   -1.7154   -3.1960 C   0  0  0  0  0  0  0  0  0  0  0  0
   -7.2622   -3.0530   -3.2698 N   0  0  0  0  0  0  0  0  0  0  0  0
   -7.8886   -3.3931   -2.1389 C   0  0  0  0  0  0  0  0  0  0  0  0
   -8.5048   -2.2758   -1.6822 N   0  0  0  0  0  0  0  0  0  0  0  0
   -6.2886    1.1611    0.0374 C   0  0  0  0  0  0  0  0  0  0  0  0
   -5.3015    1.9379    0.2695 O   0  0  0  0  0  0  0  0  0  0  0  0
   -7.4527    1.9603    0.2328 N   0  0  0  0  0  0  0  0  0  0  0  0
   -7.7872    3.2557   -0.2639 C   0  0  0  0  0  0  0  0  0  0  0  0
   -7.4758    4.0467    0.9767 C   0  0  0  0  0  0  0  0  0  0  0  0
   -7.8452    3.2666    2.1467 C   0  0  0  0  0  0  0  0  0  0  0  0
   -8.2750    1.7935    1.5641 C   0  0  1  0  0  0  0  0  0  0  0  0
   -9.6372    2.2739    0.8518 C   0  0  0  0  0  0  0  0  0  0  0  0
  -10.4293    1.2825    0.9130 O   0  0  0  0  0  0  0  0  0  0  0  0
  -10.1350    3.4975    1.0313 O   0  0  0  0  0  0  0  0  0  0  0  0
  1  2  1  0
  3  2  1  1
  3  4  1  0
  3  5  1  0
  5  6  1  1
  6  7  1  0
  7  8  2  0
  9  7  1  6
  9 10  1  0
 10 11  1  0
 11 12  2  0
 12 13  1  0
 13 14  2  0
 14 15  1  0
 14 16  1  0
 16 17  2  0
  9 18  1  0
 18 19  1  0
 19 20  2  0
 21 19  1  1
 21 22  1  0
 22 23  1  0
 23 24  2  0
 25 23  1  6
 25 26  1  0
 26 27  1  0
 27 28  1  0
 28 29  1  0
 29 30  1  0
 30 31  2  0
 30 32  1  0
 25 33  1  0
 33 34  1  0
 34 35  2  0
 36 34  1  6
 36 37  1  0
 36 38  1  0
 38 39  1  0
 39 40  2  0
 39 41  1  0
 21 42  1  0
 42 43  1  0
 42 44  1  0
  5 45  1  0
 45 46  2  0
 45 47  1  0
 48 47  1  1
 48 49  1  0
 49 50  1  0
 50 51  2  0
 51 52  1  0
 52 53  2  0
 53 54  1  0
 48 55  1  0
 55 56  2  0
 55 57  1  0
 57 58  1  0
 58 59  1  0
 59 60  1  0
 60 61  1  0
 61 62  1  6
 62 63  2  0
 62 64  1  0
 17 11  1  0
 54 50  1  0
 61 57  1  0
M  END
>  <zinc_id>  (1) 
ZINC000096077632

>  <smiles>  (1) 
CC[C@H](C)[C@H](NC(=O)[C@H](Cc1ccc(O)cc1)NC(=O)[C@@H](NC(=O)[C@H](CCCNC(=N)N)NC(=O)[C@@H](N)CC(=O)O)C(C)C)C(=O)N[C@@H](Cc1cnc[nH]1)C(=O)N1CCC[C@H]1C(=O)O

$$$$
