
     RDKit          3D

 75 78  0  0  0  0  0  0  0  0999 V2000
    2.5069   -5.2563    0.6157 C   0  0  0  0  0  0  0  0  0  0  0  0
    2.0975   -4.4437    1.4858 C   0  0  0  0  0  0  0  0  0  0  0  0
    0.9149   -3.6770    0.6937 C   0  0  2  0  0  0  0  0  0  0  0  0
    1.8380   -3.2523   -0.5621 C   0  0  0  0  0  0  0  0  0  0  0  0
    1.0642   -2.2629    1.6517 C   0  0  2  0  0  0  0  0  0  0  0  0
   -0.0515   -1.6019    0.7756 N   0  0  0  0  0  0  0  0  0  0  0  0
   -1.2704   -1.6103    1.5324 C   0  0  0  0  0  0  0  0  0  0  0  0
   -1.3032   -0.7835    2.4020 O   0  0  0  0  0  0  0  0  0  0  0  0
   -2.4730   -1.8513    0.4939 C   0  0  2  0  0  0  0  0  0  0  0  0
   -2.0985   -0.4945   -0.3727 C   0  0  0  0  0  0  0  0  0  0  0  0
   -1.7097   -1.1287   -1.6706 C   0  0  0  0  0  0  0  0  0  0  0  0
   -0.5169   -0.7909   -2.2995 C   0  0  0  0  0  0  0  0  0  0  0  0
    0.2001   -1.7481   -3.0076 C   0  0  0  0  0  0  0  0  0  0  0  0
   -0.2568   -3.0603   -3.0590 C   0  0  0  0  0  0  0  0  0  0  0  0
    0.6078   -4.1499   -2.9152 O   0  0  0  0  0  0  0  0  0  0  0  0
   -1.6383   -3.1808   -2.9758 C   0  0  0  0  0  0  0  0  0  0  0  0
   -2.3179   -2.2814   -2.1541 C   0  0  0  0  0  0  0  0  0  0  0  0
   -3.6001   -1.1252    1.3335 N   0  0  0  0  0  0  0  0  0  0  0  0
   -4.5008   -0.6420    0.3257 C   0  0  0  0  0  0  0  0  0  0  0  0
   -4.0521    0.4053   -0.1690 O   0  0  0  0  0  0  0  0  0  0  0  0
   -6.0756   -0.8120    0.5647 C   0  0  1  0  0  0  0  0  0  0  0  0
   -6.4285    0.3183   -0.4845 N   0  0  0  0  0  0  0  0  0  0  0  0
   -7.4147    1.0896    0.1080 C   0  0  0  0  0  0  0  0  0  0  0  0
   -8.5147    0.6556   -0.0092 O   0  0  0  0  0  0  0  0  0  0  0  0
   -7.0817    2.5597    0.6530 C   0  0  2  0  0  0  0  0  0  0  0  0
   -8.1951    2.5136    1.8627 C   0  0  0  0  0  0  0  0  0  0  0  0
   -8.2546    1.1687    2.4376 C   0  0  0  0  0  0  0  0  0  0  0  0
   -9.6223    0.7559    2.8810 C   0  0  0  0  0  0  0  0  0  0  0  0
  -10.6948    1.5993    2.3513 N   0  0  0  0  0  0  0  0  0  0  0  0
  -11.1799    1.3160    1.0293 C   0  0  0  0  0  0  0  0  0  0  0  0
  -11.1838    0.0934    0.5860 N   0  0  0  0  0  0  0  0  0  0  0  0
  -11.2129    2.3153    0.0002 N   0  0  0  0  0  0  0  0  0  0  0  0
   -8.1006    3.2360   -0.3443 N   0  0  0  0  0  0  0  0  0  0  0  0
   -8.0462    4.6064   -0.2583 C   0  0  0  0  0  0  0  0  0  0  0  0
   -6.9960    5.1800    0.1756 O   0  0  0  0  0  0  0  0  0  0  0  0
   -8.5758    5.5608   -1.4430 C   0  0  1  0  0  0  0  0  0  0  0  0
   -8.7943    4.4051   -2.4964 N   0  0  0  0  0  0  0  0  0  0  0  0
  -10.1385    5.5102   -0.9301 C   0  0  0  0  0  0  0  0  0  0  0  0
  -10.5205    4.1145   -0.7367 C   0  0  0  0  0  0  0  0  0  0  0  0
  -11.1497    3.8754    0.3442 O   0  0  0  0  0  0  0  0  0  0  0  0
  -10.8125    3.2148   -1.7413 O   0  0  0  0  0  0  0  0  0  0  0  0
   -6.2253   -1.9923   -0.5772 C   0  0  0  0  0  0  0  0  0  0  0  0
   -7.6848   -2.3202   -0.6414 C   0  0  0  0  0  0  0  0  0  0  0  0
   -5.5544   -3.1539    0.1490 C   0  0  0  0  0  0  0  0  0  0  0  0
    2.2532   -1.5260    0.8558 C   0  0  0  0  0  0  0  0  0  0  0  0
    2.0567   -0.2767    0.6945 O   0  0  0  0  0  0  0  0  0  0  0  0
    3.5069   -1.8038    1.4448 N   0  0  0  0  0  0  0  0  0  0  0  0
    4.6476   -0.7257    1.2748 C   0  0  1  0  0  0  0  0  0  0  0  0
    5.8124   -1.6509    1.9682 C   0  0  0  0  0  0  0  0  0  0  0  0
    5.4713   -3.0428    1.9652 C   0  0  0  0  0  0  0  0  0  0  0  0
    5.1126   -3.6759    3.1547 C   0  0  0  0  0  0  0  0  0  0  0  0
    4.4815   -4.8248    2.9201 N   0  0  0  0  0  0  0  0  0  0  0  0
    4.2757   -4.8800    1.6057 C   0  0  0  0  0  0  0  0  0  0  0  0
    4.9535   -3.8814    1.0308 N   0  0  0  0  0  0  0  0  0  0  0  0
    4.9682   -1.1788   -0.2355 C   0  0  0  0  0  0  0  0  0  0  0  0
    4.3625   -0.3277   -0.9647 O   0  0  0  0  0  0  0  0  0  0  0  0
    6.1962   -1.5886   -0.6475 N   0  0  0  0  0  0  0  0  0  0  0  0
    6.5380   -1.8444   -2.0213 C   0  0  0  0  0  0  0  0  0  0  0  0
    7.4418   -2.9876   -1.7610 C   0  0  0  0  0  0  0  0  0  0  0  0
    8.4132   -2.4305   -0.8200 C   0  0  0  0  0  0  0  0  0  0  0  0
    7.5796   -1.3058    0.0408 C   0  0  1  0  0  0  0  0  0  0  0  0
    7.9249   -0.1175   -1.0066 C   0  0  0  0  0  0  0  0  0  0  0  0
    7.2163    0.8925   -0.7135 O   0  0  0  0  0  0  0  0  0  0  0  0
    9.2598    0.0618   -1.1763 N   0  0  0  0  0  0  0  0  0  0  0  0
    9.9487    1.4642   -1.3213 C   0  0  1  0  0  0  0  0  0  0  0  0
    8.7669    2.3374   -0.5730 C   0  0  0  0  0  0  0  0  0  0  0  0
    9.4754    3.5718   -0.1717 C   0  0  0  0  0  0  0  0  0  0  0  0
    9.0308    4.2390    0.9391 C   0  0  0  0  0  0  0  0  0  0  0  0
    9.7205    5.3286    1.3964 C   0  0  0  0  0  0  0  0  0  0  0  0
   10.9780    5.5521    0.8977 C   0  0  0  0  0  0  0  0  0  0  0  0
   11.2848    5.0988   -0.3756 C   0  0  0  0  0  0  0  0  0  0  0  0
   10.5300    4.0627   -0.9054 C   0  0  0  0  0  0  0  0  0  0  0  0
   10.7891    1.2496    0.0445 C   0  0  0  0  0  0  0  0  0  0  0  0
   10.1514    0.9272    1.0587 O   0  0  0  0  0  0  0  0  0  0  0  0
   11.8691    0.4085   -0.2574 O   0  0  0  0  0  0  0  0  0  0  0  0
  1  2  1  0
  3  2  1  1
  3  4  1  0
  3  5  1  0
  5  6  1  6
  6  7  1  0
  7  8  2  0
  9  7  1  1
  9 10  1  0
 10 11  1  0
 11 12  2  0
 12 13  1  0
 13 14  2  0
 14 15  1  0
 14 16  1  0
 16 17  2  0
  9 18  1  0
 18 19  1  0
 19 20  2  0
 21 19  1  6
 21 22  1  0
 22 23  1  0
 23 24  2  0
 25 23  1  6
 25 26  1  0
 26 27  1  0
 27 28  1  0
 28 29  1  0
 29 30  1  0
 30 31  2  0
 30 32  1  0
 25 33  1  0
 33 34  1  0
 34 35  2  0
 36 34  1  1
 36 37  1  0
 36 38  1  0
 38 39  1  0
 39 40  2  0
 39 41  1  0
 21 42  1  0
 42 43  1  0
 42 44  1  0
  5 45  1  0
 45 46  2  0
 45 47  1  0
 48 47  1  1
 48 49  1  0
 49 50  1  0
 50 51  2  0
 51 52  1  0
 52 53  2  0
 53 54  1  0
 48 55  1  0
 55 56  2  0
 55 57  1  0
 57 58  1  0
 58 59  1  0
 59 60  1  0
 60 61  1  0
 61 62  1  6
 62 63  2  0
 62 64  1  0
 65 64  1  1
 65 66  1  0
 66 67  1  0
 67 68  2  0
 68 69  1  0
 69 70  2  0
 70 71  1  0
 71 72  2  0
 65 73  1  0
 73 74  2  0
 73 75  1  0
 17 11  1  0
 54 50  1  0
 61 57  1  0
 72 67  1  0
M  END
>  <zinc_id>  (1) 
ZINC000169676920

>  <smiles>  (1) 
CC[C@H](C)[C@H](NC(=O)[C@H](Cc1ccc(O)cc1)NC(=O)[C@@H](NC(=O)[C@H](CCCNC(=N)N)NC(=O)[C@@H](N)CC(=O)O)C(C)C)C(=O)N[C@@H](Cc1cnc[nH]1)C(=O)N1CCC[C@H]1C(=O)N[C@@H](Cc1ccccc1)C(=O)O

$$$$
