
  Mrv1909 01172019142D          

 74 77  0  0  0  0            999 V2000
    6.7181   -0.2114    0.0000 C   0  0  0  0  0  0  0  0  0  0  0  0
    5.7198   -1.2632    0.0000 N   0  0  0  0  0  0  0  0  0  0  0  0
    6.5045   -1.0083    0.0000 C   0  0  1  0  0  0  0  0  0  0  0  0
    7.0879   -1.5917    0.0000 C   0  0  0  0  0  0  0  0  0  0  0  0
    7.8848   -1.3781    0.0000 C   0  0  0  0  0  0  0  0  0  0  0  0
    8.0983   -0.5812    0.0000 C   0  0  0  0  0  0  0  0  0  0  0  0
    8.8951   -0.3677    0.0000 C   0  0  0  0  0  0  0  0  0  0  0  0
    9.4785   -0.9511    0.0000 C   0  0  0  0  0  0  0  0  0  0  0  0
    9.2651   -1.7480    0.0000 C   0  0  0  0  0  0  0  0  0  0  0  0
    8.4681   -1.9615    0.0000 C   0  0  0  0  0  0  0  0  0  0  0  0
    6.1347    0.3719    0.0000 O   0  0  0  0  0  0  0  0  0  0  0  0
    7.5149    0.0020    0.0000 O   0  0  0  0  0  0  0  0  0  0  0  0
    5.5484   -2.0702    0.0000 C   0  0  0  0  0  0  0  0  0  0  0  0
    4.0964   -1.8402    0.0000 N   0  0  0  0  0  0  0  0  0  0  0  0
    4.7638   -2.3252    0.0000 C   0  0  1  0  0  0  0  0  0  0  0  0
    4.5088   -3.1097    0.0000 C   0  0  0  0  0  0  0  0  0  0  0  0
    3.6839   -3.1097    0.0000 C   0  0  0  0  0  0  0  0  0  0  0  0
    3.4289   -2.3252    0.0000 C   0  0  0  0  0  0  0  0  0  0  0  0
    6.1615   -2.6222    0.0000 O   0  0  0  0  0  0  0  0  0  0  0  0
    4.0964   -1.0152    0.0000 C   0  0  0  0  0  0  0  0  0  0  0  0
    2.6674   -1.0152    0.0000 N   0  0  0  0  0  0  0  0  0  0  0  0
    3.3819   -0.6027    0.0000 C   0  0  1  0  0  0  0  0  0  0  0  0
    3.3819    0.2222    0.0000 C   0  0  0  0  0  0  0  0  0  0  0  0
    4.0964    0.6347    0.0000 C   0  0  0  0  0  0  0  0  0  0  0  0
    4.1826    1.4552    0.0000 C   0  0  0  0  0  0  0  0  0  0  0  0
    4.9896    1.6267    0.0000 N   0  0  0  0  0  0  0  0  0  0  0  0
    5.4021    0.9122    0.0000 C   0  0  0  0  0  0  0  0  0  0  0  0
    4.8500    0.2991    0.0000 N   0  0  0  0  0  0  0  0  0  0  0  0
    4.8108   -0.6027    0.0000 O   0  0  0  0  0  0  0  0  0  0  0  0
    1.9529   -0.6027    0.0000 C   0  0  0  0  0  0  0  0  0  0  0  0
    0.5240   -0.6027    0.0000 N   0  0  0  0  0  0  0  0  0  0  0  0
    1.2385   -1.0152    0.0000 C   0  0  1  0  0  0  0  0  0  0  0  0
    1.2385   -1.8402    0.0000 C   0  0  0  0  0  0  0  0  0  0  0  0
    1.9529   -2.2527    0.0000 C   0  0  0  0  0  0  0  0  0  0  0  0
    1.9529    0.2222    0.0000 O   0  0  0  0  0  0  0  0  0  0  0  0
   -0.1904   -1.0152    0.0000 C   0  0  0  0  0  0  0  0  0  0  0  0
   -1.6193   -1.0152    0.0000 N   0  0  0  0  0  0  0  0  0  0  0  0
   -0.9049   -0.6027    0.0000 C   0  0  1  0  0  0  0  0  0  0  0  0
   -0.9049    0.2222    0.0000 C   0  0  0  0  0  0  0  0  0  0  0  0
   -0.1904    0.6347    0.0000 C   0  0  0  0  0  0  0  0  0  0  0  0
   -0.1904    1.4597    0.0000 C   0  0  0  0  0  0  0  0  0  0  0  0
    0.5240    1.8722    0.0000 C   0  0  0  0  0  0  0  0  0  0  0  0
    1.2385    1.4597    0.0000 C   0  0  0  0  0  0  0  0  0  0  0  0
    1.9529    1.8722    0.0000 O   0  0  0  0  0  0  0  0  0  0  0  0
    1.2385    0.6347    0.0000 C   0  0  0  0  0  0  0  0  0  0  0  0
    0.5240    0.2222    0.0000 C   0  0  0  0  0  0  0  0  0  0  0  0
   -0.1904   -1.8402    0.0000 O   0  0  0  0  0  0  0  0  0  0  0  0
   -2.3338   -0.6027    0.0000 C   0  0  0  0  0  0  0  0  0  0  0  0
   -3.7627   -0.6027    0.0000 N   0  0  0  0  0  0  0  0  0  0  0  0
   -3.0483   -1.0152    0.0000 C   0  0  1  0  0  0  0  0  0  0  0  0
   -3.0483   -1.8402    0.0000 C   0  0  0  0  0  0  0  0  0  0  0  0
   -3.7627   -2.2527    0.0000 C   0  0  0  0  0  0  0  0  0  0  0  0
   -2.3338   -2.2527    0.0000 C   0  0  0  0  0  0  0  0  0  0  0  0
   -2.3338    0.2222    0.0000 O   0  0  0  0  0  0  0  0  0  0  0  0
   -4.4773   -1.0152    0.0000 C   0  0  0  0  0  0  0  0  0  0  0  0
   -5.9061   -1.0152    0.0000 N   0  0  0  0  0  0  0  0  0  0  0  0
   -5.1917   -0.6027    0.0000 C   0  0  1  0  0  0  0  0  0  0  0  0
   -5.1917    0.2222    0.0000 C   0  0  0  0  0  0  0  0  0  0  0  0
   -5.9061    0.6347    0.0000 C   0  0  0  0  0  0  0  0  0  0  0  0
   -5.9061    1.4597    0.0000 C   0  0  0  0  0  0  0  0  0  0  0  0
   -6.6207    1.8722    0.0000 N   0  0  0  0  0  0  0  0  0  0  0  0
   -6.6207    2.6972    0.0000 C   0  0  0  0  0  0  0  0  0  0  0  0
   -5.9061    3.1097    0.0000 N   0  0  0  0  0  0  0  0  0  0  0  0
   -7.3352    3.1097    0.0000 N   0  0  0  0  0  0  0  0  0  0  0  0
   -4.4773   -1.8402    0.0000 O   0  0  0  0  0  0  0  0  0  0  0  0
   -6.6207   -0.6027    0.0000 C   0  0  0  0  0  0  0  0  0  0  0  0
   -7.3352   -1.8402    0.0000 N   0  0  0  0  0  0  0  0  0  0  0  0
   -7.3352   -1.0152    0.0000 C   0  0  1  0  0  0  0  0  0  0  0  0
   -8.0497   -0.6027    0.0000 C   0  0  0  0  0  0  0  0  0  0  0  0
   -8.7640   -1.0152    0.0000 C   0  0  0  0  0  0  0  0  0  0  0  0
   -8.7640   -1.8402    0.0000 O   0  0  0  0  0  0  0  0  0  0  0  0
   -9.4785   -0.6027    0.0000 N   0  0  0  0  0  0  0  0  0  0  0  0
   -6.6207    0.2222    0.0000 O   0  0  0  0  0  0  0  0  0  0  0  0
    0.6531   -2.2745    0.0000 C   0  0  0  0  0  0  0  0  0  0  0  0
  3  2  1  6  0  0  0
  1  3  1  0  0  0  0
  3  4  1  0  0  0  0
  4  5  1  0  0  0  0
  5  6  1  0  0  0  0
  6  7  2  0  0  0  0
  7  8  1  0  0  0  0
  8  9  2  0  0  0  0
  9 10  1  0  0  0  0
  5 10  2  0  0  0  0
  1 11  2  0  0  0  0
  1 12  1  0  0  0  0
 14 15  1  0  0  0  0
 15 13  1  6  0  0  0
 15 16  1  0  0  0  0
 16 17  1  0  0  0  0
 17 18  1  0  0  0  0
 14 18  1  0  0  0  0
 13 19  2  0  0  0  0
 21 22  1  0  0  0  0
 20 22  1  0  0  0  0
 22 23  1  1  0  0  0
 23 24  1  0  0  0  0
 24 25  2  0  0  0  0
 25 26  1  0  0  0  0
 26 27  1  0  0  0  0
 27 28  2  0  0  0  0
 24 28  1  0  0  0  0
 20 29  2  0  0  0  0
 32 31  1  6  0  0  0
 30 32  1  0  0  0  0
 32 33  1  0  0  0  0
 33 34  1  0  0  0  0
 30 35  2  0  0  0  0
 37 38  1  0  0  0  0
 36 38  1  0  0  0  0
 38 39  1  1  0  0  0
 39 40  1  0  0  0  0
 40 41  1  0  0  0  0
 41 42  2  0  0  0  0
 42 43  1  0  0  0  0
 43 44  1  0  0  0  0
 43 45  2  0  0  0  0
 45 46  1  0  0  0  0
 40 46  2  0  0  0  0
 36 47  2  0  0  0  0
 49 50  1  0  0  0  0
 48 50  1  0  0  0  0
 50 51  1  6  0  0  0
 51 52  1  0  0  0  0
 51 53  1  0  0  0  0
 48 54  2  0  0  0  0
 56 57  1  0  0  0  0
 55 57  1  0  0  0  0
 57 58  1  1  0  0  0
 58 59  1  0  0  0  0
 59 60  1  0  0  0  0
 60 61  1  0  0  0  0
 61 62  1  0  0  0  0
 62 63  2  0  0  0  0
 62 64  1  0  0  0  0
 55 65  2  0  0  0  0
 68 67  1  1  0  0  0
 66 68  1  0  0  0  0
 68 69  1  0  0  0  0
 69 70  1  0  0  0  0
 70 71  2  0  0  0  0
 70 72  1  0  0  0  0
 66 73  2  0  0  0  0
 56 66  1  0  0  0  0
 49 55  1  0  0  0  0
 37 48  1  0  0  0  0
 31 36  1  0  0  0  0
 21 30  1  0  0  0  0
 14 20  1  0  0  0  0
  2 13  1  0  0  0  0
 33 74  1  0  0  0  0
M  END
> <DATABASE_ID>
DB13517

> <DATABASE_NAME>
drugbank

> <SMILES>
CC(C)[C@H](NC(=O)[C@H](CCCNC(N)=N)NC(=O)[C@@H](N)CC(N)=O)C(=O)N[C@@H](CC1=CC=C(O)C=C1)C(=O)N[C@@H](C(C)C)C(=O)N[C@@H](CC1=CNC=N1)C(=O)N1CCC[C@H]1C(=O)N[C@@H](CC1=CC=CC=C1)C(O)=O

> <INCHI_IDENTIFIER>
InChI=1S/C49H70N14O11/c1-26(2)39(61-42(67)33(12-8-18-55-49(52)53)57-41(66)32(50)23-38(51)65)45(70)58-34(20-29-14-16-31(64)17-15-29)43(68)62-40(27(3)4)46(71)59-35(22-30-24-54-25-56-30)47(72)63-19-9-13-37(63)44(69)60-36(48(73)74)21-28-10-6-5-7-11-28/h5-7,10-11,14-17,24-27,32-37,39-40,64H,8-9,12-13,18-23,50H2,1-4H3,(H2,51,65)(H,54,56)(H,57,66)(H,58,70)(H,59,71)(H,60,69)(H,61,67)(H,62,68)(H,73,74)(H4,52,53,55)/t32-,33-,34-,35-,36-,37-,39-,40-/m0/s1

> <INCHI_KEY>
JYPVVOOBQVVUQV-CGHBYZBKSA-N

> <FORMULA>
C49H70N14O11

> <MOLECULAR_WEIGHT>
1031.186

> <EXACT_MASS>
1030.53484913

> <JCHEM_ACCEPTOR_COUNT>
16

> <JCHEM_ATOM_COUNT>
144

> <JCHEM_AVERAGE_NEUTRAL_MICROSPECIES_CHARGE>
0.7149335823890812

> <JCHEM_AVERAGE_POLARIZABILITY>
108.06739777962403

> <JCHEM_BIOAVAILABILITY>
0

> <JCHEM_DONOR_COUNT>
14

> <JCHEM_FORMAL_CHARGE>
0

> <JCHEM_GHOSE_FILTER>
0

> <JCHEM_IUPAC>
(2S)-2-{[(2S)-1-[(2S)-2-[(2S)-2-[(2S)-2-[(2S)-2-[(2S)-2-[(2S)-2-amino-3-carbamoylpropanamido]-5-carbamimidamidopentanamido]-3-methylbutanamido]-3-(4-hydroxyphenyl)propanamido]-3-methylbutanamido]-3-(1H-imidazol-4-yl)propanoyl]pyrrolidin-2-yl]formamido}-3-phenylpropanoic acid

> <ALOGPS_LOGP>
-1.20

> <JCHEM_LOGP>
-3.7837019187108654

> <ALOGPS_LOGS>
-4.79

> <JCHEM_MDDR_LIKE_RULE>
1

> <JCHEM_NEUTRAL_CHARGE>
1

> <JCHEM_NUMBER_OF_RINGS>
4

> <JCHEM_PHYSIOLOGICAL_CHARGE>
0

> <JCHEM_PKA>
9.502881987823836

> <JCHEM_PKA_STRONGEST_ACIDIC>
3.4196170931221888

> <JCHEM_PKA_STRONGEST_BASIC>
11.704627831606267

> <JCHEM_POLAR_SURFACE_AREA>
412.12999999999994

> <JCHEM_REFRACTIVITY>
276.75770000000006

> <JCHEM_ROTATABLE_BOND_COUNT>
28

> <JCHEM_RULE_OF_FIVE>
0

> <ALOGPS_SOLUBILITY>
1.69e-02 g/l

> <JCHEM_TRADITIONAL_IUPAC>
motesanib

> <JCHEM_VEBER_RULE>
0

> <DRUGBANK_ID>
DB13517

> <DRUG_GROUPS>
experimental

> <GENERIC_NAME>
Angiotensinamide

> <SYNONYMS>
Angiotensin amide; Angiotensinamida; Angiotensinamide; Angiotensinamidum

$$$$
