
     RDKit          3D

 46 47  0  0  0  0  0  0  0  0999 V2000
   -5.2810   -3.7673    0.6381 C   0  0  0  0  0  0  0  0  0  0  0  0
   -4.9207   -3.8839    1.0625 C   0  0  0  0  0  0  0  0  0  0  0  0
   -3.9533   -4.8007    0.3853 C   0  0  0  0  0  0  0  0  0  0  0  0
   -5.8101   -4.4606    2.0508 C   0  0  0  0  0  0  0  0  0  0  0  0
   -4.3855   -2.6100    1.3480 O   0  0  0  0  0  0  0  0  0  0  0  0
   -3.2738   -2.1064    0.7085 C   0  0  0  0  0  0  0  0  0  0  0  0
   -2.4035   -2.9188    0.3667 O   0  0  0  0  0  0  0  0  0  0  0  0
   -3.0900   -0.7465    0.2952 N   0  0  0  0  0  0  0  0  0  0  0  0
   -2.7609   -0.5792   -1.2433 C   0  0  1  0  0  0  0  0  0  0  0  0
   -4.1756    0.1536   -1.6576 C   0  0  0  0  0  0  0  0  0  0  0  0
   -5.1156    0.0319   -0.5637 C   0  0  0  0  0  0  0  0  0  0  0  0
   -6.2326   -0.5307   -0.7396 O   0  0  0  0  0  0  0  0  0  0  0  0
   -4.9537    0.8869    0.5312 O   0  0  0  0  0  0  0  0  0  0  0  0
   -6.0986    1.4627    1.1584 C   0  0  0  0  0  0  0  0  0  0  0  0
   -6.5232    2.6699    0.3991 C   0  0  0  0  0  0  0  0  0  0  0  0
   -7.7139    2.5631   -0.3082 C   0  0  0  0  0  0  0  0  0  0  0  0
   -8.0253    3.5980   -1.1408 C   0  0  0  0  0  0  0  0  0  0  0  0
   -7.1824    4.6762   -1.2685 C   0  0  0  0  0  0  0  0  0  0  0  0
   -5.8401    4.4479   -1.0574 C   0  0  0  0  0  0  0  0  0  0  0  0
   -5.5110    3.3863   -0.2280 C   0  0  0  0  0  0  0  0  0  0  0  0
   -2.0085    0.8397   -1.0389 C   0  0  0  0  0  0  0  0  0  0  0  0
   -1.8522    1.4469   -2.1439 O   0  0  0  0  0  0  0  0  0  0  0  0
   -0.8836    0.8859   -0.1988 N   0  0  0  0  0  0  0  0  0  0  0  0
    0.5201    0.5413   -0.8407 C   0  0  1  0  0  0  0  0  0  0  0  0
    1.2809    1.8750   -0.2477 C   0  0  0  0  0  0  0  0  0  0  0  0
    2.6858    1.7432   -0.8429 C   0  0  0  0  0  0  0  0  0  0  0  0
    3.4263    0.5572   -0.2803 C   0  0  0  0  0  0  0  0  0  0  0  0
    4.1173    0.9796    0.9929 C   0  0  0  0  0  0  0  0  0  0  0  0
    5.2194    1.8776    0.6550 N   0  0  0  0  0  0  0  0  0  0  0  0
    6.0658    1.4232   -0.3805 C   0  0  0  0  0  0  0  0  0  0  0  0
    6.0776    0.1909   -0.6789 O   0  0  0  0  0  0  0  0  0  0  0  0
    6.9886    2.3171   -0.9095 O   0  0  0  0  0  0  0  0  0  0  0  0
    8.1050    1.8427   -1.6283 C   0  0  0  0  0  0  0  0  0  0  0  0
    8.7922    0.7864   -0.8688 C   0  0  0  0  0  0  0  0  0  0  0  0
    9.2207   -0.3473   -1.4956 C   0  0  0  0  0  0  0  0  0  0  0  0
   10.1658   -1.2159   -0.9686 C   0  0  0  0  0  0  0  0  0  0  0  0
   10.6710   -0.8652    0.2581 C   0  0  0  0  0  0  0  0  0  0  0  0
   10.2126    0.2085    0.9794 C   0  0  0  0  0  0  0  0  0  0  0  0
    9.3497    1.0978    0.3640 C   0  0  0  0  0  0  0  0  0  0  0  0
    0.9693   -0.3852    0.4100 C   0  0  0  0  0  0  0  0  0  0  0  0
    0.6840    0.0736    1.5367 O   0  0  0  0  0  0  0  0  0  0  0  0
    0.5743   -1.6952    0.0927 O   0  0  0  0  0  0  0  0  0  0  0  0
    0.6964   -2.6313    1.1350 C   0  0  0  0  0  0  0  0  0  0  0  0
    0.3786   -2.0380    2.4690 C   0  0  0  0  0  0  0  0  0  0  0  0
   -0.2990   -3.7515    0.8590 C   0  0  0  0  0  0  0  0  0  0  0  0
    2.0929   -3.2294    1.1250 C   0  0  0  0  0  0  0  0  0  0  0  0
  1  2  1  0
  2  3  1  0
  2  4  1  0
  2  5  1  0
  5  6  1  0
  6  7  2  0
  6  8  1  0
  9  8  1  1
  9 10  1  0
 10 11  1  0
 11 12  2  0
 11 13  1  0
 13 14  1  0
 14 15  1  0
 15 16  2  0
 16 17  1  0
 17 18  2  0
 18 19  1  0
 19 20  2  0
  9 21  1  0
 21 22  2  0
 21 23  1  0
 24 23  1  1
 24 25  1  0
 25 26  1  0
 26 27  1  0
 27 28  1  0
 28 29  1  0
 29 30  1  0
 30 31  2  0
 30 32  1  0
 32 33  1  0
 33 34  1  0
 34 35  2  0
 35 36  1  0
 36 37  2  0
 37 38  1  0
 38 39  2  0
 24 40  1  0
 40 41  2  0
 40 42  1  0
 42 43  1  0
 43 44  1  0
 43 45  1  0
 43 46  1  0
 20 15  1  0
 39 34  1  0
M  END
>  <zinc_id>  (1) 
ZINC000043552569

>  <smiles>  (1) 
CC(C)(C)OC(=O)N[C@@H](CC(=O)OCc1ccccc1)C(=O)N[C@@H](CCCCNC(=O)OCc1ccccc1)C(=O)OC(C)(C)C

$$$$
