
     RDKit          3D

 67 68  0  0  0  0  0  0  0  0999 V2000
  -10.4317    4.9233   -0.6317 O   0  0  0  0  0  0  0  0  0  0  0  0
  -11.1223    4.4794   -0.0753 C   0  0  0  0  0  0  0  0  0  0  0  0
  -12.4866    4.6964   -0.2784 O   0  0  0  0  0  0  0  0  0  0  0  0
  -10.7667    3.5762    1.0628 C   0  0  0  0  0  0  0  0  0  0  0  0
  -11.8660    2.5702    1.2689 C   0  0  0  0  0  0  0  0  0  0  0  0
  -11.7386    1.4894    0.2751 C   0  0  0  0  0  0  0  0  0  0  0  0
  -12.7345    1.3148   -0.6730 C   0  0  0  0  0  0  0  0  0  0  0  0
  -12.4097    0.5528   -1.7721 C   0  0  0  0  0  0  0  0  0  0  0  0
  -11.3357   -0.3007   -1.7469 C   0  0  0  0  0  0  0  0  0  0  0  0
  -11.2182   -1.2369   -2.7509 O   0  0  0  0  0  0  0  0  0  0  0  0
  -10.5221   -0.3764   -0.6288 C   0  0  0  0  0  0  0  0  0  0  0  0
   -9.6899   -1.5575   -0.3306 C   0  0  0  0  0  0  0  0  0  0  0  0
   -8.9854   -2.0134   -1.4990 N   0  0  0  0  0  0  0  0  0  0  0  0
   -8.1746   -0.9952   -2.1169 C   0  0  0  0  0  0  0  0  0  0  0  0
   -7.9148    0.1646   -1.1628 C   0  0  0  0  0  0  0  0  0  0  0  0
   -6.7209    0.8488   -1.6315 N   0  0  0  0  0  0  0  0  0  0  0  0
   -6.3152    1.9115   -0.7458 C   0  0  0  0  0  0  0  0  0  0  0  0
   -7.4467    2.7522   -0.2928 C   0  0  0  0  0  0  0  0  0  0  0  0
   -7.8584    3.7484   -0.9615 O   0  0  0  0  0  0  0  0  0  0  0  0
   -8.1689    2.2982    0.8072 O   0  0  0  0  0  0  0  0  0  0  0  0
   -5.6896   -0.1746   -1.6931 C   0  0  0  0  0  0  0  0  0  0  0  0
   -5.0132   -0.3518   -0.3702 C   0  0  0  0  0  0  0  0  0  0  0  0
   -4.0192    0.5678   -0.0562 C   0  0  0  0  0  0  0  0  0  0  0  0
   -3.0524    0.2886    0.9032 C   0  0  0  0  0  0  0  0  0  0  0  0
   -1.6924    0.9110    0.8473 C   0  0  0  0  0  0  0  0  0  0  0  0
   -1.1113    0.5103   -0.5047 C   0  0  0  0  0  0  0  0  0  0  0  0
    0.0263   -0.4138   -0.2337 C   0  0  0  0  0  0  0  0  0  0  0  0
   -0.1934   -1.2830    0.6641 O   0  0  0  0  0  0  0  0  0  0  0  0
    1.3729   -0.1229   -0.5500 N   0  0  0  0  0  0  0  0  0  0  0  0
    2.4420   -0.2716    0.4365 C   0  0  0  0  0  0  0  0  0  0  0  0
    2.2592   -1.5778    1.1490 C   0  0  0  0  0  0  0  0  0  0  0  0
    3.0116   -2.6401    0.3840 C   0  0  0  0  0  0  0  0  0  0  0  0
    2.7736   -2.5819   -1.0968 C   0  0  0  0  0  0  0  0  0  0  0  0
    3.8774   -1.8309   -1.8322 C   0  0  0  0  0  0  0  0  0  0  0  0
    5.1241   -2.1066   -1.0494 C   0  0  0  0  0  0  0  0  0  0  0  0
    5.3187   -3.2472   -0.5306 O   0  0  0  0  0  0  0  0  0  0  0  0
    5.9959   -1.0562   -0.6216 N   0  0  0  0  0  0  0  0  0  0  0  0
    6.4676   -1.0706    0.7615 C   0  0  0  0  0  0  0  0  0  0  0  0
    6.7502    0.3398    1.2102 C   0  0  0  0  0  0  0  0  0  0  0  0
    7.8040    0.3232    2.2884 C   0  0  0  0  0  0  0  0  0  0  0  0
    8.7279   -0.8524    2.1897 C   0  0  0  0  0  0  0  0  0  0  0  0
    9.1904   -0.8809    0.5777 C   0  0  2  0  0  0  0  0  0  0  0  0
   10.6627   -1.3863    0.9721 N   0  0  0  0  0  0  0  0  0  0  0  0
   11.6574   -0.9550    0.0543 C   0  0  0  0  0  0  0  0  0  0  0  0
   11.3841   -0.3809   -1.0312 O   0  0  0  0  0  0  0  0  0  0  0  0
   13.0640   -1.0881    0.3018 N   0  0  0  0  0  0  0  0  0  0  0  0
   13.7969    0.3430    0.2987 C   0  0  1  0  0  0  0  0  0  0  0  0
   15.2748   -0.3500   -0.0954 C   0  0  0  0  0  0  0  0  0  0  0  0
   15.9945    0.9298   -0.5131 C   0  0  0  0  0  0  0  0  0  0  0  0
   15.8979    1.9680    0.5606 C   0  0  0  0  0  0  0  0  0  0  0  0
   16.5842    1.7566    1.6059 O   0  0  0  0  0  0  0  0  0  0  0  0
   15.6724    3.3160    0.2644 O   0  0  0  0  0  0  0  0  0  0  0  0
   13.3489    0.6229   -1.2552 C   0  0  0  0  0  0  0  0  0  0  0  0
   13.9772    0.0801   -2.1464 O   0  0  0  0  0  0  0  0  0  0  0  0
   13.0003    1.9769   -1.3364 O   0  0  0  0  0  0  0  0  0  0  0  0
    9.6222    0.7026    0.6087 C   0  0  0  0  0  0  0  0  0  0  0  0
    9.2080    1.3598   -0.3597 O   0  0  0  0  0  0  0  0  0  0  0  0
   10.4083    1.1062    1.6297 O   0  0  0  0  0  0  0  0  0  0  0  0
   -3.2608   -0.8534    1.6500 C   0  0  0  0  0  0  0  0  0  0  0  0
   -4.1993   -1.8149    1.2964 C   0  0  0  0  0  0  0  0  0  0  0  0
   -4.9079   -1.6496    0.1129 C   0  0  0  0  0  0  0  0  0  0  0  0
   -5.2482   -2.7569   -0.6674 O   0  0  0  0  0  0  0  0  0  0  0  0
   -8.2526   -3.2222   -1.2524 C   0  0  0  0  0  0  0  0  0  0  0  0
   -8.3289   -3.7041    0.1400 C   0  0  0  0  0  0  0  0  0  0  0  0
   -7.7373   -3.0529    1.0213 O   0  0  0  0  0  0  0  0  0  0  0  0
   -9.2188   -4.7135    0.4404 O   0  0  0  0  0  0  0  0  0  0  0  0
  -10.8632    0.4414    0.4366 C   0  0  0  0  0  0  0  0  0  0  0  0
  1  2  2  0
  2  3  1  0
  2  4  1  0
  4  5  1  0
  5  6  1  0
  6  7  2  0
  7  8  1  0
  8  9  2  0
  9 10  1  0
  9 11  1  0
 11 12  1  0
 12 13  1  0
 13 14  1  0
 14 15  1  0
 15 16  1  0
 16 17  1  0
 17 18  1  0
 18 19  2  0
 18 20  1  0
 16 21  1  0
 21 22  1  0
 22 23  2  0
 23 24  1  0
 24 25  1  0
 25 26  1  0
 26 27  1  0
 27 28  2  0
 27 29  1  0
 29 30  1  0
 30 31  1  0
 31 32  1  0
 32 33  1  0
 33 34  1  0
 34 35  1  0
 35 36  2  0
 35 37  1  0
 37 38  1  0
 38 39  1  0
 39 40  1  0
 40 41  1  0
 42 41  1  1
 42 43  1  0
 43 44  1  0
 44 45  2  0
 44 46  1  0
 47 46  1  6
 47 48  1  0
 48 49  1  0
 49 50  1  0
 50 51  2  0
 50 52  1  0
 47 53  1  0
 53 54  2  0
 53 55  1  0
 42 56  1  0
 56 57  2  0
 56 58  1  0
 24 59  2  0
 59 60  1  0
 60 61  2  0
 61 62  1  0
 13 63  1  0
 63 64  1  0
 64 65  2  0
 64 66  1  0
 11 67  2  0
 67  6  1  0
 61 22  1  0
M  END
>  <zinc_id>  (1) 
ZINC000203341463

>  <smiles>  (1) 
O=C(O)CCc1ccc(O)c(CN(CCN(CC(=O)O)Cc2cc(CCC(=O)NCCCCCC(=O)NCCCC[C@H](NC(=O)N[C@@H](CCC(=O)O)C(=O)O)C(=O)O)ccc2O)CC(=O)O)c1

$$$$
