
     RDKit          3D

 39 41  0  0  0  0  0  0  0  0999 V2000
   -1.7234    6.7755   -0.1437 C   0  0  0  0  0  0  0  0  0  0  0  0
   -1.7555    6.5179   -0.2848 C   0  0  0  0  0  0  0  0  0  0  0  0
   -1.6208    5.1652   -0.9132 C   0  0  0  0  0  0  0  0  0  0  0  0
   -1.9849    4.9651   -2.0905 O   0  0  0  0  0  0  0  0  0  0  0  0
   -0.8808    4.1946   -0.2578 O   0  0  0  0  0  0  0  0  0  0  0  0
   -1.2936    2.7355   -0.6038 C   0  0  1  0  0  0  0  0  0  0  0  0
   -0.1739    2.1797    0.2762 O   0  0  0  0  0  0  0  0  0  0  0  0
   -0.6948    0.7310    0.9086 P   0  0  1  0  0  0  0  0  0  0  0  0
   -1.4715    0.8905    2.2095 O   0  0  0  0  0  0  0  0  0  0  0  0
   -1.6006   -0.2886   -0.2662 C   0  0  0  0  0  0  0  0  0  0  0  0
   -1.6322   -1.7411    0.1370 C   0  0  0  0  0  0  0  0  0  0  0  0
   -3.0167   -2.1275    0.5626 C   0  0  0  0  0  0  0  0  0  0  0  0
   -4.0096   -1.3532   -0.2796 C   0  0  0  0  0  0  0  0  0  0  0  0
   -5.2693   -2.1402   -0.4196 C   0  0  0  0  0  0  0  0  0  0  0  0
   -6.4556   -1.4216   -0.3636 C   0  0  0  0  0  0  0  0  0  0  0  0
   -7.6406   -2.0827   -0.0805 C   0  0  0  0  0  0  0  0  0  0  0  0
   -7.6056   -3.3503    0.4552 C   0  0  0  0  0  0  0  0  0  0  0  0
   -6.4588   -4.0920    0.3560 C   0  0  0  0  0  0  0  0  0  0  0  0
   -5.2977   -3.4602   -0.0245 C   0  0  0  0  0  0  0  0  0  0  0  0
    0.8220   -0.1002    1.5041 C   0  0  0  0  0  0  0  0  0  0  0  0
    1.7787   -0.3354    0.3982 C   0  0  0  0  0  0  0  0  0  0  0  0
    1.2890   -1.0713   -0.5150 O   0  0  0  0  0  0  0  0  0  0  0  0
    3.1623   -0.3194    0.7121 N   0  0  0  0  0  0  0  0  0  0  0  0
    3.8570   -1.5991    0.8043 C   0  0  0  0  0  0  0  0  0  0  0  0
    3.7241   -2.1578   -0.7202 C   0  0  2  0  0  0  0  0  0  0  0  0
    5.3242   -2.2060   -1.0176 C   0  0  0  0  0  0  0  0  0  0  0  0
    6.0965   -2.2894    0.2240 C   0  0  0  0  0  0  0  0  0  0  0  0
    5.9520   -3.6594    0.8777 C   0  0  0  0  0  0  0  0  0  0  0  0
    6.8813   -4.5491    0.0582 C   0  0  0  0  0  0  0  0  0  0  0  0
    6.7928   -4.1805   -1.4163 C   0  0  0  0  0  0  0  0  0  0  0  0
    5.4786   -3.5269   -1.7647 C   0  0  0  0  0  0  0  0  0  0  0  0
    3.5931   -0.7055   -1.4556 C   0  0  0  0  0  0  0  0  0  0  0  0
    4.2752    0.1991   -0.2746 C   0  0  1  0  0  0  0  0  0  0  0  0
    3.4867    1.5530   -0.6414 C   0  0  0  0  0  0  0  0  0  0  0  0
    4.2565    2.5215   -0.7901 O   0  0  0  0  0  0  0  0  0  0  0  0
    2.2907    1.5322   -1.2414 O   0  0  0  0  0  0  0  0  0  0  0  0
   -2.3889    2.6165    0.6298 C   0  0  0  0  0  0  0  0  0  0  0  0
   -3.7123    2.4168   -0.0696 C   0  0  0  0  0  0  0  0  0  0  0  0
   -2.3737    3.7632    1.5078 C   0  0  0  0  0  0  0  0  0  0  0  0
  1  2  1  0
  2  3  1  0
  3  4  2  0
  3  5  1  0
  6  5  1  1
  6  7  1  0
  8  7  1  6
  8  9  2  0
  8 10  1  0
 10 11  1  0
 11 12  1  0
 12 13  1  0
 13 14  1  0
 14 15  2  0
 15 16  1  0
 16 17  2  0
 17 18  1  0
 18 19  2  0
  8 20  1  0
 20 21  1  0
 21 22  2  0
 21 23  1  0
 23 24  1  0
 24 25  1  0
 25 26  1  6
 26 27  1  0
 27 28  1  0
 28 29  1  0
 29 30  1  0
 30 31  1  0
 25 32  1  0
 32 33  1  0
 33 34  1  6
 34 35  2  0
 34 36  1  0
  6 37  1  0
 37 38  1  0
 37 39  1  0
 19 14  1  0
 33 23  1  0
 31 26  1  0
M  END
>  <zinc_id>  (1) 
ZINC000003920355

>  <smiles>  (1) 
CCC(=O)O[C@@H](O[P@@](=O)(CCCCc1ccccc1)CC(=O)N1C[C@H](C2CCCCC2)C[C@H]1C(=O)O)C(C)C

$$$$
