
     RDKit          3D

 33 33  0  0  0  0  0  0  0  0999 V2000
   -2.7901   -3.8863    1.7866 C   0  0  0  0  0  0  0  0  0  0  0  0
   -3.1276   -3.6710    3.2502 C   0  0  0  0  0  0  0  0  0  0  0  0
   -3.6815   -2.3347    3.3980 N   0  0  0  0  0  0  0  0  0  0  0  0
   -3.5087   -1.3274    2.3936 C   0  0  0  0  0  0  0  0  0  0  0  0
   -4.5883   -0.9155    1.6930 N   0  0  0  0  0  0  0  0  0  0  0  0
   -4.4831   -0.4383    0.4414 C   0  0  0  0  0  0  0  0  0  0  0  0
   -5.6062   -0.0062   -0.3073 N   0  0  0  0  0  0  0  0  0  0  0  0
   -6.2862   -0.9295   -1.2028 C   0  0  0  0  0  0  0  0  0  0  0  0
   -6.6048   -0.2281   -2.5053 C   0  0  0  0  0  0  0  0  0  0  0  0
   -5.4806   -2.1793   -1.4264 C   0  0  0  0  0  0  0  0  0  0  0  0
   -3.2620   -0.1645   -0.0338 N   0  0  0  0  0  0  0  0  0  0  0  0
   -2.2117   -0.7616    0.5496 C   0  0  0  0  0  0  0  0  0  0  0  0
   -0.5656   -0.7321   -0.1470 S   0  0  0  0  0  0  0  0  0  0  0  0
    0.0101    1.0011   -0.0781 C   0  0  0  0  0  0  0  0  0  0  0  0
    1.0361    1.0042   -1.4056 C   0  0  2  0  0  0  0  0  0  0  0  0
    2.1917    0.2151   -0.6280 N   0  0  0  0  0  0  0  0  0  0  0  0
    2.5055    0.6324    0.6532 C   0  0  0  0  0  0  0  0  0  0  0  0
    2.4741    1.8825    0.8671 O   0  0  0  0  0  0  0  0  0  0  0  0
    3.4033   -0.1536    1.5172 C   0  0  0  0  0  0  0  0  0  0  0  0
    3.6009   -1.5735    1.0489 C   0  0  0  0  0  0  0  0  0  0  0  0
    5.0916   -1.8998    1.7430 C   0  0  2  0  0  0  0  0  0  0  0  0
    5.7583   -0.6792    0.9391 N   0  0  0  0  0  0  0  0  0  0  0  0
    5.4358   -3.0244    0.5960 C   0  0  0  0  0  0  0  0  0  0  0  0
    5.4826   -4.1325    1.2217 O   0  0  0  0  0  0  0  0  0  0  0  0
    6.5100   -2.7871   -0.2085 O   0  0  0  0  0  0  0  0  0  0  0  0
    1.6635    2.4795   -1.0224 C   0  0  0  0  0  0  0  0  0  0  0  0
    0.7272    3.3373   -0.9169 O   0  0  0  0  0  0  0  0  0  0  0  0
    2.5699    2.8198   -2.0889 N   0  0  0  0  0  0  0  0  0  0  0  0
    2.6887    4.1920   -2.5890 C   0  0  0  0  0  0  0  0  0  0  0  0
    1.3760    4.7524   -2.9542 C   0  0  0  0  0  0  0  0  0  0  0  0
    1.0257    4.6470   -4.1649 O   0  0  0  0  0  0  0  0  0  0  0  0
    0.9363    5.8976   -2.2945 O   0  0  0  0  0  0  0  0  0  0  0  0
   -2.2911   -1.0366    1.8749 N   0  0  0  0  0  0  0  0  0  0  0  0
  1  2  1  0
  2  3  1  0
  3  4  1  0
  4  5  2  0
  5  6  1  0
  6  7  1  0
  7  8  1  0
  8  9  1  0
  8 10  1  0
  6 11  2  0
 11 12  1  0
 12 13  1  0
 13 14  1  0
 15 14  1  1
 15 16  1  0
 16 17  1  0
 17 18  2  0
 17 19  1  0
 19 20  1  0
 21 20  1  6
 21 22  1  0
 21 23  1  0
 23 24  2  0
 23 25  1  0
 15 26  1  0
 26 27  2  0
 26 28  1  0
 28 29  1  0
 29 30  1  0
 30 31  2  0
 30 32  1  0
 12 33  2  0
 33  4  1  0
M  END
>  <zinc_id>  (1) 
ZINC000012501645

>  <smiles>  (1) 
CCNc1nc(NC(C)C)nc(SC[C@H](NC(=O)CC[C@H](N)C(=O)O)C(=O)NCC(=O)O)n1

$$$$
