
     RDKit          3D

 28 27  0  0  0  0  0  0  0  0999 V2000
    7.4179    1.3552   -0.1189 C   0  0  0  0  0  0  0  0  0  0  0  0
    7.1335    1.9095   -0.2946 C   0  0  0  0  0  0  0  0  0  0  0  0
    6.8484    2.8272    0.8647 C   0  0  0  0  0  0  0  0  0  0  0  0
    5.4407    2.9676    1.2517 C   0  0  0  0  0  0  0  0  0  0  0  0
    4.5026    1.8580    1.0378 C   0  0  0  0  0  0  0  0  0  0  0  0
    4.5611    1.0918   -0.2111 C   0  0  0  0  0  0  0  0  0  0  0  0
    3.4254    1.0665   -1.1128 C   0  0  0  0  0  0  0  0  0  0  0  0
    2.5476   -0.1000   -1.1886 C   0  0  0  0  0  0  0  0  0  0  0  0
    2.2188   -1.0285    0.2757 S   0  0  0  0  0  0  0  0  0  0  0  0
    0.5509   -0.8341    0.9427 C   0  0  0  0  0  0  0  0  0  0  0  0
   -0.4169   -0.4530   -0.3326 C   0  0  2  0  0  0  0  0  0  0  0  0
   -1.6816   -0.2674    0.5929 N   0  0  0  0  0  0  0  0  0  0  0  0
   -2.9095   -0.1539   -0.1027 C   0  0  0  0  0  0  0  0  0  0  0  0
   -3.0874   -0.6868   -1.2404 O   0  0  0  0  0  0  0  0  0  0  0  0
   -3.9005    0.9011    0.2830 C   0  0  0  0  0  0  0  0  0  0  0  0
   -3.9911    1.8678   -0.8364 C   0  0  0  0  0  0  0  0  0  0  0  0
   -3.6469    3.3627   -0.2396 C   0  0  2  0  0  0  0  0  0  0  0  0
   -2.4227    2.8355    0.6074 N   0  0  0  0  0  0  0  0  0  0  0  0
   -4.7274    3.2239    0.9443 C   0  0  0  0  0  0  0  0  0  0  0  0
   -5.7903    3.8504    0.6687 O   0  0  0  0  0  0  0  0  0  0  0  0
   -4.4614    2.6164    2.0918 O   0  0  0  0  0  0  0  0  0  0  0  0
   -0.7273   -1.9991   -0.6571 C   0  0  0  0  0  0  0  0  0  0  0  0
   -0.5271   -2.3250   -1.8520 O   0  0  0  0  0  0  0  0  0  0  0  0
   -1.2589   -2.8351    0.2972 N   0  0  0  0  0  0  0  0  0  0  0  0
   -1.8078   -4.1006   -0.1971 C   0  0  0  0  0  0  0  0  0  0  0  0
   -1.2743   -5.2598    0.5418 C   0  0  0  0  0  0  0  0  0  0  0  0
   -0.1856   -5.1924    1.1455 O   0  0  0  0  0  0  0  0  0  0  0  0
   -1.8302   -6.4977    0.2998 O   0  0  0  0  0  0  0  0  0  0  0  0
  1  2  1  0
  2  3  1  0
  3  4  1  0
  4  5  1  0
  5  6  1  0
  6  7  1  0
  7  8  1  0
  8  9  1  0
  9 10  1  0
 11 10  1  1
 11 12  1  0
 12 13  1  0
 13 14  2  0
 13 15  1  0
 15 16  1  0
 17 16  1  6
 17 18  1  0
 17 19  1  0
 19 20  2  0
 19 21  1  0
 11 22  1  0
 22 23  2  0
 22 24  1  0
 24 25  1  0
 25 26  1  0
 26 27  2  0
 26 28  1  0
M  END
>  <zinc_id>  (1) 
ZINC000008234408

>  <smiles>  (1) 
CCCCCCCCSC[C@H](NC(=O)CC[C@H](N)C(=O)O)C(=O)NCC(=O)O

$$$$
