
     RDKit          3D

 40 41  0  0  0  0  0  0  0  0999 V2000
    0.4404   -2.6986   -0.6127 C   0  0  0  0  0  0  0  0  0  0  0  0
   -0.6373   -1.8021   -0.0816 C   0  0  0  0  0  0  0  0  0  0  0  0
   -1.8413   -1.8633   -1.0049 C   0  0  0  0  0  0  0  0  0  0  0  0
   -0.0600   -0.2774   -0.4290 C   0  0  2  0  0  0  0  0  0  0  0  0
    0.6158   -0.1255    1.0125 N   0  0  0  0  0  0  0  0  0  0  0  0
    1.5082    0.9627    1.1187 C   0  0  0  0  0  0  0  0  0  0  0  0
    1.0721    2.0709    0.6786 O   0  0  0  0  0  0  0  0  0  0  0  0
    2.9686    0.8683    1.1923 C   0  0  0  0  0  0  0  0  0  0  0  0
    3.7756    1.3354    0.1580 C   0  0  0  0  0  0  0  0  0  0  0  0
    4.8278    0.5185   -0.2059 C   0  0  0  0  0  0  0  0  0  0  0  0
    5.5396   -0.0894    0.8193 C   0  0  0  0  0  0  0  0  0  0  0  0
    6.8087   -0.7551    0.5032 C   0  0  0  0  0  0  0  0  0  0  0  0
    6.9541   -1.9991    0.6862 O   0  0  0  0  0  0  0  0  0  0  0  0
    7.6741   -0.1631   -0.4656 N   0  0  0  0  0  0  0  0  0  0  0  0
    8.5943   -0.9712   -1.2366 C   0  0  0  0  0  0  0  0  0  0  0  0
    9.9594   -1.0012   -0.6234 C   0  0  0  0  0  0  0  0  0  0  0  0
   10.2137   -2.0493    0.0259 O   0  0  0  0  0  0  0  0  0  0  0  0
   10.4390    0.2283   -0.1719 O   0  0  0  0  0  0  0  0  0  0  0  0
    4.9752   -0.1598    2.0861 C   0  0  0  0  0  0  0  0  0  0  0  0
    3.6425    0.1925    2.1858 C   0  0  0  0  0  0  0  0  0  0  0  0
   -1.4454    0.4546    0.0333 C   0  0  0  0  0  0  0  0  0  0  0  0
   -1.9386    0.0565    1.0888 O   0  0  0  0  0  0  0  0  0  0  0  0
   -2.1897    0.9929   -1.0700 N   0  0  0  0  0  0  0  0  0  0  0  0
   -1.6187    1.2424   -2.3935 C   0  0  0  0  0  0  0  0  0  0  0  0
   -2.6583    1.9660   -3.1753 C   0  0  0  0  0  0  0  0  0  0  0  0
   -3.7959    2.2342   -2.2373 C   0  0  0  0  0  0  0  0  0  0  0  0
   -2.8272    2.4464   -0.8947 C   0  0  1  0  0  0  0  0  0  0  0  0
   -3.9589    1.8992    0.1381 C   0  0  0  0  0  0  0  0  0  0  0  0
   -3.9559    2.6147    1.1488 O   0  0  0  0  0  0  0  0  0  0  0  0
   -4.8048    0.8773   -0.2367 N   0  0  0  0  0  0  0  0  0  0  0  0
   -5.9040    0.7773    0.9199 C   0  0  2  0  0  0  0  0  0  0  0  0
   -5.9431   -0.8600    0.9067 C   0  0  0  0  0  0  0  0  0  0  0  0
   -6.6995   -1.1569    1.8343 O   0  0  0  0  0  0  0  0  0  0  0  0
   -4.6290   -1.5223    0.8708 C   0  0  0  0  0  0  0  0  0  0  0  0
   -4.2960   -1.7362   -0.4535 F   0  0  0  0  0  0  0  0  0  0  0  0
   -3.6558   -0.8750    1.5832 F   0  0  0  0  0  0  0  0  0  0  0  0
   -4.8083   -2.7907    1.3919 F   0  0  0  0  0  0  0  0  0  0  0  0
   -7.1591    0.8730   -0.1700 C   0  0  0  0  0  0  0  0  0  0  0  0
   -8.3471    0.3860    0.6421 C   0  0  0  0  0  0  0  0  0  0  0  0
   -6.8353   -0.1008   -1.2552 C   0  0  0  0  0  0  0  0  0  0  0  0
  1  2  1  0
  2  3  1  0
  4  2  1  1
  4  5  1  0
  5  6  1  0
  6  7  2  0
  6  8  1  0
  8  9  2  0
  9 10  1  0
 10 11  2  0
 11 12  1  0
 12 13  2  0
 12 14  1  0
 14 15  1  0
 15 16  1  0
 16 17  2  0
 16 18  1  0
 11 19  1  0
 19 20  2  0
  4 21  1  0
 21 22  2  0
 21 23  1  0
 23 24  1  0
 24 25  1  0
 25 26  1  0
 26 27  1  0
 27 28  1  1
 28 29  2  0
 28 30  1  0
 31 30  1  6
 31 32  1  0
 32 33  2  0
 32 34  1  0
 34 35  1  0
 34 36  1  0
 34 37  1  0
 31 38  1  0
 38 39  1  0
 38 40  1  0
 20  8  1  0
 27 23  1  0
M  END
>  <zinc_id>  (1) 
ZINC000003951728

>  <smiles>  (1) 
CC(C)[C@H](NC(=O)c1ccc(C(=O)NCC(=O)O)cc1)C(=O)N1CCC[C@H]1C(=O)N[C@H](C(=O)C(F)(F)F)C(C)C

$$$$
