
     RDKit          3D

 41 41  0  0  0  0  0  0  0  0999 V2000
    0.5347    6.1985    1.5810 C   0  0  0  0  0  0  0  0  0  0  0  0
    0.2308    5.7072    0.0300 C   0  0  1  0  0  0  0  0  0  0  0  0
   -0.5323    4.4146    0.5402 N   0  0  0  0  0  0  0  0  0  0  0  0
    0.2690    3.2737    0.1860 C   0  0  0  0  0  0  0  0  0  0  0  0
    0.6626    3.2301   -0.9826 O   0  0  0  0  0  0  0  0  0  0  0  0
   -0.5603    1.9502    0.7007 C   0  0  2  0  0  0  0  0  0  0  0  0
    0.5066    0.8808   -0.0307 C   0  0  0  0  0  0  0  0  0  0  0  0
    1.8548    1.3663    0.4813 C   0  0  0  0  0  0  0  0  0  0  0  0
    2.9026    0.9381   -0.5029 C   0  0  0  0  0  0  0  0  0  0  0  0
    4.0478    1.9098   -0.6239 C   0  0  0  0  0  0  0  0  0  0  0  0
    5.2201    1.4104    0.0862 N   0  0  0  0  0  0  0  0  0  0  0  0
    5.1996    0.1281    0.6962 C   0  0  0  0  0  0  0  0  0  0  0  0
    4.2370   -0.6565    0.4394 O   0  0  0  0  0  0  0  0  0  0  0  0
    6.2762   -0.3598    1.4378 O   0  0  0  0  0  0  0  0  0  0  0  0
    6.3019   -1.7563    1.7199 C   0  0  0  0  0  0  0  0  0  0  0  0
    7.0363   -2.4127    0.6036 C   0  0  0  0  0  0  0  0  0  0  0  0
    8.2416   -1.8531    0.2196 C   0  0  0  0  0  0  0  0  0  0  0  0
    9.0864   -2.5540   -0.5926 C   0  0  0  0  0  0  0  0  0  0  0  0
    8.8428   -3.8803   -0.8587 C   0  0  0  0  0  0  0  0  0  0  0  0
    7.5959   -4.3920   -0.5479 C   0  0  0  0  0  0  0  0  0  0  0  0
    6.6137   -3.6183    0.0566 C   0  0  0  0  0  0  0  0  0  0  0  0
   -1.5075    1.9597   -0.5965 N   0  0  0  0  0  0  0  0  0  0  0  0
   -2.0897    0.6797   -0.8221 C   0  0  0  0  0  0  0  0  0  0  0  0
   -1.2823   -0.2959   -0.8321 O   0  0  0  0  0  0  0  0  0  0  0  0
   -3.3708    0.5339   -1.5612 C   0  0  0  0  0  0  0  0  0  0  0  0
   -4.4053   -0.1276   -0.6547 C   0  0  0  0  0  0  0  0  0  0  0  0
   -3.4539   -1.0784    0.3493 C   0  0  2  0  0  0  0  0  0  0  0  0
   -3.9708   -2.4365   -0.3257 N   0  0  0  0  0  0  0  0  0  0  0  0
   -5.3399   -2.5642   -0.5240 C   0  0  0  0  0  0  0  0  0  0  0  0
   -6.1548   -1.7906    0.0380 O   0  0  0  0  0  0  0  0  0  0  0  0
   -5.8299   -3.7817   -1.0057 O   0  0  0  0  0  0  0  0  0  0  0  0
   -6.9857   -4.3994   -0.4419 C   0  0  0  0  0  0  0  0  0  0  0  0
   -7.8840   -4.9961   -1.4938 C   0  0  0  0  0  0  0  0  0  0  0  0
   -6.4376   -5.5299    0.4210 C   0  0  0  0  0  0  0  0  0  0  0  0
   -7.7258   -3.4613    0.4670 C   0  0  0  0  0  0  0  0  0  0  0  0
   -4.6190   -1.1097    1.5135 C   0  0  0  0  0  0  0  0  0  0  0  0
   -4.7666    0.0325    2.0050 O   0  0  0  0  0  0  0  0  0  0  0  0
   -4.3677   -2.1709    2.3876 O   0  0  0  0  0  0  0  0  0  0  0  0
   -1.2127    6.6627   -0.0454 B   0  0  0  0  0  0  0  0  0  0  0  0
   -2.3472    6.0180   -0.6882 O   0  0  0  0  0  0  0  0  0  0  0  0
   -0.8162    7.9308   -0.6897 O   0  0  0  0  0  0  0  0  0  0  0  0
  2  1  1  1
  2  3  1  0
  3  4  1  0
  4  5  2  0
  6  4  1  6
  6  7  1  0
  7  8  1  0
  8  9  1  0
  9 10  1  0
 10 11  1  0
 11 12  1  0
 12 13  2  0
 12 14  1  0
 14 15  1  0
 15 16  1  0
 16 17  2  0
 17 18  1  0
 18 19  2  0
 19 20  1  0
 20 21  2  0
  6 22  1  0
 22 23  1  0
 23 24  2  0
 23 25  1  0
 25 26  1  0
 27 26  1  6
 27 28  1  0
 28 29  1  0
 29 30  2  0
 29 31  1  0
 31 32  1  0
 32 33  1  0
 32 34  1  0
 32 35  1  0
 27 36  1  0
 36 37  2  0
 36 38  1  0
  2 39  1  0
 39 40  1  0
 39 41  1  0
 21 16  1  0
M  END
>  <zinc_id>  (1) 
ZINC000169748488

>  <smiles>  (1) 
C[C@@H](NC(=O)[C@H](CCCCNC(=O)OCc1ccccc1)NC(=O)CC[C@H](NC(=O)OC(C)(C)C)C(=O)O)B(O)O

$$$$
