
     RDKit          3D

 43 45  0  0  0  0  0  0  0  0999 V2000
   -6.8538    4.8225   -0.6175 C   0  0  0  0  0  0  0  0  0  0  0  0
   -6.1270    3.5902   -0.2501 C   0  0  0  0  0  0  0  0  0  0  0  0
   -5.9245    2.8242   -1.4267 O   0  0  0  0  0  0  0  0  0  0  0  0
   -4.6966    2.7530   -2.0929 C   0  0  0  0  0  0  0  0  0  0  0  0
   -3.8090    3.5519   -1.6655 O   0  0  0  0  0  0  0  0  0  0  0  0
   -4.3050    1.3910   -2.4988 C   0  0  0  0  0  0  0  0  0  0  0  0
   -3.6051    0.6657   -1.6687 C   0  0  0  0  0  0  0  0  0  0  0  0
   -3.7670   -0.9458   -1.8326 C   0  0  2  0  0  0  0  0  0  0  0  0
   -5.0285   -0.9752   -0.7652 C   0  0  0  0  0  0  0  0  0  0  0  0
   -4.3557   -1.4339    0.6490 C   0  0  2  0  0  0  0  0  0  0  0  0
   -5.6732   -2.3190    1.0798 C   0  0  0  0  0  0  0  0  0  0  0  0
   -5.4825   -2.1116    2.5585 C   0  0  0  0  0  0  0  0  0  0  0  0
   -5.3135   -0.6822    2.6924 N   0  0  0  0  0  0  0  0  0  0  0  0
   -4.9273   -0.1377    1.4254 C   0  0  0  0  0  0  0  0  0  0  0  0
   -4.1407    0.8609    1.3939 O   0  0  0  0  0  0  0  0  0  0  0  0
   -2.6023   -1.2203   -0.7896 N   0  0  0  0  0  0  0  0  0  0  0  0
   -1.4290   -0.6551   -1.2161 C   0  0  0  0  0  0  0  0  0  0  0  0
   -1.2574   -0.1124   -2.3517 O   0  0  0  0  0  0  0  0  0  0  0  0
    0.0073   -1.1663   -0.7091 C   0  0  1  0  0  0  0  0  0  0  0  0
    0.2068    0.1738    0.2278 C   0  0  0  0  0  0  0  0  0  0  0  0
    1.6319    0.1863    0.6480 C   0  0  0  0  0  0  0  0  0  0  0  0
    2.0322   -0.0878    1.7356 O   0  0  0  0  0  0  0  0  0  0  0  0
    2.6334    0.9825   -0.3575 C   0  0  1  0  0  0  0  0  0  0  0  0
    3.4418    1.7110    0.8040 N   0  0  0  0  0  0  0  0  0  0  0  0
    4.8199    1.8292    0.6042 C   0  0  0  0  0  0  0  0  0  0  0  0
    5.3772    0.7048    0.4172 O   0  0  0  0  0  0  0  0  0  0  0  0
    5.6780    2.9786    0.7149 C   0  0  0  0  0  0  0  0  0  0  0  0
    6.4510    3.3459   -0.3871 C   0  0  0  0  0  0  0  0  0  0  0  0
    7.3809    4.2869    0.0362 C   0  0  0  0  0  0  0  0  0  0  0  0
    7.7633    5.5718   -0.6300 C   0  0  0  0  0  0  0  0  0  0  0  0
    7.4413    4.1061    1.3360 O   0  0  0  0  0  0  0  0  0  0  0  0
    6.4657    3.3605    1.7532 N   0  0  0  0  0  0  0  0  0  0  0  0
    3.7234   -0.2502   -0.5005 C   0  0  0  0  0  0  0  0  0  0  0  0
    3.7263   -0.3605   -2.0255 C   0  0  0  0  0  0  0  0  0  0  0  0
    3.2306   -1.4864    0.0330 C   0  0  0  0  0  0  0  0  0  0  0  0
   -0.5680   -2.0535    0.5520 C   0  0  0  0  0  0  0  0  0  0  0  0
   -0.0237   -3.4347    0.3432 C   0  0  0  0  0  0  0  0  0  0  0  0
    0.6448   -3.9594    1.4456 C   0  0  0  0  0  0  0  0  0  0  0  0
    1.4547   -5.0817    1.3568 C   0  0  0  0  0  0  0  0  0  0  0  0
    1.7280   -5.6364    0.1365 C   0  0  0  0  0  0  0  0  0  0  0  0
    2.0742   -6.9172   -0.0761 F   0  0  0  0  0  0  0  0  0  0  0  0
    1.4210   -4.8761   -0.9733 C   0  0  0  0  0  0  0  0  0  0  0  0
    0.5560   -3.7935   -0.8700 C   0  0  0  0  0  0  0  0  0  0  0  0
  1  2  1  0
  2  3  1  0
  3  4  1  0
  4  5  2  0
  4  6  1  0
  6  7  2  0
  8  7  1  1
  8  9  1  0
 10  9  1  6
 10 11  1  0
 11 12  1  0
 12 13  1  0
 13 14  1  0
 14 15  2  0
  8 16  1  0
 16 17  1  0
 17 18  2  0
 19 17  1  6
 19 20  1  0
 20 21  1  0
 21 22  2  0
 23 21  1  1
 23 24  1  0
 24 25  1  0
 25 26  2  0
 25 27  1  0
 27 28  1  0
 28 29  2  0
 29 30  1  0
 29 31  1  0
 31 32  1  0
 23 33  1  0
 33 34  1  0
 33 35  1  0
 19 36  1  0
 36 37  1  0
 37 38  2  0
 38 39  1  0
 39 40  2  0
 40 41  1  0
 40 42  1  0
 42 43  2  0
 14 10  1  0
 32 27  2  0
 43 37  1  0
M  END
>  <zinc_id>  (1) 
ZINC000003919807

>  <smiles>  (1) 
CCOC(=O)/C=C/[C@H](C[C@@H]1CCNC1=O)NC(=O)[C@@H](CC(=O)[C@@H](NC(=O)c1cc(C)on1)C(C)C)Cc1ccc(F)cc1

$$$$
