
     RDKit          3D

 65 67  0  0  0  0  0  0  0  0999 V2000
    6.7017   -1.2958    2.5089 C   0  0  0  0  0  0  0  0  0  0  0  0
    7.0684   -0.4725    2.9169 N   0  0  0  0  0  0  0  0  0  0  0  0
    7.3421    0.7172    2.1220 C   0  0  0  0  0  0  0  0  0  0  0  0
    7.1072    0.4371    0.6682 C   0  0  0  0  0  0  0  0  0  0  0  0
    6.8230   -0.7321    0.3632 O   0  0  0  0  0  0  0  0  0  0  0  0
    7.4558    1.3750   -0.2870 N   0  0  0  0  0  0  0  0  0  0  0  0
    7.4590    0.9933   -1.8158 C   0  0  1  0  0  0  0  0  0  0  0  0
    8.2759   -0.4076   -1.5315 C   0  0  0  0  0  0  0  0  0  0  0  0
    9.7011    0.1086   -1.6664 C   0  0  0  0  0  0  0  0  0  0  0  0
   10.2104    0.8021   -0.4438 C   0  0  0  0  0  0  0  0  0  0  0  0
   10.9258   -0.1417    0.3732 N   0  0  0  0  0  0  0  0  0  0  0  0
   10.8121   -0.2597    1.7741 C   0  0  0  0  0  0  0  0  0  0  0  0
   10.3969    0.7940    2.4121 N   0  0  0  0  0  0  0  0  0  0  0  0
   10.6658   -1.5729    2.3296 N   0  0  0  0  0  0  0  0  0  0  0  0
    5.9924    0.3284   -1.7798 C   0  0  0  0  0  0  0  0  0  0  0  0
    5.8139   -0.8252   -2.1623 O   0  0  0  0  0  0  0  0  0  0  0  0
    5.0270    0.9740   -2.6483 N   0  0  0  0  0  0  0  0  0  0  0  0
    3.8802    1.3196   -1.6247 C   0  0  2  0  0  0  0  0  0  0  0  0
    2.9651    0.0348   -1.8926 C   0  0  0  0  0  0  0  0  0  0  0  0
    2.7666   -0.5676   -2.8562 O   0  0  0  0  0  0  0  0  0  0  0  0
    2.5162   -0.3041   -0.6513 N   0  0  0  0  0  0  0  0  0  0  0  0
    1.2594   -1.2089   -0.4449 C   0  0  1  0  0  0  0  0  0  0  0  0
    0.5378   -0.0232    0.4492 C   0  0  0  0  0  0  0  0  0  0  0  0
    1.2320    0.0258    1.7315 C   0  0  0  0  0  0  0  0  0  0  0  0
    0.4878   -0.3100    2.8579 C   0  0  0  0  0  0  0  0  0  0  0  0
    1.1220   -0.8692    3.9610 C   0  0  0  0  0  0  0  0  0  0  0  0
    2.5091   -0.9591    3.9358 C   0  0  0  0  0  0  0  0  0  0  0  0
    3.1829   -1.9623    4.6379 O   0  0  0  0  0  0  0  0  0  0  0  0
    3.1731   -0.1550    3.0164 C   0  0  0  0  0  0  0  0  0  0  0  0
    2.4962    0.4835    1.9814 C   0  0  0  0  0  0  0  0  0  0  0  0
    0.4836   -0.7925   -1.7987 C   0  0  0  0  0  0  0  0  0  0  0  0
    0.2232    0.3777   -2.0127 O   0  0  0  0  0  0  0  0  0  0  0  0
   -0.5629   -1.7479   -1.9170 N   0  0  0  0  0  0  0  0  0  0  0  0
   -1.6533   -1.4730   -3.0189 C   0  0  2  0  0  0  0  0  0  0  0  0
   -2.6093   -0.6903   -1.9914 C   0  0  0  0  0  0  0  0  0  0  0  0
   -2.5336    0.5635   -2.2126 O   0  0  0  0  0  0  0  0  0  0  0  0
   -3.9912   -0.9961   -1.9699 N   0  0  0  0  0  0  0  0  0  0  0  0
   -4.6282   -0.5302   -0.6034 C   0  0  1  0  0  0  0  0  0  0  0  0
   -3.9848    0.9827   -0.6571 C   0  0  0  0  0  0  0  0  0  0  0  0
   -3.3698    1.1205    0.6946 C   0  0  0  0  0  0  0  0  0  0  0  0
   -2.6623    0.1829    1.4255 C   0  0  0  0  0  0  0  0  0  0  0  0
   -2.4196    0.7397    2.6367 N   0  0  0  0  0  0  0  0  0  0  0  0
   -3.3335    1.7253    2.7940 C   0  0  0  0  0  0  0  0  0  0  0  0
   -3.6078    2.1388    1.5474 N   0  0  0  0  0  0  0  0  0  0  0  0
   -6.0031   -0.0164   -1.2725 C   0  0  0  0  0  0  0  0  0  0  0  0
   -5.9207    0.5907   -2.3593 O   0  0  0  0  0  0  0  0  0  0  0  0
   -6.7409    0.6825   -0.2575 N   0  0  0  0  0  0  0  0  0  0  0  0
   -7.6174    1.7947   -0.3716 C   0  0  0  0  0  0  0  0  0  0  0  0
   -8.0523    2.0852    1.0355 C   0  0  0  0  0  0  0  0  0  0  0  0
   -7.3961    1.0700    1.9075 C   0  0  0  0  0  0  0  0  0  0  0  0
   -7.2875   -0.2247    0.9039 C   0  0  1  0  0  0  0  0  0  0  0  0
   -8.8240   -0.0745    0.4297 C   0  0  0  0  0  0  0  0  0  0  0  0
   -8.9422   -0.6007   -0.7039 O   0  0  0  0  0  0  0  0  0  0  0  0
   -9.7678   -0.3591    1.4445 N   0  0  0  0  0  0  0  0  0  0  0  0
  -10.7993   -1.4925    1.0780 C   0  0  1  0  0  0  0  0  0  0  0  0
  -11.3045   -1.6339    2.6369 C   0  0  0  0  0  0  0  0  0  0  0  0
  -11.9616   -0.4226    0.7406 C   0  0  0  0  0  0  0  0  0  0  0  0
  -11.6251    0.3577   -0.2016 O   0  0  0  0  0  0  0  0  0  0  0  0
  -13.1282   -1.1510    0.4695 O   0  0  0  0  0  0  0  0  0  0  0  0
   -2.3502   -2.9399   -2.7578 C   0  0  0  0  0  0  0  0  0  0  0  0
   -2.5351   -3.0857   -1.2720 C   0  0  0  0  0  0  0  0  0  0  0  0
   -1.2678   -3.9273   -3.1592 C   0  0  0  0  0  0  0  0  0  0  0  0
    3.1018    2.2686   -2.7194 C   0  0  0  0  0  0  0  0  0  0  0  0
    3.1246    1.6303   -4.0415 C   0  0  0  0  0  0  0  0  0  0  0  0
    4.0399    3.4648   -2.6808 C   0  0  0  0  0  0  0  0  0  0  0  0
  1  2  1  0
  2  3  1  0
  3  4  1  0
  4  5  2  0
  4  6  1  0
  7  6  1  1
  7  8  1  0
  8  9  1  0
  9 10  1  0
 10 11  1  0
 11 12  1  0
 12 13  2  0
 12 14  1  0
  7 15  1  0
 15 16  2  0
 15 17  1  0
 18 17  1  6
 18 19  1  0
 19 20  2  0
 19 21  1  0
 22 21  1  6
 22 23  1  0
 23 24  1  0
 24 25  2  0
 25 26  1  0
 26 27  2  0
 27 28  1  0
 27 29  1  0
 29 30  2  0
 22 31  1  0
 31 32  2  0
 31 33  1  0
 34 33  1  1
 34 35  1  0
 35 36  2  0
 35 37  1  0
 38 37  1  6
 38 39  1  0
 39 40  1  0
 40 41  2  0
 41 42  1  0
 42 43  1  0
 43 44  2  0
 38 45  1  0
 45 46  2  0
 45 47  1  0
 47 48  1  0
 48 49  1  0
 49 50  1  0
 50 51  1  0
 51 52  1  6
 52 53  2  0
 52 54  1  0
 55 54  1  1
 55 56  1  0
 55 57  1  0
 57 58  2  0
 57 59  1  0
 34 60  1  0
 60 61  1  0
 60 62  1  0
 18 63  1  0
 63 64  1  0
 63 65  1  0
 30 24  1  0
 44 40  1  0
 51 47  1  0
M  END
>  <zinc_id>  (1) 
ZINC000169289386

>  <smiles>  (1) 
CNCC(=O)N[C@@H](CCCNC(=N)N)C(=O)N[C@H](C(=O)N[C@@H](Cc1ccc(O)cc1)C(=O)N[C@H](C(=O)N[C@@H](Cc1c[nH]cn1)C(=O)N1CCC[C@H]1C(=O)N[C@@H](C)C(=O)O)C(C)C)C(C)C

$$$$
