25113125
  -OEChem-10051720573D

 51 53  0     1  0  0  0  0  0999 V2000
   -0.0467   -1.2650   -0.0704 O   0  0  0  0  0  0  0  0  0  0  0  0
    1.6795    1.4996    1.4253 O   0  0  0  0  0  0  0  0  0  0  0  0
   -0.7591    0.8500    0.5429 N   0  0  0  0  0  0  0  0  0  0  0  0
    2.4682    1.6270   -0.7612 N   0  0  0  0  0  0  0  0  0  0  0  0
   -1.1718   -1.8674    2.4731 N   0  0  0  0  0  0  0  0  0  0  0  0
    0.1063    1.5878   -0.3680 C   0  0  1  0  0  0  0  0  0  0  0  0
   -0.4685    2.9995   -0.3900 C   0  0  0  0  0  0  0  0  0  0  0  0
   -1.1045    3.1453    0.9903 C   0  0  0  0  0  0  0  0  0  0  0  0
   -1.6442    1.7520    1.2754 C   0  0  0  0  0  0  0  0  0  0  0  0
   -0.8120   -0.5350    0.5620 C   0  0  0  0  0  0  0  0  0  0  0  0
    1.4877    1.5583    0.2136 C   0  0  0  0  0  0  0  0  0  0  0  0
   -1.8852   -1.1322    1.4367 C   0  0  1  0  0  0  0  0  0  0  0  0
   -2.8024   -2.0545    0.6336 C   0  0  0  0  0  0  0  0  0  0  0  0
    3.8818    1.6383   -0.4612 C   0  0  0  0  0  0  0  0  0  0  0  0
   -3.8481   -1.2978   -0.1518 C   0  0  0  0  0  0  0  0  0  0  0  0
    4.4576    0.2525   -0.4160 C   0  0  0  0  0  0  0  0  0  0  0  0
   -5.0857   -1.0154    0.4265 C   0  0  0  0  0  0  0  0  0  0  0  0
   -3.5757   -0.8808   -1.4547 C   0  0  0  0  0  0  0  0  0  0  0  0
    4.4742   -0.4571    0.7849 C   0  0  0  0  0  0  0  0  0  0  0  0
    4.9751   -0.3261   -1.5750 C   0  0  0  0  0  0  0  0  0  0  0  0
   -6.0509   -0.3162   -0.2981 C   0  0  0  0  0  0  0  0  0  0  0  0
   -4.5410   -0.1814   -2.1792 C   0  0  0  0  0  0  0  0  0  0  0  0
   -5.7785    0.1008   -1.6009 C   0  0  0  0  0  0  0  0  0  0  0  0
    5.0084   -1.7448    0.8270 C   0  0  0  0  0  0  0  0  0  0  0  0
    5.5093   -1.6140   -1.5329 C   0  0  0  0  0  0  0  0  0  0  0  0
    5.5259   -2.3233   -0.3319 C   0  0  0  0  0  0  0  0  0  0  0  0
    0.0915    1.1151   -1.3561 H   0  0  0  0  0  0  0  0  0  0  0  0
   -1.2499    3.0696   -1.1567 H   0  0  0  0  0  0  0  0  0  0  0  0
    0.2759    3.7769   -0.5866 H   0  0  0  0  0  0  0  0  0  0  0  0
   -0.3391    3.4129    1.7283 H   0  0  0  0  0  0  0  0  0  0  0  0
   -1.8842    3.9115    1.0204 H   0  0  0  0  0  0  0  0  0  0  0  0
   -1.6356    1.5259    2.3455 H   0  0  0  0  0  0  0  0  0  0  0  0
   -2.6588    1.6347    0.8798 H   0  0  0  0  0  0  0  0  0  0  0  0
   -2.5020   -0.3897    1.9435 H   0  0  0  0  0  0  0  0  0  0  0  0
   -3.3260   -2.7463    1.3084 H   0  0  0  0  0  0  0  0  0  0  0  0
   -2.2318   -2.6991   -0.0486 H   0  0  0  0  0  0  0  0  0  0  0  0
    2.1967    1.6672   -1.7393 H   0  0  0  0  0  0  0  0  0  0  0  0
   -1.8389   -2.3290    3.0903 H   0  0  0  0  0  0  0  0  0  0  0  0
   -0.6485   -1.2173    3.0589 H   0  0  0  0  0  0  0  0  0  0  0  0
    4.0469    2.1512    0.4939 H   0  0  0  0  0  0  0  0  0  0  0  0
    4.3781    2.2366   -1.2336 H   0  0  0  0  0  0  0  0  0  0  0  0
   -5.3090   -1.3324    1.4417 H   0  0  0  0  0  0  0  0  0  0  0  0
   -2.6159   -1.0945   -1.9174 H   0  0  0  0  0  0  0  0  0  0  0  0
    4.0767   -0.0184    1.6960 H   0  0  0  0  0  0  0  0  0  0  0  0
    4.9661    0.2155   -2.5171 H   0  0  0  0  0  0  0  0  0  0  0  0
   -7.0142   -0.0956    0.1524 H   0  0  0  0  0  0  0  0  0  0  0  0
   -4.3288    0.1437   -3.1935 H   0  0  0  0  0  0  0  0  0  0  0  0
   -6.5298    0.6457   -2.1650 H   0  0  0  0  0  0  0  0  0  0  0  0
    5.0217   -2.2971    1.7621 H   0  0  0  0  0  0  0  0  0  0  0  0
    5.9119   -2.0648   -2.4353 H   0  0  0  0  0  0  0  0  0  0  0  0
    5.9418   -3.3261   -0.2992 H   0  0  0  0  0  0  0  0  0  0  0  0
  1 10  2  0  0  0  0
  2 11  2  0  0  0  0
  3  6  1  0  0  0  0
  3  9  1  0  0  0  0
  3 10  1  0  0  0  0
  4 11  1  0  0  0  0
  4 14  1  0  0  0  0
  4 37  1  0  0  0  0
  5 12  1  0  0  0  0
  5 38  1  0  0  0  0
  5 39  1  0  0  0  0
  6  7  1  0  0  0  0
  6 11  1  0  0  0  0
  6 27  1  0  0  0  0
  7  8  1  0  0  0  0
  7 28  1  0  0  0  0
  7 29  1  0  0  0  0
  8  9  1  0  0  0  0
  8 30  1  0  0  0  0
  8 31  1  0  0  0  0
  9 32  1  0  0  0  0
  9 33  1  0  0  0  0
 10 12  1  0  0  0  0
 12 13  1  0  0  0  0
 12 34  1  0  0  0  0
 13 15  1  0  0  0  0
 13 35  1  0  0  0  0
 13 36  1  0  0  0  0
 14 16  1  0  0  0  0
 14 40  1  0  0  0  0
 14 41  1  0  0  0  0
 15 17  2  0  0  0  0
 15 18  1  0  0  0  0
 16 19  2  0  0  0  0
 16 20  1  0  0  0  0
 17 21  1  0  0  0  0
 17 42  1  0  0  0  0
 18 22  2  0  0  0  0
 18 43  1  0  0  0  0
 19 24  1  0  0  0  0
 19 44  1  0  0  0  0
 20 25  2  0  0  0  0
 20 45  1  0  0  0  0
 21 23  2  0  0  0  0
 21 46  1  0  0  0  0
 22 23  1  0  0  0  0
 22 47  1  0  0  0  0
 23 48  1  0  0  0  0
 24 26  2  0  0  0  0
 24 49  1  0  0  0  0
 25 26  1  0  0  0  0
 25 50  1  0  0  0  0
 26 51  1  0  0  0  0
M  END
> <DATABASE_ID>
DB07143

> <DATABASE_NAME>
drugbank

> <ORIGINAL_SOURCE>
PUBCHEM

> <ORIGINAL_SOURCE_URL>
https://pubchem.ncbi.nlm.nih.gov/rest/pug/compound/inchikey/MEPJWLFTTFHOQO-MOPGFXCFSA-N/SDF?record_type=3d

> <SMILES>
[H][C@@](N)(CC1=CC=CC=C1)C(=O)N1CCC[C@@]1([H])C(=O)NCC1=CC=CC=C1

> <INCHI_IDENTIFIER>
InChI=1S/C21H25N3O2/c22-18(14-16-8-3-1-4-9-16)21(26)24-13-7-12-19(24)20(25)23-15-17-10-5-2-6-11-17/h1-6,8-11,18-19H,7,12-15,22H2,(H,23,25)/t18-,19+/m1/s1

> <INCHI_KEY>
MEPJWLFTTFHOQO-MOPGFXCFSA-N

> <FORMULA>
C21H25N3O2

> <MOLECULAR_WEIGHT>
351.4421

> <EXACT_MASS>
351.194677059

> <JCHEM_ACCEPTOR_COUNT>
3

> <JCHEM_ATOM_COUNT>
51

> <JCHEM_AVERAGE_NEUTRAL_MICROSPECIES_CHARGE>
0.8341545496415605

> <JCHEM_AVERAGE_POLARIZABILITY>
37.95497500907342

> <JCHEM_BIOAVAILABILITY>
1

> <JCHEM_DONOR_COUNT>
2

> <JCHEM_FORMAL_CHARGE>
0

> <JCHEM_GHOSE_FILTER>
1

> <JCHEM_IUPAC>
(2S)-1-[(2R)-2-amino-3-phenylpropanoyl]-N-benzylpyrrolidine-2-carboxamide

> <ALOGPS_LOGP>
1.59

> <JCHEM_LOGP>
1.954968202666667

> <ALOGPS_LOGS>
-4.06

> <JCHEM_MDDR_LIKE_RULE>
1

> <JCHEM_NEUTRAL_CHARGE>
1

> <JCHEM_NUMBER_OF_RINGS>
3

> <JCHEM_PHYSIOLOGICAL_CHARGE>
1

> <JCHEM_PKA_STRONGEST_ACIDIC>
14.545813294405503

> <JCHEM_PKA_STRONGEST_BASIC>
7.701542942948182

> <JCHEM_POLAR_SURFACE_AREA>
75.43

> <JCHEM_REFRACTIVITY>
101.43430000000002

> <JCHEM_ROTATABLE_BOND_COUNT>
6

> <JCHEM_RULE_OF_FIVE>
1

> <ALOGPS_SOLUBILITY>
3.07e-02 g/l

> <JCHEM_TRADITIONAL_IUPAC>
tetrahydrofolic acid

> <JCHEM_VEBER_RULE>
0

$$$$
