
     RDKit          3D

 30 30  0  0  0  0  0  0  0  0999 V2000
   -6.8490    0.5514    0.2010 C   0  0  0  0  0  0  0  0  0  0  0  0
   -6.8457   -0.0675    0.1386 C   0  0  0  0  0  0  0  0  0  0  0  0
   -8.0537   -0.8156    0.6491 C   0  0  0  0  0  0  0  0  0  0  0  0
   -5.5585   -0.6920    0.6630 C   0  0  0  0  0  0  0  0  0  0  0  0
   -4.6126    0.4959    0.7781 C   0  0  0  0  0  0  0  0  0  0  0  0
   -3.5315    0.3787   -0.2523 C   0  0  0  0  0  0  0  0  0  0  0  0
   -2.7365    1.3162   -0.4831 O   0  0  0  0  0  0  0  0  0  0  0  0
   -3.4602   -0.7199   -1.0759 N   0  0  0  0  0  0  0  0  0  0  0  0
   -2.0671   -1.1510   -1.7130 C   0  0  2  0  0  0  0  0  0  0  0  0
   -1.1379   -0.4476   -0.5660 C   0  0  0  0  0  0  0  0  0  0  0  0
   -1.3990   -1.0588    0.5147 O   0  0  0  0  0  0  0  0  0  0  0  0
    0.2346   -0.4150   -0.9416 N   0  0  0  0  0  0  0  0  0  0  0  0
    1.0429    0.2683    0.2503 C   0  0  1  0  0  0  0  0  0  0  0  0
    1.9072   -1.1284    0.5188 C   0  0  0  0  0  0  0  0  0  0  0  0
    2.7724   -0.8625    1.6968 C   0  0  0  0  0  0  0  0  0  0  0  0
    2.3939    0.2950    2.5376 C   0  0  0  0  0  0  0  0  0  0  0  0
    3.3747    0.8338    3.3869 N   0  0  0  0  0  0  0  0  0  0  0  0
    4.5417    0.0727    3.6527 C   0  0  0  0  0  0  0  0  0  0  0  0
    5.0994    0.5140    4.9208 N   0  0  0  0  0  0  0  0  0  0  0  0
    4.3303   -1.3522    3.7673 N   0  0  0  0  0  0  0  0  0  0  0  0
    2.1172    0.9156   -0.7884 C   0  0  0  0  0  0  0  0  0  0  0  0
    2.0013    2.1763   -0.8509 O   0  0  0  0  0  0  0  0  0  0  0  0
    3.3036    0.2278   -1.1302 C   0  0  0  0  0  0  0  0  0  0  0  0
    4.5722    0.6983   -1.0520 N   0  0  0  0  0  0  0  0  0  0  0  0
    5.4749   -0.2677   -0.9893 C   0  0  0  0  0  0  0  0  0  0  0  0
    5.2847   -1.2578   -1.9269 C   0  0  0  0  0  0  0  0  0  0  0  0
    3.5747   -1.1770   -2.0812 S   0  0  0  0  0  0  0  0  0  0  0  0
   -2.0027    0.2046   -2.6788 C   0  0  0  0  0  0  0  0  0  0  0  0
   -0.6883   -0.0394   -3.4189 C   0  0  0  0  0  0  0  0  0  0  0  0
   -3.0830   -0.0520   -3.7269 C   0  0  0  0  0  0  0  0  0  0  0  0
  1  2  1  0
  2  3  1  0
  2  4  1  0
  4  5  1  0
  5  6  1  0
  6  7  2  0
  6  8  1  0
  9  8  1  1
  9 10  1  0
 10 11  2  0
 10 12  1  0
 13 12  1  6
 13 14  1  0
 14 15  1  0
 15 16  1  0
 16 17  1  0
 17 18  1  0
 18 19  1  0
 18 20  1  0
 13 21  1  0
 21 22  2  0
 21 23  1  0
 23 24  2  0
 24 25  1  0
 25 26  2  0
 26 27  1  0
  9 28  1  0
 28 29  1  0
 28 30  1  0
 27 23  1  0
M  END
>  <zinc_id>  (1) 
ZINC000038190858

>  <smiles>  (1) 
CC(C)CCC(=O)N[C@H](C(=O)N[C@@H](CCCNC(N)N)C(=O)c1nccs1)C(C)C

$$$$
