
     RDKit          3D

 27 26  0  0  0  0  0  0  0  0999 V2000
    4.8296    0.7359   -2.7234 C   0  0  0  0  0  0  0  0  0  0  0  0
    5.7232    1.8048   -2.1726 C   0  0  0  0  0  0  0  0  0  0  0  0
    5.4963    1.8543   -0.6836 C   0  0  0  0  0  0  0  0  0  0  0  0
    4.0083    1.8426   -0.3476 C   0  0  0  0  0  0  0  0  0  0  0  0
    3.8985    0.3222    0.2917 C   0  0  1  0  0  0  0  0  0  0  0  0
    4.1163    0.8774    1.8033 C   0  0  0  0  0  0  0  0  0  0  0  0
    5.2866    0.9948    2.0926 O   0  0  0  0  0  0  0  0  0  0  0  0
    2.3262    0.4315    0.4367 N   0  0  0  0  0  0  0  0  0  0  0  0
    1.8257   -0.9060    0.6330 C   0  0  0  0  0  0  0  0  0  0  0  0
    1.9268   -1.5896   -0.3769 O   0  0  0  0  0  0  0  0  0  0  0  0
    0.3771   -0.7410    1.3397 C   0  0  2  0  0  0  0  0  0  0  0  0
    0.1156   -2.3602    1.5145 C   0  0  0  0  0  0  0  0  0  0  0  0
    0.1078   -3.0505    0.2609 C   0  0  0  0  0  0  0  0  0  0  0  0
    0.7473   -4.4231    0.4426 C   0  0  0  0  0  0  0  0  0  0  0  0
   -1.1227   -3.2897   -0.5079 C   0  0  0  0  0  0  0  0  0  0  0  0
   -0.4161   -0.6589   -0.0336 N   0  0  0  0  0  0  0  0  0  0  0  0
   -1.7384   -0.2182    0.3129 C   0  0  0  0  0  0  0  0  0  0  0  0
   -2.3030   -0.4720    1.3630 O   0  0  0  0  0  0  0  0  0  0  0  0
   -2.5360    0.5385   -0.8725 C   0  0  2  0  0  0  0  0  0  0  0  0
   -2.2068    2.0109   -0.1940 C   0  0  0  0  0  0  0  0  0  0  0  0
   -3.4067    2.8215   -0.2092 C   0  0  0  0  0  0  0  0  0  0  0  0
   -4.3106    2.7915   -1.3608 C   0  0  0  0  0  0  0  0  0  0  0  0
   -3.8150    3.5603    0.9945 C   0  0  0  0  0  0  0  0  0  0  0  0
   -3.9557    0.4378   -0.1711 N   0  0  0  0  0  0  0  0  0  0  0  0
   -4.6689   -0.7526   -0.5201 C   0  0  0  0  0  0  0  0  0  0  0  0
   -5.6078   -1.4353    0.4050 C   0  0  0  0  0  0  0  0  0  0  0  0
   -4.6975   -1.1269   -1.7170 O   0  0  0  0  0  0  0  0  0  0  0  0
  1  2  1  0
  2  3  1  0
  3  4  1  0
  5  4  1  6
  5  6  1  0
  6  7  2  0
  5  8  1  0
  8  9  1  0
  9 10  2  0
 11  9  1  6
 11 12  1  0
 12 13  1  0
 13 14  1  0
 13 15  1  0
 11 16  1  0
 16 17  1  0
 17 18  2  0
 19 17  1  1
 19 20  1  0
 20 21  1  0
 21 22  1  0
 21 23  1  0
 19 24  1  0
 24 25  1  0
 25 26  1  0
 25 27  2  0
M  END
>  <zinc_id>  (1) 
ZINC000003826241

>  <smiles>  (1) 
CCCC[C@@H](C=O)NC(=O)[C@H](CC(C)C)NC(=O)[C@H](CC(C)C)NC(C)=O

$$$$
