
     RDKit          3D

 32 33  0  0  0  0  0  0  0  0999 V2000
   -3.0603   -1.9461    2.0623 C   0  0  0  0  0  0  0  0  0  0  0  0
   -3.3523   -1.2444    1.4198 C   0  0  0  0  0  0  0  0  0  0  0  0
   -3.3609   -0.1132    1.9975 O   0  0  0  0  0  0  0  0  0  0  0  0
   -3.1632   -1.2137    0.0020 N   0  0  0  0  0  0  0  0  0  0  0  0
   -2.9391    0.2092   -0.6392 C   0  0  2  0  0  0  0  0  0  0  0  0
   -4.3010    0.0729   -1.5540 C   0  0  0  0  0  0  0  0  0  0  0  0
   -5.4232    0.3522   -0.6245 C   0  0  0  0  0  0  0  0  0  0  0  0
   -6.2393   -0.6572   -0.1317 C   0  0  0  0  0  0  0  0  0  0  0  0
   -7.1774   -0.3429    0.8417 C   0  0  0  0  0  0  0  0  0  0  0  0
   -7.0070    0.8651    1.5069 C   0  0  0  0  0  0  0  0  0  0  0  0
   -6.6377    1.9548    0.7282 C   0  0  0  0  0  0  0  0  0  0  0  0
   -5.8221    1.6563   -0.3547 C   0  0  0  0  0  0  0  0  0  0  0  0
   -1.9406   -0.3757   -1.7563 C   0  0  0  0  0  0  0  0  0  0  0  0
   -2.2968   -0.5770   -2.8931 O   0  0  0  0  0  0  0  0  0  0  0  0
   -0.5716   -0.4566   -1.3420 N   0  0  0  0  0  0  0  0  0  0  0  0
   -0.2285   -0.9109   -0.0269 C   0  0  0  0  0  0  0  0  0  0  0  0
    0.0177    0.3695    0.7129 C   0  0  0  0  0  0  0  0  0  0  0  0
   -0.0170    1.4895   -0.2734 C   0  0  0  0  0  0  0  0  0  0  0  0
    0.4224    0.7231   -1.6611 C   0  0  1  0  0  0  0  0  0  0  0  0
    1.6794   -0.0346   -0.9919 C   0  0  0  0  0  0  0  0  0  0  0  0
    2.1668   -0.8782   -1.7990 O   0  0  0  0  0  0  0  0  0  0  0  0
    2.4915    0.6780   -0.1181 N   0  0  0  0  0  0  0  0  0  0  0  0
    3.4495   -0.2938    0.6401 C   0  0  1  0  0  0  0  0  0  0  0  0
    4.4017   -0.4919   -0.6674 C   0  0  0  0  0  0  0  0  0  0  0  0
    5.3288   -1.5878   -0.1534 C   0  0  0  0  0  0  0  0  0  0  0  0
    6.5497   -0.8876    0.3799 C   0  0  0  0  0  0  0  0  0  0  0  0
    7.2886   -0.1567   -0.7358 C   0  0  0  0  0  0  0  0  0  0  0  0
    8.3035    0.7913   -0.1534 C   0  0  0  0  0  0  0  0  0  0  0  0
    8.4342    0.5795    1.2689 N   0  0  0  0  0  0  0  0  0  0  0  0
    4.4076    0.9654    1.2760 B   0  0  0  0  0  0  0  0  0  0  0  0
    3.8668    1.2853    2.6081 O   0  0  0  0  0  0  0  0  0  0  0  0
    4.7297    2.0801    0.4314 O   0  0  0  0  0  0  0  0  0  0  0  0
  1  2  1  0
  2  3  2  0
  2  4  1  0
  5  4  1  1
  5  6  1  0
  6  7  1  0
  7  8  2  0
  8  9  1  0
  9 10  2  0
 10 11  1  0
 11 12  2  0
  5 13  1  0
 13 14  2  0
 13 15  1  0
 15 16  1  0
 16 17  1  0
 17 18  1  0
 18 19  1  0
 19 20  1  1
 20 21  2  0
 20 22  1  0
 23 22  1  6
 23 24  1  0
 24 25  1  0
 25 26  1  0
 26 27  1  0
 27 28  1  0
 28 29  1  0
 23 30  1  0
 30 31  1  0
 30 32  1  0
 12  7  1  0
 19 15  1  0
M  END
>  <zinc_id>  (1) 
ZINC000169748502

>  <smiles>  (1) 
CC(=O)N[C@H](Cc1ccccc1)C(=O)N1CCC[C@H]1C(=O)N[C@@H](CCCCCN)B(O)O

$$$$
