
     RDKit          3D

 64 66  0  0  0  0  0  0  0  0999 V2000
   -4.8331   -4.0710    0.7011 C   0  0  0  0  0  0  0  0  0  0  0  0
   -4.4872   -3.9199    0.5552 C   0  0  0  0  0  0  0  0  0  0  0  0
   -3.1450   -3.0615    0.8349 C   0  0  2  0  0  0  0  0  0  0  0  0
   -3.8866   -1.9842    1.7777 C   0  0  0  0  0  0  0  0  0  0  0  0
   -3.3187   -2.2077   -0.6530 C   0  0  2  0  0  0  0  0  0  0  0  0
   -2.5394   -0.9885   -0.2050 N   0  0  0  0  0  0  0  0  0  0  0  0
   -1.4536   -0.8462    0.4449 C   0  0  0  0  0  0  0  0  0  0  0  0
   -2.0992    0.2441    0.7950 O   0  0  0  0  0  0  0  0  0  0  0  0
   -0.1927    0.1429    0.2388 C   0  0  2  0  0  0  0  0  0  0  0  0
    0.0422   -0.1945   -1.3528 C   0  0  0  0  0  0  0  0  0  0  0  0
    0.5090   -1.5221   -1.5014 C   0  0  0  0  0  0  0  0  0  0  0  0
    1.2906   -1.8288   -2.6073 C   0  0  0  0  0  0  0  0  0  0  0  0
    1.8374   -3.1006   -2.7617 C   0  0  0  0  0  0  0  0  0  0  0  0
    1.6325   -4.0700   -1.7854 C   0  0  0  0  0  0  0  0  0  0  0  0
    2.4477   -5.1573   -1.5702 O   0  0  0  0  0  0  0  0  0  0  0  0
    0.6039   -3.8899   -0.8907 C   0  0  0  0  0  0  0  0  0  0  0  0
    0.1267   -2.6340   -0.8158 C   0  0  0  0  0  0  0  0  0  0  0  0
    0.8723   -0.8564    0.8096 N   0  0  0  0  0  0  0  0  0  0  0  0
    2.1096   -0.3916    1.2905 C   0  0  0  0  0  0  0  0  0  0  0  0
    2.2687    0.8364    1.2694 O   0  0  0  0  0  0  0  0  0  0  0  0
    3.2956   -1.2929    0.6572 C   0  0  1  0  0  0  0  0  0  0  0  0
    4.4591   -0.4174    1.2644 N   0  0  0  0  0  0  0  0  0  0  0  0
    5.1211    0.4031    0.3464 C   0  0  0  0  0  0  0  0  0  0  0  0
    4.4866    0.8975   -0.6079 O   0  0  0  0  0  0  0  0  0  0  0  0
    6.6054   -0.0179   -0.1301 C   0  0  2  0  0  0  0  0  0  0  0  0
    7.1875   -0.0218    1.4092 C   0  0  0  0  0  0  0  0  0  0  0  0
    7.5095   -1.4767    1.5865 C   0  0  0  0  0  0  0  0  0  0  0  0
    7.7637   -2.2167    0.3150 C   0  0  0  0  0  0  0  0  0  0  0  0
    8.6849   -1.5773   -0.5797 N   0  0  0  0  0  0  0  0  0  0  0  0
   10.0819   -1.5464   -0.3816 C   0  0  0  0  0  0  0  0  0  0  0  0
   10.6073   -2.5207    0.2653 N   0  0  0  0  0  0  0  0  0  0  0  0
   10.8632   -0.4437   -0.8283 N   0  0  0  0  0  0  0  0  0  0  0  0
    7.0588    1.4652   -0.3844 N   0  0  0  0  0  0  0  0  0  0  0  0
    6.6183    2.4569    0.4728 C   0  0  0  0  0  0  0  0  0  0  0  0
    6.2894    2.1568    1.6350 O   0  0  0  0  0  0  0  0  0  0  0  0
    7.4549    3.8295    0.3297 C   0  0  1  0  0  0  0  0  0  0  0  0
    7.0900    3.9727   -1.2001 N   0  0  0  0  0  0  0  0  0  0  0  0
    6.1811    4.7226    0.8594 C   0  0  0  0  0  0  0  0  0  0  0  0
    5.7629    5.6500   -0.1531 C   0  0  0  0  0  0  0  0  0  0  0  0
    6.1527    6.8332   -0.3089 O   0  0  0  0  0  0  0  0  0  0  0  0
    4.7682    5.2158   -1.0383 O   0  0  0  0  0  0  0  0  0  0  0  0
    3.3678   -2.3274    1.9329 C   0  0  0  0  0  0  0  0  0  0  0  0
    1.9956   -2.6498    2.3539 C   0  0  0  0  0  0  0  0  0  0  0  0
    4.0094   -3.5213    1.2285 C   0  0  0  0  0  0  0  0  0  0  0  0
   -4.8158   -1.6630   -0.3832 C   0  0  0  0  0  0  0  0  0  0  0  0
   -5.4921   -2.3540   -1.2213 O   0  0  0  0  0  0  0  0  0  0  0  0
   -5.0479   -0.3104   -0.3931 N   0  0  0  0  0  0  0  0  0  0  0  0
   -6.5959   -0.0078   -0.4987 C   0  0  1  0  0  0  0  0  0  0  0  0
   -6.5644    0.7592    0.9571 C   0  0  0  0  0  0  0  0  0  0  0  0
   -7.4214   -0.2065    1.7204 C   0  0  0  0  0  0  0  0  0  0  0  0
   -7.0512   -1.4975    2.0792 C   0  0  0  0  0  0  0  0  0  0  0  0
   -8.1533   -2.1252    2.5588 N   0  0  0  0  0  0  0  0  0  0  0  0
   -9.2249   -1.3523    2.2701 C   0  0  0  0  0  0  0  0  0  0  0  0
   -8.7555   -0.3347    1.5056 N   0  0  0  0  0  0  0  0  0  0  0  0
   -6.2955    1.2839   -1.3997 C   0  0  0  0  0  0  0  0  0  0  0  0
   -6.4346    0.8177   -2.5771 O   0  0  0  0  0  0  0  0  0  0  0  0
   -6.7962    2.5624   -1.1960 N   0  0  0  0  0  0  0  0  0  0  0  0
   -6.0780    3.5000   -2.0895 C   0  0  0  0  0  0  0  0  0  0  0  0
   -6.8528    4.7083   -1.8432 C   0  0  0  0  0  0  0  0  0  0  0  0
   -6.8167    4.8371   -0.4256 C   0  0  0  0  0  0  0  0  0  0  0  0
   -6.7318    3.3148    0.1878 C   0  0  1  0  0  0  0  0  0  0  0  0
   -8.3209    3.3307    0.4751 C   0  0  0  0  0  0  0  0  0  0  0  0
   -8.5462    3.7527    1.6462 O   0  0  0  0  0  0  0  0  0  0  0  0
   -9.2055    2.9126   -0.4027 O   0  0  0  0  0  0  0  0  0  0  0  0
  1  2  1  0
  3  2  1  6
  3  4  1  0
  3  5  1  0
  5  6  1  1
  6  7  1  0
  7  8  2  0
  9  7  1  1
  9 10  1  0
 10 11  1  0
 11 12  2  0
 12 13  1  0
 13 14  2  0
 14 15  1  0
 14 16  1  0
 16 17  2  0
  9 18  1  0
 18 19  1  0
 19 20  2  0
 21 19  1  1
 21 22  1  0
 22 23  1  0
 23 24  2  0
 25 23  1  1
 25 26  1  0
 26 27  1  0
 27 28  1  0
 28 29  1  0
 29 30  1  0
 30 31  2  0
 30 32  1  0
 25 33  1  0
 33 34  1  0
 34 35  2  0
 36 34  1  1
 36 37  1  0
 36 38  1  0
 38 39  1  0
 39 40  2  0
 39 41  1  0
 21 42  1  0
 42 43  1  0
 42 44  1  0
  5 45  1  0
 45 46  2  0
 45 47  1  0
 48 47  1  1
 48 49  1  0
 49 50  1  0
 50 51  2  0
 51 52  1  0
 52 53  2  0
 53 54  1  0
 48 55  1  0
 55 56  2  0
 55 57  1  0
 57 58  1  0
 58 59  1  0
 59 60  1  0
 60 61  1  0
 61 62  1  1
 62 63  2  0
 62 64  1  0
 17 11  1  0
 54 50  1  0
 61 57  1  0
M  END
>  <zinc_id>  (1) 
ZINC000096077632

>  <smiles>  (1) 
CC[C@H](C)[C@H](NC(=O)[C@H](Cc1ccc(O)cc1)NC(=O)[C@@H](NC(=O)[C@H](CCCNC(=N)N)NC(=O)[C@@H](N)CC(=O)O)C(C)C)C(=O)N[C@@H](Cc1cnc[nH]1)C(=O)N1CCC[C@H]1C(=O)O

$$$$
