
     RDKit          3D

 58 59  0  0  0  0  0  0  0  0999 V2000
   -5.9731   -3.2375   -2.7364 C   0  0  0  0  0  0  0  0  0  0  0  0
   -5.7570   -3.4115   -2.5226 C   0  0  0  0  0  0  0  0  0  0  0  0
   -4.1894   -3.3825   -2.0955 C   0  0  2  0  0  0  0  0  0  0  0  0
   -4.4825   -3.2948   -0.5125 C   0  0  0  0  0  0  0  0  0  0  0  0
   -3.9586   -1.7104   -2.4119 C   0  0  2  0  0  0  0  0  0  0  0  0
   -3.1811   -1.3495   -1.0940 N   0  0  0  0  0  0  0  0  0  0  0  0
   -1.7435   -1.3465   -1.1738 C   0  0  0  0  0  0  0  0  0  0  0  0
   -1.3917   -2.4902   -1.3180 O   0  0  0  0  0  0  0  0  0  0  0  0
   -1.0612   -0.1094   -1.9403 C   0  0  2  0  0  0  0  0  0  0  0  0
   -0.5227   -0.9875   -3.2243 C   0  0  0  0  0  0  0  0  0  0  0  0
    0.2646   -1.9947   -2.8151 O   0  0  0  0  0  0  0  0  0  0  0  0
    0.3623   -0.1684   -1.2414 N   0  0  0  0  0  0  0  0  0  0  0  0
    0.9289    1.0688   -1.4580 C   0  0  0  0  0  0  0  0  0  0  0  0
    0.4252    2.0625   -0.8877 O   0  0  0  0  0  0  0  0  0  0  0  0
    2.4630    1.3445   -1.8627 C   0  0  1  0  0  0  0  0  0  0  0  0
    2.9887    0.0030   -1.2477 N   0  0  0  0  0  0  0  0  0  0  0  0
    4.2174   -0.5293   -1.5200 C   0  0  0  0  0  0  0  0  0  0  0  0
    3.9058   -1.1359   -2.5953 O   0  0  0  0  0  0  0  0  0  0  0  0
    5.5813    0.2933   -1.7669 C   0  0  2  0  0  0  0  0  0  0  0  0
    6.3625   -0.9772   -2.4695 C   0  0  0  0  0  0  0  0  0  0  0  0
    7.7552   -0.7033   -2.0370 C   0  0  0  0  0  0  0  0  0  0  0  0
    7.6068    0.1377   -0.8086 C   0  0  0  0  0  0  0  0  0  0  0  0
    6.2210   -0.1044   -0.3900 N   0  0  0  0  0  0  0  0  0  0  0  0
    5.7767    0.4694    0.8380 C   0  0  0  0  0  0  0  0  0  0  0  0
    4.6367    0.8864    1.0606 O   0  0  0  0  0  0  0  0  0  0  0  0
    6.4239   -0.5119    1.9489 C   0  0  2  0  0  0  0  0  0  0  0  0
    6.0168    0.4687    3.2045 C   0  0  0  0  0  0  0  0  0  0  0  0
    7.8347    0.1789    1.8098 N   0  0  0  0  0  0  0  0  0  0  0  0
    8.9027   -0.6593    2.1632 C   0  0  0  0  0  0  0  0  0  0  0  0
    8.8893   -1.8661    2.3389 O   0  0  0  0  0  0  0  0  0  0  0  0
   10.1367    0.2266    2.6956 C   0  0  1  0  0  0  0  0  0  0  0  0
   10.2266   -0.5587    4.0616 N   0  0  0  0  0  0  0  0  0  0  0  0
   11.2443   -0.7591    1.9807 C   0  0  0  0  0  0  0  0  0  0  0  0
   11.7805    0.0971    0.9080 C   0  0  0  0  0  0  0  0  0  0  0  0
   10.9951    0.3276   -0.2656 N   0  0  0  0  0  0  0  0  0  0  0  0
   13.0049    0.4120    0.8158 O   0  0  0  0  0  0  0  0  0  0  0  0
    2.2359    0.8703   -3.4304 C   0  0  0  0  0  0  0  0  0  0  0  0
    1.4167    2.1082   -3.8387 C   0  0  0  0  0  0  0  0  0  0  0  0
    3.5238    1.2217   -4.1730 C   0  0  0  0  0  0  0  0  0  0  0  0
   -5.3729   -1.1668   -1.9025 C   0  0  0  0  0  0  0  0  0  0  0  0
   -5.7910   -0.4588   -2.8801 O   0  0  0  0  0  0  0  0  0  0  0  0
   -5.6418   -0.6234   -0.6890 N   0  0  0  0  0  0  0  0  0  0  0  0
   -5.2675    0.5717   -0.0832 C   0  0  0  0  0  0  0  0  0  0  0  0
   -5.2261    0.1467    1.3385 C   0  0  0  0  0  0  0  0  0  0  0  0
   -6.2577   -0.8417    1.5743 C   0  0  0  0  0  0  0  0  0  0  0  0
   -6.8431   -1.2655    0.1013 C   0  0  1  0  0  0  0  0  0  0  0  0
   -7.8494   -0.0077   -0.0111 C   0  0  0  0  0  0  0  0  0  0  0  0
   -8.9804   -0.5654    0.1857 O   0  0  0  0  0  0  0  0  0  0  0  0
   -7.6604    1.1675    0.6807 N   0  0  0  0  0  0  0  0  0  0  0  0
   -8.9386    1.8618    1.3065 C   0  0  1  0  0  0  0  0  0  0  0  0
   -9.0354    0.7377    2.4950 C   0  0  0  0  0  0  0  0  0  0  0  0
   -8.9554    1.2999    3.8224 C   0  0  0  0  0  0  0  0  0  0  0  0
   -8.3368    0.2485    4.6927 C   0  0  0  0  0  0  0  0  0  0  0  0
   -6.9194    0.2012    4.9080 N   0  0  0  0  0  0  0  0  0  0  0  0
   -8.9904   -0.5843    5.3613 O   0  0  0  0  0  0  0  0  0  0  0  0
   -8.0775    2.9060    2.1575 C   0  0  0  0  0  0  0  0  0  0  0  0
   -7.0534    2.7285    2.7048 O   0  0  0  0  0  0  0  0  0  0  0  0
   -8.6699    4.1333    2.2488 O   0  0  0  0  0  0  0  0  0  0  0  0
  1  2  1  0
  3  2  1  6
  3  4  1  0
  3  5  1  0
  5  6  1  1
  6  7  1  0
  7  8  2  0
  9  7  1  1
  9 10  1  0
 10 11  1  0
  9 12  1  0
 12 13  1  0
 13 14  2  0
 15 13  1  1
 15 16  1  0
 16 17  1  0
 17 18  2  0
 19 17  1  1
 19 20  1  0
 20 21  1  0
 21 22  1  0
 22 23  1  0
 23 24  1  0
 24 25  2  0
 26 24  1  6
 26 27  1  0
 26 28  1  0
 28 29  1  0
 29 30  2  0
 31 29  1  6
 31 32  1  0
 31 33  1  0
 33 34  1  0
 34 35  1  0
 34 36  2  0
 15 37  1  0
 37 38  1  0
 37 39  1  0
  5 40  1  0
 40 41  2  0
 40 42  1  0
 42 43  1  0
 43 44  1  0
 44 45  1  0
 45 46  1  0
 46 47  1  6
 47 48  2  0
 47 49  1  0
 50 49  1  6
 50 51  1  0
 51 52  1  0
 52 53  1  0
 53 54  1  0
 53 55  2  0
 50 56  1  0
 56 57  2  0
 56 58  1  0
 23 19  1  0
 46 42  1  0
M  END
>  <zinc_id>  (1) 
ZINC000085540112

>  <smiles>  (1) 
CC[C@H](C)[C@H](NC(=O)[C@H](CO)NC(=O)[C@@H](NC(=O)[C@@H]1CCCN1C(=O)[C@H](C)NC(=O)[C@@H](N)CC(N)=O)C(C)C)C(=O)N1CCC[C@H]1C(=O)N[C@@H](CCC(N)=O)C(=O)O

$$$$
