
     RDKit          3D

 46 45  0  0  0  0  0  0  0  0999 V2000
    8.9072    2.4189    0.3980 C   0  0  0  0  0  0  0  0  0  0  0  0
    8.6758    1.4517    0.4923 S   0  0  0  0  0  0  0  0  0  0  0  0
    9.3799   -0.2091    0.6931 C   0  0  0  0  0  0  0  0  0  0  0  0
    8.5867   -1.1236   -0.2238 C   0  0  0  0  0  0  0  0  0  0  0  0
    7.6589   -2.0411    0.8134 C   0  0  2  0  0  0  0  0  0  0  0  0
    7.5093   -3.1987   -0.2731 N   0  0  0  0  0  0  0  0  0  0  0  0
    6.7611   -4.3114    0.2368 C   0  0  0  0  0  0  0  0  0  0  0  0
    5.6746   -3.9779    0.7988 O   0  0  0  0  0  0  0  0  0  0  0  0
    6.2694   -1.3251    0.3512 C   0  0  0  0  0  0  0  0  0  0  0  0
    6.1126   -1.0470   -0.8199 O   0  0  0  0  0  0  0  0  0  0  0  0
    5.5343   -0.7427    1.3590 N   0  0  0  0  0  0  0  0  0  0  0  0
    4.6912    0.5687    1.0443 C   0  0  1  0  0  0  0  0  0  0  0  0
    5.9155    1.2858    0.1748 C   0  0  0  0  0  0  0  0  0  0  0  0
    5.5269    2.6975    0.0309 C   0  0  0  0  0  0  0  0  0  0  0  0
    6.2918    3.5076    0.6440 O   0  0  0  0  0  0  0  0  0  0  0  0
    5.2009    3.1690   -1.2480 O   0  0  0  0  0  0  0  0  0  0  0  0
    4.0471   -0.0529   -0.3268 C   0  0  0  0  0  0  0  0  0  0  0  0
    3.4596    0.9371   -0.8680 O   0  0  0  0  0  0  0  0  0  0  0  0
    3.1518   -1.1440   -0.0743 N   0  0  0  0  0  0  0  0  0  0  0  0
    1.8615   -1.2569   -0.7511 C   0  0  0  0  0  0  0  0  0  0  0  0
    0.7905   -0.7442    0.1245 C   0  0  0  0  0  0  0  0  0  0  0  0
    1.0439   -0.6709    1.3658 O   0  0  0  0  0  0  0  0  0  0  0  0
   -0.4093   -0.1463   -0.3946 N   0  0  0  0  0  0  0  0  0  0  0  0
   -1.3948    0.3199    0.7696 C   0  0  1  0  0  0  0  0  0  0  0  0
   -1.1627    1.9234    0.3941 C   0  0  0  0  0  0  0  0  0  0  0  0
   -0.7803    2.5815    2.0553 S   0  0  0  0  0  0  0  0  0  0  0  0
   -2.7056    0.2027   -0.2014 C   0  0  0  0  0  0  0  0  0  0  0  0
   -2.8526   -1.0545   -0.3226 O   0  0  0  0  0  0  0  0  0  0  0  0
   -3.8170    0.9987    0.1388 N   0  0  0  0  0  0  0  0  0  0  0  0
   -4.9978    0.2740    0.9286 C   0  0  1  0  0  0  0  0  0  0  0  0
   -5.7274    1.7104    1.3384 C   0  0  0  0  0  0  0  0  0  0  0  0
   -4.6567    2.6232    1.8069 C   0  0  0  0  0  0  0  0  0  0  0  0
   -5.2743    3.9859    1.7074 C   0  0  0  0  0  0  0  0  0  0  0  0
   -6.1965    4.1689    2.5609 O   0  0  0  0  0  0  0  0  0  0  0  0
   -5.4539    4.6123    0.4785 O   0  0  0  0  0  0  0  0  0  0  0  0
   -5.9367    0.1218   -0.4044 C   0  0  0  0  0  0  0  0  0  0  0  0
   -7.1760    0.2490   -0.1358 O   0  0  0  0  0  0  0  0  0  0  0  0
   -5.6813   -1.0771   -1.0574 N   0  0  0  0  0  0  0  0  0  0  0  0
   -6.8434   -1.8447   -1.8214 C   0  0  1  0  0  0  0  0  0  0  0  0
   -7.6845   -2.1744   -0.4199 C   0  0  0  0  0  0  0  0  0  0  0  0
   -6.6727   -3.0819    0.2618 C   0  0  0  0  0  0  0  0  0  0  0  0
   -6.7794   -4.4346   -0.4006 C   0  0  0  0  0  0  0  0  0  0  0  0
   -7.0120   -3.1535    1.7453 C   0  0  0  0  0  0  0  0  0  0  0  0
   -7.7286   -0.4978   -2.1048 C   0  0  0  0  0  0  0  0  0  0  0  0
   -8.9531   -0.7997   -2.2494 O   0  0  0  0  0  0  0  0  0  0  0  0
   -7.1538    0.3023   -3.0616 O   0  0  0  0  0  0  0  0  0  0  0  0
  1  2  1  0
  2  3  1  0
  3  4  1  0
  5  4  1  6
  5  6  1  0
  6  7  1  0
  7  8  2  0
  5  9  1  0
  9 10  2  0
  9 11  1  0
 12 11  1  1
 12 13  1  0
 13 14  1  0
 14 15  2  0
 14 16  1  0
 12 17  1  0
 17 18  2  0
 17 19  1  0
 19 20  1  0
 20 21  1  0
 21 22  2  0
 21 23  1  0
 24 23  1  6
 24 25  1  0
 25 26  1  0
 24 27  1  0
 27 28  2  0
 27 29  1  0
 30 29  1  6
 30 31  1  0
 31 32  1  0
 32 33  1  0
 33 34  2  0
 33 35  1  0
 30 36  1  0
 36 37  2  0
 36 38  1  0
 39 38  1  1
 39 40  1  0
 40 41  1  0
 41 42  1  0
 41 43  1  0
 39 44  1  0
 44 45  2  0
 44 46  1  0
M  END
>  <zinc_id>  (1) 
ZINC000068077856

>  <smiles>  (1) 
CSCC[C@H](NC=O)C(=O)N[C@@H](CC(=O)O)C(=O)NCC(=O)N[C@@H](CS)C(=O)N[C@@H](CCC(=O)O)C(=O)N[C@@H](CC(C)C)C(=O)O

$$$$
