
     RDKit          3D

 43 43  0  0  0  0  0  0  0  0999 V2000
    1.3430   -1.4603    1.6322 C   0  0  0  0  0  0  0  0  0  0  0  0
    1.8698   -0.9651    1.1682 C   0  0  0  0  0  0  0  0  0  0  0  0
    3.1107   -1.6374    1.7736 C   0  0  0  0  0  0  0  0  0  0  0  0
    2.1240    0.5375    1.8122 C   0  0  2  0  0  0  0  0  0  0  0  0
    1.0633    1.3061    0.9272 N   0  0  0  0  0  0  0  0  0  0  0  0
   -0.1677    0.6743    1.1130 C   0  0  0  0  0  0  0  0  0  0  0  0
   -0.2775   -0.2684    0.3573 O   0  0  0  0  0  0  0  0  0  0  0  0
   -1.4594    1.6035    1.3836 C   0  0  2  0  0  0  0  0  0  0  0  0
   -1.3921    1.3868    3.0132 C   0  0  0  0  0  0  0  0  0  0  0  0
   -2.3316    0.4170    3.4937 C   0  0  0  0  0  0  0  0  0  0  0  0
   -2.1148   -0.9137    3.2676 C   0  0  0  0  0  0  0  0  0  0  0  0
   -1.4540   -1.9886    3.3862 N   0  0  0  0  0  0  0  0  0  0  0  0
   -0.4658   -2.7103    3.1372 C   0  0  0  0  0  0  0  0  0  0  0  0
    0.7629   -2.3500    3.7722 N   0  0  0  0  0  0  0  0  0  0  0  0
   -0.4075   -3.4567    1.9330 N   0  0  0  0  0  0  0  0  0  0  0  0
   -2.4797    0.4235    1.1161 N   0  0  0  0  0  0  0  0  0  0  0  0
   -2.9280    0.4794   -0.2484 C   0  0  0  0  0  0  0  0  0  0  0  0
   -3.2331    1.6471   -0.6599 O   0  0  0  0  0  0  0  0  0  0  0  0
   -3.6239   -0.5798   -0.7971 N   0  0  0  0  0  0  0  0  0  0  0  0
   -4.6810   -0.3285   -1.9403 C   0  0  1  0  0  0  0  0  0  0  0  0
   -5.2210    1.0916   -1.2956 C   0  0  0  0  0  0  0  0  0  0  0  0
   -6.5880    0.7063   -0.9085 C   0  0  0  0  0  0  0  0  0  0  0  0
   -7.5215    0.7574   -1.9138 C   0  0  0  0  0  0  0  0  0  0  0  0
   -8.6872    0.0495   -1.7436 C   0  0  0  0  0  0  0  0  0  0  0  0
   -9.1701    0.0059   -0.4426 C   0  0  0  0  0  0  0  0  0  0  0  0
   -8.2023   -0.1799    0.5392 C   0  0  0  0  0  0  0  0  0  0  0  0
   -6.8980    0.1612    0.3040 C   0  0  0  0  0  0  0  0  0  0  0  0
   -3.6065    0.4107   -2.9006 C   0  0  0  0  0  0  0  0  0  0  0  0
   -4.0763    1.4033   -3.5435 O   0  0  0  0  0  0  0  0  0  0  0  0
   -3.1512   -0.5670   -3.8058 O   0  0  0  0  0  0  0  0  0  0  0  0
    3.3085    0.9157    0.7913 C   0  0  0  0  0  0  0  0  0  0  0  0
    4.2250    1.6151    1.2539 O   0  0  0  0  0  0  0  0  0  0  0  0
    3.2010    0.5495   -0.5323 N   0  0  0  0  0  0  0  0  0  0  0  0
    4.3893    1.0521   -1.4357 C   0  0  2  0  0  0  0  0  0  0  0  0
    4.5056   -0.3633   -2.2148 C   0  0  0  0  0  0  0  0  0  0  0  0
    4.5524   -1.3530   -1.5641 O   0  0  0  0  0  0  0  0  0  0  0  0
    5.5593    0.6548   -0.3408 C   0  0  0  0  0  0  0  0  0  0  0  0
    6.7538    0.3543   -1.1555 C   0  0  0  0  0  0  0  0  0  0  0  0
    7.9849    0.7775   -0.3875 C   0  0  0  0  0  0  0  0  0  0  0  0
    9.0888    0.0988   -1.0333 N   0  0  0  0  0  0  0  0  0  0  0  0
    8.9660   -0.6923   -2.0362 C   0  0  0  0  0  0  0  0  0  0  0  0
    8.1167   -1.8168   -1.9418 N   0  0  0  0  0  0  0  0  0  0  0  0
    9.2132   -0.1591   -3.3332 N   0  0  0  0  0  0  0  0  0  0  0  0
  1  2  1  0
  2  3  1  0
  4  2  1  6
  4  5  1  0
  5  6  1  0
  6  7  2  0
  8  6  1  6
  8  9  1  0
  9 10  1  0
 10 11  1  0
 11 12  1  0
 12 13  2  3
 13 14  1  0
 13 15  1  0
  8 16  1  0
 16 17  1  0
 17 18  2  0
 17 19  1  0
 20 19  1  1
 20 21  1  0
 21 22  1  0
 22 23  2  0
 23 24  1  0
 24 25  2  0
 25 26  1  0
 26 27  2  0
 20 28  1  0
 28 29  2  0
 28 30  1  0
  4 31  1  0
 31 32  2  0
 31 33  1  0
 34 33  1  1
 34 35  1  0
 35 36  2  0
 34 37  1  0
 37 38  1  0
 38 39  1  0
 39 40  1  0
 40 41  2  3
 41 42  1  0
 41 43  1  0
 27 22  1  0
M  END
>  <zinc_id>  (1) 
ZINC000008716755

>  <smiles>  (1) 
CC(C)[C@H](NC(=O)[C@H](CCCN=C(N)N)NC(=O)N[C@@H](Cc1ccccc1)C(=O)O)C(=O)N[C@H](C=O)CCCN=C(N)N

$$$$
