10126114
  -OEChem-12152013143D

 52 52  0     1  0  0  0  0  0999 V2000
   -0.5522    0.7062   -1.9430 O   0  0  0  0  0  0  0  0  0  0  0  0
    0.2881   -1.2179    1.4256 O   0  0  0  0  0  0  0  0  0  0  0  0
   -5.0801    1.9447   -0.2935 O   0  0  0  0  0  0  0  0  0  0  0  0
   -5.0006   -0.3236   -0.2606 O   0  0  0  0  0  0  0  0  0  0  0  0
    0.7265   -2.8620   -1.7260 O   0  0  0  0  0  0  0  0  0  0  0  0
    1.5570   -4.8352   -0.9745 O   0  0  0  0  0  0  0  0  0  0  0  0
   -0.3465    3.6364   -1.5630 N   0  0  0  0  0  0  0  0  0  0  0  0
   -0.9860    0.8932    0.3296 N   0  0  0  0  0  0  0  0  0  0  0  0
   -1.0636   -2.6206    0.1614 N   0  0  0  0  0  0  0  0  0  0  0  0
    2.5570    1.4247   -0.2996 C   0  0  0  0  0  0  0  0  0  0  0  0
    2.5194    1.7767    1.1937 C   0  0  0  0  0  0  0  0  0  0  0  0
    4.0040    1.2932   -0.7936 C   0  0  0  0  0  0  0  0  0  0  0  0
    3.3153    0.7763    2.0290 C   0  0  0  0  0  0  0  0  0  0  0  0
    4.7974    0.2935    0.0451 C   0  0  0  0  0  0  0  0  0  0  0  0
    1.8000    2.4681   -1.1190 C   0  0  0  0  0  0  0  0  0  0  0  0
    4.7503    0.6418    1.5295 C   0  0  0  0  0  0  0  0  0  0  0  0
    0.3197    2.6270   -0.7424 C   0  0  2  0  0  0  0  0  0  0  0  0
   -0.4443    1.3130   -0.8793 C   0  0  0  0  0  0  0  0  0  0  0  0
   -1.7493   -0.3221    0.4784 C   0  0  2  0  0  0  0  0  0  0  0  0
   -2.7669   -0.1858    1.6173 C   0  0  0  0  0  0  0  0  0  0  0  0
   -0.7275   -1.4161    0.7612 C   0  0  0  0  0  0  0  0  0  0  0  0
   -3.7818    0.9435    1.4245 C   0  0  0  0  0  0  0  0  0  0  0  0
   -4.6646    0.7536    0.2113 C   0  0  0  0  0  0  0  0  0  0  0  0
   -0.2411   -3.8055    0.2506 C   0  0  0  0  0  0  0  0  0  0  0  0
    0.7700   -3.9032   -0.8626 C   0  0  0  0  0  0  0  0  0  0  0  0
    2.0750    0.4474   -0.4346 H   0  0  0  0  0  0  0  0  0  0  0  0
    2.9261    2.7837    1.3516 H   0  0  0  0  0  0  0  0  0  0  0  0
    1.4953    1.7822    1.5772 H   0  0  0  0  0  0  0  0  0  0  0  0
    4.0143    0.9720   -1.8419 H   0  0  0  0  0  0  0  0  0  0  0  0
    4.5024    2.2703   -0.7554 H   0  0  0  0  0  0  0  0  0  0  0  0
    3.3190    1.0930    3.0781 H   0  0  0  0  0  0  0  0  0  0  0  0
    2.8252   -0.2038    1.9932 H   0  0  0  0  0  0  0  0  0  0  0  0
    4.3901   -0.7138   -0.1068 H   0  0  0  0  0  0  0  0  0  0  0  0
    5.8387    0.2716   -0.2955 H   0  0  0  0  0  0  0  0  0  0  0  0
    2.3001    3.4415   -1.0224 H   0  0  0  0  0  0  0  0  0  0  0  0
    1.8700    2.1938   -2.1808 H   0  0  0  0  0  0  0  0  0  0  0  0
    5.2858    1.5838    1.7004 H   0  0  0  0  0  0  0  0  0  0  0  0
    5.2709   -0.1308    2.1065 H   0  0  0  0  0  0  0  0  0  0  0  0
    0.2549    2.9928    0.2875 H   0  0  0  0  0  0  0  0  0  0  0  0
    0.1471    4.5245   -1.4820 H   0  0  0  0  0  0  0  0  0  0  0  0
   -1.2879    3.8004   -1.2079 H   0  0  0  0  0  0  0  0  0  0  0  0
   -0.7877    1.4257    1.1714 H   0  0  0  0  0  0  0  0  0  0  0  0
   -2.2548   -0.5314   -0.4709 H   0  0  0  0  0  0  0  0  0  0  0  0
   -2.2384   -0.0157    2.5647 H   0  0  0  0  0  0  0  0  0  0  0  0
   -3.2988   -1.1389    1.7340 H   0  0  0  0  0  0  0  0  0  0  0  0
   -4.4386    1.0010    2.2995 H   0  0  0  0  0  0  0  0  0  0  0  0
   -3.2589    1.9025    1.3389 H   0  0  0  0  0  0  0  0  0  0  0  0
   -1.9200   -2.6848   -0.3808 H   0  0  0  0  0  0  0  0  0  0  0  0
    0.2919   -3.8023    1.2060 H   0  0  0  0  0  0  0  0  0  0  0  0
   -0.9097   -4.6689    0.1928 H   0  0  0  0  0  0  0  0  0  0  0  0
   -5.6638    1.8274   -1.0732 H   0  0  0  0  0  0  0  0  0  0  0  0
    1.3948   -2.9477   -2.4391 H   0  0  0  0  0  0  0  0  0  0  0  0
  1 18  2  0  0  0  0
  2 21  2  0  0  0  0
  3 23  1  0  0  0  0
  3 51  1  0  0  0  0
  4 23  2  0  0  0  0
  5 25  1  0  0  0  0
  5 52  1  0  0  0  0
  6 25  2  0  0  0  0
  7 17  1  0  0  0  0
  7 40  1  0  0  0  0
  7 41  1  0  0  0  0
  8 18  1  0  0  0  0
  8 19  1  0  0  0  0
  8 42  1  0  0  0  0
  9 21  1  0  0  0  0
  9 24  1  0  0  0  0
  9 48  1  0  0  0  0
 10 11  1  0  0  0  0
 10 12  1  0  0  0  0
 10 15  1  0  0  0  0
 10 26  1  0  0  0  0
 11 13  1  0  0  0  0
 11 27  1  0  0  0  0
 11 28  1  0  0  0  0
 12 14  1  0  0  0  0
 12 29  1  0  0  0  0
 12 30  1  0  0  0  0
 13 16  1  0  0  0  0
 13 31  1  0  0  0  0
 13 32  1  0  0  0  0
 14 16  1  0  0  0  0
 14 33  1  0  0  0  0
 14 34  1  0  0  0  0
 15 17  1  0  0  0  0
 15 35  1  0  0  0  0
 15 36  1  0  0  0  0
 16 37  1  0  0  0  0
 16 38  1  0  0  0  0
 17 18  1  0  0  0  0
 17 39  1  0  0  0  0
 19 20  1  0  0  0  0
 19 21  1  0  0  0  0
 19 43  1  0  0  0  0
 20 22  1  0  0  0  0
 20 44  1  0  0  0  0
 20 45  1  0  0  0  0
 22 23  1  0  0  0  0
 22 46  1  0  0  0  0
 22 47  1  0  0  0  0
 24 25  1  0  0  0  0
 24 49  1  0  0  0  0
 24 50  1  0  0  0  0
M  END
> <DATABASE_ID>
DB16176

> <DATABASE_NAME>
drugbank

> <ORIGINAL_SOURCE>
PUBCHEM

> <ORIGINAL_SOURCE_URL>
https://pubchem.ncbi.nlm.nih.gov/rest/pug/compound/inchikey/CNDMSQXUUIBFPE-VXGBXAGGSA-N/SDF?record_type=3d

> <SMILES>
N[C@H](CC1CCCCC1)C(=O)N[C@H](CCC(O)=O)C(=O)NCC(O)=O

> <INCHI_IDENTIFIER>
InChI=1S/C16H27N3O6/c17-11(8-10-4-2-1-3-5-10)15(24)19-12(6-7-13(20)21)16(25)18-9-14(22)23/h10-12H,1-9,17H2,(H,18,25)(H,19,24)(H,20,21)(H,22,23)/t11-,12-/m1/s1

> <INCHI_KEY>
CNDMSQXUUIBFPE-VXGBXAGGSA-N

> <FORMULA>
C16H27N3O6

> <MOLECULAR_WEIGHT>
357.407

> <EXACT_MASS>
357.189985601

> <JCHEM_ACCEPTOR_COUNT>
7

> <JCHEM_ATOM_COUNT>
52

> <JCHEM_AVERAGE_NEUTRAL_MICROSPECIES_CHARGE>
-1.0673447043263549

> <JCHEM_AVERAGE_POLARIZABILITY>
36.94021314220377

> <JCHEM_BIOAVAILABILITY>
1

> <JCHEM_DONOR_COUNT>
5

> <JCHEM_FORMAL_CHARGE>
0

> <JCHEM_GHOSE_FILTER>
0

> <JCHEM_IUPAC>
(4R)-4-[(2R)-2-amino-3-cyclohexylpropanamido]-4-[(carboxymethyl)carbamoyl]butanoic acid

> <ALOGPS_LOGP>
-2.08

> <JCHEM_LOGP>
-3.0644381665796923

> <ALOGPS_LOGS>
-2.64

> <JCHEM_MDDR_LIKE_RULE>
0

> <JCHEM_NEUTRAL_CHARGE>
-1

> <JCHEM_NUMBER_OF_RINGS>
1

> <JCHEM_PHYSIOLOGICAL_CHARGE>
-1

> <JCHEM_PKA>
3.933465227640146

> <JCHEM_PKA_STRONGEST_ACIDIC>
3.1633089035933657

> <JCHEM_PKA_STRONGEST_BASIC>
8.13106364549661

> <JCHEM_POLAR_SURFACE_AREA>
158.82

> <JCHEM_REFRACTIVITY>
87.06299999999997

> <JCHEM_ROTATABLE_BOND_COUNT>
10

> <JCHEM_RULE_OF_FIVE>
1

> <ALOGPS_SOLUBILITY>
8.12e-01 g/l

> <JCHEM_TRADITIONAL_IUPAC>
5-({4-[2-(3-methoxyphenyl)-2-oxoethoxy]phenyl}methyl)-1,3-thiazolidine-2,4-dione

> <JCHEM_VEBER_RULE>
0

$$$$
