6037
  -OEChem-10051719083D

 51 53  0     1  0  0  0  0  0999 V2000
    7.8639    2.1057   -1.3673 O   0  0  0  0  0  0  0  0  0  0  0  0
    4.2499    1.4582    2.0864 O   0  0  0  0  0  0  0  0  0  0  0  0
    5.8603    1.7886   -2.3845 O   0  0  0  0  0  0  0  0  0  0  0  0
    7.4689   -3.5749   -0.9839 O   0  0  0  0  0  0  0  0  0  0  0  0
    8.2061   -2.6225    0.9389 O   0  0  0  0  0  0  0  0  0  0  0  0
   -6.5890    2.3275    0.4909 O   0  0  0  0  0  0  0  0  0  0  0  0
    4.7078    0.9130   -0.1208 N   0  0  0  0  0  0  0  0  0  0  0  0
   -1.6391    0.0022    0.1226 N   0  0  0  0  0  0  0  0  0  0  0  0
   -4.7597    0.3856    0.6113 N   0  0  0  0  0  0  0  0  0  0  0  0
   -7.6696   -1.2894   -0.8254 N   0  0  0  0  0  0  0  0  0  0  0  0
   -5.4931   -2.1638   -0.3085 N   0  0  0  0  0  0  0  0  0  0  0  0
   -8.2238    0.9915   -0.4182 N   0  0  0  0  0  0  0  0  0  0  0  0
   -9.7672   -0.5139   -1.3412 N   0  0  0  0  0  0  0  0  0  0  0  0
    6.1315    1.1265   -0.0566 C   0  0  1  0  0  0  0  0  0  0  0  0
    6.8998   -0.1291    0.3732 C   0  0  0  0  0  0  0  0  0  0  0  0
    6.7887   -1.3355   -0.5679 C   0  0  0  0  0  0  0  0  0  0  0  0
    3.8743    1.0998    0.9732 C   0  0  0  0  0  0  0  0  0  0  0  0
    2.4338    0.8124    0.7510 C   0  0  0  0  0  0  0  0  0  0  0  0
    6.5722    1.6850   -1.3940 C   0  0  0  0  0  0  0  0  0  0  0  0
   -0.2712    0.2734    0.3336 C   0  0  0  0  0  0  0  0  0  0  0  0
   -2.5216   -0.4032    1.1725 C   0  0  0  0  0  0  0  0  0  0  0  0
    1.6279    0.4195    1.8196 C   0  0  0  0  0  0  0  0  0  0  0  0
    1.8871    0.9359   -0.5263 C   0  0  0  0  0  0  0  0  0  0  0  0
    0.2754    0.1500    1.6110 C   0  0  0  0  0  0  0  0  0  0  0  0
    0.5345    0.6664   -0.7350 C   0  0  0  0  0  0  0  0  0  0  0  0
   -3.9031   -0.6520    0.6336 C   0  0  0  0  0  0  0  0  0  0  0  0
    7.5540   -2.5519   -0.0934 C   0  0  0  0  0  0  0  0  0  0  0  0
   -5.9855    0.1140    0.1195 C   0  0  0  0  0  0  0  0  0  0  0  0
   -6.3680   -1.1359   -0.3393 C   0  0  0  0  0  0  0  0  0  0  0  0
   -4.2629   -1.9028    0.1822 C   0  0  0  0  0  0  0  0  0  0  0  0
   -6.9554    1.2310    0.0796 C   0  0  0  0  0  0  0  0  0  0  0  0
   -8.5271   -0.2112   -0.8368 C   0  0  0  0  0  0  0  0  0  0  0  0
    6.3098    1.9158    0.6850 H   0  0  0  0  0  0  0  0  0  0  0  0
    6.5545   -0.4325    1.3705 H   0  0  0  0  0  0  0  0  0  0  0  0
    7.9622    0.1236    0.4871 H   0  0  0  0  0  0  0  0  0  0  0  0
    5.7378   -1.6277   -0.6703 H   0  0  0  0  0  0  0  0  0  0  0  0
    7.1768   -1.0655   -1.5563 H   0  0  0  0  0  0  0  0  0  0  0  0
    4.3379    0.5365   -0.9875 H   0  0  0  0  0  0  0  0  0  0  0  0
   -2.5901    0.3770    1.9411 H   0  0  0  0  0  0  0  0  0  0  0  0
   -2.1646   -1.3173    1.6634 H   0  0  0  0  0  0  0  0  0  0  0  0
    2.0367    0.3140    2.8212 H   0  0  0  0  0  0  0  0  0  0  0  0
    2.4712    1.2692   -1.3789 H   0  0  0  0  0  0  0  0  0  0  0  0
   -1.9920    0.1134   -0.8219 H   0  0  0  0  0  0  0  0  0  0  0  0
   -0.3154   -0.1518    2.4706 H   0  0  0  0  0  0  0  0  0  0  0  0
    0.1186    0.7730   -1.7336 H   0  0  0  0  0  0  0  0  0  0  0  0
   -3.5795   -2.7440    0.1943 H   0  0  0  0  0  0  0  0  0  0  0  0
    8.1435    2.4821   -2.2289 H   0  0  0  0  0  0  0  0  0  0  0  0
   -7.9479   -2.2032   -1.1600 H   0  0  0  0  0  0  0  0  0  0  0  0
    7.9783   -4.3595   -0.6888 H   0  0  0  0  0  0  0  0  0  0  0  0
   -9.9938   -1.4485   -1.6629 H   0  0  0  0  0  0  0  0  0  0  0  0
  -10.4937    0.1908   -1.4054 H   0  0  0  0  0  0  0  0  0  0  0  0
  1 19  1  0  0  0  0
  1 47  1  0  0  0  0
  2 17  2  0  0  0  0
  3 19  2  0  0  0  0
  4 27  1  0  0  0  0
  4 49  1  0  0  0  0
  5 27  2  0  0  0  0
  6 31  2  0  0  0  0
  7 14  1  0  0  0  0
  7 17  1  0  0  0  0
  7 38  1  0  0  0  0
  8 20  1  0  0  0  0
  8 21  1  0  0  0  0
  8 43  1  0  0  0  0
  9 26  1  0  0  0  0
  9 28  2  0  0  0  0
 10 29  1  0  0  0  0
 10 32  1  0  0  0  0
 10 48  1  0  0  0  0
 11 29  2  0  0  0  0
 11 30  1  0  0  0  0
 12 31  1  0  0  0  0
 12 32  2  0  0  0  0
 13 32  1  0  0  0  0
 13 50  1  0  0  0  0
 13 51  1  0  0  0  0
 14 15  1  0  0  0  0
 14 19  1  0  0  0  0
 14 33  1  0  0  0  0
 15 16  1  0  0  0  0
 15 34  1  0  0  0  0
 15 35  1  0  0  0  0
 16 27  1  0  0  0  0
 16 36  1  0  0  0  0
 16 37  1  0  0  0  0
 17 18  1  0  0  0  0
 18 22  2  0  0  0  0
 18 23  1  0  0  0  0
 20 24  2  0  0  0  0
 20 25  1  0  0  0  0
 21 26  1  0  0  0  0
 21 39  1  0  0  0  0
 21 40  1  0  0  0  0
 22 24  1  0  0  0  0
 22 41  1  0  0  0  0
 23 25  2  0  0  0  0
 23 42  1  0  0  0  0
 24 44  1  0  0  0  0
 25 45  1  0  0  0  0
 26 30  2  0  0  0  0
 28 29  1  0  0  0  0
 28 31  1  0  0  0  0
 30 46  1  0  0  0  0
M  END
> <DATABASE_ID>
DB00158

> <DATABASE_NAME>
drugbank

> <ORIGINAL_SOURCE>
PUBCHEM

> <ORIGINAL_SOURCE_URL>
https://pubchem.ncbi.nlm.nih.gov/rest/pug/compound/inchikey/OVBPIULPVIDEAO-LBPRGKRZSA-N/SDF?record_type=3d

> <SMILES>
NC1=NC(=O)C2=NC(CNC3=CC=C(C=C3)C(=O)N[C@@H](CCC(O)=O)C(O)=O)=CN=C2N1

> <INCHI_IDENTIFIER>
InChI=1S/C19H19N7O6/c20-19-25-15-14(17(30)26-19)23-11(8-22-15)7-21-10-3-1-9(2-4-10)16(29)24-12(18(31)32)5-6-13(27)28/h1-4,8,12,21H,5-7H2,(H,24,29)(H,27,28)(H,31,32)(H3,20,22,25,26,30)/t12-/m0/s1

> <INCHI_KEY>
OVBPIULPVIDEAO-LBPRGKRZSA-N

> <FORMULA>
C19H19N7O6

> <MOLECULAR_WEIGHT>
441.3975

> <EXACT_MASS>
441.139681375

> <JCHEM_ACCEPTOR_COUNT>
12

> <JCHEM_ATOM_COUNT>
51

> <JCHEM_AVERAGE_NEUTRAL_MICROSPECIES_CHARGE>
-1.9987826394531354

> <JCHEM_AVERAGE_POLARIZABILITY>
42.056565993428265

> <JCHEM_BIOAVAILABILITY>
0

> <JCHEM_DONOR_COUNT>
6

> <JCHEM_FORMAL_CHARGE>
0

> <JCHEM_GHOSE_FILTER>
0

> <JCHEM_IUPAC>
(2S)-2-[(4-{[(2-amino-4-oxo-1,4-dihydropteridin-6-yl)methyl]amino}phenyl)formamido]pentanedioic acid

> <ALOGPS_LOGP>
-0.04

> <JCHEM_LOGP>
-0.6870797884479357

> <ALOGPS_LOGS>
-3.76

> <JCHEM_MDDR_LIKE_RULE>
1

> <JCHEM_NEUTRAL_CHARGE>
-2

> <JCHEM_NUMBER_OF_RINGS>
3

> <JCHEM_PHYSIOLOGICAL_CHARGE>
-2

> <JCHEM_PKA>
4.173673753219039

> <JCHEM_PKA_STRONGEST_ACIDIC>
3.375691267868892

> <JCHEM_PKA_STRONGEST_BASIC>
2.1245702217191123

> <JCHEM_POLAR_SURFACE_AREA>
208.99000000000004

> <JCHEM_REFRACTIVITY>
111.01120000000002

> <JCHEM_ROTATABLE_BOND_COUNT>
9

> <JCHEM_RULE_OF_FIVE>
0

> <ALOGPS_SOLUBILITY>
7.61e-02 g/l

> <JCHEM_TRADITIONAL_IUPAC>
biotin

> <JCHEM_VEBER_RULE>
0

$$$$
