5362119
  -OEChem-10051719213D

 60 61  0     1  0  0  0  0  0999 V2000
    1.0405   -1.2700    1.4986 O   0  0  0  0  0  0  0  0  0  0  0  0
    3.2835   -4.3943    1.6874 O   0  0  0  0  0  0  0  0  0  0  0  0
    4.4434   -2.4665    1.3209 O   0  0  0  0  0  0  0  0  0  0  0  0
   -1.1130    0.7266   -2.9098 O   0  0  0  0  0  0  0  0  0  0  0  0
   -0.7351    2.5733   -1.6506 O   0  0  0  0  0  0  0  0  0  0  0  0
    2.4299   -1.6271   -0.3177 N   0  0  0  0  0  0  0  0  0  0  0  0
    0.0425    0.9262    0.4172 N   0  0  0  0  0  0  0  0  0  0  0  0
    3.9606    6.2530    1.1692 N   0  0  0  0  0  0  0  0  0  0  0  0
    2.5960   -3.0612   -0.1209 C   0  0  1  0  0  0  0  0  0  0  0  0
    3.1847   -3.5665   -1.4331 C   0  0  0  0  0  0  0  0  0  0  0  0
    3.1085   -1.1798   -1.5314 C   0  0  0  0  0  0  0  0  0  0  0  0
    3.9630   -2.3632   -1.9596 C   0  0  0  0  0  0  0  0  0  0  0  0
    1.4040    0.5689    0.0305 C   0  0  2  0  0  0  0  0  0  0  0  0
    1.5969   -0.8576    0.4795 C   0  0  0  0  0  0  0  0  0  0  0  0
    2.4227    1.5070    0.6859 C   0  0  0  0  0  0  0  0  0  0  0  0
   -0.9208    0.4118   -0.5451 C   0  0  1  0  0  0  0  0  0  0  0  0
    2.2266    2.9644    0.2493 C   0  0  0  0  0  0  0  0  0  0  0  0
    3.5479   -3.2429    1.0228 C   0  0  0  0  0  0  0  0  0  0  0  0
   -2.3073    0.3497    0.1108 C   0  0  0  0  0  0  0  0  0  0  0  0
    3.2146    3.9341    0.9067 C   0  0  0  0  0  0  0  0  0  0  0  0
   -3.4178   -0.2003   -0.7981 C   0  0  0  0  0  0  0  0  0  0  0  0
   -0.9166    1.3644   -1.7277 C   0  0  0  0  0  0  0  0  0  0  0  0
    2.9995    5.3892    0.4916 C   0  0  0  0  0  0  0  0  0  0  0  0
   -4.7644   -0.3334   -0.1304 C   0  0  0  0  0  0  0  0  0  0  0  0
   -5.1070   -1.5200    0.5180 C   0  0  0  0  0  0  0  0  0  0  0  0
   -5.6665    0.7301   -0.1610 C   0  0  0  0  0  0  0  0  0  0  0  0
   -6.3517   -1.6431    1.1355 C   0  0  0  0  0  0  0  0  0  0  0  0
   -6.9111    0.6069    0.4566 C   0  0  0  0  0  0  0  0  0  0  0  0
   -7.2537   -0.5798    1.1049 C   0  0  0  0  0  0  0  0  0  0  0  0
    1.6285   -3.5132    0.1221 H   0  0  0  0  0  0  0  0  0  0  0  0
    3.8180   -4.4516   -1.3199 H   0  0  0  0  0  0  0  0  0  0  0  0
    2.3760   -3.8086   -2.1332 H   0  0  0  0  0  0  0  0  0  0  0  0
    2.3457   -0.9643   -2.2877 H   0  0  0  0  0  0  0  0  0  0  0  0
    3.7017   -0.2809   -1.3481 H   0  0  0  0  0  0  0  0  0  0  0  0
    4.1204   -2.3984   -3.0412 H   0  0  0  0  0  0  0  0  0  0  0  0
    4.9456   -2.3133   -1.4757 H   0  0  0  0  0  0  0  0  0  0  0  0
    1.5171    0.6677   -1.0525 H   0  0  0  0  0  0  0  0  0  0  0  0
    2.3444    1.4403    1.7794 H   0  0  0  0  0  0  0  0  0  0  0  0
    3.4420    1.1875    0.4388 H   0  0  0  0  0  0  0  0  0  0  0  0
   -0.1562    0.5967    1.3611 H   0  0  0  0  0  0  0  0  0  0  0  0
   -0.6518   -0.5953   -0.8870 H   0  0  0  0  0  0  0  0  0  0  0  0
    1.2104    3.2953    0.4944 H   0  0  0  0  0  0  0  0  0  0  0  0
    2.3294    3.0320   -0.8408 H   0  0  0  0  0  0  0  0  0  0  0  0
   -2.2518   -0.2777    1.0111 H   0  0  0  0  0  0  0  0  0  0  0  0
   -2.6027    1.3517    0.4525 H   0  0  0  0  0  0  0  0  0  0  0  0
    4.2367    3.6258    0.6512 H   0  0  0  0  0  0  0  0  0  0  0  0
    3.1222    3.8489    1.9972 H   0  0  0  0  0  0  0  0  0  0  0  0
   -3.5322    0.4416   -1.6805 H   0  0  0  0  0  0  0  0  0  0  0  0
   -3.1160   -1.1811   -1.1886 H   0  0  0  0  0  0  0  0  0  0  0  0
    1.9849    5.7083    0.7526 H   0  0  0  0  0  0  0  0  0  0  0  0
    3.1148    5.4936   -0.5926 H   0  0  0  0  0  0  0  0  0  0  0  0
    3.8977   -4.5324    2.4398 H   0  0  0  0  0  0  0  0  0  0  0  0
    4.9082    5.9813    0.9103 H   0  0  0  0  0  0  0  0  0  0  0  0
    3.8398    7.2116    0.8450 H   0  0  0  0  0  0  0  0  0  0  0  0
   -4.4118   -2.3546    0.5506 H   0  0  0  0  0  0  0  0  0  0  0  0
   -5.4101    1.6604   -0.6609 H   0  0  0  0  0  0  0  0  0  0  0  0
   -1.0979    1.3489   -3.6679 H   0  0  0  0  0  0  0  0  0  0  0  0
   -6.6182   -2.5668    1.6408 H   0  0  0  0  0  0  0  0  0  0  0  0
   -7.6133    1.4351    0.4334 H   0  0  0  0  0  0  0  0  0  0  0  0
   -8.2227   -0.6756    1.5860 H   0  0  0  0  0  0  0  0  0  0  0  0
  1 14  2  0  0  0  0
  2 18  1  0  0  0  0
  2 52  1  0  0  0  0
  3 18  2  0  0  0  0
  4 22  1  0  0  0  0
  4 57  1  0  0  0  0
  5 22  2  0  0  0  0
  6  9  1  0  0  0  0
  6 11  1  0  0  0  0
  6 14  1  0  0  0  0
  7 13  1  0  0  0  0
  7 16  1  0  0  0  0
  7 40  1  0  0  0  0
  8 23  1  0  0  0  0
  8 53  1  0  0  0  0
  8 54  1  0  0  0  0
  9 10  1  0  0  0  0
  9 18  1  0  0  0  0
  9 30  1  0  0  0  0
 10 12  1  0  0  0  0
 10 31  1  0  0  0  0
 10 32  1  0  0  0  0
 11 12  1  0  0  0  0
 11 33  1  0  0  0  0
 11 34  1  0  0  0  0
 12 35  1  0  0  0  0
 12 36  1  0  0  0  0
 13 14  1  0  0  0  0
 13 15  1  0  0  0  0
 13 37  1  0  0  0  0
 15 17  1  0  0  0  0
 15 38  1  0  0  0  0
 15 39  1  0  0  0  0
 16 19  1  0  0  0  0
 16 22  1  0  0  0  0
 16 41  1  0  0  0  0
 17 20  1  0  0  0  0
 17 42  1  0  0  0  0
 17 43  1  0  0  0  0
 19 21  1  0  0  0  0
 19 44  1  0  0  0  0
 19 45  1  0  0  0  0
 20 23  1  0  0  0  0
 20 46  1  0  0  0  0
 20 47  1  0  0  0  0
 21 24  1  0  0  0  0
 21 48  1  0  0  0  0
 21 49  1  0  0  0  0
 23 50  1  0  0  0  0
 23 51  1  0  0  0  0
 24 25  2  0  0  0  0
 24 26  1  0  0  0  0
 25 27  1  0  0  0  0
 25 55  1  0  0  0  0
 26 28  2  0  0  0  0
 26 56  1  0  0  0  0
 27 29  2  0  0  0  0
 27 58  1  0  0  0  0
 28 29  1  0  0  0  0
 28 59  1  0  0  0  0
 29 60  1  0  0  0  0
M  END
> <DATABASE_ID>
DB00722

> <DATABASE_NAME>
drugbank

> <ORIGINAL_SOURCE>
PUBCHEM

> <ORIGINAL_SOURCE_URL>
https://pubchem.ncbi.nlm.nih.gov/rest/pug/compound/inchikey/RLAWWYSOJDYHDC-BZSNNMDCSA-N/SDF?record_type=3d

> <SMILES>
NCCCC[C@H](N[C@@H](CCC1=CC=CC=C1)C(O)=O)C(=O)N1CCC[C@H]1C(O)=O

> <INCHI_IDENTIFIER>
InChI=1S/C21H31N3O5/c22-13-5-4-9-16(19(25)24-14-6-10-18(24)21(28)29)23-17(20(26)27)12-11-15-7-2-1-3-8-15/h1-3,7-8,16-18,23H,4-6,9-14,22H2,(H,26,27)(H,28,29)/t16-,17-,18-/m0/s1

> <INCHI_KEY>
RLAWWYSOJDYHDC-BZSNNMDCSA-N

> <FORMULA>
C21H31N3O5

> <MOLECULAR_WEIGHT>
405.4879

> <EXACT_MASS>
405.226371117

> <JCHEM_ACCEPTOR_COUNT>
7

> <JCHEM_ATOM_COUNT>
60

> <JCHEM_AVERAGE_NEUTRAL_MICROSPECIES_CHARGE>
-0.004194390495808609

> <JCHEM_AVERAGE_POLARIZABILITY>
43.63788919658357

> <JCHEM_BIOAVAILABILITY>
1

> <JCHEM_DONOR_COUNT>
4

> <JCHEM_FORMAL_CHARGE>
0

> <JCHEM_GHOSE_FILTER>
0

> <JCHEM_IUPAC>
(2S)-1-[(2S)-6-amino-2-{[(1S)-1-carboxy-3-phenylpropyl]amino}hexanoyl]pyrrolidine-2-carboxylic acid

> <ALOGPS_LOGP>
-1.23

> <JCHEM_LOGP>
-3.102603245726448

> <ALOGPS_LOGS>
-3.27

> <JCHEM_MDDR_LIKE_RULE>
0

> <JCHEM_NEUTRAL_CHARGE>
0

> <JCHEM_NUMBER_OF_RINGS>
2

> <JCHEM_PHYSIOLOGICAL_CHARGE>
0

> <JCHEM_PKA>
3.850622320338458

> <JCHEM_PKA_STRONGEST_ACIDIC>
3.1725657699887164

> <JCHEM_PKA_STRONGEST_BASIC>
10.208230835264743

> <JCHEM_POLAR_SURFACE_AREA>
132.95999999999998

> <JCHEM_REFRACTIVITY>
107.3691

> <JCHEM_ROTATABLE_BOND_COUNT>
12

> <JCHEM_RULE_OF_FIVE>
1

> <ALOGPS_SOLUBILITY>
2.16e-01 g/l

> <JCHEM_TRADITIONAL_IUPAC>
tetrahydrofolic acid

> <JCHEM_VEBER_RULE>
0

$$$$
