
     RDKit          3D

 55 57  0  0  0  0  0  0  0  0999 V2000
   -1.2256   -4.1018    1.5240 N   0  0  0  0  0  0  0  0  0  0  0  0
   -0.3848   -4.0846    1.6244 C   0  0  0  0  0  0  0  0  0  0  0  0
    0.1734   -3.3573    2.7174 N   0  0  0  0  0  0  0  0  0  0  0  0
    0.4003   -4.8083    0.6747 N   0  0  0  0  0  0  0  0  0  0  0  0
   -0.0194   -4.6225   -0.7166 C   0  0  0  0  0  0  0  0  0  0  0  0
    0.4760   -3.3343   -1.2533 C   0  0  0  0  0  0  0  0  0  0  0  0
   -0.2073   -2.7843   -2.4361 C   0  0  0  0  0  0  0  0  0  0  0  0
   -0.2459   -1.1224   -2.2560 C   0  0  2  0  0  0  0  0  0  0  0  0
    1.1773   -1.0692   -1.5212 N   0  0  0  0  0  0  0  0  0  0  0  0
    1.4787    0.1299   -0.8520 C   0  0  0  0  0  0  0  0  0  0  0  0
    0.6032    1.0469   -0.8797 O   0  0  0  0  0  0  0  0  0  0  0  0
    2.3735    0.1151    0.2733 C   0  0  0  0  0  0  0  0  0  0  0  0
    2.1441    0.7014    1.3715 O   0  0  0  0  0  0  0  0  0  0  0  0
    3.9773    0.0812   -0.0384 C   0  0  1  0  0  0  0  0  0  0  0  0
    3.8048   -1.0775   -1.2295 C   0  0  0  0  0  0  0  0  0  0  0  0
    4.7288   -2.1893   -0.8098 C   0  0  0  0  0  0  0  0  0  0  0  0
    6.1091   -2.0733   -1.4316 C   0  0  0  0  0  0  0  0  0  0  0  0
    6.7933   -0.9004   -0.7580 C   0  0  0  0  0  0  0  0  0  0  0  0
    7.0569   -1.2862    0.6684 C   0  0  0  0  0  0  0  0  0  0  0  0
    5.7517   -1.4694    1.3733 C   0  0  0  0  0  0  0  0  0  0  0  0
    4.7879   -2.3817    0.6763 C   0  0  0  0  0  0  0  0  0  0  0  0
    3.8698    1.2731   -1.1023 N   0  0  0  0  0  0  0  0  0  0  0  0
    4.3880    2.5022   -0.5911 C   0  0  0  0  0  0  0  0  0  0  0  0
    3.9801    2.8772    0.5228 O   0  0  0  0  0  0  0  0  0  0  0  0
    5.2788    3.3226   -1.2464 O   0  0  0  0  0  0  0  0  0  0  0  0
    6.2286    4.1401   -0.5582 C   0  0  0  0  0  0  0  0  0  0  0  0
    7.2260    3.1911    0.0320 C   0  0  0  0  0  0  0  0  0  0  0  0
    6.9636    2.4730    1.1844 C   0  0  0  0  0  0  0  0  0  0  0  0
    7.4582    1.2185    1.4348 C   0  0  0  0  0  0  0  0  0  0  0  0
    8.3419    0.6795    0.5232 C   0  0  0  0  0  0  0  0  0  0  0  0
    8.7976    1.4352   -0.5347 C   0  0  0  0  0  0  0  0  0  0  0  0
    8.2355    2.6828   -0.7770 C   0  0  0  0  0  0  0  0  0  0  0  0
   -1.1324   -1.2424   -0.8865 C   0  0  0  0  0  0  0  0  0  0  0  0
   -0.5555   -1.5091    0.1570 O   0  0  0  0  0  0  0  0  0  0  0  0
   -2.4203   -0.6241   -0.9957 N   0  0  0  0  0  0  0  0  0  0  0  0
   -3.3085   -1.2511    0.1793 C   0  0  1  0  0  0  0  0  0  0  0  0
   -2.8983   -0.0949    1.3079 C   0  0  0  0  0  0  0  0  0  0  0  0
   -2.1925    1.0008    0.6996 C   0  0  0  0  0  0  0  0  0  0  0  0
   -2.9600    2.0563    0.0262 C   0  0  0  0  0  0  0  0  0  0  0  0
   -3.5230    2.8859    0.8046 O   0  0  0  0  0  0  0  0  0  0  0  0
   -2.3193    2.6540   -1.0671 O   0  0  0  0  0  0  0  0  0  0  0  0
   -4.6375   -0.4170   -0.3030 C   0  0  0  0  0  0  0  0  0  0  0  0
   -5.1544   -0.9749   -1.3228 O   0  0  0  0  0  0  0  0  0  0  0  0
   -5.4811   -0.2486    0.7787 N   0  0  0  0  0  0  0  0  0  0  0  0
   -7.0502   -0.0919    0.5566 C   0  0  1  0  0  0  0  0  0  0  0  0
   -6.8962    0.5590   -0.9766 C   0  0  0  0  0  0  0  0  0  0  0  0
   -6.9351    2.0393   -0.7611 C   0  0  0  0  0  0  0  0  0  0  0  0
   -6.5776    2.4811    0.6121 C   0  0  0  0  0  0  0  0  0  0  0  0
   -7.7473    2.8093    1.4910 C   0  0  0  0  0  0  0  0  0  0  0  0
   -9.0805    2.5778    0.8387 C   0  0  0  0  0  0  0  0  0  0  0  0
   -9.1771    3.1664   -0.5399 C   0  0  0  0  0  0  0  0  0  0  0  0
   -8.0366    2.7680   -1.4279 C   0  0  0  0  0  0  0  0  0  0  0  0
   -7.1974   -1.6133   -0.0429 C   0  0  0  0  0  0  0  0  0  0  0  0
   -8.3379   -1.6576   -0.5745 O   0  0  0  0  0  0  0  0  0  0  0  0
   -6.9031   -2.4803    1.0175 O   0  0  0  0  0  0  0  0  0  0  0  0
  1  2  2  0
  2  3  1  0
  2  4  1  0
  4  5  1  0
  5  6  1  0
  6  7  1  0
  8  7  1  6
  8  9  1  0
  9 10  1  0
 10 11  2  0
 10 12  1  0
 12 13  2  0
 14 12  1  1
 14 15  1  0
 15 16  1  0
 16 17  1  0
 17 18  1  0
 18 19  1  0
 19 20  1  0
 20 21  1  0
 14 22  1  0
 22 23  1  0
 23 24  2  0
 23 25  1  0
 25 26  1  0
 26 27  1  0
 27 28  2  0
 28 29  1  0
 29 30  2  0
 30 31  1  0
 31 32  2  0
  8 33  1  0
 33 34  2  0
 33 35  1  0
 36 35  1  6
 36 37  1  0
 37 38  1  0
 38 39  1  0
 39 40  2  0
 39 41  1  0
 36 42  1  0
 42 43  2  0
 42 44  1  0
 45 44  1  1
 45 46  1  0
 46 47  1  0
 47 48  1  0
 48 49  1  0
 49 50  1  0
 50 51  1  0
 51 52  1  0
 45 53  1  0
 53 54  2  0
 53 55  1  0
 21 16  1  0
 32 27  1  0
 52 47  1  0
M  END
>  <zinc_id>  (1) 
ZINC000098208801

>  <smiles>  (1) 
N=C(N)NCCC[C@H](NC(=O)C(=O)[C@@H](CC1CCCCC1)NC(=O)OCc1ccccc1)C(=O)N[C@@H](CCC(=O)O)C(=O)N[C@@H](CC1CCCCC1)C(=O)O

$$$$
