
     RDKit          3D

 52 54  0  0  0  0  0  0  0  0999 V2000
   -9.3393   -1.1812    3.1576 N   0  0  0  0  0  0  0  0  0  0  0  0
   -8.9092   -0.6984    2.0258 C   0  0  0  0  0  0  0  0  0  0  0  0
   -7.9814    0.2756    2.0313 N   0  0  0  0  0  0  0  0  0  0  0  0
   -7.4689    0.8088    0.9004 C   0  0  0  0  0  0  0  0  0  0  0  0
   -6.6550    1.7790    0.9737 O   0  0  0  0  0  0  0  0  0  0  0  0
   -7.8687    0.3063   -0.3354 C   0  0  0  0  0  0  0  0  0  0  0  0
   -8.8447   -0.6840   -0.3195 C   0  0  0  0  0  0  0  0  0  0  0  0
   -9.3209   -1.1735    0.8270 N   0  0  0  0  0  0  0  0  0  0  0  0
   -9.5396   -0.7819   -1.5691 N   0  0  0  0  0  0  0  0  0  0  0  0
   -9.5072    0.2286   -2.5511 C   0  0  0  0  0  0  0  0  0  0  0  0
   -7.9315    0.6028   -2.8876 C   0  0  2  0  0  0  0  0  0  0  0  0
   -7.3750   -0.9322   -2.5982 C   0  0  0  0  0  0  0  0  0  0  0  0
   -6.1270   -0.8182   -1.9924 N   0  0  0  0  0  0  0  0  0  0  0  0
   -4.8301   -0.5933   -2.5595 C   0  0  0  0  0  0  0  0  0  0  0  0
   -3.8757   -1.6111   -2.6317 C   0  0  0  0  0  0  0  0  0  0  0  0
   -2.6729   -1.5203   -1.9272 C   0  0  0  0  0  0  0  0  0  0  0  0
   -2.3673   -0.3914   -1.1650 C   0  0  0  0  0  0  0  0  0  0  0  0
   -1.9655   -0.4938    0.2448 C   0  0  0  0  0  0  0  0  0  0  0  0
   -2.6794   -1.0733    1.1199 O   0  0  0  0  0  0  0  0  0  0  0  0
   -0.6761   -0.1960    0.7531 N   0  0  0  0  0  0  0  0  0  0  0  0
    0.1467   -1.4958    1.1662 C   0  0  1  0  0  0  0  0  0  0  0  0
    1.2946   -1.3205   -0.0162 C   0  0  0  0  0  0  0  0  0  0  0  0
    1.0863   -0.0432   -0.7242 C   0  0  0  0  0  0  0  0  0  0  0  0
    2.3456    0.7534   -0.5745 C   0  0  0  0  0  0  0  0  0  0  0  0
    2.5281    1.4432    0.4729 O   0  0  0  0  0  0  0  0  0  0  0  0
    3.4679    0.2411   -1.2991 N   0  0  0  0  0  0  0  0  0  0  0  0
    4.8605    0.4743   -0.5679 C   0  0  1  0  0  0  0  0  0  0  0  0
    4.7529   -0.9937    0.1987 C   0  0  0  0  0  0  0  0  0  0  0  0
    5.0380   -0.6962    1.6612 C   0  0  0  0  0  0  0  0  0  0  0  0
    6.5188   -0.9008    1.7592 C   0  0  0  0  0  0  0  0  0  0  0  0
    7.0427   -1.8809    1.1463 O   0  0  0  0  0  0  0  0  0  0  0  0
    7.3983   -0.2942    2.6224 N   0  0  0  0  0  0  0  0  0  0  0  0
    8.8535    0.1084    2.1263 C   0  0  1  0  0  0  0  0  0  0  0  0
    8.8633   -0.8714    0.7845 C   0  0  0  0  0  0  0  0  0  0  0  0
    9.9255   -0.3500   -0.1116 C   0  0  0  0  0  0  0  0  0  0  0  0
   11.2913   -0.4372    0.4124 C   0  0  0  0  0  0  0  0  0  0  0  0
   12.1967    0.1417   -0.2628 O   0  0  0  0  0  0  0  0  0  0  0  0
   11.6495   -0.7263    1.7133 O   0  0  0  0  0  0  0  0  0  0  0  0
    8.2972    1.3941    1.2866 C   0  0  0  0  0  0  0  0  0  0  0  0
    9.2305    1.9646    0.6398 O   0  0  0  0  0  0  0  0  0  0  0  0
    7.7102    2.2671    2.2173 O   0  0  0  0  0  0  0  0  0  0  0  0
    5.7212   -0.1753   -1.7893 C   0  0  0  0  0  0  0  0  0  0  0  0
    5.3750    0.2112   -2.9369 O   0  0  0  0  0  0  0  0  0  0  0  0
    7.0598    0.1508   -1.5163 O   0  0  0  0  0  0  0  0  0  0  0  0
    1.0452   -0.6644    2.2428 C   0  0  0  0  0  0  0  0  0  0  0  0
    0.2886   -0.4493    3.2403 O   0  0  0  0  0  0  0  0  0  0  0  0
    2.1551   -1.4626    2.5443 O   0  0  0  0  0  0  0  0  0  0  0  0
   -2.9988    0.7412   -1.6747 C   0  0  0  0  0  0  0  0  0  0  0  0
   -4.1762    0.6331   -2.4153 C   0  0  0  0  0  0  0  0  0  0  0  0
   -7.6549    1.1369   -1.4237 N   0  0  0  0  0  0  0  0  0  0  0  0
   -7.3116    2.5052   -1.3413 C   0  0  0  0  0  0  0  0  0  0  0  0
   -8.0663    3.4481   -1.0775 O   0  0  0  0  0  0  0  0  0  0  0  0
  1  2  1  0
  2  3  2  0
  3  4  1  0
  4  5  2  0
  4  6  1  0
  6  7  2  0
  7  8  1  0
  7  9  1  0
  9 10  1  0
 10 11  1  0
 11 12  1  1
 12 13  1  0
 13 14  1  0
 14 15  2  0
 15 16  1  0
 16 17  2  0
 17 18  1  0
 18 19  2  0
 18 20  1  0
 21 20  1  6
 21 22  1  0
 22 23  1  0
 23 24  1  0
 24 25  2  0
 24 26  1  0
 27 26  1  6
 27 28  1  0
 28 29  1  0
 29 30  1  0
 30 31  2  0
 30 32  1  0
 33 32  1  1
 33 34  1  0
 34 35  1  0
 35 36  1  0
 36 37  2  0
 36 38  1  0
 33 39  1  0
 39 40  2  0
 39 41  1  0
 27 42  1  0
 42 43  2  0
 42 44  1  0
 21 45  1  0
 45 46  2  0
 45 47  1  0
 17 48  1  0
 48 49  2  0
 11 50  1  0
 50 51  1  0
 51 52  2  0
  8  2  1  0
 49 14  1  0
 50  6  1  0
M  END
>  <zinc_id>  (1) 
ZINC000055398661

>  <smiles>  (1) 
Nc1nc(=O)c2c([nH]1)NC[C@H](CNc1ccc(C(=O)N[C@@H](CCC(=O)N[C@@H](CCC(=O)N[C@@H](CCC(=O)O)C(=O)O)C(=O)O)C(=O)O)cc1)N2C=O

$$$$
