
     RDKit          3D

 33 33  0  0  0  0  0  0  0  0999 V2000
    6.1948   -1.0349    0.7792 C   0  0  0  0  0  0  0  0  0  0  0  0
    6.0006   -1.6124    0.6742 C   0  0  0  0  0  0  0  0  0  0  0  0
    4.8564   -1.9158   -0.1791 N   0  0  0  0  0  0  0  0  0  0  0  0
    3.9594   -0.8276   -0.4145 C   0  0  0  0  0  0  0  0  0  0  0  0
    4.4470    0.3484   -0.8744 N   0  0  0  0  0  0  0  0  0  0  0  0
    3.7505    1.5014   -0.7658 C   0  0  0  0  0  0  0  0  0  0  0  0
    4.4726    2.7371   -0.7813 N   0  0  0  0  0  0  0  0  0  0  0  0
    5.1341    3.1643    0.4414 C   0  0  0  0  0  0  0  0  0  0  0  0
    4.2277    2.9557    1.6465 C   0  0  0  0  0  0  0  0  0  0  0  0
    6.3955    2.3455    0.6900 C   0  0  0  0  0  0  0  0  0  0  0  0
    2.5138    1.4149   -0.2425 N   0  0  0  0  0  0  0  0  0  0  0  0
    2.0395    0.2938    0.3437 C   0  0  0  0  0  0  0  0  0  0  0  0
    0.7297    0.3485    1.5716 S   0  0  0  0  0  0  0  0  0  0  0  0
   -0.3366   -1.1157    1.4273 C   0  0  0  0  0  0  0  0  0  0  0  0
   -1.0092   -0.8430   -0.0844 C   0  0  2  0  0  0  0  0  0  0  0  0
   -2.2213   -0.0110    0.5620 N   0  0  0  0  0  0  0  0  0  0  0  0
   -2.6702    1.0457   -0.2985 C   0  0  0  0  0  0  0  0  0  0  0  0
   -2.3542    1.0482   -1.5267 O   0  0  0  0  0  0  0  0  0  0  0  0
   -2.9069    2.3985    0.2954 C   0  0  0  0  0  0  0  0  0  0  0  0
   -4.3328    2.5872    0.7157 C   0  0  0  0  0  0  0  0  0  0  0  0
   -5.2202    2.3238   -0.6843 C   0  0  2  0  0  0  0  0  0  0  0  0
   -4.3084    3.3501   -1.5223 N   0  0  0  0  0  0  0  0  0  0  0  0
   -6.3063    3.4949   -0.2985 C   0  0  0  0  0  0  0  0  0  0  0  0
   -5.8345    4.5577    0.0960 O   0  0  0  0  0  0  0  0  0  0  0  0
   -7.5882    3.0309   -0.1379 O   0  0  0  0  0  0  0  0  0  0  0  0
   -1.8725   -2.2410    0.0071 C   0  0  0  0  0  0  0  0  0  0  0  0
   -2.6506   -2.2486   -0.9957 O   0  0  0  0  0  0  0  0  0  0  0  0
   -1.0302   -3.3813    0.1424 N   0  0  0  0  0  0  0  0  0  0  0  0
   -1.3312   -4.6291   -0.5444 C   0  0  0  0  0  0  0  0  0  0  0  0
   -1.7903   -5.6379    0.4566 C   0  0  0  0  0  0  0  0  0  0  0  0
   -2.9292   -6.1466    0.3022 O   0  0  0  0  0  0  0  0  0  0  0  0
   -0.8098   -6.4763    0.9920 O   0  0  0  0  0  0  0  0  0  0  0  0
    2.7811   -0.8256    0.2182 N   0  0  0  0  0  0  0  0  0  0  0  0
  1  2  1  0
  2  3  1  0
  3  4  1  0
  4  5  2  0
  5  6  1  0
  6  7  1  0
  7  8  1  0
  8  9  1  0
  8 10  1  0
  6 11  2  0
 11 12  1  0
 12 13  1  0
 13 14  1  0
 15 14  1  1
 15 16  1  0
 16 17  1  0
 17 18  2  0
 17 19  1  0
 19 20  1  0
 21 20  1  1
 21 22  1  0
 21 23  1  0
 23 24  2  0
 23 25  1  0
 15 26  1  0
 26 27  2  0
 26 28  1  0
 28 29  1  0
 29 30  1  0
 30 31  2  0
 30 32  1  0
 12 33  2  0
 33  4  1  0
M  END
>  <zinc_id>  (1) 
ZINC000012501645

>  <smiles>  (1) 
CCNc1nc(NC(C)C)nc(SC[C@H](NC(=O)CC[C@H](N)C(=O)O)C(=O)NCC(=O)O)n1

$$$$
