
     RDKit          3D

 30 30  0  0  0  0  0  0  0  0999 V2000
   -8.4328    1.8209   -0.8623 O   0  0  0  0  0  0  0  0  0  0  0  0
   -7.6094    2.1274   -0.4965 C   0  0  0  0  0  0  0  0  0  0  0  0
   -7.1778    3.4511   -0.6297 O   0  0  0  0  0  0  0  0  0  0  0  0
   -6.6491    1.2143    0.1365 C   0  0  0  0  0  0  0  0  0  0  0  0
   -6.7171   -0.0001   -0.1398 O   0  0  0  0  0  0  0  0  0  0  0  0
   -5.7573    1.6182    1.1566 N   0  0  0  0  0  0  0  0  0  0  0  0
   -4.5878    0.8130    1.3471 C   0  0  0  0  0  0  0  0  0  0  0  0
   -4.7422   -0.5520    1.5384 C   0  0  0  0  0  0  0  0  0  0  0  0
   -3.7195   -1.4491    1.2544 C   0  0  0  0  0  0  0  0  0  0  0  0
   -2.7915   -1.0731    0.2909 C   0  0  0  0  0  0  0  0  0  0  0  0
   -1.9177   -2.0666   -0.3949 C   0  0  0  0  0  0  0  0  0  0  0  0
   -0.9799   -2.7103    0.6033 C   0  0  0  0  0  0  0  0  0  0  0  0
    0.3307   -2.9696    0.0361 N   0  0  0  0  0  0  0  0  0  0  0  0
    1.4259   -2.0770    0.2855 C   0  0  0  0  0  0  0  0  0  0  0  0
    1.0893   -0.8855    0.5685 O   0  0  0  0  0  0  0  0  0  0  0  0
    2.3146   -1.9786   -1.0977 C   0  0  2  0  0  0  0  0  0  0  0  0
    2.8539   -3.5559   -0.9095 C   0  0  0  0  0  0  0  0  0  0  0  0
    3.9467   -3.5031   -1.7882 O   0  0  0  0  0  0  0  0  0  0  0  0
    3.5808   -1.4112   -0.2883 N   0  0  0  0  0  0  0  0  0  0  0  0
    3.4784    0.0099   -0.1941 C   0  0  0  0  0  0  0  0  0  0  0  0
    2.9382    0.6749   -1.1147 O   0  0  0  0  0  0  0  0  0  0  0  0
    4.3645    0.7111    0.7516 C   0  0  0  0  0  0  0  0  0  0  0  0
    5.5335   -0.1592    1.1943 C   0  0  0  0  0  0  0  0  0  0  0  0
    6.6819    0.2488    0.3906 N   0  0  0  0  0  0  0  0  0  0  0  0
    6.9322    1.6480    0.2665 C   0  0  0  0  0  0  0  0  0  0  0  0
    6.1683    2.4628    0.8573 O   0  0  0  0  0  0  0  0  0  0  0  0
    7.9819    2.2075   -0.6177 C   0  0  0  0  0  0  0  0  0  0  0  0
    7.3410    3.8919   -1.3372 Br  0  0  0  0  0  0  0  0  0  0  0  0
   -2.5126    0.2829    0.2285 C   0  0  0  0  0  0  0  0  0  0  0  0
   -3.3669    1.2085    0.8150 C   0  0  0  0  0  0  0  0  0  0  0  0
  1  2  2  0
  2  3  1  0
  2  4  1  0
  4  5  2  0
  4  6  1  0
  6  7  1  0
  7  8  2  0
  8  9  1  0
  9 10  2  0
 10 11  1  0
 11 12  1  0
 12 13  1  0
 13 14  1  0
 14 15  2  0
 16 14  1  1
 16 17  1  0
 17 18  1  0
 16 19  1  0
 19 20  1  0
 20 21  2  0
 20 22  1  0
 22 23  1  0
 23 24  1  0
 24 25  1  0
 25 26  2  0
 25 27  1  0
 27 28  1  0
 10 29  1  0
 29 30  2  0
 30  7  1  0
M  END
>  <zinc_id>  (1) 
ZINC000012502600

>  <smiles>  (1) 
O=C(CBr)NCCC(=O)N[C@@H](CO)C(=O)NCCc1ccc(NC(=O)C(=O)O)cc1

$$$$
