445026
  -OEChem-10051720053D

 41 40  0     1  0  0  0  0  0999 V2000
   -4.2190   -2.0699    0.2026 P   0  0  0  0  0  0  0  0  0  0  0  0
   -3.1338   -0.9295    0.5754 O   0  0  0  0  0  0  0  0  0  0  0  0
   -2.9300    0.0021   -1.4954 O   0  0  0  0  0  0  0  0  0  0  0  0
    7.0270   -1.8042   -0.3797 O   0  0  0  0  0  0  0  0  0  0  0  0
    5.9793   -1.1669    1.5366 O   0  0  0  0  0  0  0  0  0  0  0  0
   -3.4069   -3.0636   -0.7812 O   0  0  0  0  0  0  0  0  0  0  0  0
   -4.3402   -2.9177    1.5739 O   0  0  0  0  0  0  0  0  0  0  0  0
   -5.5185   -1.5498   -0.3387 O   0  0  0  0  0  0  0  0  0  0  0  0
   -1.7239    0.7976    0.3248 N   0  0  0  0  0  0  0  0  0  0  0  0
   -0.1433    4.1713   -0.1302 N   0  0  0  0  0  0  0  0  0  0  0  0
   -1.0065    1.8607   -0.3447 C   0  0  2  0  0  0  0  0  0  0  0  0
    0.2622    1.3048   -1.0273 C   0  0  0  0  0  0  0  0  0  0  0  0
    1.3905    0.7823   -0.1265 C   0  0  0  0  0  0  0  0  0  0  0  0
   -0.7696    3.0640    0.5978 C   0  0  2  0  0  0  0  0  0  0  0  0
    2.5915    0.2081   -0.8787 C   0  0  0  0  0  0  0  0  0  0  0  0
    3.7146   -0.1820    0.0897 C   0  0  0  0  0  0  0  0  0  0  0  0
   -2.0759    3.5688    1.2216 C   0  0  0  0  0  0  0  0  0  0  0  0
    4.9175   -0.7949   -0.6273 C   0  0  0  0  0  0  0  0  0  0  0  0
   -2.6183   -0.0328   -0.3106 C   0  0  0  0  0  0  0  0  0  0  0  0
    6.0032   -1.2486    0.3179 C   0  0  0  0  0  0  0  0  0  0  0  0
   -1.6611    2.2052   -1.1587 H   0  0  0  0  0  0  0  0  0  0  0  0
    0.6785    2.0734   -1.6904 H   0  0  0  0  0  0  0  0  0  0  0  0
   -0.0373    0.4835   -1.6930 H   0  0  0  0  0  0  0  0  0  0  0  0
    0.9882    0.0115    0.5422 H   0  0  0  0  0  0  0  0  0  0  0  0
    1.7376    1.6021    0.5135 H   0  0  0  0  0  0  0  0  0  0  0  0
   -0.1064    2.7652    1.4183 H   0  0  0  0  0  0  0  0  0  0  0  0
    2.2760   -0.6685   -1.4567 H   0  0  0  0  0  0  0  0  0  0  0  0
    2.9680    0.9500   -1.5929 H   0  0  0  0  0  0  0  0  0  0  0  0
    3.3273   -0.8978    0.8259 H   0  0  0  0  0  0  0  0  0  0  0  0
    4.0389    0.7008    0.6549 H   0  0  0  0  0  0  0  0  0  0  0  0
   -1.5213    0.6180    1.3038 H   0  0  0  0  0  0  0  0  0  0  0  0
   -2.8016    3.8558    0.4524 H   0  0  0  0  0  0  0  0  0  0  0  0
   -1.8945    4.4434    1.8568 H   0  0  0  0  0  0  0  0  0  0  0  0
   -2.5371    2.8041    1.8550 H   0  0  0  0  0  0  0  0  0  0  0  0
   -0.0163    4.9654    0.4964 H   0  0  0  0  0  0  0  0  0  0  0  0
    0.7916    3.9017   -0.4321 H   0  0  0  0  0  0  0  0  0  0  0  0
    4.5907   -1.6665   -1.2060 H   0  0  0  0  0  0  0  0  0  0  0  0
    5.3488   -0.0572   -1.3132 H   0  0  0  0  0  0  0  0  0  0  0  0
    7.7427   -2.1214    0.2115 H   0  0  0  0  0  0  0  0  0  0  0  0
   -3.8854   -3.8077   -1.2047 H   0  0  0  0  0  0  0  0  0  0  0  0
   -5.0175   -3.6245    1.6368 H   0  0  0  0  0  0  0  0  0  0  0  0
  1  2  1  0  0  0  0
  1  6  1  0  0  0  0
  1  7  1  0  0  0  0
  1  8  2  0  0  0  0
  2 19  1  0  0  0  0
  3 19  2  0  0  0  0
  4 20  1  0  0  0  0
  4 39  1  0  0  0  0
  5 20  2  0  0  0  0
  6 40  1  0  0  0  0
  7 41  1  0  0  0  0
  9 11  1  0  0  0  0
  9 19  1  0  0  0  0
  9 31  1  0  0  0  0
 10 14  1  0  0  0  0
 10 35  1  0  0  0  0
 10 36  1  0  0  0  0
 11 12  1  0  0  0  0
 11 14  1  0  0  0  0
 11 21  1  0  0  0  0
 12 13  1  0  0  0  0
 12 22  1  0  0  0  0
 12 23  1  0  0  0  0
 13 15  1  0  0  0  0
 13 24  1  0  0  0  0
 13 25  1  0  0  0  0
 14 17  1  0  0  0  0
 14 26  1  0  0  0  0
 15 16  1  0  0  0  0
 15 27  1  0  0  0  0
 15 28  1  0  0  0  0
 16 18  1  0  0  0  0
 16 29  1  0  0  0  0
 16 30  1  0  0  0  0
 17 32  1  0  0  0  0
 17 33  1  0  0  0  0
 17 34  1  0  0  0  0
 18 20  1  0  0  0  0
 18 37  1  0  0  0  0
 18 38  1  0  0  0  0
M  END
> <DATABASE_ID>
DB02927

> <DATABASE_NAME>
drugbank

> <ORIGINAL_SOURCE>
PUBCHEM

> <ORIGINAL_SOURCE_URL>
https://pubchem.ncbi.nlm.nih.gov/rest/pug/compound/inchikey/UJJZZEABROBUCE-JGVFFNPUSA-N/SDF?record_type=3d

> <SMILES>
C[C@H](N)[C@@H](CCCCCC(O)=O)NC(=O)OP(O)(O)=O

> <INCHI_IDENTIFIER>
InChI=1S/C10H21N2O7P/c1-7(11)8(5-3-2-4-6-9(13)14)12-10(15)19-20(16,17)18/h7-8H,2-6,11H2,1H3,(H,12,15)(H,13,14)(H2,16,17,18)/t7-,8+/m0/s1

> <INCHI_KEY>
UJJZZEABROBUCE-JGVFFNPUSA-N

> <FORMULA>
C10H21N2O7P

> <MOLECULAR_WEIGHT>
312.2567

> <EXACT_MASS>
312.108637548

> <JCHEM_ACCEPTOR_COUNT>
7

> <JCHEM_ATOM_COUNT>
41

> <JCHEM_AVERAGE_NEUTRAL_MICROSPECIES_CHARGE>
-1.939018568439164

> <JCHEM_AVERAGE_POLARIZABILITY>
29.169009441211593

> <JCHEM_BIOAVAILABILITY>
1

> <JCHEM_DONOR_COUNT>
5

> <JCHEM_FORMAL_CHARGE>
0

> <JCHEM_GHOSE_FILTER>
0

> <JCHEM_IUPAC>
(7R,8S)-8-amino-7-{[(phosphonooxy)carbonyl]amino}nonanoic acid

> <ALOGPS_LOGP>
-0.66

> <JCHEM_LOGP>
-1.0098431647563821

> <ALOGPS_LOGS>
-2.45

> <JCHEM_MDDR_LIKE_RULE>
0

> <JCHEM_NEUTRAL_CHARGE>
-2

> <JCHEM_NUMBER_OF_RINGS>
0

> <JCHEM_PHYSIOLOGICAL_CHARGE>
-2

> <JCHEM_PKA>
4.233425055023437

> <JCHEM_PKA_STRONGEST_ACIDIC>
1.0932730973875997

> <JCHEM_PKA_STRONGEST_BASIC>
9.420312559492633

> <JCHEM_POLAR_SURFACE_AREA>
159.17999999999998

> <JCHEM_REFRACTIVITY>
68.7576

> <JCHEM_ROTATABLE_BOND_COUNT>
10

> <JCHEM_RULE_OF_FIVE>
1

> <ALOGPS_SOLUBILITY>
1.12e+00 g/l

> <JCHEM_TRADITIONAL_IUPAC>
biotin

> <JCHEM_VEBER_RULE>
0

$$$$
