
     RDKit          3D

 40 39  0  0  0  0  0  0  0  0999 V2000
    8.6687   -0.2465    0.6362 N   0  0  0  0  0  0  0  0  0  0  0  0
    7.5103   -1.2977    0.3069 C   0  0  1  0  0  0  0  0  0  0  0  0
    6.4946   -0.6411    1.4556 C   0  0  0  0  0  0  0  0  0  0  0  0
    5.5034   -1.7843    1.6613 C   0  0  0  0  0  0  0  0  0  0  0  0
    4.6251   -1.8208    0.4512 C   0  0  0  0  0  0  0  0  0  0  0  0
    4.8173   -2.6289   -0.5052 O   0  0  0  0  0  0  0  0  0  0  0  0
    3.2834   -1.3124    0.4752 N   0  0  0  0  0  0  0  0  0  0  0  0
    3.0514   -0.4049   -0.8183 C   0  0  1  0  0  0  0  0  0  0  0  0
    1.5347   -1.0511   -1.0754 C   0  0  0  0  0  0  0  0  0  0  0  0
    0.7519   -1.0722    0.5455 S   0  0  0  0  0  0  0  0  0  0  0  0
   -0.3300    0.7821    0.5124 S   0  0  0  0  0  0  0  0  0  0  0  0
   -1.9518    0.2504    0.9794 C   0  0  0  0  0  0  0  0  0  0  0  0
   -2.4552   -0.8769   -0.1419 C   0  0  2  0  0  0  0  0  0  0  0  0
   -3.5651    0.1238   -0.7015 N   0  0  0  0  0  0  0  0  0  0  0  0
   -4.6248   -0.4689   -1.3919 C   0  0  0  0  0  0  0  0  0  0  0  0
   -4.6796   -1.6764   -1.6833 O   0  0  0  0  0  0  0  0  0  0  0  0
   -5.7687    0.4193   -1.7713 C   0  0  0  0  0  0  0  0  0  0  0  0
   -5.4706    1.8685   -1.4301 C   0  0  0  0  0  0  0  0  0  0  0  0
   -6.0901    2.0566    0.1059 C   0  0  2  0  0  0  0  0  0  0  0  0
   -7.5341    2.4064   -0.4801 N   0  0  0  0  0  0  0  0  0  0  0  0
   -5.6669    3.6369    0.1410 C   0  0  0  0  0  0  0  0  0  0  0  0
   -4.4281    3.7493    0.3307 O   0  0  0  0  0  0  0  0  0  0  0  0
   -6.5144    4.3942    0.9585 O   0  0  0  0  0  0  0  0  0  0  0  0
   -3.4964   -1.5734    0.9087 C   0  0  0  0  0  0  0  0  0  0  0  0
   -4.1764   -0.8230    1.5944 O   0  0  0  0  0  0  0  0  0  0  0  0
   -3.4833   -2.9778    0.9006 N   0  0  0  0  0  0  0  0  0  0  0  0
   -4.4425   -3.6439    1.7764 C   0  0  0  0  0  0  0  0  0  0  0  0
   -5.7742   -3.7608    1.1067 C   0  0  0  0  0  0  0  0  0  0  0  0
   -6.0585   -2.8251    0.3018 O   0  0  0  0  0  0  0  0  0  0  0  0
   -6.3265   -5.0105    0.8148 O   0  0  0  0  0  0  0  0  0  0  0  0
    2.4507    0.8481    0.0515 C   0  0  0  0  0  0  0  0  0  0  0  0
    2.3631    1.8074   -0.7806 O   0  0  0  0  0  0  0  0  0  0  0  0
    3.1865    1.1693    1.2130 N   0  0  0  0  0  0  0  0  0  0  0  0
    3.3801    2.4799    1.7725 C   0  0  0  0  0  0  0  0  0  0  0  0
    4.4993    3.1158    1.0317 C   0  0  0  0  0  0  0  0  0  0  0  0
    5.7027    2.8871    1.2650 O   0  0  0  0  0  0  0  0  0  0  0  0
    4.1484    4.1140    0.1180 O   0  0  0  0  0  0  0  0  0  0  0  0
    6.9079   -0.3586   -0.8871 C   0  0  0  0  0  0  0  0  0  0  0  0
    7.2532   -0.8110   -1.9956 O   0  0  0  0  0  0  0  0  0  0  0  0
    6.7048    0.9570   -0.5812 O   0  0  0  0  0  0  0  0  0  0  0  0
  2  1  1  1
  2  3  1  0
  3  4  1  0
  4  5  1  0
  5  6  2  0
  5  7  1  0
  8  7  1  1
  8  9  1  0
  9 10  1  0
 10 11  1  0
 11 12  1  0
 13 12  1  1
 13 14  1  0
 14 15  1  0
 15 16  2  0
 15 17  1  0
 17 18  1  0
 19 18  1  6
 19 20  1  0
 19 21  1  0
 21 22  2  0
 21 23  1  0
 13 24  1  0
 24 25  2  0
 24 26  1  0
 26 27  1  0
 27 28  1  0
 28 29  2  0
 28 30  1  0
  8 31  1  0
 31 32  2  0
 31 33  1  0
 33 34  1  0
 34 35  1  0
 35 36  2  0
 35 37  1  0
  2 38  1  0
 38 39  2  0
 38 40  1  0
M  END
>  <zinc_id>  (1) 
ZINC000003870129

>  <smiles>  (1) 
N[C@@H](CCC(=O)N[C@@H](CSSC[C@H](NC(=O)CC[C@H](N)C(=O)O)C(=O)NCC(=O)O)C(=O)NCC(=O)O)C(=O)O

$$$$
