
     RDKit          3D

 54 56  0  0  0  0  0  0  0  0999 V2000
    1.0115   -1.9368   -2.1181 N   0  0  0  0  0  0  0  0  0  0  0  0
    1.5814   -2.3014   -0.8860 C   0  0  0  0  0  0  0  0  0  0  0  0
    1.0714   -3.1613   -0.1689 O   0  0  0  0  0  0  0  0  0  0  0  0
    2.0820   -0.9399   -0.1171 C   0  0  2  0  0  0  0  0  0  0  0  0
    2.8724   -1.8098    1.0775 C   0  0  0  0  0  0  0  0  0  0  0  0
    4.3176   -1.5939    0.7471 C   0  0  0  0  0  0  0  0  0  0  0  0
    4.7233   -0.6463   -0.1831 C   0  0  0  0  0  0  0  0  0  0  0  0
    6.0079   -0.6432   -0.7123 C   0  0  0  0  0  0  0  0  0  0  0  0
    7.0180   -1.2683   -0.0048 C   0  0  0  0  0  0  0  0  0  0  0  0
    8.3561   -0.6553   -0.0708 C   0  0  0  0  0  0  0  0  0  0  0  0
    8.3880    0.4383    0.7901 F   0  0  0  0  0  0  0  0  0  0  0  0
    8.5081   -0.1245   -1.3460 F   0  0  0  0  0  0  0  0  0  0  0  0
    9.7015   -1.7605    0.3248 P   0  0  0  0  0  0  0  0  0  0  0  0
    9.1753   -3.0486    0.8835 O   0  0  0  0  0  0  0  0  0  0  0  0
   10.7428   -1.0045    1.4345 O   0  0  0  0  0  0  0  0  0  0  0  0
   10.5364   -2.1364   -1.1100 O   0  0  0  0  0  0  0  0  0  0  0  0
    6.6465   -2.2547    0.8823 C   0  0  0  0  0  0  0  0  0  0  0  0
    5.2959   -2.4657    1.1378 C   0  0  0  0  0  0  0  0  0  0  0  0
    0.7333   -0.8393    0.7480 N   0  0  0  0  0  0  0  0  0  0  0  0
    0.1066    0.4209    0.7458 C   0  0  0  0  0  0  0  0  0  0  0  0
    0.7725    1.3743    0.2290 O   0  0  0  0  0  0  0  0  0  0  0  0
   -1.3347    0.4884   -0.0433 C   0  0  2  0  0  0  0  0  0  0  0  0
   -1.9752    1.5086    1.1197 C   0  0  0  0  0  0  0  0  0  0  0  0
   -1.6002    2.8475    0.5666 C   0  0  0  0  0  0  0  0  0  0  0  0
   -2.0955    3.2430   -0.6695 C   0  0  0  0  0  0  0  0  0  0  0  0
   -2.0538    4.5679   -1.0287 C   0  0  0  0  0  0  0  0  0  0  0  0
   -1.6801    5.5143   -0.1057 C   0  0  0  0  0  0  0  0  0  0  0  0
   -2.0959    6.9479   -0.1859 C   0  0  0  0  0  0  0  0  0  0  0  0
   -2.5300    7.1994   -1.4567 F   0  0  0  0  0  0  0  0  0  0  0  0
   -3.1508    7.0953    0.7071 F   0  0  0  0  0  0  0  0  0  0  0  0
   -0.6934    7.9863    0.2862 P   0  0  0  0  0  0  0  0  0  0  0  0
    0.4144    7.1804    0.9357 O   0  0  0  0  0  0  0  0  0  0  0  0
   -1.2470    9.1231    1.3920 O   0  0  0  0  0  0  0  0  0  0  0  0
   -0.0733    8.7322   -1.0935 O   0  0  0  0  0  0  0  0  0  0  0  0
   -1.1416    5.1201    1.1015 C   0  0  0  0  0  0  0  0  0  0  0  0
   -0.8876    3.7875    1.2785 C   0  0  0  0  0  0  0  0  0  0  0  0
   -1.9098   -0.8093    0.7071 N   0  0  0  0  0  0  0  0  0  0  0  0
   -3.0434   -1.4071    0.0466 C   0  0  0  0  0  0  0  0  0  0  0  0
   -3.6583   -0.5880   -0.7113 O   0  0  0  0  0  0  0  0  0  0  0  0
   -2.6324   -2.7858   -0.7658 C   0  0  2  0  0  0  0  0  0  0  0  0
   -4.1136   -2.9111   -1.5416 C   0  0  0  0  0  0  0  0  0  0  0  0
   -3.9111   -2.0726   -2.7987 C   0  0  0  0  0  0  0  0  0  0  0  0
   -5.3020   -1.7955   -3.2725 C   0  0  0  0  0  0  0  0  0  0  0  0
   -5.7210   -0.6302   -3.4743 O   0  0  0  0  0  0  0  0  0  0  0  0
   -6.2964   -2.7691   -3.1374 O   0  0  0  0  0  0  0  0  0  0  0  0
   -3.0763   -3.7789    0.4109 N   0  0  0  0  0  0  0  0  0  0  0  0
   -4.2669   -3.4980    1.0631 C   0  0  0  0  0  0  0  0  0  0  0  0
   -4.4124   -2.3107    1.4169 O   0  0  0  0  0  0  0  0  0  0  0  0
   -5.1791   -4.5277    1.6076 C   0  0  0  0  0  0  0  0  0  0  0  0
   -5.8869   -5.1740    0.5958 C   0  0  0  0  0  0  0  0  0  0  0  0
   -7.2500   -5.3915    0.6487 C   0  0  0  0  0  0  0  0  0  0  0  0
   -7.8526   -5.3279    1.8937 C   0  0  0  0  0  0  0  0  0  0  0  0
   -7.0606   -4.9900    2.9846 C   0  0  0  0  0  0  0  0  0  0  0  0
   -5.9310   -4.2177    2.7352 C   0  0  0  0  0  0  0  0  0  0  0  0
  1  2  1  0
  2  3  2  0
  4  2  1  6
  4  5  1  0
  5  6  1  0
  6  7  2  0
  7  8  1  0
  8  9  2  0
  9 10  1  0
 10 11  1  0
 10 12  1  0
 10 13  1  0
 13 14  2  0
 13 15  1  0
 13 16  1  0
  9 17  1  0
 17 18  2  0
  4 19  1  0
 19 20  1  0
 20 21  2  0
 22 20  1  1
 22 23  1  0
 23 24  1  0
 24 25  2  0
 25 26  1  0
 26 27  2  0
 27 28  1  0
 28 29  1  0
 28 30  1  0
 28 31  1  0
 31 32  2  0
 31 33  1  0
 31 34  1  0
 27 35  1  0
 35 36  2  0
 22 37  1  0
 37 38  1  0
 38 39  2  0
 40 38  1  1
 40 41  1  0
 41 42  1  0
 42 43  1  0
 43 44  2  0
 43 45  1  0
 40 46  1  0
 46 47  1  0
 47 48  2  0
 47 49  1  0
 49 50  2  0
 50 51  1  0
 51 52  2  0
 52 53  1  0
 53 54  2  0
 18  6  1  0
 36 24  1  0
 54 49  1  0
M  END
>  <zinc_id>  (1) 
ZINC000098208699

>  <smiles>  (1) 
NC(=O)[C@H](Cc1ccc(C(F)(F)P(=O)(O)O)cc1)NC(=O)[C@H](Cc1ccc(C(F)(F)P(=O)(O)O)cc1)NC(=O)[C@H](CCC(=O)O)NC(=O)c1ccccc1

$$$$
