
     RDKit          3D

 40 41  0  0  0  0  0  0  0  0999 V2000
   -0.1955   -1.4806   -1.0009 C   0  0  0  0  0  0  0  0  0  0  0  0
   -0.1152   -1.4096   -0.5353 C   0  0  0  0  0  0  0  0  0  0  0  0
   -0.4456   -2.2783    0.6277 C   0  0  0  0  0  0  0  0  0  0  0  0
    0.3578    0.0554    0.1204 C   0  0  2  0  0  0  0  0  0  0  0  0
    1.3471   -0.6606    1.1649 N   0  0  0  0  0  0  0  0  0  0  0  0
    2.5286   -1.1188    0.5440 C   0  0  0  0  0  0  0  0  0  0  0  0
    2.3757   -1.7953   -0.5175 O   0  0  0  0  0  0  0  0  0  0  0  0
    3.8983   -0.7543    0.9239 C   0  0  0  0  0  0  0  0  0  0  0  0
    4.9391   -1.6634    0.7537 C   0  0  0  0  0  0  0  0  0  0  0  0
    6.2245   -1.2669    0.3998 C   0  0  0  0  0  0  0  0  0  0  0  0
    6.3244   -0.0528   -0.2725 C   0  0  0  0  0  0  0  0  0  0  0  0
    7.3644    0.2295   -1.2446 C   0  0  0  0  0  0  0  0  0  0  0  0
    7.1385    1.1200   -2.1196 O   0  0  0  0  0  0  0  0  0  0  0  0
    8.7440   -0.0601   -1.0320 N   0  0  0  0  0  0  0  0  0  0  0  0
    9.7707    0.9797   -1.0491 C   0  0  0  0  0  0  0  0  0  0  0  0
   10.4507    0.8572    0.2785 C   0  0  0  0  0  0  0  0  0  0  0  0
   11.3845    0.0111    0.3616 O   0  0  0  0  0  0  0  0  0  0  0  0
    9.6071    0.9504    1.3899 O   0  0  0  0  0  0  0  0  0  0  0  0
    5.4880    0.9438    0.2216 C   0  0  0  0  0  0  0  0  0  0  0  0
    4.3477    0.5636    0.9252 C   0  0  0  0  0  0  0  0  0  0  0  0
   -0.9175    0.0638    1.1602 C   0  0  0  0  0  0  0  0  0  0  0  0
   -0.6278    0.5815    2.2670 O   0  0  0  0  0  0  0  0  0  0  0  0
   -2.1101    0.4230    0.4358 N   0  0  0  0  0  0  0  0  0  0  0  0
   -2.3619    0.4459   -0.9675 C   0  0  0  0  0  0  0  0  0  0  0  0
   -2.7141    1.8127   -1.4054 C   0  0  0  0  0  0  0  0  0  0  0  0
   -2.4597    2.6515   -0.2178 C   0  0  0  0  0  0  0  0  0  0  0  0
   -2.9957    1.6331    0.9987 C   0  0  1  0  0  0  0  0  0  0  0  0
   -4.3362    1.1355    0.1693 C   0  0  0  0  0  0  0  0  0  0  0  0
   -4.9718    2.1039   -0.3190 O   0  0  0  0  0  0  0  0  0  0  0  0
   -5.0506    0.3799    1.0992 N   0  0  0  0  0  0  0  0  0  0  0  0
   -6.6207    0.1364    0.9087 C   0  0  2  0  0  0  0  0  0  0  0  0
   -6.5025   -0.5324   -0.5999 C   0  0  0  0  0  0  0  0  0  0  0  0
   -5.4736   -1.2003   -0.7285 O   0  0  0  0  0  0  0  0  0  0  0  0
   -7.7078   -1.3734   -0.9342 C   0  0  0  0  0  0  0  0  0  0  0  0
   -8.6302   -1.4049    0.0767 F   0  0  0  0  0  0  0  0  0  0  0  0
   -8.2614   -1.0217   -2.1593 F   0  0  0  0  0  0  0  0  0  0  0  0
   -7.3807   -2.7166   -1.1220 F   0  0  0  0  0  0  0  0  0  0  0  0
   -6.9094    1.6800    0.3234 C   0  0  0  0  0  0  0  0  0  0  0  0
   -7.3794    2.3649    1.6075 C   0  0  0  0  0  0  0  0  0  0  0  0
   -8.1238    1.5645   -0.5323 C   0  0  0  0  0  0  0  0  0  0  0  0
  1  2  1  0
  2  3  1  0
  4  2  1  6
  4  5  1  0
  5  6  1  0
  6  7  2  0
  6  8  1  0
  8  9  2  0
  9 10  1  0
 10 11  2  0
 11 12  1  0
 12 13  2  0
 12 14  1  0
 14 15  1  0
 15 16  1  0
 16 17  2  0
 16 18  1  0
 11 19  1  0
 19 20  2  0
  4 21  1  0
 21 22  2  0
 21 23  1  0
 23 24  1  0
 24 25  1  0
 25 26  1  0
 26 27  1  0
 27 28  1  6
 28 29  2  0
 28 30  1  0
 31 30  1  6
 31 32  1  0
 32 33  2  0
 32 34  1  0
 34 35  1  0
 34 36  1  0
 34 37  1  0
 31 38  1  0
 38 39  1  0
 38 40  1  0
 20  8  1  0
 27 23  1  0
M  END
>  <zinc_id>  (1) 
ZINC000003951728

>  <smiles>  (1) 
CC(C)[C@H](NC(=O)c1ccc(C(=O)NCC(=O)O)cc1)C(=O)N1CCC[C@H]1C(=O)N[C@H](C(=O)C(F)(F)F)C(C)C

$$$$
