5277135
  -OEChem-10051722023D

 54 56  0     1  0  0  0  0  0999 V2000
    5.7363   -2.5085   -1.5747 Cl  0  0  0  0  0  0  0  0  0  0  0  0
    3.8120   -2.0304    0.6191 F   0  0  0  0  0  0  0  0  0  0  0  0
   -3.9567    1.7609    1.9708 O   0  0  0  0  0  0  0  0  0  0  0  0
    1.4634    2.8223    1.0720 O   0  0  0  0  0  0  0  0  0  0  0  0
   -0.7160   -3.1269    0.7306 O   0  0  0  0  0  0  0  0  0  0  0  0
   -2.7378   -4.2513   -0.5021 O   0  0  0  0  0  0  0  0  0  0  0  0
   -4.7260   -3.2465    0.0153 O   0  0  0  0  0  0  0  0  0  0  0  0
   -2.6013    0.4027   -0.0573 N   0  0  0  0  0  0  0  0  0  0  0  0
   -3.2893    1.6594   -0.3425 C   0  0  1  0  0  0  0  0  0  0  0  0
   -3.7428    1.7104   -1.8203 C   0  0  0  0  0  0  0  0  0  0  0  0
   -1.2506    0.4441    0.3611 C   0  0  0  0  0  0  0  0  0  0  0  0
   -4.4534    1.8259    0.6376 C   0  0  0  0  0  0  0  0  0  0  0  0
   -0.5696   -0.7631    0.6415 C   0  0  0  0  0  0  0  0  0  0  0  0
   -4.4140    3.0480   -2.1526 C   0  0  0  0  0  0  0  0  0  0  0  0
   -2.6193    1.4293   -2.8232 C   0  0  0  0  0  0  0  0  0  0  0  0
   -3.2351   -0.8202   -0.1851 C   0  0  0  0  0  0  0  0  0  0  0  0
   -0.5278    1.6403    0.5186 C   0  0  0  0  0  0  0  0  0  0  0  0
   -2.6909   -2.0189    0.0521 C   0  0  0  0  0  0  0  0  0  0  0  0
    1.4538    0.4335    1.2041 C   0  0  0  0  0  0  0  0  0  0  0  0
   -1.2760   -2.0635    0.4950 C   0  0  0  0  0  0  0  0  0  0  0  0
    0.7685   -0.7685    1.0586 C   0  0  0  0  0  0  0  0  0  0  0  0
    0.8074    1.6349    0.9349 C   0  0  0  0  0  0  0  0  0  0  0  0
    2.8787    0.4150    1.6484 C   0  0  0  0  0  0  0  0  0  0  0  0
    3.8752    0.3329    0.5102 C   0  0  0  0  0  0  0  0  0  0  0  0
   -3.5173   -3.2112   -0.1371 C   0  0  0  0  0  0  0  0  0  0  0  0
    4.2869   -0.9079    0.0585 C   0  0  0  0  0  0  0  0  0  0  0  0
    4.3497    1.5049   -0.0510 C   0  0  0  0  0  0  0  0  0  0  0  0
    0.7267    4.0064    0.7757 C   0  0  0  0  0  0  0  0  0  0  0  0
    5.2044   -0.9792   -0.9899 C   0  0  0  0  0  0  0  0  0  0  0  0
    5.2669    1.4336   -1.0993 C   0  0  0  0  0  0  0  0  0  0  0  0
    5.6942    0.1916   -1.5688 C   0  0  0  0  0  0  0  0  0  0  0  0
   -2.6914    2.5542   -0.1975 H   0  0  0  0  0  0  0  0  0  0  0  0
   -4.5069    0.9397   -1.9880 H   0  0  0  0  0  0  0  0  0  0  0  0
   -5.2315    1.0653    0.5183 H   0  0  0  0  0  0  0  0  0  0  0  0
   -4.9299    2.8041    0.5300 H   0  0  0  0  0  0  0  0  0  0  0  0
   -4.6744    3.0974   -3.2158 H   0  0  0  0  0  0  0  0  0  0  0  0
   -3.7503    3.8909   -1.9324 H   0  0  0  0  0  0  0  0  0  0  0  0
   -5.3448    3.1850   -1.5949 H   0  0  0  0  0  0  0  0  0  0  0  0
   -2.2118    0.4207   -2.7062 H   0  0  0  0  0  0  0  0  0  0  0  0
   -2.9863    1.5100   -3.8522 H   0  0  0  0  0  0  0  0  0  0  0  0
   -1.7993    2.1449   -2.7016 H   0  0  0  0  0  0  0  0  0  0  0  0
   -4.2659   -0.7418   -0.5131 H   0  0  0  0  0  0  0  0  0  0  0  0
   -1.0000    2.5832    0.3159 H   0  0  0  0  0  0  0  0  0  0  0  0
    1.2749   -1.7064    1.2723 H   0  0  0  0  0  0  0  0  0  0  0  0
    3.0428   -0.4258    2.3372 H   0  0  0  0  0  0  0  0  0  0  0  0
    3.1011    1.2944    2.2684 H   0  0  0  0  0  0  0  0  0  0  0  0
   -3.5773    0.8752    2.0996 H   0  0  0  0  0  0  0  0  0  0  0  0
    4.0325    2.4782    0.3097 H   0  0  0  0  0  0  0  0  0  0  0  0
   -0.1148    4.1460    1.4631 H   0  0  0  0  0  0  0  0  0  0  0  0
    0.4283    4.0479   -0.2777 H   0  0  0  0  0  0  0  0  0  0  0  0
    1.4045    4.8512    0.9393 H   0  0  0  0  0  0  0  0  0  0  0  0
    5.6499    2.3452   -1.5488 H   0  0  0  0  0  0  0  0  0  0  0  0
   -3.2581   -5.0718   -0.6384 H   0  0  0  0  0  0  0  0  0  0  0  0
    6.4097    0.1518   -2.3862 H   0  0  0  0  0  0  0  0  0  0  0  0
  1 29  1  0  0  0  0
  2 26  1  0  0  0  0
  3 12  1  0  0  0  0
  3 47  1  0  0  0  0
  4 22  1  0  0  0  0
  4 28  1  0  0  0  0
  5 20  2  0  0  0  0
  6 25  1  0  0  0  0
  6 53  1  0  0  0  0
  7 25  2  0  0  0  0
  8  9  1  0  0  0  0
  8 11  1  0  0  0  0
  8 16  1  0  0  0  0
  9 10  1  0  0  0  0
  9 12  1  0  0  0  0
  9 32  1  0  0  0  0
 10 14  1  0  0  0  0
 10 15  1  0  0  0  0
 10 33  1  0  0  0  0
 11 13  2  0  0  0  0
 11 17  1  0  0  0  0
 12 34  1  0  0  0  0
 12 35  1  0  0  0  0
 13 20  1  0  0  0  0
 13 21  1  0  0  0  0
 14 36  1  0  0  0  0
 14 37  1  0  0  0  0
 14 38  1  0  0  0  0
 15 39  1  0  0  0  0
 15 40  1  0  0  0  0
 15 41  1  0  0  0  0
 16 18  2  0  0  0  0
 16 42  1  0  0  0  0
 17 22  2  0  0  0  0
 17 43  1  0  0  0  0
 18 20  1  0  0  0  0
 18 25  1  0  0  0  0
 19 21  2  0  0  0  0
 19 22  1  0  0  0  0
 19 23  1  0  0  0  0
 21 44  1  0  0  0  0
 23 24  1  0  0  0  0
 23 45  1  0  0  0  0
 23 46  1  0  0  0  0
 24 26  2  0  0  0  0
 24 27  1  0  0  0  0
 26 29  1  0  0  0  0
 27 30  2  0  0  0  0
 27 48  1  0  0  0  0
 28 49  1  0  0  0  0
 28 50  1  0  0  0  0
 28 51  1  0  0  0  0
 29 31  2  0  0  0  0
 30 31  1  0  0  0  0
 30 52  1  0  0  0  0
 31 54  1  0  0  0  0
M  END
> <DATABASE_ID>
DB09101

> <DATABASE_NAME>
drugbank

> <ORIGINAL_SOURCE>
PUBCHEM

> <ORIGINAL_SOURCE_URL>
https://pubchem.ncbi.nlm.nih.gov/rest/pug/compound/inchikey/JUZYLCPPVHEVSV-LJQANCHMSA-N/SDF?record_type=3d

> <SMILES>
[H][C@@](CO)(C(C)C)N1C=C(C(O)=O)C(=O)C2=C1C=C(OC)C(CC1=C(F)C(Cl)=CC=C1)=C2

> <INCHI_IDENTIFIER>
InChI=1S/C23H23ClFNO5/c1-12(2)19(11-27)26-10-16(23(29)30)22(28)15-8-14(20(31-3)9-18(15)26)7-13-5-4-6-17(24)21(13)25/h4-6,8-10,12,19,27H,7,11H2,1-3H3,(H,29,30)/t19-/m1/s1

> <INCHI_KEY>
JUZYLCPPVHEVSV-LJQANCHMSA-N

> <FORMULA>
C23H23ClFNO5

> <MOLECULAR_WEIGHT>
447.884

> <EXACT_MASS>
447.124878763

> <JCHEM_ACCEPTOR_COUNT>
6

> <JCHEM_ATOM_COUNT>
54

> <JCHEM_AVERAGE_NEUTRAL_MICROSPECIES_CHARGE>
-0.9150886390176486

> <JCHEM_AVERAGE_POLARIZABILITY>
44.801358788897986

> <JCHEM_BIOAVAILABILITY>
1

> <JCHEM_DONOR_COUNT>
2

> <JCHEM_FORMAL_CHARGE>
0

> <JCHEM_GHOSE_FILTER>
1

> <JCHEM_IUPAC>
6-[(3-chloro-2-fluorophenyl)methyl]-1-[(2S)-1-hydroxy-3-methylbutan-2-yl]-7-methoxy-4-oxo-1,4-dihydroquinoline-3-carboxylic acid

> <ALOGPS_LOGP>
3.66

> <JCHEM_LOGP>
4.667943046666666

> <ALOGPS_LOGS>
-4.84

> <JCHEM_MDDR_LIKE_RULE>
1

> <JCHEM_NEUTRAL_CHARGE>
-1

> <JCHEM_NUMBER_OF_RINGS>
3

> <JCHEM_PHYSIOLOGICAL_CHARGE>
-1

> <JCHEM_PKA>
15.339785626234486

> <JCHEM_PKA_STRONGEST_ACIDIC>
5.967502977330749

> <JCHEM_PKA_STRONGEST_BASIC>
-0.5259868082141126

> <JCHEM_POLAR_SURFACE_AREA>
87.07000000000001

> <JCHEM_REFRACTIVITY>
116.25609999999995

> <JCHEM_ROTATABLE_BOND_COUNT>
7

> <JCHEM_RULE_OF_FIVE>
1

> <ALOGPS_SOLUBILITY>
6.52e-03 g/l

> <JCHEM_TRADITIONAL_IUPAC>
tetrahydrofolic acid

> <JCHEM_VEBER_RULE>
0

$$$$
