159596
  -OEChem-10051720333D

 54 53  0     1  0  0  0  0  0999 V2000
   -0.5251   -0.5745   -1.9523 O   0  0  0  0  0  0  0  0  0  0  0  0
    2.2969    1.0454    1.5934 O   0  0  0  0  0  0  0  0  0  0  0  0
   -0.1989   -4.1000   -0.8802 O   0  0  0  0  0  0  0  0  0  0  0  0
    2.1103   -2.4129    1.2813 O   0  0  0  0  0  0  0  0  0  0  0  0
   -0.0772    0.2721    0.1584 N   0  0  0  0  0  0  0  0  0  0  0  0
    3.2033    0.5831   -0.4827 N   0  0  0  0  0  0  0  0  0  0  0  0
    0.2846   -3.2587    0.1326 N   0  0  0  0  0  0  0  0  0  0  0  0
    0.2720    2.7473    0.1216 C   0  0  0  0  0  0  0  0  0  0  0  0
    0.8105    1.3347   -0.2668 C   0  0  1  0  0  0  0  0  0  0  0  0
   -1.5771   -1.6468   -0.0738 C   0  0  1  0  0  0  0  0  0  0  0  0
   -1.1524    2.9260   -0.4497 C   0  0  0  0  0  0  0  0  0  0  0  0
    0.2051    2.9590    1.6478 C   0  0  0  0  0  0  0  0  0  0  0  0
    1.1569    3.8576   -0.4775 C   0  0  0  0  0  0  0  0  0  0  0  0
   -2.7596   -1.0062    0.6779 C   0  0  0  0  0  0  0  0  0  0  0  0
   -0.6752   -0.6008   -0.7307 C   0  0  0  0  0  0  0  0  0  0  0  0
    2.1640    0.9796    0.3653 C   0  0  0  0  0  0  0  0  0  0  0  0
   -0.7437   -2.5497    0.8462 C   0  0  0  0  0  0  0  0  0  0  0  0
   -3.6242   -0.1244   -0.2305 C   0  0  0  0  0  0  0  0  0  0  0  0
   -4.7394    0.5602    0.5607 C   0  0  0  0  0  0  0  0  0  0  0  0
    4.5261    0.2160    0.0140 C   0  0  0  0  0  0  0  0  0  0  0  0
    3.0482    0.5048   -1.9311 C   0  0  0  0  0  0  0  0  0  0  0  0
   -5.6185    1.4131   -0.3399 C   0  0  0  0  0  0  0  0  0  0  0  0
    1.6134   -3.1247    0.4159 C   0  0  0  0  0  0  0  0  0  0  0  0
    0.8621    1.3116   -1.3556 H   0  0  0  0  0  0  0  0  0  0  0  0
   -1.9946   -2.2552   -0.8879 H   0  0  0  0  0  0  0  0  0  0  0  0
   -0.2308    0.1522    1.1545 H   0  0  0  0  0  0  0  0  0  0  0  0
   -1.8745    2.3086    0.0907 H   0  0  0  0  0  0  0  0  0  0  0  0
   -1.1943    2.6654   -1.5129 H   0  0  0  0  0  0  0  0  0  0  0  0
   -1.4905    3.9642   -0.3508 H   0  0  0  0  0  0  0  0  0  0  0  0
   -0.3090    2.1379    2.1569 H   0  0  0  0  0  0  0  0  0  0  0  0
    1.1953    3.0845    2.0956 H   0  0  0  0  0  0  0  0  0  0  0  0
   -0.3500    3.8758    1.8827 H   0  0  0  0  0  0  0  0  0  0  0  0
    0.7727    4.8534   -0.2291 H   0  0  0  0  0  0  0  0  0  0  0  0
    1.1996    3.7794   -1.5696 H   0  0  0  0  0  0  0  0  0  0  0  0
    2.1832    3.7961   -0.0994 H   0  0  0  0  0  0  0  0  0  0  0  0
   -2.3911   -0.4059    1.5188 H   0  0  0  0  0  0  0  0  0  0  0  0
   -3.3840   -1.7990    1.1088 H   0  0  0  0  0  0  0  0  0  0  0  0
   -1.3946   -3.3079    1.2988 H   0  0  0  0  0  0  0  0  0  0  0  0
   -0.3024   -1.9802    1.6713 H   0  0  0  0  0  0  0  0  0  0  0  0
   -4.0667   -0.7492   -1.0165 H   0  0  0  0  0  0  0  0  0  0  0  0
   -3.0213    0.6323   -0.7382 H   0  0  0  0  0  0  0  0  0  0  0  0
   -5.3598   -0.1936    1.0594 H   0  0  0  0  0  0  0  0  0  0  0  0
   -4.3050    1.1934    1.3430 H   0  0  0  0  0  0  0  0  0  0  0  0
    4.5733    0.2984    1.1027 H   0  0  0  0  0  0  0  0  0  0  0  0
    5.2685    0.8868   -0.4279 H   0  0  0  0  0  0  0  0  0  0  0  0
    4.7374   -0.8176   -0.2750 H   0  0  0  0  0  0  0  0  0  0  0  0
    2.2521   -0.2046   -2.1721 H   0  0  0  0  0  0  0  0  0  0  0  0
    3.9755    0.1633   -2.4010 H   0  0  0  0  0  0  0  0  0  0  0  0
    2.8007    1.4958   -2.3221 H   0  0  0  0  0  0  0  0  0  0  0  0
   -6.0932    0.8041   -1.1158 H   0  0  0  0  0  0  0  0  0  0  0  0
   -5.0331    2.1982   -0.8291 H   0  0  0  0  0  0  0  0  0  0  0  0
   -6.4084    1.8934    0.2460 H   0  0  0  0  0  0  0  0  0  0  0  0
    2.2365   -3.7502   -0.2440 H   0  0  0  0  0  0  0  0  0  0  0  0
   -0.4079   -4.8962   -0.3627 H   0  0  0  0  0  0  0  0  0  0  0  0
  1 15  2  0  0  0  0
  2 16  2  0  0  0  0
  3  7  1  0  0  0  0
  3 54  1  0  0  0  0
  4 23  2  0  0  0  0
  5  9  1  0  0  0  0
  5 15  1  0  0  0  0
  5 26  1  0  0  0  0
  6 16  1  0  0  0  0
  6 20  1  0  0  0  0
  6 21  1  0  0  0  0
  7 17  1  0  0  0  0
  7 23  1  0  0  0  0
  8  9  1  0  0  0  0
  8 11  1  0  0  0  0
  8 12  1  0  0  0  0
  8 13  1  0  0  0  0
  9 16  1  0  0  0  0
  9 24  1  0  0  0  0
 10 14  1  0  0  0  0
 10 15  1  0  0  0  0
 10 17  1  0  0  0  0
 10 25  1  0  0  0  0
 11 27  1  0  0  0  0
 11 28  1  0  0  0  0
 11 29  1  0  0  0  0
 12 30  1  0  0  0  0
 12 31  1  0  0  0  0
 12 32  1  0  0  0  0
 13 33  1  0  0  0  0
 13 34  1  0  0  0  0
 13 35  1  0  0  0  0
 14 18  1  0  0  0  0
 14 36  1  0  0  0  0
 14 37  1  0  0  0  0
 17 38  1  0  0  0  0
 17 39  1  0  0  0  0
 18 19  1  0  0  0  0
 18 40  1  0  0  0  0
 18 41  1  0  0  0  0
 19 22  1  0  0  0  0
 19 42  1  0  0  0  0
 19 43  1  0  0  0  0
 20 44  1  0  0  0  0
 20 45  1  0  0  0  0
 20 46  1  0  0  0  0
 21 47  1  0  0  0  0
 21 48  1  0  0  0  0
 21 49  1  0  0  0  0
 22 50  1  0  0  0  0
 22 51  1  0  0  0  0
 22 52  1  0  0  0  0
 23 53  1  0  0  0  0
M  END
> <DATABASE_ID>
DB04368

> <DATABASE_NAME>
drugbank

> <ORIGINAL_SOURCE>
PUBCHEM

> <ORIGINAL_SOURCE_URL>
https://pubchem.ncbi.nlm.nih.gov/rest/pug/compound/inchikey/AVDLWYHBABSSHC-CHWSQXEVSA-N/SDF?record_type=3d

> <SMILES>
[H][C@@](CCCC)(CN(O)C=O)C(=O)N[C@]([H])(C(=O)N(C)C)C(C)(C)C

> <INCHI_IDENTIFIER>
InChI=1S/C16H31N3O4/c1-7-8-9-12(10-19(23)11-20)14(21)17-13(16(2,3)4)15(22)18(5)6/h11-13,23H,7-10H2,1-6H3,(H,17,21)/t12-,13-/m1/s1

> <INCHI_KEY>
AVDLWYHBABSSHC-CHWSQXEVSA-N

> <FORMULA>
C16H31N3O4

> <MOLECULAR_WEIGHT>
329.435

> <EXACT_MASS>
329.231456495

> <JCHEM_ACCEPTOR_COUNT>
4

> <JCHEM_ATOM_COUNT>
54

> <JCHEM_AVERAGE_NEUTRAL_MICROSPECIES_CHARGE>
-0.03873455675061047

> <JCHEM_AVERAGE_POLARIZABILITY>
36.416512704894615

> <JCHEM_BIOAVAILABILITY>
1

> <JCHEM_DONOR_COUNT>
2

> <JCHEM_FORMAL_CHARGE>
0

> <JCHEM_GHOSE_FILTER>
1

> <JCHEM_IUPAC>
(2R)-N-[(1S)-1-(dimethylcarbamoyl)-2,2-dimethylpropyl]-2-[(N-hydroxyformamido)methyl]hexanamide

> <ALOGPS_LOGP>
1.39

> <JCHEM_LOGP>
1.1025822119999993

> <ALOGPS_LOGS>
-2.34

> <JCHEM_MDDR_LIKE_RULE>
0

> <JCHEM_NEUTRAL_CHARGE>
0

> <JCHEM_NUMBER_OF_RINGS>
0

> <JCHEM_PHYSIOLOGICAL_CHARGE>
0

> <JCHEM_PKA>
12.943905800622744

> <JCHEM_PKA_STRONGEST_ACIDIC>
8.39475778825156

> <JCHEM_PKA_STRONGEST_BASIC>
-0.7158290968381219

> <JCHEM_POLAR_SURFACE_AREA>
89.94999999999999

> <JCHEM_REFRACTIVITY>
88.1049

> <JCHEM_ROTATABLE_BOND_COUNT>
9

> <JCHEM_RULE_OF_FIVE>
1

> <ALOGPS_SOLUBILITY>
1.50e+00 g/l

> <JCHEM_TRADITIONAL_IUPAC>
tetrahydrofolic acid

> <JCHEM_VEBER_RULE>
0

$$$$
