
     RDKit          3D

 41 41  0  0  0  0  0  0  0  0999 V2000
   -0.9757   -5.3134    0.3880 C   0  0  0  0  0  0  0  0  0  0  0  0
    0.3654   -5.1054   -0.5661 C   0  0  1  0  0  0  0  0  0  0  0  0
   -0.0404   -3.6371   -1.0023 N   0  0  0  0  0  0  0  0  0  0  0  0
   -0.4886   -2.8168    0.0512 C   0  0  0  0  0  0  0  0  0  0  0  0
   -1.5067   -3.2593    0.6003 O   0  0  0  0  0  0  0  0  0  0  0  0
   -0.6046   -1.2715   -0.4802 C   0  0  2  0  0  0  0  0  0  0  0  0
    1.0666   -1.1274   -0.4837 C   0  0  0  0  0  0  0  0  0  0  0  0
    1.3315    0.2616   -0.0150 C   0  0  0  0  0  0  0  0  0  0  0  0
    2.0865    0.1757    1.3070 C   0  0  0  0  0  0  0  0  0  0  0  0
    2.8717   -1.1280    1.3965 C   0  0  0  0  0  0  0  0  0  0  0  0
    3.9783   -1.1459    0.4588 N   0  0  0  0  0  0  0  0  0  0  0  0
    4.4259    0.0839   -0.1255 C   0  0  0  0  0  0  0  0  0  0  0  0
    4.2149    1.1302    0.5276 O   0  0  0  0  0  0  0  0  0  0  0  0
    5.4733    0.0482   -1.0430 O   0  0  0  0  0  0  0  0  0  0  0  0
    6.1973    1.2071   -1.4308 C   0  0  0  0  0  0  0  0  0  0  0  0
    7.1628    1.6209   -0.3698 C   0  0  0  0  0  0  0  0  0  0  0  0
    6.8449    2.7312    0.3965 C   0  0  0  0  0  0  0  0  0  0  0  0
    7.7868    3.5074    1.0312 C   0  0  0  0  0  0  0  0  0  0  0  0
    9.0993    3.2942    0.7078 C   0  0  0  0  0  0  0  0  0  0  0  0
    9.4531    2.1180    0.0580 C   0  0  0  0  0  0  0  0  0  0  0  0
    8.4872    1.3165   -0.5221 C   0  0  0  0  0  0  0  0  0  0  0  0
   -0.7103   -0.7314    1.0293 N   0  0  0  0  0  0  0  0  0  0  0  0
   -1.6786    0.2864    1.1693 C   0  0  0  0  0  0  0  0  0  0  0  0
   -1.4933    1.2974    0.4250 O   0  0  0  0  0  0  0  0  0  0  0  0
   -2.8980    0.2193    1.9943 C   0  0  0  0  0  0  0  0  0  0  0  0
   -4.1662    0.2387    1.1791 C   0  0  0  0  0  0  0  0  0  0  0  0
   -3.6344    0.2637   -0.4115 C   0  0  2  0  0  0  0  0  0  0  0  0
   -4.2830    1.7033   -0.6868 N   0  0  0  0  0  0  0  0  0  0  0  0
   -5.5891    1.8928   -0.2419 C   0  0  0  0  0  0  0  0  0  0  0  0
   -6.0090    1.2250    0.7428 O   0  0  0  0  0  0  0  0  0  0  0  0
   -6.2406    3.0807   -0.5861 O   0  0  0  0  0  0  0  0  0  0  0  0
   -7.3942    3.4375    0.1601 C   0  0  0  0  0  0  0  0  0  0  0  0
   -8.4391    4.1293   -0.6620 C   0  0  0  0  0  0  0  0  0  0  0  0
   -6.8731    4.3105    1.2962 C   0  0  0  0  0  0  0  0  0  0  0  0
   -7.9667    2.1755    0.7872 C   0  0  0  0  0  0  0  0  0  0  0  0
   -4.9759   -0.5329   -0.9362 C   0  0  0  0  0  0  0  0  0  0  0  0
   -5.0830   -1.6573   -0.3821 O   0  0  0  0  0  0  0  0  0  0  0  0
   -4.9722   -0.4857   -2.3357 O   0  0  0  0  0  0  0  0  0  0  0  0
    1.4044   -4.5363    0.6972 B   0  0  0  0  0  0  0  0  0  0  0  0
    0.9757   -4.5841    2.0404 O   0  0  0  0  0  0  0  0  0  0  0  0
    2.7969   -4.4222    0.2351 O   0  0  0  0  0  0  0  0  0  0  0  0
  2  1  1  1
  2  3  1  0
  3  4  1  0
  4  5  2  0
  6  4  1  1
  6  7  1  0
  7  8  1  0
  8  9  1  0
  9 10  1  0
 10 11  1  0
 11 12  1  0
 12 13  2  0
 12 14  1  0
 14 15  1  0
 15 16  1  0
 16 17  2  0
 17 18  1  0
 18 19  2  0
 19 20  1  0
 20 21  2  0
  6 22  1  0
 22 23  1  0
 23 24  2  0
 23 25  1  0
 25 26  1  0
 27 26  1  1
 27 28  1  0
 28 29  1  0
 29 30  2  0
 29 31  1  0
 31 32  1  0
 32 33  1  0
 32 34  1  0
 32 35  1  0
 27 36  1  0
 36 37  2  0
 36 38  1  0
  2 39  1  0
 39 40  1  0
 39 41  1  0
 21 16  1  0
M  END
>  <zinc_id>  (1) 
ZINC000169748488

>  <smiles>  (1) 
C[C@@H](NC(=O)[C@H](CCCCNC(=O)OCc1ccccc1)NC(=O)CC[C@H](NC(=O)OC(C)(C)C)C(=O)O)B(O)O

$$$$
