
     RDKit          3D

 44 45  0  0  0  0  0  0  0  0999 V2000
   -9.4150   -1.9862    0.6865 C   0  0  0  0  0  0  0  0  0  0  0  0
   -8.8695   -2.2791    2.0418 C   0  0  0  0  0  0  0  0  0  0  0  0
   -7.7069   -1.5170    2.2648 O   0  0  0  0  0  0  0  0  0  0  0  0
   -6.4189   -2.0493    2.1727 C   0  0  0  0  0  0  0  0  0  0  0  0
   -6.3630   -3.3147    2.1126 O   0  0  0  0  0  0  0  0  0  0  0  0
   -5.2850   -1.2385    1.7134 C   0  0  0  0  0  0  0  0  0  0  0  0
   -5.3159   -0.7515    0.5088 C   0  0  0  0  0  0  0  0  0  0  0  0
   -4.5041    0.6291    0.2794 C   0  0  2  0  0  0  0  0  0  0  0  0
   -5.1957    0.8107   -1.1905 C   0  0  0  0  0  0  0  0  0  0  0  0
   -6.4307    1.8443   -0.9522 C   0  0  2  0  0  0  0  0  0  0  0  0
   -6.6256    1.5987    0.6516 C   0  0  0  0  0  0  0  0  0  0  0  0
   -8.1115    1.6813    0.7500 C   0  0  0  0  0  0  0  0  0  0  0  0
   -8.6125    1.0386   -0.4341 N   0  0  0  0  0  0  0  0  0  0  0  0
   -7.5170    0.6986   -1.2575 C   0  0  0  0  0  0  0  0  0  0  0  0
   -7.6194    0.2154   -2.4165 O   0  0  0  0  0  0  0  0  0  0  0  0
   -3.2907   -0.1411   -0.3512 N   0  0  0  0  0  0  0  0  0  0  0  0
   -1.9840    0.1903    0.0512 C   0  0  0  0  0  0  0  0  0  0  0  0
   -1.8067    0.9308    1.0449 O   0  0  0  0  0  0  0  0  0  0  0  0
   -1.1250    0.6265   -1.2472 C   0  0  2  0  0  0  0  0  0  0  0  0
   -1.3381   -0.8311   -1.9594 C   0  0  0  0  0  0  0  0  0  0  0  0
   -0.7378   -1.9081   -1.2431 C   0  0  0  0  0  0  0  0  0  0  0  0
   -0.3533   -3.0132   -2.1836 C   0  0  0  0  0  0  0  0  0  0  0  0
   -1.2395   -2.4467    0.0140 C   0  0  0  0  0  0  0  0  0  0  0  0
    0.2836    0.2495   -0.6329 N   0  0  0  0  0  0  0  0  0  0  0  0
    1.0420    1.3408   -0.3304 C   0  0  0  0  0  0  0  0  0  0  0  0
    0.5572    2.4160    0.1286 O   0  0  0  0  0  0  0  0  0  0  0  0
    2.6272    1.4703   -0.5760 C   0  0  1  0  0  0  0  0  0  0  0  0
    2.9543    0.1014    0.1388 N   0  0  0  0  0  0  0  0  0  0  0  0
    4.3874    0.1382    0.3101 C   0  0  0  0  0  0  0  0  0  0  0  0
    4.9117   -0.3153   -0.6936 O   0  0  0  0  0  0  0  0  0  0  0  0
    4.9208   -0.2715    1.7708 C   0  0  2  0  0  0  0  0  0  0  0  0
    5.4203    1.2629    2.1177 C   0  0  0  0  0  0  0  0  0  0  0  0
    6.3558   -0.7061    1.2975 N   0  0  0  0  0  0  0  0  0  0  0  0
    7.0984    0.1219    0.4637 C   0  0  0  0  0  0  0  0  0  0  0  0
    6.8228    1.3634    0.4665 O   0  0  0  0  0  0  0  0  0  0  0  0
    8.5125   -0.2566    0.2650 C   0  0  0  0  0  0  0  0  0  0  0  0
    9.4156    0.3221   -0.6195 C   0  0  0  0  0  0  0  0  0  0  0  0
   10.6838    0.3463   -0.0459 C   0  0  0  0  0  0  0  0  0  0  0  0
   11.6432    1.4759   -0.2746 C   0  0  0  0  0  0  0  0  0  0  0  0
   10.4922   -0.1241    1.1750 O   0  0  0  0  0  0  0  0  0  0  0  0
    9.3219   -0.7039    1.2582 N   0  0  0  0  0  0  0  0  0  0  0  0
    2.5712    0.8684   -2.0909 C   0  0  0  0  0  0  0  0  0  0  0  0
    2.4932   -0.5269   -2.2118 C   0  0  0  0  0  0  0  0  0  0  0  0
    3.3505    1.7313   -2.9728 C   0  0  0  0  0  0  0  0  0  0  0  0
  1  2  1  0
  2  3  1  0
  3  4  1  0
  4  5  2  0
  4  6  1  0
  6  7  2  0
  8  7  1  1
  8  9  1  0
 10  9  1  6
 10 11  1  0
 11 12  1  0
 12 13  1  0
 13 14  1  0
 14 15  2  0
  8 16  1  0
 16 17  1  0
 17 18  2  0
 19 17  1  1
 19 20  1  0
 20 21  1  0
 21 22  1  0
 21 23  1  0
 19 24  1  0
 24 25  1  0
 25 26  2  0
 27 25  1  1
 27 28  1  0
 28 29  1  0
 29 30  2  0
 31 29  1  6
 31 32  1  0
 31 33  1  0
 33 34  1  0
 34 35  2  0
 34 36  1  0
 36 37  1  0
 37 38  2  0
 38 39  1  0
 38 40  1  0
 40 41  1  0
 27 42  1  0
 42 43  1  0
 42 44  1  0
 14 10  1  0
 41 36  2  0
M  END
>  <zinc_id>  (1) 
ZINC000014881295

>  <smiles>  (1) 
CCOC(=O)/C=C/[C@H](C[C@@H]1CCNC1=O)NC(=O)[C@H](CC(C)C)NC(=O)[C@@H](NC(=O)[C@H](C)NC(=O)c1cc(C)on1)C(C)C

$$$$
