
     RDKit          3D

 64 66  0  0  0  0  0  0  0  0999 V2000
   -4.7829    0.9786    3.6099 C   0  0  0  0  0  0  0  0  0  0  0  0
   -4.1719    0.6849    2.8897 C   0  0  0  0  0  0  0  0  0  0  0  0
   -3.5938    1.6738    2.3226 O   0  0  0  0  0  0  0  0  0  0  0  0
   -4.1154   -0.4698    2.1293 N   0  0  0  0  0  0  0  0  0  0  0  0
   -3.3828   -0.5776    0.7784 C   0  0  1  0  0  0  0  0  0  0  0  0
   -4.3859   -1.8457    0.2228 C   0  0  2  0  0  0  0  0  0  0  0  0
   -3.8442   -2.9622    1.1064 O   0  0  0  0  0  0  0  0  0  0  0  0
   -5.1265   -3.0624    0.5590 C   0  0  0  0  0  0  0  0  0  0  0  0
   -4.2529   -1.7001    0.1576 C   0  0  1  0  0  0  0  0  0  0  0  0
   -3.6743   -2.2415   -1.0189 O   0  0  0  0  0  0  0  0  0  0  0  0
   -5.5022   -0.7218   -0.4660 C   0  0  1  0  0  0  0  0  0  0  0  0
   -6.1004   -0.5403    0.8740 O   0  0  0  0  0  0  0  0  0  0  0  0
   -7.5985   -0.6598    0.7848 C   0  0  2  0  0  0  0  0  0  0  0  0
   -7.6179   -1.8734   -0.1545 O   0  0  0  0  0  0  0  0  0  0  0  0
   -9.0521   -2.0710    0.2863 C   0  0  2  0  0  0  0  0  0  0  0  0
   -9.1365   -3.5494   -0.4150 C   0  0  0  0  0  0  0  0  0  0  0  0
   -8.7212   -4.3291    0.6782 O   0  0  0  0  0  0  0  0  0  0  0  0
   -9.5362   -1.2686   -1.1506 C   0  0  1  0  0  0  0  0  0  0  0  0
  -10.9655   -1.4164   -0.7384 O   0  0  0  0  0  0  0  0  0  0  0  0
   -9.4236    0.2460   -0.3724 C   0  0  2  0  0  0  0  0  0  0  0  0
   -9.6750    0.9604   -1.6617 O   0  0  0  0  0  0  0  0  0  0  0  0
   -7.7442    0.3774   -0.5753 C   0  0  1  0  0  0  0  0  0  0  0  0
   -7.6764    1.6115    0.3452 N   0  0  0  0  0  0  0  0  0  0  0  0
   -7.7797    2.8775   -0.2967 C   0  0  0  0  0  0  0  0  0  0  0  0
   -8.4461    4.0534    0.3133 C   0  0  0  0  0  0  0  0  0  0  0  0
   -6.9894    3.0311   -1.2543 O   0  0  0  0  0  0  0  0  0  0  0  0
   -4.3774    0.5059   -0.0623 C   0  0  2  0  0  0  0  0  0  0  0  0
   -3.5707    0.3591   -1.3115 O   0  0  0  0  0  0  0  0  0  0  0  0
   -3.1724    1.8285   -1.4242 C   0  0  2  0  0  0  0  0  0  0  0  0
   -2.6483    1.6328   -2.9798 C   0  0  0  0  0  0  0  0  0  0  0  0
   -1.6893    1.5755   -0.8165 C   0  0  0  0  0  0  0  0  0  0  0  0
   -1.7122    1.8028    0.4356 O   0  0  0  0  0  0  0  0  0  0  0  0
   -0.6739    2.3394   -1.4102 N   0  0  0  0  0  0  0  0  0  0  0  0
    0.6349    2.6530   -0.6046 C   0  0  1  0  0  0  0  0  0  0  0  0
   -0.1727    3.4182    0.6087 C   0  0  0  0  0  0  0  0  0  0  0  0
    0.6428    1.2467    0.1977 C   0  0  0  0  0  0  0  0  0  0  0  0
    1.6443    1.3246    0.9752 O   0  0  0  0  0  0  0  0  0  0  0  0
    0.7042    0.1967   -0.6940 N   0  0  0  0  0  0  0  0  0  0  0  0
    1.1339   -1.2343   -0.2078 C   0  0  2  0  0  0  0  0  0  0  0  0
    2.2207   -0.7080    0.9096 C   0  0  0  0  0  0  0  0  0  0  0  0
    3.2762   -1.7874    0.9963 C   0  0  0  0  0  0  0  0  0  0  0  0
    4.5743   -1.1077    1.2660 C   0  0  0  0  0  0  0  0  0  0  0  0
    4.6601   -0.3561    2.2774 O   0  0  0  0  0  0  0  0  0  0  0  0
    5.6435   -1.0783    0.3194 N   0  0  0  0  0  0  0  0  0  0  0  0
    7.0313   -0.7098    0.9853 C   0  0  1  0  0  0  0  0  0  0  0  0
    7.6961   -2.1364    0.5168 C   0  0  0  0  0  0  0  0  0  0  0  0
    8.6806   -2.0038   -0.4923 C   0  0  0  0  0  0  0  0  0  0  0  0
   10.0981   -2.2594   -0.3225 C   0  0  0  0  0  0  0  0  0  0  0  0
   10.5482   -1.3866    0.9947 C   0  0  1  0  0  0  0  0  0  0  0  0
   11.4558   -2.5680    1.5132 N   0  0  0  0  0  0  0  0  0  0  0  0
   11.7627   -0.6776    0.2083 C   0  0  0  0  0  0  0  0  0  0  0  0
   11.4946    0.5262    0.0299 O   0  0  0  0  0  0  0  0  0  0  0  0
   12.6254   -1.4318   -0.5130 O   0  0  0  0  0  0  0  0  0  0  0  0
    7.5378    0.1307   -0.2887 C   0  0  0  0  0  0  0  0  0  0  0  0
    7.2595   -0.1913   -1.4212 O   0  0  0  0  0  0  0  0  0  0  0  0
    7.7807    1.5173   -0.0397 N   0  0  0  0  0  0  0  0  0  0  0  0
    9.0724    1.9212   -0.8497 C   0  0  2  0  0  0  0  0  0  0  0  0
    9.8775    2.3097    0.5328 C   0  0  0  0  0  0  0  0  0  0  0  0
    8.5588    3.4292   -1.0864 C   0  0  0  0  0  0  0  0  0  0  0  0
    8.2258    4.1181   -0.1392 O   0  0  0  0  0  0  0  0  0  0  0  0
    8.6370    3.8594   -2.4020 O   0  0  0  0  0  0  0  0  0  0  0  0
    2.2859   -1.3813   -1.3284 C   0  0  0  0  0  0  0  0  0  0  0  0
    2.6267   -2.5806   -1.5260 O   0  0  0  0  0  0  0  0  0  0  0  0
    2.9225   -0.3024   -1.8144 O   0  0  0  0  0  0  0  0  0  0  0  0
  1  2  1  0
  2  3  2  0
  2  4  1  0
  5  4  1  1
  5  6  1  0
  6  7  1  1
  7  8  1  0
  9  8  1  1
  9 10  1  0
  9 11  1  0
 11 12  1  1
 13 12  1  6
 13 14  1  0
 14 15  1  0
 15 16  1  6
 16 17  1  0
 15 18  1  0
 18 19  1  1
 18 20  1  0
 20 21  1  6
 20 22  1  0
 22 23  1  1
 23 24  1  0
 24 25  1  0
 24 26  2  0
 11 27  1  0
 27 28  1  6
 29 28  1  1
 29 30  1  0
 29 31  1  0
 31 32  2  0
 31 33  1  0
 34 33  1  6
 34 35  1  0
 34 36  1  0
 36 37  2  0
 36 38  1  0
 39 38  1  6
 39 40  1  0
 40 41  1  0
 41 42  1  0
 42 43  2  0
 42 44  1  0
 45 44  1  6
 45 46  1  0
 46 47  1  0
 47 48  1  0
 49 48  1  6
 49 50  1  0
 49 51  1  0
 51 52  2  0
 51 53  1  0
 45 54  1  0
 54 55  2  0
 54 56  1  0
 57 56  1  1
 57 58  1  0
 57 59  1  0
 59 60  2  0
 59 61  1  0
 39 62  1  0
 62 63  2  0
 62 64  1  0
 27  5  1  0
 10  6  1  0
 22 13  1  0
M  END
>  <zinc_id>  (1) 
ZINC000096006131

>  <smiles>  (1) 
CC(=O)N[C@H]1[C@H](O[C@@H]2[C@H]3CO[C@H](O3)[C@H](NC(C)=O)[C@H]2O[C@H](C)C(=O)N[C@@H](C)C(=O)N[C@H](CCC(=O)N[C@@H](CCC[C@@H](N)C(=O)O)C(=O)N[C@H](C)C(=O)O)C(=O)O)O[C@H](CO)[C@@H](O)[C@@H]1O

$$$$
