
     RDKit          3D

 37 38  0  0  0  0  0  0  0  0999 V2000
   -5.0838   -3.6917   -1.3395 C   0  0  0  0  0  0  0  0  0  0  0  0
   -5.3217   -3.6546   -0.9594 C   0  0  0  0  0  0  0  0  0  0  0  0
   -4.6220   -3.0697    0.1299 O   0  0  0  0  0  0  0  0  0  0  0  0
   -3.7689   -2.0178   -0.1013 C   0  0  0  0  0  0  0  0  0  0  0  0
   -3.5365   -1.6216   -1.2359 O   0  0  0  0  0  0  0  0  0  0  0  0
   -2.6365   -1.8188    1.0498 C   0  0  2  0  0  0  0  0  0  0  0  0
   -1.8980   -0.6311    0.2922 N   0  0  0  0  0  0  0  0  0  0  0  0
   -0.5531   -0.4165    0.6696 C   0  0  0  0  0  0  0  0  0  0  0  0
    0.0042   -1.0768    1.5923 O   0  0  0  0  0  0  0  0  0  0  0  0
   -0.3750    1.1935    0.8239 C   0  0  2  0  0  0  0  0  0  0  0  0
   -0.1942    1.3912   -0.8098 C   0  0  0  0  0  0  0  0  0  0  0  0
   -1.7061    2.2659   -1.3399 S   0  0  0  0  0  0  0  0  0  0  0  0
   -1.3088    4.0457   -1.2715 C   0  0  0  0  0  0  0  0  0  0  0  0
   -2.3348    4.7569   -0.4881 C   0  0  0  0  0  0  0  0  0  0  0  0
   -1.9974    5.2004    0.7818 C   0  0  0  0  0  0  0  0  0  0  0  0
   -2.9304    5.9375    1.4848 C   0  0  0  0  0  0  0  0  0  0  0  0
   -4.0829    6.3107    0.8461 C   0  0  0  0  0  0  0  0  0  0  0  0
   -4.4774    5.7809   -0.3773 C   0  0  0  0  0  0  0  0  0  0  0  0
   -3.5592    5.0119   -1.0691 C   0  0  0  0  0  0  0  0  0  0  0  0
    1.1881    1.1222    1.0597 N   0  0  0  0  0  0  0  0  0  0  0  0
    1.9278    0.2558    0.2476 C   0  0  0  0  0  0  0  0  0  0  0  0
    1.5541    0.1690   -0.9610 O   0  0  0  0  0  0  0  0  0  0  0  0
    3.3603    0.0197    0.6149 C   0  0  0  0  0  0  0  0  0  0  0  0
    4.0453   -0.6872   -0.5286 C   0  0  0  0  0  0  0  0  0  0  0  0
    5.0945    0.4999   -1.0042 C   0  0  2  0  0  0  0  0  0  0  0  0
    5.0137    0.0363   -2.5179 N   0  0  0  0  0  0  0  0  0  0  0  0
    6.3808   -0.4484   -0.7151 C   0  0  0  0  0  0  0  0  0  0  0  0
    7.3721   -0.1400   -1.4456 O   0  0  0  0  0  0  0  0  0  0  0  0
    6.6515   -0.4376    0.6584 O   0  0  0  0  0  0  0  0  0  0  0  0
    7.9585   -0.4319    1.1843 C   0  0  0  0  0  0  0  0  0  0  0  0
    8.3821    0.9297    1.6906 C   0  0  0  0  0  0  0  0  0  0  0  0
   -1.6402   -2.9404    0.4245 C   0  0  0  0  0  0  0  0  0  0  0  0
   -1.6068   -4.1020    1.1862 C   0  0  0  0  0  0  0  0  0  0  0  0
   -1.6160   -5.3278    0.5302 C   0  0  0  0  0  0  0  0  0  0  0  0
   -1.3532   -5.3049   -0.8338 C   0  0  0  0  0  0  0  0  0  0  0  0
   -0.8952   -4.1379   -1.4360 C   0  0  0  0  0  0  0  0  0  0  0  0
   -1.4350   -2.9705   -0.8981 C   0  0  0  0  0  0  0  0  0  0  0  0
  1  2  1  0
  2  3  1  0
  3  4  1  0
  4  5  2  0
  6  4  1  6
  6  7  1  0
  7  8  1  0
  8  9  2  0
 10  8  1  6
 10 11  1  0
 11 12  1  0
 12 13  1  0
 13 14  1  0
 14 15  2  0
 15 16  1  0
 16 17  2  0
 17 18  1  0
 18 19  2  0
 10 20  1  0
 20 21  1  0
 21 22  2  0
 21 23  1  0
 23 24  1  0
 25 24  1  1
 25 26  1  0
 25 27  1  0
 27 28  2  0
 27 29  1  0
 29 30  1  0
 30 31  1  0
  6 32  1  0
 32 33  2  0
 33 34  1  0
 34 35  2  0
 35 36  1  0
 36 37  2  0
 19 14  1  0
 37 32  1  0
M  END
>  <zinc_id>  (1) 
ZINC000056898832

>  <smiles>  (1) 
CCOC(=O)[C@@H](N)CCC(=O)N[C@@H](CSCc1ccccc1)C(=O)N[C@@H](C(=O)OCC)c1ccccc1

$$$$
