
     RDKit          3D

 41 42  0  0  0  0  0  0  0  0999 V2000
   -5.2581    2.7523   -4.5299 C   0  0  0  0  0  0  0  0  0  0  0  0
   -4.6702    1.6049   -3.9844 C   0  0  0  0  0  0  0  0  0  0  0  0
   -4.6487    0.6053   -4.7733 O   0  0  0  0  0  0  0  0  0  0  0  0
   -4.6539    1.4592   -2.5538 N   0  0  0  0  0  0  0  0  0  0  0  0
   -4.6095    0.1354   -2.0944 C   0  0  0  0  0  0  0  0  0  0  0  0
   -6.0074   -0.2904   -2.1731 C   0  0  0  0  0  0  0  0  0  0  0  0
   -6.7271    0.7878   -1.5945 C   0  0  0  0  0  0  0  0  0  0  0  0
   -5.7735    2.1270   -1.6676 C   0  0  1  0  0  0  0  0  0  0  0  0
   -5.1168    1.8102   -0.2358 C   0  0  0  0  0  0  0  0  0  0  0  0
   -6.0199    1.9859    0.6396 O   0  0  0  0  0  0  0  0  0  0  0  0
   -3.8701    1.3469    0.0079 N   0  0  0  0  0  0  0  0  0  0  0  0
   -3.8201    0.6103    1.4105 C   0  0  1  0  0  0  0  0  0  0  0  0
   -3.2015   -0.7772    0.7885 C   0  0  0  0  0  0  0  0  0  0  0  0
   -3.6978   -1.8866    1.5896 C   0  0  0  0  0  0  0  0  0  0  0  0
   -5.0081   -2.2370    1.8843 C   0  0  0  0  0  0  0  0  0  0  0  0
   -5.0948   -3.5868    1.9663 N   0  0  0  0  0  0  0  0  0  0  0  0
   -3.9797   -4.0750    1.3953 C   0  0  0  0  0  0  0  0  0  0  0  0
   -3.0618   -3.0845    1.5245 N   0  0  0  0  0  0  0  0  0  0  0  0
   -2.3771    1.2251    1.7735 C   0  0  0  0  0  0  0  0  0  0  0  0
   -2.3874    2.2584    2.4557 O   0  0  0  0  0  0  0  0  0  0  0  0
   -1.2623    0.7882    1.1152 N   0  0  0  0  0  0  0  0  0  0  0  0
    0.1257    1.3066    1.6351 C   0  0  1  0  0  0  0  0  0  0  0  0
    0.1112    0.3174    2.9487 C   0  0  0  0  0  0  0  0  0  0  0  0
   -0.1460   -0.9436    2.5375 O   0  0  0  0  0  0  0  0  0  0  0  0
    0.9349    0.2492    0.7141 C   0  0  0  0  0  0  0  0  0  0  0  0
    0.6753    0.4609   -0.5121 O   0  0  0  0  0  0  0  0  0  0  0  0
    2.2914    0.0354    1.0138 N   0  0  0  0  0  0  0  0  0  0  0  0
    3.3462    0.5986   -0.0161 C   0  0  1  0  0  0  0  0  0  0  0  0
    4.2827    1.2039    1.1963 C   0  0  0  0  0  0  0  0  0  0  0  0
    4.1428    2.9878    1.1309 S   0  0  0  0  0  0  0  0  0  0  0  0
    4.2002   -0.7739   -0.0838 C   0  0  0  0  0  0  0  0  0  0  0  0
    4.3972   -1.3721    0.9549 O   0  0  0  0  0  0  0  0  0  0  0  0
    5.1577   -0.7484   -1.0474 N   0  0  0  0  0  0  0  0  0  0  0  0
    6.5857   -1.3939   -0.9047 C   0  0  1  0  0  0  0  0  0  0  0  0
    7.2755    0.0987   -0.7529 C   0  0  0  0  0  0  0  0  0  0  0  0
    8.6833   -0.0831   -1.1827 C   0  0  0  0  0  0  0  0  0  0  0  0
    9.0281   -0.6381   -2.4579 N   0  0  0  0  0  0  0  0  0  0  0  0
    9.4795    0.8228   -0.7902 O   0  0  0  0  0  0  0  0  0  0  0  0
    6.5127   -1.6891    0.6856 C   0  0  0  0  0  0  0  0  0  0  0  0
    7.4709   -1.0464    1.5192 N   0  0  0  0  0  0  0  0  0  0  0  0
    6.6908   -2.9522    0.7772 O   0  0  0  0  0  0  0  0  0  0  0  0
  1  2  1  0
  2  3  2  0
  2  4  1  0
  4  5  1  0
  5  6  1  0
  6  7  1  0
  7  8  1  0
  8  9  1  1
  9 10  2  0
  9 11  1  0
 12 11  1  6
 12 13  1  0
 13 14  1  0
 14 15  2  0
 15 16  1  0
 16 17  1  0
 17 18  2  0
 12 19  1  0
 19 20  2  0
 19 21  1  0
 22 21  1  6
 22 23  1  0
 23 24  1  0
 22 25  1  0
 25 26  2  0
 25 27  1  0
 28 27  1  1
 28 29  1  0
 29 30  1  0
 28 31  1  0
 31 32  2  0
 31 33  1  0
 34 33  1  1
 34 35  1  0
 35 36  1  0
 36 37  1  0
 36 38  2  0
 34 39  1  0
 39 40  1  0
 39 41  2  0
  8  4  1  0
 18 14  1  0
M  END
>  <zinc_id>  (1) 
ZINC000003924034

>  <smiles>  (1) 
CC(=O)N1CCC[C@H]1C(=O)N[C@@H](Cc1c[nH]cn1)C(=O)N[C@@H](CO)C(=O)N[C@@H](CS)C(=O)N[C@@H](CC(N)=O)C(N)=O

$$$$
