
     RDKit          3D

 30 30  0  0  0  0  0  0  0  0999 V2000
   -7.9980    1.4721   -0.3160 C   0  0  0  0  0  0  0  0  0  0  0  0
   -7.1454    0.8278    0.7442 C   0  0  0  0  0  0  0  0  0  0  0  0
   -7.3493   -0.6765    0.7543 C   0  0  0  0  0  0  0  0  0  0  0  0
   -5.6945    1.1831    0.5285 C   0  0  0  0  0  0  0  0  0  0  0  0
   -4.9003   -0.0792    0.8274 C   0  0  0  0  0  0  0  0  0  0  0  0
   -3.9581   -0.4130   -0.2703 C   0  0  0  0  0  0  0  0  0  0  0  0
   -4.3914   -0.3763   -1.4611 O   0  0  0  0  0  0  0  0  0  0  0  0
   -2.5999   -0.0743   -0.0839 N   0  0  0  0  0  0  0  0  0  0  0  0
   -1.6177   -0.8480   -1.0944 C   0  0  2  0  0  0  0  0  0  0  0  0
   -0.2631   -0.0574   -0.6124 C   0  0  0  0  0  0  0  0  0  0  0  0
   -0.2862    0.4300    0.5323 O   0  0  0  0  0  0  0  0  0  0  0  0
    0.7644   -1.0671   -0.5951 N   0  0  0  0  0  0  0  0  0  0  0  0
    2.2455   -0.4651   -0.4505 C   0  0  1  0  0  0  0  0  0  0  0  0
    1.8032    0.8100    0.5516 C   0  0  0  0  0  0  0  0  0  0  0  0
    2.9807    0.9542    1.4786 C   0  0  0  0  0  0  0  0  0  0  0  0
    4.1673    1.5840    0.8239 C   0  0  0  0  0  0  0  0  0  0  0  0
    4.0035    2.9762    0.5187 N   0  0  0  0  0  0  0  0  0  0  0  0
    2.7718    3.2695   -0.1734 C   0  0  0  0  0  0  0  0  0  0  0  0
    1.9605    4.0660    0.7192 N   0  0  0  0  0  0  0  0  0  0  0  0
    3.0200    4.0582   -1.3456 N   0  0  0  0  0  0  0  0  0  0  0  0
    2.5869   -1.4203    0.8368 C   0  0  0  0  0  0  0  0  0  0  0  0
    1.7284   -1.4810    1.7097 O   0  0  0  0  0  0  0  0  0  0  0  0
    3.7244   -2.2880    0.6459 C   0  0  0  0  0  0  0  0  0  0  0  0
    3.9969   -3.2470    1.5649 N   0  0  0  0  0  0  0  0  0  0  0  0
    5.2028   -3.7776    1.3811 C   0  0  0  0  0  0  0  0  0  0  0  0
    5.3856   -4.2031    0.0696 C   0  0  0  0  0  0  0  0  0  0  0  0
    4.4538   -3.0011   -0.7337 S   0  0  0  0  0  0  0  0  0  0  0  0
   -1.9157    0.2736   -2.3031 C   0  0  0  0  0  0  0  0  0  0  0  0
   -0.9042   -0.0337   -3.3640 C   0  0  0  0  0  0  0  0  0  0  0  0
   -1.7722    1.6040   -1.6560 C   0  0  0  0  0  0  0  0  0  0  0  0
  1  2  1  0
  2  3  1  0
  2  4  1  0
  4  5  1  0
  5  6  1  0
  6  7  2  0
  6  8  1  0
  9  8  1  1
  9 10  1  0
 10 11  2  0
 10 12  1  0
 13 12  1  1
 13 14  1  0
 14 15  1  0
 15 16  1  0
 16 17  1  0
 17 18  1  0
 18 19  1  0
 18 20  1  0
 13 21  1  0
 21 22  2  0
 21 23  1  0
 23 24  2  0
 24 25  1  0
 25 26  2  0
 26 27  1  0
  9 28  1  0
 28 29  1  0
 28 30  1  0
 27 23  1  0
M  END
>  <zinc_id>  (1) 
ZINC000038190858

>  <smiles>  (1) 
CC(C)CCC(=O)N[C@H](C(=O)N[C@@H](CCCNC(N)N)C(=O)c1nccs1)C(C)C

$$$$
