
     RDKit          3D

 27 26  0  0  0  0  0  0  0  0999 V2000
    6.7822    2.6546    0.0611 C   0  0  0  0  0  0  0  0  0  0  0  0
    5.8496    2.2044   -0.4094 C   0  0  0  0  0  0  0  0  0  0  0  0
    4.7589    1.4845    0.2979 C   0  0  0  0  0  0  0  0  0  0  0  0
    4.7012    0.0130    0.0476 C   0  0  0  0  0  0  0  0  0  0  0  0
    3.5050   -0.2421   -1.0518 C   0  0  1  0  0  0  0  0  0  0  0  0
    3.8531   -1.8141   -1.1649 C   0  0  0  0  0  0  0  0  0  0  0  0
    3.8897   -2.4677   -0.1680 O   0  0  0  0  0  0  0  0  0  0  0  0
    2.4330   -0.4844    0.0730 N   0  0  0  0  0  0  0  0  0  0  0  0
    1.0552   -0.3347   -0.3453 C   0  0  0  0  0  0  0  0  0  0  0  0
    1.0528    0.7948   -0.9460 O   0  0  0  0  0  0  0  0  0  0  0  0
    0.3449   -0.2537    1.1137 C   0  0  2  0  0  0  0  0  0  0  0  0
    0.5664   -1.8571    1.4114 C   0  0  0  0  0  0  0  0  0  0  0  0
   -0.2551   -2.6744    0.5420 C   0  0  0  0  0  0  0  0  0  0  0  0
   -1.5239   -3.2198    1.1022 C   0  0  0  0  0  0  0  0  0  0  0  0
    0.3998   -3.5377   -0.4650 C   0  0  0  0  0  0  0  0  0  0  0  0
   -1.1498   -0.4473    0.6774 N   0  0  0  0  0  0  0  0  0  0  0  0
   -1.5301    0.3296   -0.3910 C   0  0  0  0  0  0  0  0  0  0  0  0
   -1.2416   -0.4089   -1.3811 O   0  0  0  0  0  0  0  0  0  0  0  0
   -3.0088    0.9538   -0.5102 C   0  0  2  0  0  0  0  0  0  0  0  0
   -2.7303    2.0964    0.6419 C   0  0  0  0  0  0  0  0  0  0  0  0
   -3.5728    3.2604    0.2203 C   0  0  0  0  0  0  0  0  0  0  0  0
   -3.6302    4.2299    1.3644 C   0  0  0  0  0  0  0  0  0  0  0  0
   -2.9253    4.0027   -0.9406 C   0  0  0  0  0  0  0  0  0  0  0  0
   -3.6467   -0.0346    0.5409 N   0  0  0  0  0  0  0  0  0  0  0  0
   -4.4188   -1.0506   -0.0921 C   0  0  0  0  0  0  0  0  0  0  0  0
   -5.6664   -1.5408    0.5365 C   0  0  0  0  0  0  0  0  0  0  0  0
   -3.8920   -1.6562   -1.0696 O   0  0  0  0  0  0  0  0  0  0  0  0
  1  2  1  0
  2  3  1  0
  3  4  1  0
  5  4  1  1
  5  6  1  0
  6  7  2  0
  5  8  1  0
  8  9  1  0
  9 10  2  0
 11  9  1  6
 11 12  1  0
 12 13  1  0
 13 14  1  0
 13 15  1  0
 11 16  1  0
 16 17  1  0
 17 18  2  0
 19 17  1  1
 19 20  1  0
 20 21  1  0
 21 22  1  0
 21 23  1  0
 19 24  1  0
 24 25  1  0
 25 26  1  0
 25 27  2  0
M  END
>  <zinc_id>  (1) 
ZINC000003826241

>  <smiles>  (1) 
CCCC[C@@H](C=O)NC(=O)[C@H](CC(C)C)NC(=O)[C@H](CC(C)C)NC(C)=O

$$$$
