
     RDKit          3D

 31 32  0  0  0  0  0  0  0  0999 V2000
   -4.0707    0.8633   -2.8347 C   0  0  0  0  0  0  0  0  0  0  0  0
   -3.3189   -0.1147   -2.1636 C   0  0  0  0  0  0  0  0  0  0  0  0
   -3.3671   -1.2747   -2.6757 O   0  0  0  0  0  0  0  0  0  0  0  0
   -2.4534    0.1143   -1.0423 N   0  0  0  0  0  0  0  0  0  0  0  0
   -2.8062   -1.0264    0.0146 C   0  0  2  0  0  0  0  0  0  0  0  0
   -2.8265    0.0591    1.2737 C   0  0  0  0  0  0  0  0  0  0  0  0
   -4.2284    0.0520    1.7753 C   0  0  0  0  0  0  0  0  0  0  0  0
   -4.8204    1.2874    2.0299 C   0  0  0  0  0  0  0  0  0  0  0  0
   -6.1486    1.3656    2.4358 C   0  0  0  0  0  0  0  0  0  0  0  0
   -6.8292    0.1544    2.4873 C   0  0  0  0  0  0  0  0  0  0  0  0
   -6.0664   -0.9198    2.9318 C   0  0  0  0  0  0  0  0  0  0  0  0
   -4.7124   -0.9468    2.6161 C   0  0  0  0  0  0  0  0  0  0  0  0
   -1.2718   -1.4396    0.3124 C   0  0  0  0  0  0  0  0  0  0  0  0
   -1.3122   -2.3515    1.1580 O   0  0  0  0  0  0  0  0  0  0  0  0
   -0.1846   -0.8921   -0.3559 N   0  0  0  0  0  0  0  0  0  0  0  0
    1.0724   -1.5992   -0.0946 C   0  0  0  0  0  0  0  0  0  0  0  0
    1.2962   -1.2002    1.3441 C   0  0  0  0  0  0  0  0  0  0  0  0
    0.4343   -0.0211    1.6620 C   0  0  0  0  0  0  0  0  0  0  0  0
    0.1718    0.5842    0.1371 C   0  0  1  0  0  0  0  0  0  0  0  0
    1.7667    0.5418   -0.1997 C   0  0  0  0  0  0  0  0  0  0  0  0
    2.4407    1.1993    0.6562 O   0  0  0  0  0  0  0  0  0  0  0  0
    2.1509    0.5671   -1.5537 N   0  0  0  0  0  0  0  0  0  0  0  0
    3.5388    1.2953   -1.7416 C   0  0  1  0  0  0  0  0  0  0  0  0
    4.3319    0.1830   -0.8327 C   0  0  0  0  0  0  0  0  0  0  0  0
    5.6979    0.7665   -0.5799 C   0  0  0  0  0  0  0  0  0  0  0  0
    6.5295   -0.2339    0.1362 C   0  0  0  0  0  0  0  0  0  0  0  0
    6.1764   -0.4831    1.5598 C   0  0  0  0  0  0  0  0  0  0  0  0
    7.3379   -0.6724    2.4264 N   0  0  0  0  0  0  0  0  0  0  0  0
    3.9136    0.4983   -3.2139 B   0  0  0  0  0  0  0  0  0  0  0  0
    3.8844    1.4049   -4.3740 O   0  0  0  0  0  0  0  0  0  0  0  0
    3.6737   -0.9127   -3.2944 O   0  0  0  0  0  0  0  0  0  0  0  0
  1  2  1  0
  2  3  2  0
  2  4  1  0
  5  4  1  6
  5  6  1  0
  6  7  1  0
  7  8  2  0
  8  9  1  0
  9 10  2  0
 10 11  1  0
 11 12  2  0
  5 13  1  0
 13 14  2  0
 13 15  1  0
 15 16  1  0
 16 17  1  0
 17 18  1  0
 18 19  1  0
 19 20  1  6
 20 21  2  0
 20 22  1  0
 23 22  1  1
 23 24  1  0
 24 25  1  0
 25 26  1  0
 26 27  1  0
 27 28  1  0
 23 29  1  0
 29 30  1  0
 29 31  1  0
 12  7  1  0
 19 15  1  0
M  END
>  <zinc_id>  (1) 
ZINC000169748501

>  <smiles>  (1) 
CC(=O)N[C@H](Cc1ccccc1)C(=O)N1CCC[C@H]1C(=O)N[C@@H](CCCCN)B(O)O

$$$$
