
     RDKit          3D

 30 31  0  0  0  0  0  0  0  0999 V2000
    2.5265   -3.8648    0.8332 C   0  0  0  0  0  0  0  0  0  0  0  0
    2.4957   -2.5465    0.6346 C   0  0  0  0  0  0  0  0  0  0  0  0
    3.0676   -1.7682    1.4547 O   0  0  0  0  0  0  0  0  0  0  0  0
    1.6382   -1.8430   -0.2726 N   0  0  0  0  0  0  0  0  0  0  0  0
    2.4873   -0.8181   -1.1717 C   0  0  2  0  0  0  0  0  0  0  0  0
    2.7765    0.1936    0.1304 C   0  0  0  0  0  0  0  0  0  0  0  0
    4.0735    0.8368   -0.1864 C   0  0  0  0  0  0  0  0  0  0  0  0
    4.6841    0.7201   -1.4085 C   0  0  0  0  0  0  0  0  0  0  0  0
    6.0215    1.0181   -1.5937 C   0  0  0  0  0  0  0  0  0  0  0  0
    6.7872    1.3392   -0.4918 C   0  0  0  0  0  0  0  0  0  0  0  0
    6.2542    1.0822    0.7663 C   0  0  0  0  0  0  0  0  0  0  0  0
    4.8806    1.2857    0.8486 C   0  0  0  0  0  0  0  0  0  0  0  0
    1.1198   -0.0252   -1.6103 C   0  0  0  0  0  0  0  0  0  0  0  0
    1.0915    0.2294   -2.8357 O   0  0  0  0  0  0  0  0  0  0  0  0
    0.2976    0.4982   -0.6615 N   0  0  0  0  0  0  0  0  0  0  0  0
   -0.1172    1.8413   -0.4359 C   0  0  0  0  0  0  0  0  0  0  0  0
    0.1484    1.9261    1.0263 C   0  0  0  0  0  0  0  0  0  0  0  0
   -0.0675    0.6326    1.6736 C   0  0  0  0  0  0  0  0  0  0  0  0
   -0.5520   -0.3483    0.4005 C   0  0  1  0  0  0  0  0  0  0  0  0
   -1.9454    0.4688    0.0743 C   0  0  0  0  0  0  0  0  0  0  0  0
   -2.2725    1.3633    0.8517 O   0  0  0  0  0  0  0  0  0  0  0  0
   -2.9585   -0.4735   -0.3341 N   0  0  0  0  0  0  0  0  0  0  0  0
   -4.4038    0.1200   -0.0565 C   0  0  1  0  0  0  0  0  0  0  0  0
   -5.1671   -1.1163   -0.8446 C   0  0  0  0  0  0  0  0  0  0  0  0
   -6.5565   -0.5548   -1.0194 C   0  0  0  0  0  0  0  0  0  0  0  0
   -6.9007    0.5066   -0.0154 C   0  0  0  0  0  0  0  0  0  0  0  0
   -6.4090    1.8185   -0.3842 N   0  0  0  0  0  0  0  0  0  0  0  0
   -4.5162   -0.6697    1.4768 B   0  0  0  0  0  0  0  0  0  0  0  0
   -4.2224   -2.0623    1.5343 O   0  0  0  0  0  0  0  0  0  0  0  0
   -4.2613    0.2101    2.6075 O   0  0  0  0  0  0  0  0  0  0  0  0
  1  2  1  0
  2  3  2  0
  2  4  1  0
  5  4  1  1
  5  6  1  0
  6  7  1  0
  7  8  2  0
  8  9  1  0
  9 10  2  0
 10 11  1  0
 11 12  2  0
  5 13  1  0
 13 14  2  0
 13 15  1  0
 15 16  1  0
 16 17  1  0
 17 18  1  0
 18 19  1  0
 19 20  1  6
 20 21  2  0
 20 22  1  0
 23 22  1  6
 23 24  1  0
 24 25  1  0
 25 26  1  0
 26 27  1  0
 23 28  1  0
 28 29  1  0
 28 30  1  0
 12  7  1  0
 19 15  1  0
M  END
>  <zinc_id>  (1) 
ZINC000169748503

>  <smiles>  (1) 
CC(=O)N[C@H](Cc1ccccc1)C(=O)N1CCC[C@H]1C(=O)N[C@@H](CCCN)B(O)O

$$$$
