
     RDKit          3D

 43 42  0  0  0  0  0  0  0  0999 V2000
    9.5136    2.3408    2.5525 C   0  0  0  0  0  0  0  0  0  0  0  0
    9.9537    2.0545    1.1214 C   0  0  0  0  0  0  0  0  0  0  0  0
    8.8376    1.2619    0.4836 C   0  0  0  0  0  0  0  0  0  0  0  0
    8.8017    1.4085   -1.0208 C   0  0  0  0  0  0  0  0  0  0  0  0
    7.7544    2.4313   -1.3586 C   0  0  0  0  0  0  0  0  0  0  0  0
    6.7584    1.9827   -2.3407 C   0  0  0  0  0  0  0  0  0  0  0  0
    6.0843    0.8390   -2.1516 C   0  0  0  0  0  0  0  0  0  0  0  0
    6.8519   -0.2922   -1.6227 C   0  0  0  0  0  0  0  0  0  0  0  0
    6.0724   -1.2996   -0.8926 C   0  0  0  0  0  0  0  0  0  0  0  0
    5.6010   -0.9016    0.2906 C   0  0  0  0  0  0  0  0  0  0  0  0
    4.7158    0.2691    0.2008 C   0  0  0  0  0  0  0  0  0  0  0  0
    3.7808    0.4842    1.0884 C   0  0  0  0  0  0  0  0  0  0  0  0
    2.3799    0.7040    0.8412 C   0  0  0  0  0  0  0  0  0  0  0  0
    1.6173    0.1054   -0.0302 C   0  0  0  0  0  0  0  0  0  0  0  0
    0.4894   -0.8498    0.4102 C   0  0  1  0  0  0  0  0  0  0  0  0
   -0.9426    0.3007    0.0237 S   0  0  0  0  0  0  0  0  0  0  0  0
   -2.2418   -0.4484   -0.8111 C   0  0  0  0  0  0  0  0  0  0  0  0
   -3.5690   -0.7187    0.1743 C   0  0  2  0  0  0  0  0  0  0  0  0
   -4.2165    0.6919   -0.2493 N   0  0  0  0  0  0  0  0  0  0  0  0
   -5.5540    0.8192    0.2493 C   0  0  0  0  0  0  0  0  0  0  0  0
   -6.2242   -0.2159    0.5322 O   0  0  0  0  0  0  0  0  0  0  0  0
   -6.1837    2.1240    0.5808 C   0  0  0  0  0  0  0  0  0  0  0  0
   -5.3732    3.2482   -0.0580 C   0  0  0  0  0  0  0  0  0  0  0  0
   -6.5573    4.3757   -0.4408 C   0  0  2  0  0  0  0  0  0  0  0  0
   -7.3654    3.2907   -1.3107 N   0  0  0  0  0  0  0  0  0  0  0  0
   -5.7353    4.9173   -1.7570 C   0  0  0  0  0  0  0  0  0  0  0  0
   -5.2470    4.0510   -2.4810 O   0  0  0  0  0  0  0  0  0  0  0  0
   -4.9157    5.9586   -1.3454 O   0  0  0  0  0  0  0  0  0  0  0  0
   -2.8970   -0.0437    1.5211 C   0  0  0  0  0  0  0  0  0  0  0  0
   -2.1486   -0.9214    2.0360 O   0  0  0  0  0  0  0  0  0  0  0  0
   -3.9214    0.4468    2.4003 N   0  0  0  0  0  0  0  0  0  0  0  0
   -3.9296    0.1268    3.8266 C   0  0  0  0  0  0  0  0  0  0  0  0
   -4.4586   -1.2306    4.0842 C   0  0  0  0  0  0  0  0  0  0  0  0
   -5.0801   -1.5281    5.1208 O   0  0  0  0  0  0  0  0  0  0  0  0
   -4.6358   -2.0692    2.9789 O   0  0  0  0  0  0  0  0  0  0  0  0
    0.4220   -1.7103   -1.0635 C   0  0  1  0  0  0  0  0  0  0  0  0
    1.9057   -2.1262   -0.9283 O   0  0  0  0  0  0  0  0  0  0  0  0
   -0.1066   -3.0816   -0.2522 C   0  0  0  0  0  0  0  0  0  0  0  0
    0.7174   -4.2084   -0.7748 C   0  0  0  0  0  0  0  0  0  0  0  0
   -0.0324   -5.4933   -0.9689 C   0  0  0  0  0  0  0  0  0  0  0  0
   -0.2643   -5.6212   -2.4367 C   0  0  0  0  0  0  0  0  0  0  0  0
   -0.1374   -4.6289   -3.2157 O   0  0  0  0  0  0  0  0  0  0  0  0
   -0.5197   -6.8432   -3.0064 O   0  0  0  0  0  0  0  0  0  0  0  0
  1  2  1  0
  2  3  1  0
  3  4  1  0
  4  5  1  0
  5  6  1  0
  6  7  2  0
  7  8  1  0
  8  9  1  0
  9 10  2  0
 10 11  1  0
 11 12  2  0
 12 13  1  0
 13 14  2  0
 15 14  1  6
 15 16  1  0
 16 17  1  0
 18 17  1  6
 18 19  1  0
 19 20  1  0
 20 21  2  0
 20 22  1  0
 22 23  1  0
 24 23  1  1
 24 25  1  0
 24 26  1  0
 26 27  2  0
 26 28  1  0
 18 29  1  0
 29 30  2  0
 29 31  1  0
 31 32  1  0
 32 33  1  0
 33 34  2  0
 33 35  1  0
 15 36  1  0
 36 37  1  1
 36 38  1  0
 38 39  1  0
 39 40  1  0
 40 41  1  0
 41 42  2  0
 41 43  1  0
M  END
>  <zinc_id>  (1) 
ZINC000004095814

>  <smiles>  (1) 
CCCCC/C=C\C/C=C\C=C\C=C\[C@@H](SC[C@H](NC(=O)CC[C@H](N)C(=O)O)C(=O)NCC(=O)O)[C@@H](O)CCCC(=O)O

$$$$
