
     RDKit          3D

 41 41  0  0  0  0  0  0  0  0999 V2000
   11.6314    3.4671   -0.0140 C   0  0  0  0  0  0  0  0  0  0  0  0
   11.9611    3.0858    0.1278 C   0  0  0  0  0  0  0  0  0  0  0  0
   12.1446    1.5930    0.2249 C   0  0  0  0  0  0  0  0  0  0  0  0
   10.8885    0.8656   -0.2292 C   0  0  0  0  0  0  0  0  0  0  0  0
    9.7290    1.7443    0.2259 C   0  0  0  0  0  0  0  0  0  0  0  0
    8.4756    1.0052   -0.1551 C   0  0  0  0  0  0  0  0  0  0  0  0
    7.6452    0.5903    1.0209 C   0  0  0  0  0  0  0  0  0  0  0  0
    6.4788   -0.2168    0.5111 C   0  0  0  0  0  0  0  0  0  0  0  0
    6.2419    0.1450   -0.9508 C   0  0  0  0  0  0  0  0  0  0  0  0
    5.6576    1.5494   -0.9536 C   0  0  0  0  0  0  0  0  0  0  0  0
    4.9396    1.8268    0.3569 C   0  0  0  0  0  0  0  0  0  0  0  0
    3.6913    0.9862    0.3779 C   0  0  0  0  0  0  0  0  0  0  0  0
    3.1225    0.9605   -1.0298 C   0  0  0  0  0  0  0  0  0  0  0  0
    3.0246   -0.5052   -1.4278 C   0  0  0  0  0  0  0  0  0  0  0  0
    2.5789   -1.3239   -0.2223 C   0  0  0  0  0  0  0  0  0  0  0  0
    1.0839   -1.2704   -0.2039 C   0  0  0  0  0  0  0  0  0  0  0  0
    0.5744   -0.1152   -0.0866 O   0  0  0  0  0  0  0  0  0  0  0  0
    0.3731   -2.1506   -1.0789 N   0  0  0  0  0  0  0  0  0  0  0  0
   -0.8480   -1.7821   -1.7439 C   0  0  0  0  0  0  0  0  0  0  0  0
   -2.0045   -1.8582   -0.7947 C   0  0  0  0  0  0  0  0  0  0  0  0
   -1.8297   -2.5834    0.2277 O   0  0  0  0  0  0  0  0  0  0  0  0
   -3.2724   -1.9133   -1.3698 N   0  0  0  0  0  0  0  0  0  0  0  0
   -4.5237   -1.9357   -0.3711 C   0  0  1  0  0  0  0  0  0  0  0  0
   -3.8426   -3.1291    0.5896 C   0  0  0  0  0  0  0  0  0  0  0  0
   -4.8202   -4.2465    0.3865 C   0  0  0  0  0  0  0  0  0  0  0  0
   -6.1606   -4.1796    0.7231 C   0  0  0  0  0  0  0  0  0  0  0  0
   -6.7400   -5.2937    0.2285 N   0  0  0  0  0  0  0  0  0  0  0  0
   -5.9473   -5.7310   -0.7786 C   0  0  0  0  0  0  0  0  0  0  0  0
   -4.7591   -5.0902   -0.6712 N   0  0  0  0  0  0  0  0  0  0  0  0
   -3.9130   -0.7234    0.5655 C   0  0  0  0  0  0  0  0  0  0  0  0
   -4.3726   -0.8348    1.7457 O   0  0  0  0  0  0  0  0  0  0  0  0
   -4.0313    0.5305   -0.1327 N   0  0  0  0  0  0  0  0  0  0  0  0
   -4.7273    1.6720    0.7563 C   0  0  1  0  0  0  0  0  0  0  0  0
   -3.9696    2.8982   -0.1015 C   0  0  0  0  0  0  0  0  0  0  0  0
   -5.0068    4.0007   -0.0688 C   0  0  0  0  0  0  0  0  0  0  0  0
   -5.7786    4.0149    1.2281 C   0  0  0  0  0  0  0  0  0  0  0  0
   -6.7716    5.1580    1.1355 C   0  0  0  0  0  0  0  0  0  0  0  0
   -8.1176    4.6178    1.0541 N   0  0  0  0  0  0  0  0  0  0  0  0
   -6.0608    1.7184   -0.2022 C   0  0  0  0  0  0  0  0  0  0  0  0
   -5.8477    1.7704   -1.4145 O   0  0  0  0  0  0  0  0  0  0  0  0
   -6.8972    0.6827    0.2375 O   0  0  0  0  0  0  0  0  0  0  0  0
  1  2  1  0
  2  3  1  0
  3  4  1  0
  4  5  1  0
  5  6  1  0
  6  7  1  0
  7  8  1  0
  8  9  1  0
  9 10  1  0
 10 11  1  0
 11 12  1  0
 12 13  1  0
 13 14  1  0
 14 15  1  0
 15 16  1  0
 16 17  2  0
 16 18  1  0
 18 19  1  0
 19 20  1  0
 20 21  2  0
 20 22  1  0
 23 22  1  6
 23 24  1  0
 24 25  1  0
 25 26  2  0
 26 27  1  0
 27 28  1  0
 28 29  2  0
 23 30  1  0
 30 31  2  0
 30 32  1  0
 33 32  1  6
 33 34  1  0
 34 35  1  0
 35 36  1  0
 36 37  1  0
 37 38  1  0
 33 39  1  0
 39 40  2  0
 39 41  1  0
 29 25  1  0
M  END
>  <zinc_id>  (1) 
ZINC000113569616

>  <smiles>  (1) 
CCCCCCCCCCCCCCCC(=O)NCC(=O)N[C@@H](Cc1c[nH]cn1)C(=O)N[C@@H](CCCCN)C(=O)O

$$$$
