
     RDKit          3D

 64 66  0  0  0  0  0  0  0  0999 V2000
    4.4163    3.9985   -0.4308 C   0  0  0  0  0  0  0  0  0  0  0  0
    3.8513    3.3842   -1.2907 C   0  0  0  0  0  0  0  0  0  0  0  0
    2.5242    2.8022   -0.5605 C   0  0  2  0  0  0  0  0  0  0  0  0
    3.3101    2.4569    0.8140 C   0  0  0  0  0  0  0  0  0  0  0  0
    2.5935    1.2356   -1.2676 C   0  0  2  0  0  0  0  0  0  0  0  0
    2.1468    0.5156    0.0529 N   0  0  0  0  0  0  0  0  0  0  0  0
    1.1006   -0.4098   -0.1110 C   0  0  0  0  0  0  0  0  0  0  0  0
    0.7980   -0.9985   -1.0939 O   0  0  0  0  0  0  0  0  0  0  0  0
    0.0887   -0.0758    1.1000 C   0  0  2  0  0  0  0  0  0  0  0  0
    0.6778   -1.3488    1.9646 C   0  0  0  0  0  0  0  0  0  0  0  0
   -0.1452   -2.5056    1.8409 C   0  0  0  0  0  0  0  0  0  0  0  0
   -0.4939   -3.1229    3.0408 C   0  0  0  0  0  0  0  0  0  0  0  0
   -1.3798   -4.1927    3.0802 C   0  0  0  0  0  0  0  0  0  0  0  0
   -2.0438   -4.4781    1.9052 C   0  0  0  0  0  0  0  0  0  0  0  0
   -3.3608   -4.9135    1.8476 O   0  0  0  0  0  0  0  0  0  0  0  0
   -1.3335   -4.2068    0.7429 C   0  0  0  0  0  0  0  0  0  0  0  0
   -0.2176   -3.3763    0.7569 C   0  0  0  0  0  0  0  0  0  0  0  0
   -1.1847   -0.8158    0.5072 N   0  0  0  0  0  0  0  0  0  0  0  0
   -2.0450   -0.1016   -0.3081 C   0  0  0  0  0  0  0  0  0  0  0  0
   -1.4752    0.6106   -1.1972 O   0  0  0  0  0  0  0  0  0  0  0  0
   -3.1697    0.9042    0.2769 C   0  0  1  0  0  0  0  0  0  0  0  0
   -4.2821    0.3704   -0.7172 N   0  0  0  0  0  0  0  0  0  0  0  0
   -5.6062    0.8612   -0.4091 C   0  0  0  0  0  0  0  0  0  0  0  0
   -5.7518    0.8443    0.8621 O   0  0  0  0  0  0  0  0  0  0  0  0
   -6.6952   -0.2410   -0.9107 C   0  0  2  0  0  0  0  0  0  0  0  0
   -6.3167   -0.0205   -2.5010 C   0  0  0  0  0  0  0  0  0  0  0  0
   -5.6229   -1.3154   -2.8504 C   0  0  0  0  0  0  0  0  0  0  0  0
   -5.6706   -2.3546   -1.7801 C   0  0  0  0  0  0  0  0  0  0  0  0
   -6.9859   -2.8569   -1.4874 N   0  0  0  0  0  0  0  0  0  0  0  0
   -7.1593   -3.5752   -0.2777 C   0  0  0  0  0  0  0  0  0  0  0  0
   -6.3116   -4.5318   -0.0392 N   0  0  0  0  0  0  0  0  0  0  0  0
   -8.4056   -3.6472    0.3905 N   0  0  0  0  0  0  0  0  0  0  0  0
   -7.9513    0.7072   -1.0067 N   0  0  0  0  0  0  0  0  0  0  0  0
   -7.9747    1.7066    0.0238 C   0  0  0  0  0  0  0  0  0  0  0  0
   -7.3149    2.6174   -0.5654 O   0  0  0  0  0  0  0  0  0  0  0  0
   -9.4518    2.1371    0.5103 C   0  0  1  0  0  0  0  0  0  0  0  0
   -9.5584    0.9054    1.4997 N   0  0  0  0  0  0  0  0  0  0  0  0
   -8.8566    3.1056    1.7076 C   0  0  0  0  0  0  0  0  0  0  0  0
   -8.4358    4.3235    0.9532 C   0  0  0  0  0  0  0  0  0  0  0  0
   -7.3705    4.8704    1.3026 O   0  0  0  0  0  0  0  0  0  0  0  0
   -9.2288    4.9073   -0.0089 O   0  0  0  0  0  0  0  0  0  0  0  0
   -3.6809   -0.1054    1.4763 C   0  0  0  0  0  0  0  0  0  0  0  0
   -3.7445   -1.4620    0.9269 C   0  0  0  0  0  0  0  0  0  0  0  0
   -2.8018    0.1768    2.6209 C   0  0  0  0  0  0  0  0  0  0  0  0
    4.1648    0.9729   -1.0564 C   0  0  0  0  0  0  0  0  0  0  0  0
    4.3055    0.1408   -2.0215 O   0  0  0  0  0  0  0  0  0  0  0  0
    4.6433    0.4147    0.1153 N   0  0  0  0  0  0  0  0  0  0  0  0
    6.0890   -0.2041    0.1296 C   0  0  1  0  0  0  0  0  0  0  0  0
    5.7870   -1.1506   -1.1946 C   0  0  0  0  0  0  0  0  0  0  0  0
    6.9630   -2.0755   -1.1219 C   0  0  0  0  0  0  0  0  0  0  0  0
    8.1886   -1.8877   -1.7531 C   0  0  0  0  0  0  0  0  0  0  0  0
    9.1478   -2.5656   -1.0813 N   0  0  0  0  0  0  0  0  0  0  0  0
    8.5215   -3.3437   -0.1856 C   0  0  0  0  0  0  0  0  0  0  0  0
    7.2768   -2.8265   -0.0375 N   0  0  0  0  0  0  0  0  0  0  0  0
    6.7455    1.0332   -0.6784 C   0  0  0  0  0  0  0  0  0  0  0  0
    6.9264    0.9414   -1.8853 O   0  0  0  0  0  0  0  0  0  0  0  0
    7.4186    1.9558    0.1932 N   0  0  0  0  0  0  0  0  0  0  0  0
    8.0763    1.6019    1.4155 C   0  0  0  0  0  0  0  0  0  0  0  0
    9.0264    2.6902    1.7822 C   0  0  0  0  0  0  0  0  0  0  0  0
    8.7836    3.7468    0.7642 C   0  0  0  0  0  0  0  0  0  0  0  0
    8.4590    2.8559   -0.5823 C   0  0  1  0  0  0  0  0  0  0  0  0
    9.6838    1.8324   -0.3017 C   0  0  0  0  0  0  0  0  0  0  0  0
   10.7394    2.4769   -0.5877 O   0  0  0  0  0  0  0  0  0  0  0  0
    9.5732    0.6061   -0.9610 O   0  0  0  0  0  0  0  0  0  0  0  0
  1  2  1  0
  3  2  1  6
  3  4  1  0
  3  5  1  0
  5  6  1  1
  6  7  1  0
  7  8  2  0
  9  7  1  6
  9 10  1  0
 10 11  1  0
 11 12  2  0
 12 13  1  0
 13 14  2  0
 14 15  1  0
 14 16  1  0
 16 17  2  0
  9 18  1  0
 18 19  1  0
 19 20  2  0
 21 19  1  6
 21 22  1  0
 22 23  1  0
 23 24  2  0
 25 23  1  1
 25 26  1  0
 26 27  1  0
 27 28  1  0
 28 29  1  0
 29 30  1  0
 30 31  2  0
 30 32  1  0
 25 33  1  0
 33 34  1  0
 34 35  2  0
 36 34  1  6
 36 37  1  0
 36 38  1  0
 38 39  1  0
 39 40  2  0
 39 41  1  0
 21 42  1  0
 42 43  1  0
 42 44  1  0
  5 45  1  0
 45 46  2  0
 45 47  1  0
 48 47  1  6
 48 49  1  0
 49 50  1  0
 50 51  2  0
 51 52  1  0
 52 53  2  0
 53 54  1  0
 48 55  1  0
 55 56  2  0
 55 57  1  0
 57 58  1  0
 58 59  1  0
 59 60  1  0
 60 61  1  0
 61 62  1  1
 62 63  2  0
 62 64  1  0
 17 11  1  0
 54 50  1  0
 61 57  1  0
M  END
>  <zinc_id>  (1) 
ZINC000096077632

>  <smiles>  (1) 
CC[C@H](C)[C@H](NC(=O)[C@H](Cc1ccc(O)cc1)NC(=O)[C@@H](NC(=O)[C@H](CCCNC(=N)N)NC(=O)[C@@H](N)CC(=O)O)C(C)C)C(=O)N[C@@H](Cc1cnc[nH]1)C(=O)N1CCC[C@H]1C(=O)O

$$$$
