
     RDKit          3D

 32 32  0  0  0  0  0  0  0  0999 V2000
   -6.0848    2.0851   -0.4132 O   0  0  0  0  0  0  0  0  0  0  0  0
   -6.4964    1.7613   -0.7302 C   0  0  0  0  0  0  0  0  0  0  0  0
   -7.6750    1.3973   -0.1037 O   0  0  0  0  0  0  0  0  0  0  0  0
   -5.8340    0.9194   -1.7288 C   0  0  0  0  0  0  0  0  0  0  0  0
   -4.7436    0.0565   -1.1222 C   0  0  0  0  0  0  0  0  0  0  0  0
   -5.6102   -0.7672    0.0195 C   0  0  2  0  0  0  0  0  0  0  0  0
   -4.3826   -1.2152    0.9049 N   0  0  0  0  0  0  0  0  0  0  0  0
   -3.1914   -0.4980    0.8035 C   0  0  0  0  0  0  0  0  0  0  0  0
   -3.2848    0.7411    0.5546 O   0  0  0  0  0  0  0  0  0  0  0  0
   -2.0425   -0.9192    1.4852 N   0  0  0  0  0  0  0  0  0  0  0  0
   -0.7007   -0.1561    1.1605 C   0  0  1  0  0  0  0  0  0  0  0  0
   -0.9256   -0.2151   -0.4717 C   0  0  0  0  0  0  0  0  0  0  0  0
   -0.2389   -1.4779   -0.9228 C   0  0  0  0  0  0  0  0  0  0  0  0
    1.2397   -1.2148   -1.0576 C   0  0  0  0  0  0  0  0  0  0  0  0
    1.5165    0.1937   -1.4922 C   0  0  0  0  0  0  0  0  0  0  0  0
    2.4268    0.7770   -0.5084 N   0  0  0  0  0  0  0  0  0  0  0  0
    3.4121   -0.0153    0.1651 C   0  0  0  0  0  0  0  0  0  0  0  0
    3.3198   -1.2797    0.1276 O   0  0  0  0  0  0  0  0  0  0  0  0
    4.6699    0.4655    0.5739 N   0  0  0  0  0  0  0  0  0  0  0  0
    5.9147   -0.1436    0.2006 C   0  0  0  0  0  0  0  0  0  0  0  0
    6.4932    0.1979   -1.0170 C   0  0  0  0  0  0  0  0  0  0  0  0
    7.8331    0.5242   -1.1424 C   0  0  0  0  0  0  0  0  0  0  0  0
    8.6691    0.4054   -0.0446 C   0  0  0  0  0  0  0  0  0  0  0  0
   10.2214    1.7902    0.3378 I   0  0  0  0  0  0  0  0  0  0  0  0
    8.1641   -0.3397    1.0139 C   0  0  0  0  0  0  0  0  0  0  0  0
    6.8060   -0.5944    1.1557 C   0  0  0  0  0  0  0  0  0  0  0  0
   -1.3736    1.3139    1.2953 C   0  0  0  0  0  0  0  0  0  0  0  0
   -1.3388    1.6343    2.5274 O   0  0  0  0  0  0  0  0  0  0  0  0
   -0.7301    2.2629    0.4806 O   0  0  0  0  0  0  0  0  0  0  0  0
   -5.5965   -2.1482   -0.8256 C   0  0  0  0  0  0  0  0  0  0  0  0
   -6.0980   -3.0381   -0.0649 O   0  0  0  0  0  0  0  0  0  0  0  0
   -4.3391   -2.5034   -1.3091 O   0  0  0  0  0  0  0  0  0  0  0  0
  1  2  2  0
  2  3  1  0
  2  4  1  0
  4  5  1  0
  6  5  1  6
  6  7  1  0
  7  8  1  0
  8  9  2  0
  8 10  1  0
 11 10  1  1
 11 12  1  0
 12 13  1  0
 13 14  1  0
 14 15  1  0
 15 16  1  0
 16 17  1  0
 17 18  2  0
 17 19  1  0
 19 20  1  0
 20 21  2  0
 21 22  1  0
 22 23  2  0
 23 24  1  0
 23 25  1  0
 25 26  2  0
 11 27  1  0
 27 28  2  0
 27 29  1  0
  6 30  1  0
 30 31  2  0
 30 32  1  0
 26 20  1  0
M  ISO  1  24 123
M  END
>  <zinc_id>  (1) 
ZINC000101669568

>  <smiles>  (1) 
O=C(O)CC[C@H](NC(=O)N[C@@H](CCCCNC(=O)Nc1ccc([123I])cc1)C(=O)O)C(=O)O

$$$$
