
     RDKit          3D

 44 46  0  0  0  0  0  0  0  0999 V2000
   -6.9780   -0.1414   -3.5434 C   0  0  0  0  0  0  0  0  0  0  0  0
   -6.8288   -0.1869   -2.3394 C   0  0  0  0  0  0  0  0  0  0  0  0
   -7.6244    0.4982   -1.6288 O   0  0  0  0  0  0  0  0  0  0  0  0
   -5.5033   -0.0630   -1.8073 N   0  0  0  0  0  0  0  0  0  0  0  0
   -5.3447   -0.6428   -0.3365 C   0  0  2  0  0  0  0  0  0  0  0  0
   -6.6841    0.1430    0.2515 C   0  0  0  0  0  0  0  0  0  0  0  0
   -6.3965   -0.0213    1.7060 C   0  0  0  0  0  0  0  0  0  0  0  0
   -5.9748    1.0401    2.4836 C   0  0  0  0  0  0  0  0  0  0  0  0
   -6.2580    1.0292    3.8337 C   0  0  0  0  0  0  0  0  0  0  0  0
   -6.7648   -0.1069    4.4332 C   0  0  0  0  0  0  0  0  0  0  0  0
   -7.5973   -0.0654    5.5541 O   0  0  0  0  0  0  0  0  0  0  0  0
   -6.6492   -1.2759    3.6929 C   0  0  0  0  0  0  0  0  0  0  0  0
   -6.5325   -1.2490    2.3087 C   0  0  0  0  0  0  0  0  0  0  0  0
   -4.3784    0.5702    0.1401 C   0  0  0  0  0  0  0  0  0  0  0  0
   -4.6536    1.7023   -0.2584 O   0  0  0  0  0  0  0  0  0  0  0  0
   -3.0848    0.1565    0.5996 N   0  0  0  0  0  0  0  0  0  0  0  0
   -2.7443   -1.1258    1.1201 C   0  0  0  0  0  0  0  0  0  0  0  0
   -2.4001   -1.9174   -0.1015 C   0  0  0  0  0  0  0  0  0  0  0  0
   -2.3968   -1.0091   -1.2785 C   0  0  0  0  0  0  0  0  0  0  0  0
   -2.0374    0.4383   -0.5595 C   0  0  2  0  0  0  0  0  0  0  0  0
   -0.7851   -0.1967    0.2650 C   0  0  0  0  0  0  0  0  0  0  0  0
   -0.5589    0.4633    1.3260 O   0  0  0  0  0  0  0  0  0  0  0  0
    0.3209   -0.3283   -0.6386 N   0  0  0  0  0  0  0  0  0  0  0  0
    0.5896   -1.3875   -1.4371 C   0  0  0  0  0  0  0  0  0  0  0  0
    1.2932   -0.7842   -2.8057 C   0  0  1  0  0  0  0  0  0  0  0  0
    0.3279   -1.5615   -3.7059 O   0  0  0  0  0  0  0  0  0  0  0  0
    0.3007    0.5457   -2.7822 C   0  0  0  0  0  0  0  0  0  0  0  0
    0.7834    1.0453   -1.2749 C   0  0  2  0  0  0  0  0  0  0  0  0
    2.3364    0.6103   -1.4842 C   0  0  0  0  0  0  0  0  0  0  0  0
    2.7898   -0.2332   -0.7355 O   0  0  0  0  0  0  0  0  0  0  0  0
    3.1629    1.5426   -2.1308 N   0  0  0  0  0  0  0  0  0  0  0  0
    4.3653    0.9994   -2.7592 C   0  0  0  0  0  0  0  0  0  0  0  0
    5.0167   -0.0312   -1.9345 C   0  0  0  0  0  0  0  0  0  0  0  0
    5.0006   -1.2162   -2.3875 O   0  0  0  0  0  0  0  0  0  0  0  0
    5.7288    0.2688   -0.7562 N   0  0  0  0  0  0  0  0  0  0  0  0
    6.1206   -0.9927    0.1266 C   0  0  2  0  0  0  0  0  0  0  0  0
    5.7629   -0.1861    1.5312 C   0  0  0  0  0  0  0  0  0  0  0  0
    7.6881   -0.5813    0.1961 C   0  0  0  0  0  0  0  0  0  0  0  0
    8.2902   -1.5354    0.7731 O   0  0  0  0  0  0  0  0  0  0  0  0
    8.0092    0.7565    0.4247 N   0  0  0  0  0  0  0  0  0  0  0  0
    9.4463    1.0403    0.4343 C   0  0  0  0  0  0  0  0  0  0  0  0
    9.9819    0.1821    1.5382 C   0  0  0  0  0  0  0  0  0  0  0  0
   11.1048   -0.6370    1.2501 N   0  0  0  0  0  0  0  0  0  0  0  0
    9.7552    0.6462    2.6965 O   0  0  0  0  0  0  0  0  0  0  0  0
  1  2  1  0
  2  3  2  0
  2  4  1  0
  5  4  1  6
  5  6  1  0
  6  7  1  0
  7  8  2  0
  8  9  1  0
  9 10  2  0
 10 11  1  0
 10 12  1  0
 12 13  2  0
  5 14  1  0
 14 15  2  0
 14 16  1  0
 16 17  1  0
 17 18  1  0
 18 19  1  0
 19 20  1  0
 20 21  1  1
 21 22  2  0
 21 23  1  0
 23 24  1  0
 24 25  1  0
 25 26  1  6
 25 27  1  0
 27 28  1  0
 28 29  1  6
 29 30  2  0
 29 31  1  0
 31 32  1  0
 32 33  1  0
 33 34  2  0
 33 35  1  0
 36 35  1  6
 36 37  1  0
 36 38  1  0
 38 39  2  0
 38 40  1  0
 40 41  1  0
 41 42  1  0
 42 43  1  0
 42 44  2  0
 13  7  1  0
 20 16  1  0
 28 23  1  0
M  END
>  <zinc_id>  (1) 
ZINC000014175498

>  <smiles>  (1) 
CC(=O)N[C@H](Cc1ccc(O)cc1)C(=O)N1CCC[C@@H]1C(=O)N1C[C@@H](O)C[C@@H]1C(=O)NCC(=O)N[C@H](C)C(=O)NCC(N)=O

$$$$
