
     RDKit          3D

 48 48  0  0  0  0  0  0  0  0999 V2000
   -8.9215    3.5052   -0.8621 O   0  0  0  0  0  0  0  0  0  0  0  0
   -9.3172    3.4171   -0.0368 C   0  0  0  0  0  0  0  0  0  0  0  0
   -9.4242    4.5664    0.7608 O   0  0  0  0  0  0  0  0  0  0  0  0
   -9.0025    2.1892    0.7559 C   0  0  0  0  0  0  0  0  0  0  0  0
   -9.6036    0.9324    0.1455 C   0  0  0  0  0  0  0  0  0  0  0  0
   -9.1261   -0.1031    1.3362 C   0  0  2  0  0  0  0  0  0  0  0  0
   -7.6109    0.0543    0.9486 N   0  0  0  0  0  0  0  0  0  0  0  0
   -7.3298   -0.0597   -0.6920 P   0  0  1  0  0  0  0  0  0  0  0  0
   -8.4186   -0.3678   -1.6452 O   0  0  0  0  0  0  0  0  0  0  0  0
   -6.5966    1.3677   -1.2726 O   0  0  0  0  0  0  0  0  0  0  0  0
   -6.1377   -1.2574   -0.9455 O   0  0  0  0  0  0  0  0  0  0  0  0
   -5.2305   -1.0871    0.1043 C   0  0  0  0  0  0  0  0  0  0  0  0
   -4.9465    0.3675    0.3882 C   0  0  0  0  0  0  0  0  0  0  0  0
   -3.4769    0.6743    0.3820 C   0  0  0  0  0  0  0  0  0  0  0  0
   -2.8452   -0.7665    0.8693 C   0  0  2  0  0  0  0  0  0  0  0  0
   -1.6562   -0.0747    1.6326 N   0  0  0  0  0  0  0  0  0  0  0  0
   -0.9588    0.9470    0.9870 C   0  0  0  0  0  0  0  0  0  0  0  0
   -1.4375    1.4551   -0.0717 O   0  0  0  0  0  0  0  0  0  0  0  0
    0.3318    1.4882    1.5083 C   0  0  0  0  0  0  0  0  0  0  0  0
    1.3315    1.2600    0.3779 C   0  0  0  0  0  0  0  0  0  0  0  0
    2.6668    0.7108    1.1717 C   0  0  2  0  0  0  0  0  0  0  0  0
    3.4682    0.3071   -0.1190 N   0  0  0  0  0  0  0  0  0  0  0  0
    2.7992   -0.0981   -1.2600 C   0  0  0  0  0  0  0  0  0  0  0  0
    1.8524    0.6816   -1.5842 O   0  0  0  0  0  0  0  0  0  0  0  0
    3.5552   -0.7844   -2.3462 C   0  0  0  0  0  0  0  0  0  0  0  0
    3.8502   -2.2033   -1.9557 C   0  0  0  0  0  0  0  0  0  0  0  0
    5.3035   -2.5370   -1.8880 C   0  0  0  0  0  0  0  0  0  0  0  0
    6.1501   -1.5038   -1.2100 C   0  0  0  0  0  0  0  0  0  0  0  0
    6.5342   -1.8885    0.2062 C   0  0  0  0  0  0  0  0  0  0  0  0
    7.9157   -1.6238    0.5018 N   0  0  0  0  0  0  0  0  0  0  0  0
    8.4327   -0.3285    0.8029 C   0  0  0  0  0  0  0  0  0  0  0  0
    7.6326    0.4935    1.3007 O   0  0  0  0  0  0  0  0  0  0  0  0
    9.7464    0.0634    0.2927 C   0  0  0  0  0  0  0  0  0  0  0  0
   10.8434   -0.6096    0.7893 C   0  0  0  0  0  0  0  0  0  0  0  0
   12.1057   -0.2327    0.3836 C   0  0  0  0  0  0  0  0  0  0  0  0
   12.2324    0.7228   -0.6040 C   0  0  0  0  0  0  0  0  0  0  0  0
   13.3849    1.4454   -0.7125 F   0  0  0  0  0  0  0  0  0  0  0  0
   11.1393    0.9328   -1.4143 C   0  0  0  0  0  0  0  0  0  0  0  0
    9.8638    0.6192   -0.9618 C   0  0  0  0  0  0  0  0  0  0  0  0
    2.0711   -0.7736    1.3810 C   0  0  0  0  0  0  0  0  0  0  0  0
    1.4157   -1.2867    0.4867 O   0  0  0  0  0  0  0  0  0  0  0  0
    1.9139   -1.1549    2.7056 O   0  0  0  0  0  0  0  0  0  0  0  0
   -1.9928   -0.9646   -0.4894 C   0  0  0  0  0  0  0  0  0  0  0  0
   -2.6391   -0.8284   -1.5527 O   0  0  0  0  0  0  0  0  0  0  0  0
   -1.3222   -2.1906   -0.3810 O   0  0  0  0  0  0  0  0  0  0  0  0
   -9.3116   -1.4155    0.4158 C   0  0  0  0  0  0  0  0  0  0  0  0
   -8.5890   -2.3566    0.8632 O   0  0  0  0  0  0  0  0  0  0  0  0
  -10.6459   -1.7045    0.1831 O   0  0  0  0  0  0  0  0  0  0  0  0
  1  2  2  0
  2  3  1  0
  2  4  1  0
  4  5  1  0
  6  5  1  6
  6  7  1  0
  8  7  1  1
  8  9  2  0
  8 10  1  0
  8 11  1  0
 11 12  1  0
 12 13  1  0
 13 14  1  0
 15 14  1  6
 15 16  1  0
 16 17  1  0
 17 18  2  0
 17 19  1  0
 19 20  1  0
 21 20  1  6
 21 22  1  0
 22 23  1  0
 23 24  2  0
 23 25  1  0
 25 26  1  0
 26 27  1  0
 27 28  1  0
 28 29  1  0
 29 30  1  0
 30 31  1  0
 31 32  2  0
 31 33  1  0
 33 34  2  0
 34 35  1  0
 35 36  2  0
 36 37  1  0
 36 38  1  0
 38 39  2  0
 21 40  1  0
 40 41  2  0
 40 42  1  0
 15 43  1  0
 43 44  2  0
 43 45  1  0
  6 46  1  0
 46 47  2  0
 46 48  1  0
 39 33  1  0
M  END
>  <zinc_id>  (1) 
ZINC000098209433

>  <smiles>  (1) 
O=C(O)CC[C@H](N[P@@](=O)(O)OCCC[C@H](NC(=O)CC[C@H](NC(=O)CCCCCNC(=O)c1ccc(F)cc1)C(=O)O)C(=O)O)C(=O)O

$$$$
