
     RDKit          3D

 43 43  0  0  0  0  0  0  0  0999 V2000
    3.3913   -2.6865   -0.2959 C   0  0  0  0  0  0  0  0  0  0  0  0
    3.2762   -3.0060    0.3252 C   0  0  0  0  0  0  0  0  0  0  0  0
    2.2021   -4.0896    0.3003 C   0  0  0  0  0  0  0  0  0  0  0  0
    2.5571   -1.9058    1.3463 C   0  0  2  0  0  0  0  0  0  0  0  0
    1.6061   -1.3829    0.1773 N   0  0  0  0  0  0  0  0  0  0  0  0
    0.2728   -1.6516    0.5349 C   0  0  0  0  0  0  0  0  0  0  0  0
   -0.0575   -2.3794    1.5213 O   0  0  0  0  0  0  0  0  0  0  0  0
   -0.7718   -1.8469   -0.7029 C   0  0  2  0  0  0  0  0  0  0  0  0
   -0.4413   -0.3396   -1.3181 C   0  0  0  0  0  0  0  0  0  0  0  0
   -0.5080    0.5724   -0.1470 C   0  0  0  0  0  0  0  0  0  0  0  0
   -0.0280    1.9324   -0.3187 C   0  0  0  0  0  0  0  0  0  0  0  0
   -1.0178    2.8473    0.2420 N   0  0  0  0  0  0  0  0  0  0  0  0
   -1.8179    3.4152   -0.6094 C   0  0  0  0  0  0  0  0  0  0  0  0
   -2.6156    2.5519   -1.4280 N   0  0  0  0  0  0  0  0  0  0  0  0
   -2.2971    4.7478   -0.4314 N   0  0  0  0  0  0  0  0  0  0  0  0
   -1.9698   -1.3120    0.1895 N   0  0  0  0  0  0  0  0  0  0  0  0
   -3.2645   -1.4474   -0.3634 C   0  0  0  0  0  0  0  0  0  0  0  0
   -3.5405   -2.2636   -1.2612 O   0  0  0  0  0  0  0  0  0  0  0  0
   -4.2710   -1.2716    0.6411 N   0  0  0  0  0  0  0  0  0  0  0  0
   -5.7278   -0.9978    0.0687 C   0  0  1  0  0  0  0  0  0  0  0  0
   -6.0837    0.0067    1.3465 C   0  0  0  0  0  0  0  0  0  0  0  0
   -7.2643    0.7623    0.8828 C   0  0  0  0  0  0  0  0  0  0  0  0
   -8.4074    0.0367    0.6502 C   0  0  0  0  0  0  0  0  0  0  0  0
   -9.5373    0.6715    0.1872 C   0  0  0  0  0  0  0  0  0  0  0  0
   -9.3274    1.8479   -0.4962 C   0  0  0  0  0  0  0  0  0  0  0  0
   -8.1762    2.5880   -0.3202 C   0  0  0  0  0  0  0  0  0  0  0  0
   -7.2757    2.1128    0.6236 C   0  0  0  0  0  0  0  0  0  0  0  0
   -5.2759    0.2635   -0.8599 C   0  0  0  0  0  0  0  0  0  0  0  0
   -4.4001    0.9985   -0.3898 O   0  0  0  0  0  0  0  0  0  0  0  0
   -5.2936   -0.1364   -2.2021 O   0  0  0  0  0  0  0  0  0  0  0  0
    3.6379   -0.7200    1.0974 C   0  0  0  0  0  0  0  0  0  0  0  0
    3.2642    0.3831    1.5762 O   0  0  0  0  0  0  0  0  0  0  0  0
    4.4846   -0.7364    0.0180 N   0  0  0  0  0  0  0  0  0  0  0  0
    5.7976    0.0813    0.3954 C   0  0  2  0  0  0  0  0  0  0  0  0
    5.0464    1.5033    0.1158 C   0  0  0  0  0  0  0  0  0  0  0  0
    5.4216    2.2681    1.0035 O   0  0  0  0  0  0  0  0  0  0  0  0
    6.3541    0.0098   -1.1657 C   0  0  0  0  0  0  0  0  0  0  0  0
    7.1314   -1.2761   -1.1637 C   0  0  0  0  0  0  0  0  0  0  0  0
    7.7272   -1.5621    0.1873 C   0  0  0  0  0  0  0  0  0  0  0  0
    8.4728   -0.4562    0.7268 N   0  0  0  0  0  0  0  0  0  0  0  0
    9.2168    0.3312    0.0226 C   0  0  0  0  0  0  0  0  0  0  0  0
    9.2434    1.6897    0.4441 N   0  0  0  0  0  0  0  0  0  0  0  0
   10.2666   -0.1536   -0.7840 N   0  0  0  0  0  0  0  0  0  0  0  0
  1  2  1  0
  2  3  1  0
  4  2  1  6
  4  5  1  0
  5  6  1  0
  6  7  2  0
  8  6  1  1
  8  9  1  0
  9 10  1  0
 10 11  1  0
 11 12  1  0
 12 13  2  3
 13 14  1  0
 13 15  1  0
  8 16  1  0
 16 17  1  0
 17 18  2  0
 17 19  1  0
 20 19  1  1
 20 21  1  0
 21 22  1  0
 22 23  2  0
 23 24  1  0
 24 25  2  0
 25 26  1  0
 26 27  2  0
 20 28  1  0
 28 29  2  0
 28 30  1  0
  4 31  1  0
 31 32  2  0
 31 33  1  0
 34 33  1  6
 34 35  1  0
 35 36  2  0
 34 37  1  0
 37 38  1  0
 38 39  1  0
 39 40  1  0
 40 41  2  3
 41 42  1  0
 41 43  1  0
 27 22  1  0
M  END
>  <zinc_id>  (1) 
ZINC000008716755

>  <smiles>  (1) 
CC(C)[C@H](NC(=O)[C@H](CCCN=C(N)N)NC(=O)N[C@@H](Cc1ccccc1)C(=O)O)C(=O)N[C@H](C=O)CCCN=C(N)N

$$$$
