
     RDKit          3D

 60 60  0  0  0  0  0  0  0  0999 V2000
    9.4499    0.5951   -3.3063 C   0  0  0  0  0  0  0  0  0  0  0  0
    8.8252    2.0483   -2.8532 C   0  0  1  0  0  0  0  0  0  0  0  0
    7.3716    1.4508   -2.7471 N   0  0  0  0  0  0  0  0  0  0  0  0
    9.2071    1.8145   -1.3115 C   0  0  0  0  0  0  0  0  0  0  0  0
   10.0180    2.6749   -0.8455 O   0  0  0  0  0  0  0  0  0  0  0  0
    8.3494    1.2791   -0.3882 N   0  0  0  0  0  0  0  0  0  0  0  0
    9.1428    0.4251    0.6747 C   0  0  1  0  0  0  0  0  0  0  0  0
    9.1059    1.6456    1.7730 C   0  0  0  0  0  0  0  0  0  0  0  0
   10.4119    2.0223    1.9908 O   0  0  0  0  0  0  0  0  0  0  0  0
    7.8071   -0.2685    1.2379 C   0  0  0  0  0  0  0  0  0  0  0  0
    6.8708    0.4456    1.5725 O   0  0  0  0  0  0  0  0  0  0  0  0
    7.5329   -1.5927    0.8836 N   0  0  0  0  0  0  0  0  0  0  0  0
    6.2677   -1.8735    0.0042 C   0  0  2  0  0  0  0  0  0  0  0  0
    5.2882   -1.0412    0.9525 C   0  0  0  0  0  0  0  0  0  0  0  0
    4.8027   -1.5190    1.9631 O   0  0  0  0  0  0  0  0  0  0  0  0
    4.3921   -0.3311    0.0874 N   0  0  0  0  0  0  0  0  0  0  0  0
    3.4816    0.7075    0.8194 C   0  0  2  0  0  0  0  0  0  0  0  0
    2.1309   -0.0228    0.3894 C   0  0  0  0  0  0  0  0  0  0  0  0
    1.9033   -1.0288    1.1149 O   0  0  0  0  0  0  0  0  0  0  0  0
    1.6138    0.0624   -0.8549 N   0  0  0  0  0  0  0  0  0  0  0  0
    0.7345   -1.0551   -1.4905 C   0  0  2  0  0  0  0  0  0  0  0  0
   -0.6194   -0.6217   -0.7449 C   0  0  0  0  0  0  0  0  0  0  0  0
   -1.4103   -0.7527   -1.7346 O   0  0  0  0  0  0  0  0  0  0  0  0
   -0.7951    0.4188    0.0753 N   0  0  0  0  0  0  0  0  0  0  0  0
   -2.0168    1.4057    0.0419 C   0  0  1  0  0  0  0  0  0  0  0  0
   -2.3402    1.1499   -1.5417 C   0  0  0  0  0  0  0  0  0  0  0  0
   -3.3685    2.0303   -2.0209 C   0  0  0  0  0  0  0  0  0  0  0  0
   -3.2135    3.4242   -2.0692 N   0  0  0  0  0  0  0  0  0  0  0  0
   -4.3365    1.4385   -2.5977 O   0  0  0  0  0  0  0  0  0  0  0  0
   -3.0949    0.3437    0.5959 C   0  0  0  0  0  0  0  0  0  0  0  0
   -3.6794   -0.4259   -0.1335 O   0  0  0  0  0  0  0  0  0  0  0  0
   -3.6102    0.5135    1.8907 N   0  0  0  0  0  0  0  0  0  0  0  0
   -5.1749    0.5333    2.1316 C   0  0  1  0  0  0  0  0  0  0  0  0
   -5.4204    1.6246    0.9703 C   0  0  0  0  0  0  0  0  0  0  0  0
   -6.7056    2.0979    0.7461 C   0  0  0  0  0  0  0  0  0  0  0  0
   -7.9023    2.1116    1.3619 C   0  0  0  0  0  0  0  0  0  0  0  0
   -9.0508    2.2091    0.5808 C   0  0  0  0  0  0  0  0  0  0  0  0
   -8.9980    2.3943   -0.7966 C   0  0  0  0  0  0  0  0  0  0  0  0
   -9.8472    1.7045   -1.6702 O   0  0  0  0  0  0  0  0  0  0  0  0
   -7.8094    2.9521   -1.2569 C   0  0  0  0  0  0  0  0  0  0  0  0
   -6.6984    2.8749   -0.4236 C   0  0  0  0  0  0  0  0  0  0  0  0
   -5.4214   -0.7757    1.2077 C   0  0  0  0  0  0  0  0  0  0  0  0
   -5.1104   -1.6523    2.0788 O   0  0  0  0  0  0  0  0  0  0  0  0
   -6.7046   -0.9261    0.6420 N   0  0  0  0  0  0  0  0  0  0  0  0
   -7.3927   -2.3082    0.9008 C   0  0  2  0  0  0  0  0  0  0  0  0
   -6.7893   -3.0523   -0.3716 C   0  0  0  0  0  0  0  0  0  0  0  0
   -6.4178   -4.4021   -0.0508 N   0  0  0  0  0  0  0  0  0  0  0  0
   -6.4833   -2.4840   -1.4049 O   0  0  0  0  0  0  0  0  0  0  0  0
   -8.8699   -1.9848    0.0824 C   0  0  1  0  0  0  0  0  0  0  0  0
   -9.1984   -0.7012    1.0413 C   0  0  0  0  0  0  0  0  0  0  0  0
   -8.3090   -1.1295   -1.0225 O   0  0  0  0  0  0  0  0  0  0  0  0
    1.2055   -2.3183   -0.4182 C   0  0  1  0  0  0  0  0  0  0  0  0
   -0.3054   -2.8565   -0.1047 C   0  0  0  0  0  0  0  0  0  0  0  0
    1.3711   -3.2624   -1.5881 O   0  0  0  0  0  0  0  0  0  0  0  0
    3.4685    1.9007   -0.4205 C   0  0  1  0  0  0  0  0  0  0  0  0
    5.0675    2.1958   -0.2130 C   0  0  0  0  0  0  0  0  0  0  0  0
    3.7212    0.9974   -1.5973 O   0  0  0  0  0  0  0  0  0  0  0  0
    5.9914   -3.3930    0.7540 C   0  0  1  0  0  0  0  0  0  0  0  0
    4.6643   -3.6420   -0.1727 C   0  0  0  0  0  0  0  0  0  0  0  0
    6.8968   -4.0704   -0.2426 O   0  0  0  0  0  0  0  0  0  0  0  0
  2  1  1  6
  2  3  1  0
  2  4  1  0
  4  5  2  0
  4  6  1  0
  7  6  1  6
  7  8  1  0
  8  9  1  0
  7 10  1  0
 10 11  2  0
 10 12  1  0
 13 12  1  1
 13 14  1  0
 14 15  2  0
 14 16  1  0
 17 16  1  6
 17 18  1  0
 18 19  2  0
 18 20  1  0
 21 20  1  1
 21 22  1  0
 22 23  2  0
 22 24  1  0
 25 24  1  6
 25 26  1  0
 26 27  1  0
 27 28  1  0
 27 29  2  0
 25 30  1  0
 30 31  2  0
 30 32  1  0
 33 32  1  6
 33 34  1  0
 34 35  1  0
 35 36  2  0
 36 37  1  0
 37 38  2  0
 38 39  1  0
 38 40  1  0
 40 41  2  0
 33 42  1  0
 42 43  2  0
 42 44  1  0
 45 44  1  6
 45 46  1  0
 46 47  1  0
 46 48  2  0
 45 49  1  0
 49 50  1  1
 49 51  1  0
 21 52  1  0
 52 53  1  1
 52 54  1  0
 17 55  1  0
 55 56  1  1
 55 57  1  0
 13 58  1  0
 58 59  1  6
 58 60  1  0
 41 35  1  0
M  END
>  <zinc_id>  (1) 
ZINC000169289402

>  <smiles>  (1) 
C[C@@H](N)C(=O)N[C@@H](CO)C(=O)N[C@H](C(=O)N[C@H](C(=O)N[C@H](C(=O)N[C@@H](CC(N)=O)C(=O)N[C@@H](Cc1ccc(O)cc1)C(=O)N[C@H](C(N)=O)[C@@H](C)O)[C@@H](C)O)[C@@H](C)O)[C@@H](C)O

$$$$
