
     RDKit          3D

 21 24  0  0  0  0  0  0  0  0999 V2000
    4.1760    2.0970   -0.5942 C   0  0  0  0  0  0  0  0  0  0  0  0
    3.5697    0.8964   -0.0879 C   0  0  0  0  0  0  0  0  0  0  0  0
    4.1816    0.1075    0.8775 C   0  0  0  0  0  0  0  0  0  0  0  0
    3.3826   -0.5362    1.8042 C   0  0  0  0  0  0  0  0  0  0  0  0
    2.1342   -0.9353    1.3940 C   0  0  0  0  0  0  0  0  0  0  0  0
    1.6399   -0.4356    0.1955 C   0  0  0  0  0  0  0  0  0  0  0  0
    2.3403    0.5030   -0.5533 C   0  0  0  0  0  0  0  0  0  0  0  0
    1.7275    1.2715   -1.5348 C   0  0  0  0  0  0  0  0  0  0  0  0
    0.3549    1.2192   -1.6627 C   0  0  0  0  0  0  0  0  0  0  0  0
   -0.3926    0.4426   -0.7975 C   0  0  0  0  0  0  0  0  0  0  0  0
    0.2917   -0.5516   -0.1215 C   0  0  0  0  0  0  0  0  0  0  0  0
   -0.4408   -1.6997    0.4216 C   0  0  0  0  0  0  0  0  0  0  0  0
    0.0253   -2.3307    1.4172 O   0  0  0  0  0  0  0  0  0  0  0  0
   -1.9046   -1.5800    0.3800 C   0  0  0  0  0  0  0  0  0  0  0  0
   -2.5629   -2.6472    0.5230 O   0  0  0  0  0  0  0  0  0  0  0  0
   -2.5038   -0.4452   -0.3141 C   0  0  0  0  0  0  0  0  0  0  0  0
   -1.8490    0.5994   -0.6883 C   0  0  0  0  0  0  0  0  0  0  0  0
   -2.5775    1.7646   -0.6437 O   0  0  0  0  0  0  0  0  0  0  0  0
   -3.8502    1.3523   -1.1044 C   0  0  0  0  0  0  0  0  0  0  0  0
   -4.0458    0.0214   -0.1399 C   0  0  2  0  0  0  0  0  0  0  0  0
   -3.6966    0.8867    1.2292 C   0  0  0  0  0  0  0  0  0  0  0  0
  1  2  1  0
  2  3  2  0
  3  4  1  0
  4  5  2  0
  5  6  1  0
  6  7  2  0
  7  8  1  0
  8  9  2  0
  9 10  1  0
 10 11  2  0
 11 12  1  0
 12 13  2  0
 12 14  1  0
 14 15  2  0
 14 16  1  0
 16 17  2  0
 17 18  1  0
 18 19  1  0
 19 20  1  0
 20 21  1  1
  7  2  1  0
 17 10  1  0
 11  6  1  0
 20 16  1  0
M  END
>  <zinc_id>  (1) 
ZINC000002585546

>  <smiles>  (1) 
Cc1cccc2c3c(ccc12)C1=C(C(=O)C3=O)[C@@H](C)CO1

$$$$
