5318517
  -OEChem-03022010293D

 55 57  0     1  0  0  0  0  0999 V2000
   -5.2540    1.7363    0.7797 O   0  0  0  0  0  0  0  0  0  0  0  0
   -5.7582    0.2452   -1.1093 O   0  0  0  0  0  0  0  0  0  0  0  0
    6.0987    0.3830    0.3395 O   0  0  0  0  0  0  0  0  0  0  0  0
    4.2220    0.5288   -2.0465 O   0  0  0  0  0  0  0  0  0  0  0  0
    5.0864   -1.2113    1.6571 O   0  0  0  0  0  0  0  0  0  0  0  0
   -1.2347    0.3088   -0.1154 C   0  0  2  0  0  0  0  0  0  0  0  0
   -2.3530   -0.7179    0.3339 C   0  0  1  0  0  0  0  0  0  0  0  0
   -3.8461   -0.2218    0.2456 C   0  0  1  0  0  0  0  0  0  0  0  0
    0.1595   -0.2838    0.3570 C   0  0  1  0  0  0  0  0  0  0  0  0
   -1.4957    1.6678    0.5842 C   0  0  0  0  0  0  0  0  0  0  0  0
   -3.9489    1.1765    0.9225 C   0  0  1  0  0  0  0  0  0  0  0  0
   -2.1054   -2.1164   -0.2796 C   0  0  0  0  0  0  0  0  0  0  0  0
   -2.9207    2.1828    0.4165 C   0  0  0  0  0  0  0  0  0  0  0  0
   -1.1917    0.5452   -1.6465 C   0  0  0  0  0  0  0  0  0  0  0  0
   -0.7218   -2.6582    0.0878 C   0  0  0  0  0  0  0  0  0  0  0  0
    0.3695   -1.6725   -0.2451 C   0  0  0  0  0  0  0  0  0  0  0  0
   -4.4238   -0.2059   -1.1851 C   0  0  0  0  0  0  0  0  0  0  0  0
   -4.7583   -1.1872    1.0555 C   0  0  0  0  0  0  0  0  0  0  0  0
    1.3535    0.6702    0.1757 C   0  0  0  0  0  0  0  0  0  0  0  0
    1.4036   -2.0426   -1.0181 C   0  0  0  0  0  0  0  0  0  0  0  0
    2.5952    0.0812    0.7580 C   0  0  0  0  0  0  0  0  0  0  0  0
    3.8195    0.3184    0.2838 C   0  0  0  0  0  0  0  0  0  0  0  0
    4.2224    1.2308   -0.8102 C   0  0  1  0  0  0  0  0  0  0  0  0
    5.0322   -0.2856    0.8685 C   0  0  0  0  0  0  0  0  0  0  0  0
    5.6496    1.5282   -0.4094 C   0  0  0  0  0  0  0  0  0  0  0  0
   -2.1857   -0.8512    1.4163 H   0  0  0  0  0  0  0  0  0  0  0  0
    0.0750   -0.4441    1.4446 H   0  0  0  0  0  0  0  0  0  0  0  0
   -0.8142    2.4359    0.1997 H   0  0  0  0  0  0  0  0  0  0  0  0
   -1.2856    1.5729    1.6578 H   0  0  0  0  0  0  0  0  0  0  0  0
   -3.7883    1.0491    2.0018 H   0  0  0  0  0  0  0  0  0  0  0  0
   -2.2185   -2.0903   -1.3687 H   0  0  0  0  0  0  0  0  0  0  0  0
   -2.8444   -2.8353    0.0880 H   0  0  0  0  0  0  0  0  0  0  0  0
   -3.0292    3.1225    0.9736 H   0  0  0  0  0  0  0  0  0  0  0  0
   -3.1288    2.4498   -0.6255 H   0  0  0  0  0  0  0  0  0  0  0  0
   -0.3305    1.1583   -1.9301 H   0  0  0  0  0  0  0  0  0  0  0  0
   -1.1232   -0.3829   -2.2193 H   0  0  0  0  0  0  0  0  0  0  0  0
   -2.0520    1.0993   -2.0172 H   0  0  0  0  0  0  0  0  0  0  0  0
   -0.5700   -3.6168   -0.4227 H   0  0  0  0  0  0  0  0  0  0  0  0
   -0.6861   -2.8709    1.1638 H   0  0  0  0  0  0  0  0  0  0  0  0
   -4.4197   -1.2040   -1.6345 H   0  0  0  0  0  0  0  0  0  0  0  0
   -3.8996    0.4731   -1.8512 H   0  0  0  0  0  0  0  0  0  0  0  0
   -4.8623   -2.1609    0.5659 H   0  0  0  0  0  0  0  0  0  0  0  0
   -4.3529   -1.3614    2.0588 H   0  0  0  0  0  0  0  0  0  0  0  0
   -5.7703   -0.7885    1.1889 H   0  0  0  0  0  0  0  0  0  0  0  0
    1.1642    1.6052    0.7138 H   0  0  0  0  0  0  0  0  0  0  0  0
    1.4991    0.9239   -0.8786 H   0  0  0  0  0  0  0  0  0  0  0  0
   -5.2692    2.5781    1.2662 H   0  0  0  0  0  0  0  0  0  0  0  0
    2.1838   -1.3735   -1.3501 H   0  0  0  0  0  0  0  0  0  0  0  0
    1.4686   -3.0574   -1.4001 H   0  0  0  0  0  0  0  0  0  0  0  0
    2.4850   -0.5657    1.6261 H   0  0  0  0  0  0  0  0  0  0  0  0
   -6.1177    0.2394   -2.0126 H   0  0  0  0  0  0  0  0  0  0  0  0
    3.6198    2.1380   -0.9061 H   0  0  0  0  0  0  0  0  0  0  0  0
    6.3162    1.6641   -1.2666 H   0  0  0  0  0  0  0  0  0  0  0  0
    5.7229    2.4027    0.2470 H   0  0  0  0  0  0  0  0  0  0  0  0
    4.5691    1.1325   -2.7253 H   0  0  0  0  0  0  0  0  0  0  0  0
  1 11  1  0  0  0  0
  1 47  1  0  0  0  0
  2 17  1  0  0  0  0
  2 51  1  0  0  0  0
  3 24  1  0  0  0  0
  3 25  1  0  0  0  0
  4 23  1  0  0  0  0
  4 55  1  0  0  0  0
  5 24  2  0  0  0  0
  6  7  1  0  0  0  0
  6  9  1  0  0  0  0
  6 10  1  0  0  0  0
  6 14  1  0  0  0  0
  7  8  1  0  0  0  0
  7 12  1  0  0  0  0
  7 26  1  0  0  0  0
  8 11  1  0  0  0  0
  8 17  1  0  0  0  0
  8 18  1  0  0  0  0
  9 16  1  0  0  0  0
  9 19  1  0  0  0  0
  9 27  1  0  0  0  0
 10 13  1  0  0  0  0
 10 28  1  0  0  0  0
 10 29  1  0  0  0  0
 11 13  1  0  0  0  0
 11 30  1  0  0  0  0
 12 15  1  0  0  0  0
 12 31  1  0  0  0  0
 12 32  1  0  0  0  0
 13 33  1  0  0  0  0
 13 34  1  0  0  0  0
 14 35  1  0  0  0  0
 14 36  1  0  0  0  0
 14 37  1  0  0  0  0
 15 16  1  0  0  0  0
 15 38  1  0  0  0  0
 15 39  1  0  0  0  0
 16 20  2  0  0  0  0
 17 40  1  0  0  0  0
 17 41  1  0  0  0  0
 18 42  1  0  0  0  0
 18 43  1  0  0  0  0
 18 44  1  0  0  0  0
 19 21  1  0  0  0  0
 19 45  1  0  0  0  0
 19 46  1  0  0  0  0
 20 48  1  0  0  0  0
 20 49  1  0  0  0  0
 21 22  2  0  0  0  0
 21 50  1  0  0  0  0
 22 23  1  0  0  0  0
 22 24  1  0  0  0  0
 23 25  1  0  0  0  0
 23 52  1  0  0  0  0
 25 53  1  0  0  0  0
 25 54  1  0  0  0  0
M  END
> <DATABASE_ID>
DB05767

> <DATABASE_NAME>
drugbank

> <ORIGINAL_SOURCE>
PUBCHEM

> <ORIGINAL_SOURCE_URL>
https://pubchem.ncbi.nlm.nih.gov/rest/pug/compound/inchikey/BOJKULTULYSRAS-OTESTREVSA-N/SDF?record_type=3d

> <SMILES>
[H][C@]12CCC(=C)[C@@H](C\C=C3/[C@H](O)COC3=O)[C@]1(C)CC[C@@H](O)[C@@]2(C)CO

> <INCHI_IDENTIFIER>
InChI=1S/C20H30O5/c1-12-4-7-16-19(2,9-8-17(23)20(16,3)11-21)14(12)6-5-13-15(22)10-25-18(13)24/h5,14-17,21-23H,1,4,6-11H2,2-3H3/b13-5+/t14-,15-,16+,17-,19+,20+/m1/s1

> <INCHI_KEY>
BOJKULTULYSRAS-OTESTREVSA-N

> <FORMULA>
C20H30O5

> <MOLECULAR_WEIGHT>
350.455

> <EXACT_MASS>
350.209324066

> <JCHEM_ACCEPTOR_COUNT>
4

> <JCHEM_ATOM_COUNT>
55

> <JCHEM_AVERAGE_NEUTRAL_MICROSPECIES_CHARGE>
-3.6766076735972206e-07

> <JCHEM_AVERAGE_POLARIZABILITY>
38.267134293031674

> <JCHEM_BIOAVAILABILITY>
1

> <JCHEM_DONOR_COUNT>
3

> <JCHEM_FORMAL_CHARGE>
0

> <JCHEM_GHOSE_FILTER>
1

> <JCHEM_IUPAC>
(3E,4S)-3-{2-[(1R,4aS,5R,6R,8aS)-6-hydroxy-5-(hydroxymethyl)-5,8a-dimethyl-2-methylidene-decahydronaphthalen-1-yl]ethylidene}-4-hydroxyoxolan-2-one

> <ALOGPS_LOGP>
1.57

> <JCHEM_LOGP>
1.6623216726666663

> <ALOGPS_LOGS>
-3.09

> <JCHEM_MDDR_LIKE_RULE>
0

> <JCHEM_NEUTRAL_CHARGE>
0

> <JCHEM_NUMBER_OF_RINGS>
3

> <JCHEM_PHYSIOLOGICAL_CHARGE>
0

> <JCHEM_PKA>
14.523095966386341

> <JCHEM_PKA_STRONGEST_ACIDIC>
13.477875995202613

> <JCHEM_PKA_STRONGEST_BASIC>
-2.7854554977528654

> <JCHEM_POLAR_SURFACE_AREA>
86.99

> <JCHEM_REFRACTIVITY>
94.93049999999998

> <JCHEM_ROTATABLE_BOND_COUNT>
3

> <JCHEM_RULE_OF_FIVE>
1

> <ALOGPS_SOLUBILITY>
2.84e-01 g/l

> <JCHEM_TRADITIONAL_IUPAC>
1-hydroxy-2,2,6,6-tetramethylpiperidin-4-yl cyclopropanecarboxylate

> <JCHEM_VEBER_RULE>
0

$$$$
