5282379
  -OEChem-10051719273D

 50 50  0     0  0  0  0  0  0999 V2000
    6.1548   -1.5357    1.7576 O   0  0  0  0  0  0  0  0  0  0  0  0
    6.1024   -2.3834   -0.3561 O   0  0  0  0  0  0  0  0  0  0  0  0
   -4.6584    0.6629    0.5917 C   0  0  0  0  0  0  0  0  0  0  0  0
   -5.7876   -0.3212    1.0033 C   0  0  0  0  0  0  0  0  0  0  0  0
   -6.1120   -1.3160   -0.0966 C   0  0  0  0  0  0  0  0  0  0  0  0
   -3.4887   -0.0723   -0.1040 C   0  0  0  0  0  0  0  0  0  0  0  0
   -4.8813   -2.1467   -0.4275 C   0  0  0  0  0  0  0  0  0  0  0  0
   -3.5946   -1.3537   -0.5372 C   0  0  0  0  0  0  0  0  0  0  0  0
   -4.2104    1.3671    1.8959 C   0  0  0  0  0  0  0  0  0  0  0  0
   -5.2430    1.7271   -0.3653 C   0  0  0  0  0  0  0  0  0  0  0  0
   -2.2758    0.7080   -0.2857 C   0  0  0  0  0  0  0  0  0  0  0  0
   -2.4903   -2.1643   -1.1759 C   0  0  0  0  0  0  0  0  0  0  0  0
   -1.0433    0.1969   -0.1334 C   0  0  0  0  0  0  0  0  0  0  0  0
    0.2193    0.9178   -0.2978 C   0  0  0  0  0  0  0  0  0  0  0  0
    0.1413    2.3797   -0.6746 C   0  0  0  0  0  0  0  0  0  0  0  0
    1.4386    0.3600   -0.1336 C   0  0  0  0  0  0  0  0  0  0  0  0
    2.7434    0.9818   -0.2719 C   0  0  0  0  0  0  0  0  0  0  0  0
    3.8899    0.3066   -0.0787 C   0  0  0  0  0  0  0  0  0  0  0  0
    5.2535    0.8385   -0.1868 C   0  0  0  0  0  0  0  0  0  0  0  0
    5.4005    2.2870   -0.5765 C   0  0  0  0  0  0  0  0  0  0  0  0
    6.2795   -0.0047    0.0466 C   0  0  0  0  0  0  0  0  0  0  0  0
    6.1620   -1.4356    0.4065 C   0  0  0  0  0  0  0  0  0  0  0  0
   -6.6967    0.2296    1.2762 H   0  0  0  0  0  0  0  0  0  0  0  0
   -5.4891   -0.8811    1.9008 H   0  0  0  0  0  0  0  0  0  0  0  0
   -6.4672   -0.7947   -0.9929 H   0  0  0  0  0  0  0  0  0  0  0  0
   -6.9257   -1.9771    0.2232 H   0  0  0  0  0  0  0  0  0  0  0  0
   -5.0819   -2.6738   -1.3683 H   0  0  0  0  0  0  0  0  0  0  0  0
   -4.7434   -2.9148    0.3445 H   0  0  0  0  0  0  0  0  0  0  0  0
   -3.7303    0.6607    2.5833 H   0  0  0  0  0  0  0  0  0  0  0  0
   -3.4987    2.1772    1.7011 H   0  0  0  0  0  0  0  0  0  0  0  0
   -5.0667    1.8114    2.4170 H   0  0  0  0  0  0  0  0  0  0  0  0
   -6.1486    2.1796    0.0553 H   0  0  0  0  0  0  0  0  0  0  0  0
   -4.5376    2.5448   -0.5490 H   0  0  0  0  0  0  0  0  0  0  0  0
   -5.5073    1.2984   -1.3382 H   0  0  0  0  0  0  0  0  0  0  0  0
   -2.4140    1.7414   -0.5851 H   0  0  0  0  0  0  0  0  0  0  0  0
   -2.9098   -2.8995   -1.8735 H   0  0  0  0  0  0  0  0  0  0  0  0
   -1.9343   -2.7256   -0.4188 H   0  0  0  0  0  0  0  0  0  0  0  0
   -1.8105   -1.5681   -1.7895 H   0  0  0  0  0  0  0  0  0  0  0  0
   -0.9094   -0.8206    0.2236 H   0  0  0  0  0  0  0  0  0  0  0  0
   -0.4317    2.9302    0.0815 H   0  0  0  0  0  0  0  0  0  0  0  0
    1.0857    2.9124   -0.7731 H   0  0  0  0  0  0  0  0  0  0  0  0
   -0.3690    2.4899   -1.6389 H   0  0  0  0  0  0  0  0  0  0  0  0
    1.4686   -0.6961    0.1378 H   0  0  0  0  0  0  0  0  0  0  0  0
    2.7984    2.0277   -0.5393 H   0  0  0  0  0  0  0  0  0  0  0  0
    3.7953   -0.7439    0.1902 H   0  0  0  0  0  0  0  0  0  0  0  0
    4.9326    2.9425    0.1656 H   0  0  0  0  0  0  0  0  0  0  0  0
    6.4570    2.5712   -0.6389 H   0  0  0  0  0  0  0  0  0  0  0  0
    4.9557    2.4775   -1.5588 H   0  0  0  0  0  0  0  0  0  0  0  0
    7.3016    0.3561   -0.0321 H   0  0  0  0  0  0  0  0  0  0  0  0
    6.0862   -2.4677    2.0560 H   0  0  0  0  0  0  0  0  0  0  0  0
  1 22  1  0  0  0  0
  1 50  1  0  0  0  0
  2 22  2  0  0  0  0
  3  4  1  0  0  0  0
  3  6  1  0  0  0  0
  3  9  1  0  0  0  0
  3 10  1  0  0  0  0
  4  5  1  0  0  0  0
  4 23  1  0  0  0  0
  4 24  1  0  0  0  0
  5  7  1  0  0  0  0
  5 25  1  0  0  0  0
  5 26  1  0  0  0  0
  6  8  2  0  0  0  0
  6 11  1  0  0  0  0
  7  8  1  0  0  0  0
  7 27  1  0  0  0  0
  7 28  1  0  0  0  0
  8 12  1  0  0  0  0
  9 29  1  0  0  0  0
  9 30  1  0  0  0  0
  9 31  1  0  0  0  0
 10 32  1  0  0  0  0
 10 33  1  0  0  0  0
 10 34  1  0  0  0  0
 11 13  2  0  0  0  0
 11 35  1  0  0  0  0
 12 36  1  0  0  0  0
 12 37  1  0  0  0  0
 12 38  1  0  0  0  0
 13 14  1  0  0  0  0
 13 39  1  0  0  0  0
 14 15  1  0  0  0  0
 14 16  2  0  0  0  0
 15 40  1  0  0  0  0
 15 41  1  0  0  0  0
 15 42  1  0  0  0  0
 16 17  1  0  0  0  0
 16 43  1  0  0  0  0
 17 18  2  0  0  0  0
 17 44  1  0  0  0  0
 18 19  1  0  0  0  0
 18 45  1  0  0  0  0
 19 20  1  0  0  0  0
 19 21  2  0  0  0  0
 20 46  1  0  0  0  0
 20 47  1  0  0  0  0
 20 48  1  0  0  0  0
 21 22  1  0  0  0  0
 21 49  1  0  0  0  0
M  END
> <DATABASE_ID>
DB00982

> <DATABASE_NAME>
drugbank

> <ORIGINAL_SOURCE>
PUBCHEM

> <ORIGINAL_SOURCE_URL>
https://pubchem.ncbi.nlm.nih.gov/rest/pug/compound/inchikey/SHGAZHPCJJPHSC-XFYACQKRSA-N/SDF?record_type=3d

> <SMILES>
C\C(\C=C\C1=C(C)CCCC1(C)C)=C/C=C/C(/C)=C\C(O)=O

> <INCHI_IDENTIFIER>
InChI=1S/C20H28O2/c1-15(8-6-9-16(2)14-19(21)22)11-12-18-17(3)10-7-13-20(18,4)5/h6,8-9,11-12,14H,7,10,13H2,1-5H3,(H,21,22)/b9-6+,12-11+,15-8+,16-14-

> <INCHI_KEY>
SHGAZHPCJJPHSC-XFYACQKRSA-N

> <FORMULA>
C20H28O2

> <MOLECULAR_WEIGHT>
300.4351

> <EXACT_MASS>
300.20893014

> <JCHEM_ACCEPTOR_COUNT>
2

> <JCHEM_ATOM_COUNT>
50

> <JCHEM_AVERAGE_NEUTRAL_MICROSPECIES_CHARGE>
-0.9943172524888088

> <JCHEM_AVERAGE_POLARIZABILITY>
36.151983823599814

> <JCHEM_BIOAVAILABILITY>
1

> <JCHEM_DONOR_COUNT>
1

> <JCHEM_FORMAL_CHARGE>
0

> <JCHEM_GHOSE_FILTER>
1

> <JCHEM_IUPAC>
(2Z,4E,6E,8E)-3,7-dimethyl-9-(2,6,6-trimethylcyclohex-1-en-1-yl)nona-2,4,6,8-tetraenoic acid

> <ALOGPS_LOGP>
5.66

> <JCHEM_LOGP>
5.014367711

> <ALOGPS_LOGS>
-4.80

> <JCHEM_MDDR_LIKE_RULE>
0

> <JCHEM_NEUTRAL_CHARGE>
-1

> <JCHEM_NUMBER_OF_RINGS>
1

> <JCHEM_PHYSIOLOGICAL_CHARGE>
-1

> <JCHEM_PKA_STRONGEST_ACIDIC>
4.757033385475081

> <JCHEM_POLAR_SURFACE_AREA>
37.3

> <JCHEM_REFRACTIVITY>
97.79079999999999

> <JCHEM_ROTATABLE_BOND_COUNT>
5

> <JCHEM_RULE_OF_FIVE>
0

> <ALOGPS_SOLUBILITY>
4.77e-03 g/l

> <JCHEM_TRADITIONAL_IUPAC>
tetrahydrofolic acid

> <JCHEM_VEBER_RULE>
1

$$$$
