
     RDKit          3D

 42 42  0  0  0  0  0  0  0  0999 V2000
    3.4013    3.7994    0.5963 C   0  0  0  0  0  0  0  0  0  0  0  0
    3.0835    2.7795    0.8627 C   0  0  0  0  0  0  0  0  0  0  0  0
    4.1538    1.6165    0.5007 C   0  0  2  0  0  0  0  0  0  0  0  0
    3.8446    1.6401   -1.0915 C   0  0  0  0  0  0  0  0  0  0  0  0
    3.1109    0.3308    0.9559 C   0  0  2  0  0  0  0  0  0  0  0  0
    3.9263   -0.6996    0.1129 N   0  0  0  0  0  0  0  0  0  0  0  0
    3.5302   -2.0268    0.2231 C   0  0  0  0  0  0  0  0  0  0  0  0
    3.0107   -2.4009    1.3225 O   0  0  0  0  0  0  0  0  0  0  0  0
    4.6415   -3.1530   -0.1475 C   0  0  1  0  0  0  0  0  0  0  0  0
    5.0775   -2.3938   -1.4677 N   0  0  0  0  0  0  0  0  0  0  0  0
    5.7512   -2.4982    0.8710 C   0  0  0  0  0  0  0  0  0  0  0  0
    6.9282   -2.0512    0.1641 C   0  0  0  0  0  0  0  0  0  0  0  0
    6.8645   -0.9460   -0.6510 C   0  0  0  0  0  0  0  0  0  0  0  0
    7.8264   -0.0666   -0.9357 C   0  0  0  0  0  0  0  0  0  0  0  0
    8.8026    0.0820    0.0222 C   0  0  0  0  0  0  0  0  0  0  0  0
    9.3824    1.3384    0.1797 O   0  0  0  0  0  0  0  0  0  0  0  0
    8.9536   -0.9485    0.9412 C   0  0  0  0  0  0  0  0  0  0  0  0
    8.0514   -2.0064    0.9951 C   0  0  0  0  0  0  0  0  0  0  0  0
    2.0431    0.4756   -0.2353 C   0  0  0  0  0  0  0  0  0  0  0  0
    1.4231   -0.6198   -0.4206 O   0  0  0  0  0  0  0  0  0  0  0  0
    1.2141    1.5816   -0.2697 N   0  0  0  0  0  0  0  0  0  0  0  0
   -0.0375    1.6458    0.1974 C   0  0  0  0  0  0  0  0  0  0  0  0
   -0.9149    0.6048    0.6247 C   0  0  0  0  0  0  0  0  0  0  0  0
   -1.6714    1.4851    1.1792 O   0  0  0  0  0  0  0  0  0  0  0  0
   -1.7575   -0.3497    0.1144 N   0  0  0  0  0  0  0  0  0  0  0  0
   -2.6808   -0.0158   -1.1175 C   0  0  1  0  0  0  0  0  0  0  0  0
   -3.2674   -1.5636   -1.2049 C   0  0  0  0  0  0  0  0  0  0  0  0
   -3.6535   -1.8984    0.0681 O   0  0  0  0  0  0  0  0  0  0  0  0
   -3.9694    0.4955   -0.3098 C   0  0  0  0  0  0  0  0  0  0  0  0
   -3.9969    0.8778    0.8153 O   0  0  0  0  0  0  0  0  0  0  0  0
   -4.8930    0.9728   -1.2241 N   0  0  0  0  0  0  0  0  0  0  0  0
   -6.1318    1.7897   -0.6915 C   0  0  1  0  0  0  0  0  0  0  0  0
   -6.2633    0.9344    0.7117 C   0  0  0  0  0  0  0  0  0  0  0  0
   -6.6631   -0.4436    0.3863 C   0  0  0  0  0  0  0  0  0  0  0  0
   -7.1400   -0.7449   -0.9583 C   0  0  0  0  0  0  0  0  0  0  0  0
   -8.4539   -1.3229   -1.0436 N   0  0  0  0  0  0  0  0  0  0  0  0
   -9.0298   -1.9112    0.1283 C   0  0  0  0  0  0  0  0  0  0  0  0
   -8.2833   -2.7763    0.7152 N   0  0  0  0  0  0  0  0  0  0  0  0
  -10.4425   -1.8472    0.3490 N   0  0  0  0  0  0  0  0  0  0  0  0
   -5.1970    2.9204    0.0086 C   0  0  0  0  0  0  0  0  0  0  0  0
   -4.4865    3.5445   -0.8488 O   0  0  0  0  0  0  0  0  0  0  0  0
   -6.0872    3.7698    0.6913 O   0  0  0  0  0  0  0  0  0  0  0  0
  1  2  1  0
  3  2  1  1
  3  4  1  0
  3  5  1  0
  5  6  1  6
  6  7  1  0
  7  8  2  0
  9  7  1  1
  9 10  1  0
  9 11  1  0
 11 12  1  0
 12 13  2  0
 13 14  1  0
 14 15  2  0
 15 16  1  0
 15 17  1  0
 17 18  2  0
  5 19  1  0
 19 20  2  0
 19 21  1  0
 21 22  1  0
 22 23  1  0
 23 24  2  0
 23 25  1  0
 26 25  1  1
 26 27  1  0
 27 28  1  0
 26 29  1  0
 29 30  2  0
 29 31  1  0
 32 31  1  6
 32 33  1  0
 33 34  1  0
 34 35  1  0
 35 36  1  0
 36 37  1  0
 37 38  2  0
 37 39  1  0
 32 40  1  0
 40 41  2  0
 40 42  1  0
 18 12  1  0
M  END
>  <zinc_id>  (1) 
ZINC000067810124

>  <smiles>  (1) 
CC[C@H](C)[C@H](NC(=O)[C@@H](N)Cc1ccc(O)cc1)C(=O)NCC(=O)N[C@@H](CO)C(=O)N[C@@H](CCCNC(=N)N)C(=O)O

$$$$
