
     RDKit          3D

 32 37  0  0  0  0  0  0  0  0999 V2000
   -7.3315    2.3729    0.5003 C   0  0  0  0  0  0  0  0  0  0  0  0
   -6.4712    1.4277    1.2169 C   0  0  1  0  0  0  0  0  0  0  0  0
   -7.0685    0.8053    2.3199 O   0  0  0  0  0  0  0  0  0  0  0  0
   -6.0559    0.3356    0.2396 C   0  0  0  0  0  0  0  0  0  0  0  0
   -4.7974    1.3276   -0.0496 C   0  0  2  0  0  0  0  0  0  0  0  0
   -3.6857    0.2698    0.4359 C   0  0  0  0  0  0  0  0  0  0  0  0
   -2.4123    0.7074    0.5996 N   0  0  0  0  0  0  0  0  0  0  0  0
   -1.5425   -0.1022   -0.0188 C   0  0  0  0  0  0  0  0  0  0  0  0
   -0.1157   -0.3179    0.2281 C   0  0  0  0  0  0  0  0  0  0  0  0
    0.3524   -1.4388    0.9072 C   0  0  0  0  0  0  0  0  0  0  0  0
    1.6590   -1.8805    0.7316 C   0  0  0  0  0  0  0  0  0  0  0  0
    2.4186   -1.1278   -0.1566 C   0  0  0  0  0  0  0  0  0  0  0  0
    3.5813   -1.5706   -0.7288 C   0  0  0  0  0  0  0  0  0  0  0  0
    4.5652   -0.6150   -0.9527 C   0  0  0  0  0  0  0  0  0  0  0  0
    4.4661    0.6812   -0.4586 C   0  0  0  0  0  0  0  0  0  0  0  0
    5.6217    1.3573    0.1476 C   0  0  0  0  0  0  0  0  0  0  0  0
    6.1079    2.5645   -0.3376 C   0  0  0  0  0  0  0  0  0  0  0  0
    7.4811    2.7695   -0.2797 C   0  0  0  0  0  0  0  0  0  0  0  0
    8.3411    1.8478    0.2573 C   0  0  0  0  0  0  0  0  0  0  0  0
    7.7940    0.8833    1.0991 C   0  0  0  0  0  0  0  0  0  0  0  0
    6.4111    0.7421    1.1124 C   0  0  0  0  0  0  0  0  0  0  0  0
    3.1970    1.1283   -0.2808 N   0  0  0  0  0  0  0  0  0  0  0  0
    2.1826    0.2427   -0.1180 C   0  0  0  0  0  0  0  0  0  0  0  0
    0.8510    0.6401   -0.0562 C   0  0  0  0  0  0  0  0  0  0  0  0
   -2.3237   -1.1456   -0.5053 C   0  0  0  0  0  0  0  0  0  0  0  0
   -2.0048   -2.3445   -1.1336 C   0  0  0  0  0  0  0  0  0  0  0  0
   -0.8990   -2.2281   -2.0370 N   0  0  0  0  0  0  0  0  0  0  0  0
   -2.9670   -3.2853   -1.2908 N   0  0  0  0  0  0  0  0  0  0  0  0
   -4.1276   -3.1365   -0.6060 C   0  0  0  0  0  0  0  0  0  0  0  0
   -4.5689   -1.8449   -0.3359 C   0  0  0  0  0  0  0  0  0  0  0  0
   -3.5997   -0.9448   -0.1087 N   0  0  0  0  0  0  0  0  0  0  0  0
   -5.0587    1.8793    1.4594 C   0  0  0  0  0  0  0  0  0  0  0  0
  2  1  1  6
  2  3  1  0
  2  4  1  0
  4  5  1  0
  5  6  1  1
  6  7  2  0
  7  8  1  0
  8  9  1  0
  9 10  2  0
 10 11  1  0
 11 12  2  0
 12 13  1  0
 13 14  2  0
 14 15  1  0
 15 16  1  0
 16 17  2  0
 17 18  1  0
 18 19  2  0
 19 20  1  0
 20 21  2  0
 15 22  2  0
 22 23  1  0
 23 24  2  0
  8 25  2  0
 25 26  1  0
 26 27  1  0
 26 28  2  0
 28 29  1  0
 29 30  2  0
 30 31  1  0
  5 32  1  0
 32  2  1  0
 31  6  1  0
 24  9  1  0
 31 25  1  0
 23 12  1  0
 21 16  1  0
M  END
>  <zinc_id>  (1) 
ZINC000100071817

>  <smiles>  (1) 
C[C@@]1(O)C[C@H](c2nc(-c3ccc4ccc(-c5ccccc5)nc4c3)c3c(N)nccn23)C1

$$$$
