
     RDKit          3D

 36 40  0  0  0  0  0  0  0  0999 V2000
   -6.8184    3.9995    1.0714 C   0  0  0  0  0  0  0  0  0  0  0  0
   -5.8257    3.0903    1.3183 O   0  0  0  0  0  0  0  0  0  0  0  0
   -6.3029    2.1873    0.1820 C   0  0  2  0  0  0  0  0  0  0  0  0
   -6.5850    0.8832    1.1405 C   0  0  0  0  0  0  0  0  0  0  0  0
   -7.2513    0.0917    0.1911 O   0  0  0  0  0  0  0  0  0  0  0  0
   -6.7028    0.2079   -1.0344 C   0  0  0  0  0  0  0  0  0  0  0  0
   -5.3959    0.5775   -1.2991 C   0  0  0  0  0  0  0  0  0  0  0  0
   -4.7222    1.7083   -0.3372 C   0  0  2  0  0  0  0  0  0  0  0  0
   -4.3441    0.8066    0.8840 N   0  0  0  0  0  0  0  0  0  0  0  0
   -4.2652   -0.6496    0.2922 C   0  0  2  0  0  0  0  0  0  0  0  0
   -3.3391   -1.2473    1.5105 C   0  0  0  0  0  0  0  0  0  0  0  0
   -1.9779   -0.7440    1.2369 C   0  0  0  0  0  0  0  0  0  0  0  0
   -1.8757   -1.0262   -0.2504 C   0  0  1  0  0  0  0  0  0  0  0  0
   -0.6971   -0.3188   -0.8470 C   0  0  0  0  0  0  0  0  0  0  0  0
   -0.5959    0.9041   -0.5349 O   0  0  0  0  0  0  0  0  0  0  0  0
    0.4761   -1.1627   -0.8283 N   0  0  0  0  0  0  0  0  0  0  0  0
    1.3724   -0.9936    0.2286 C   0  0  0  0  0  0  0  0  0  0  0  0
    2.2926    0.2752   -0.2416 C   0  0  2  0  0  0  0  0  0  0  0  0
    1.6101    0.5547   -1.6873 C   0  0  0  0  0  0  0  0  0  0  0  0
    1.2799   -0.9644   -2.1634 C   0  0  1  0  0  0  0  0  0  0  0  0
    2.6530   -1.6607   -1.6141 C   0  0  0  0  0  0  0  0  0  0  0  0
    3.3243   -0.6744   -0.9457 N   0  0  0  0  0  0  0  0  0  0  0  0
    4.4496   -0.9220   -0.0987 C   0  0  0  0  0  0  0  0  0  0  0  0
    5.5547   -0.1371   -0.4491 C   0  0  0  0  0  0  0  0  0  0  0  0
    6.3930    0.3941    0.4942 C   0  0  0  0  0  0  0  0  0  0  0  0
    7.4537    1.2977    0.0070 C   0  0  0  0  0  0  0  0  0  0  0  0
    7.4922    2.4691    0.7130 F   0  0  0  0  0  0  0  0  0  0  0  0
    8.6214    0.5646    0.0861 F   0  0  0  0  0  0  0  0  0  0  0  0
    7.2007    1.6521   -1.3166 F   0  0  0  0  0  0  0  0  0  0  0  0
    6.1216    0.1364    1.7752 N   0  0  0  0  0  0  0  0  0  0  0  0
    5.4185   -0.9970    2.0480 C   0  0  0  0  0  0  0  0  0  0  0  0
    4.3790   -1.2506    1.2039 N   0  0  0  0  0  0  0  0  0  0  0  0
   -1.8240   -2.4843   -0.4561 C   0  0  0  0  0  0  0  0  0  0  0  0
   -3.1328   -3.0101   -0.8956 C   0  0  0  0  0  0  0  0  0  0  0  0
   -1.4255   -3.2864    0.7556 C   0  0  0  0  0  0  0  0  0  0  0  0
   -3.0116   -0.2708   -0.6850 C   0  0  0  0  0  0  0  0  0  0  0  0
  1  2  1  0
  3  2  1  1
  3  4  1  0
  4  5  1  0
  5  6  1  0
  6  7  1  0
  7  8  1  0
  8  9  1  1
 10  9  1  1
 10 11  1  0
 11 12  1  0
 12 13  1  0
 13 14  1  6
 14 15  2  0
 14 16  1  0
 16 17  1  0
 18 17  1  1
 18 19  1  0
 19 20  1  0
 20 21  1  1
 21 22  1  0
 22 23  1  0
 23 24  2  0
 24 25  1  0
 25 26  1  0
 26 27  1  0
 26 28  1  0
 26 29  1  0
 25 30  2  0
 30 31  1  0
 31 32  2  0
 13 33  1  0
 33 34  1  0
 33 35  1  0
 13 36  1  0
  8  3  1  0
 36 10  1  0
 20 16  1  0
 32 23  1  0
 22 18  1  0
M  END
>  <zinc_id>  (1) 
ZINC000068207369

>  <smiles>  (1) 
CO[C@@H]1COCC[C@@H]1N[C@@H]1CC[C@@](C(=O)N2C[C@@H]3C[C@H]2CN3c2cc(C(F)(F)F)ncn2)(C(C)C)C1

$$$$
