
     RDKit          3D

 20 21  0  0  0  0  0  0  0  0999 V2000
   -4.0584   -2.4903    0.2099 C   0  0  0  0  0  0  0  0  0  0  0  0
   -2.6557   -2.3861    0.7391 C   0  0  0  0  0  0  0  0  0  0  0  0
   -1.7134   -2.2448   -0.3213 O   0  0  0  0  0  0  0  0  0  0  0  0
   -1.4157   -0.9416   -0.7334 C   0  0  0  0  0  0  0  0  0  0  0  0
   -2.2441   -0.2448   -1.6028 C   0  0  0  0  0  0  0  0  0  0  0  0
   -2.1775    1.1421   -1.5514 C   0  0  0  0  0  0  0  0  0  0  0  0
   -1.4100    1.8188   -0.6325 C   0  0  0  0  0  0  0  0  0  0  0  0
   -1.7855    3.0605   -0.1783 C   0  0  0  0  0  0  0  0  0  0  0  0
   -1.0751    3.6283    0.8566 C   0  0  0  0  0  0  0  0  0  0  0  0
    0.1577    3.0924    1.1754 C   0  0  0  0  0  0  0  0  0  0  0  0
    0.4487    1.7727    0.8542 C   0  0  0  0  0  0  0  0  0  0  0  0
   -0.4477    1.0891    0.0444 C   0  0  0  0  0  0  0  0  0  0  0  0
   -0.4558   -0.2989    0.0398 C   0  0  0  0  0  0  0  0  0  0  0  0
    0.7858   -1.0175    0.3579 C   0  0  0  0  0  0  0  0  0  0  0  0
    1.5319   -0.5447    1.2678 O   0  0  0  0  0  0  0  0  0  0  0  0
    1.4423   -1.8638   -0.5771 N   0  0  0  0  0  0  0  0  0  0  0  0
    2.8468   -1.7067   -0.9405 C   0  0  0  0  0  0  0  0  0  0  0  0
    3.6284   -0.8348    0.1421 B   0  0  0  0  0  0  0  0  0  0  0  0
    4.5586   -1.5755    1.0072 O   0  0  0  0  0  0  0  0  0  0  0  0
    4.0389    0.5457   -0.1569 O   0  0  0  0  0  0  0  0  0  0  0  0
  1  2  1  0
  2  3  1  0
  3  4  1  0
  4  5  2  0
  5  6  1  0
  6  7  2  0
  7  8  1  0
  8  9  2  0
  9 10  1  0
 10 11  2  0
 11 12  1  0
 12 13  2  0
 13 14  1  0
 14 15  2  0
 14 16  1  0
 16 17  1  0
 17 18  1  0
 18 19  1  0
 18 20  1  0
 13  4  1  0
 12  7  1  0
M  END
>  <zinc_id>  (1) 
ZINC000169748477

>  <smiles>  (1) 
CCOc1ccc2ccccc2c1C(=O)NCB(O)O

$$$$
