16475583
  -OEChem-06112215543D

 35 36  0     0  0  0  0  0  0999 V2000
   -5.5149   -2.5852   -0.5079 Br  0  0  0  0  0  0  0  0  0  0  0  0
   -5.8935    2.9921    0.6252 Br  0  0  0  0  0  0  0  0  0  0  0  0
    7.2901    0.4371   -0.1226 O   0  0  0  0  0  0  0  0  0  0  0  0
   -6.8208    0.1439    0.1264 O   0  0  0  0  0  0  0  0  0  0  0  0
   -2.5523   -1.8328   -0.5667 O   0  0  0  0  0  0  0  0  0  0  0  0
    1.4386   -1.5735    1.2147 O   0  0  0  0  0  0  0  0  0  0  0  0
   -0.3836   -0.3461   -0.4251 N   0  0  0  0  0  0  0  0  0  0  0  0
    0.9647   -0.0794   -0.4910 N   0  0  0  0  0  0  0  0  0  0  0  0
   -2.6216    0.5094   -0.0978 C   0  0  0  0  0  0  0  0  0  0  0  0
    3.2493   -0.4364    0.2474 C   0  0  0  0  0  0  0  0  0  0  0  0
   -3.2305   -0.8400   -0.3226 C   0  0  0  0  0  0  0  0  0  0  0  0
   -3.4832    1.6352    0.1863 C   0  0  0  0  0  0  0  0  0  0  0  0
   -1.2879    0.6271   -0.1684 C   0  0  0  0  0  0  0  0  0  0  0  0
    4.2042   -1.3835    0.6171 C   0  0  0  0  0  0  0  0  0  0  0  0
    3.6523    0.8045   -0.2460 C   0  0  0  0  0  0  0  0  0  0  0  0
    1.8021   -0.7500    0.3786 C   0  0  0  0  0  0  0  0  0  0  0  0
    5.9651    0.1512    0.0001 C   0  0  0  0  0  0  0  0  0  0  0  0
   -4.7258   -0.9089   -0.2311 C   0  0  0  0  0  0  0  0  0  0  0  0
   -4.8176    1.5009    0.2536 C   0  0  0  0  0  0  0  0  0  0  0  0
   -5.4394    0.2014    0.0399 C   0  0  0  0  0  0  0  0  0  0  0  0
    5.5622   -1.0898    0.4934 C   0  0  0  0  0  0  0  0  0  0  0  0
    5.0102    1.0983   -0.3697 C   0  0  0  0  0  0  0  0  0  0  0  0
    7.6320    1.7245   -0.6339 C   0  0  0  0  0  0  0  0  0  0  0  0
   -3.0142    2.6030    0.3452 H   0  0  0  0  0  0  0  0  0  0  0  0
   -0.8224    1.5966   -0.0073 H   0  0  0  0  0  0  0  0  0  0  0  0
    3.9101   -2.3576    0.9991 H   0  0  0  0  0  0  0  0  0  0  0  0
    2.9396    1.5772   -0.5193 H   0  0  0  0  0  0  0  0  0  0  0  0
    6.3016   -1.8321    0.7816 H   0  0  0  0  0  0  0  0  0  0  0  0
    5.2540    2.0827   -0.7545 H   0  0  0  0  0  0  0  0  0  0  0  0
   -0.6774   -1.2958   -0.6154 H   0  0  0  0  0  0  0  0  0  0  0  0
    1.2500    0.5499   -1.2328 H   0  0  0  0  0  0  0  0  0  0  0  0
   -7.0952   -0.7752   -0.0366 H   0  0  0  0  0  0  0  0  0  0  0  0
    7.2765    1.8570   -1.6614 H   0  0  0  0  0  0  0  0  0  0  0  0
    7.2895    2.5252    0.0304 H   0  0  0  0  0  0  0  0  0  0  0  0
    8.7251    1.7803   -0.6644 H   0  0  0  0  0  0  0  0  0  0  0  0
  1 18  1  0  0  0  0
  2 19  1  0  0  0  0
  3 17  1  0  0  0  0
  3 23  1  0  0  0  0
  4 20  1  0  0  0  0
  4 32  1  0  0  0  0
  5 11  2  0  0  0  0
  6 16  2  0  0  0  0
  7  8  1  0  0  0  0
  7 13  1  0  0  0  0
  7 30  1  0  0  0  0
  8 16  1  0  0  0  0
  8 31  1  0  0  0  0
  9 11  1  0  0  0  0
  9 12  1  0  0  0  0
  9 13  2  0  0  0  0
 10 14  2  0  0  0  0
 10 15  1  0  0  0  0
 10 16  1  0  0  0  0
 11 18  1  0  0  0  0
 12 19  2  0  0  0  0
 12 24  1  0  0  0  0
 13 25  1  0  0  0  0
 14 21  1  0  0  0  0
 14 26  1  0  0  0  0
 15 22  2  0  0  0  0
 15 27  1  0  0  0  0
 17 21  2  0  0  0  0
 17 22  1  0  0  0  0
 18 20  2  0  0  0  0
 19 20  1  0  0  0  0
 21 28  1  0  0  0  0
 22 29  1  0  0  0  0
 23 33  1  0  0  0  0
 23 34  1  0  0  0  0
 23 35  1  0  0  0  0
M  END
> <PUBCHEM_COMPOUND_CID>
16475583

> <PUBCHEM_CONFORMER_RMSD>
0.8

> <PUBCHEM_CONFORMER_DIVERSEORDER>
2
22
16
10
23
4
24
8
17
3
15
9
1
21
13
11
5
14
18
7
20
6
12
19

> <PUBCHEM_MMFF94_PARTIAL_CHARGES>
32
1 -0.11
10 0.09
11 0.54
12 -0.15
13 -0.05
14 -0.15
15 -0.15
16 0.54
17 0.08
18 0.12
19 0.11
2 -0.11
20 0.08
21 -0.15
22 -0.15
23 0.28
24 0.15
25 0.15
26 0.15
27 0.15
28 0.15
29 0.15
3 -0.36
30 0.4
31 0.37
32 0.45
4 -0.53
5 -0.57
6 -0.57
7 -0.52
8 -0.41
9 0.01

> <PUBCHEM_EFFECTIVE_ROTOR_COUNT>
5

> <PUBCHEM_PHARMACOPHORE_FEATURES>
10
1 1 hydrophobe
1 2 hydrophobe
1 3 acceptor
1 4 donor
1 5 acceptor
1 6 acceptor
1 7 donor
1 8 donor
6 10 14 15 17 21 22 rings
6 9 11 12 18 19 20 rings

> <PUBCHEM_HEAVY_ATOM_COUNT>
23

> <PUBCHEM_ATOM_DEF_STEREO_COUNT>
0

> <PUBCHEM_ATOM_UDEF_STEREO_COUNT>
0

> <PUBCHEM_BOND_DEF_STEREO_COUNT>
1

> <PUBCHEM_BOND_UDEF_STEREO_COUNT>
0

> <PUBCHEM_ISOTOPIC_ATOM_COUNT>
0

> <PUBCHEM_COMPONENT_COUNT>
1

> <PUBCHEM_CACTVS_TAUTO_COUNT>
24

> <PUBCHEM_CONFORMER_ID>
00FB65BF00000002

> <PUBCHEM_MMFF94_ENERGY>
68.7213

> <PUBCHEM_FEATURE_SELFOVERLAP>
52.273

> <PUBCHEM_SHAPE_FINGERPRINT>
10 15 18410019802186676105
10299344 5 18408603664936725338
10411042 1 18053942034198738767
10595046 47 18409164415719269618
10730089 173 18343021094568685265
10968037 39 18334856138959989079
11315181 36 18334576863191039829
11524674 6 16128656388241091463
12107183 9 17616528458766187818
12236239 1 18408884027558987422
13167372 99 18338234869372551664
13533116 47 16660916678845031138
13631057 29 18338795723751399035
13668630 136 7997970189549685272
14251764 18 18187362156110202190
14849402 71 18188215415609727836
14933364 13 18342740723889245004
15183329 4 18343301461507052848
1577012 14 18408602548419093824
15778101 99 18343023255449145993
16989713 51 17345463968139867543
17844677 252 18343304807344858505
18681886 176 18270956955464828616
20281389 69 18413387618264387000
21065198 48 18336259068119952291
21236236 1 18412261749108000535
21792961 116 16916793951150918038
22224240 67 17095242531859120688
23081809 10 18334571339573115738
23522609 53 18115611278187552260
23536379 177 18411981338940093210
23559900 14 18269825562674914913
24771293 8 18113902702196456772
335352 9 18342168978744739061
34797466 226 17703798041457270924
3663271 9 18335137579281432682
397830 11 13552054268236652828
4073 2 18187089463904490106
4214541 1 18412260619294003953
4325135 7 18408322198233217542
4340502 62 15140676982677583112
445580 37 18202009810854846064
5104073 3 18334289859873910770
5265222 85 17988079023481943174
542803 24 18341609304453489902
5758199 1 18113339721919177296
59755656 520 17676485068769585330
6327066 14 18193270785981413805
67856867 119 18263084469195104285

> <PUBCHEM_SHAPE_MULTIPOLES>
451.77
21.68
2.45
0.8
18.35
0.39
0.07
6.32
-0.83
-4.36
0.11
0.21
-0.07
-2.17

> <PUBCHEM_SHAPE_SELFOVERLAP>
935.641

> <PUBCHEM_SHAPE_VOLUME>
263.8

> <PUBCHEM_COORDINATE_TYPE>
2
5
10

$$$$
