31553
  -OEChem-10051722083D

 57 61  0     1  0  0  0  0  0999 V2000
    1.8496   -0.0580    0.3713 O   0  0  0  0  0  0  0  0  0  0  0  0
    2.4090   -2.8785    0.4994 O   0  0  0  0  0  0  0  0  0  0  0  0
   -3.2660   -0.2457    0.8250 O   0  0  0  0  0  0  0  0  0  0  0  0
   -2.6733   -0.9779   -2.7354 O   0  0  0  0  0  0  0  0  0  0  0  0
    4.9731   -3.7225    0.0464 O   0  0  0  0  0  0  0  0  0  0  0  0
   -4.9833    0.4216   -2.8421 O   0  0  0  0  0  0  0  0  0  0  0  0
   -7.0570    1.4730   -1.6827 O   0  0  0  0  0  0  0  0  0  0  0  0
    5.8561    2.2706   -1.9375 O   0  0  0  0  0  0  0  0  0  0  0  0
   -7.0022    1.6240    3.0601 O   0  0  0  0  0  0  0  0  0  0  0  0
    6.9999    3.4580    0.2997 O   0  0  0  0  0  0  0  0  0  0  0  0
    3.0746   -0.5790    0.9169 C   0  0  1  0  0  0  0  0  0  0  0  0
    3.4326   -1.9054    0.2267 C   0  0  1  0  0  0  0  0  0  0  0  0
   -2.8830   -1.0125   -0.3276 C   0  0  2  0  0  0  0  0  0  0  0  0
   -1.4629   -1.4934   -0.0959 C   0  0  0  0  0  0  0  0  0  0  0  0
   -2.9993   -0.1838   -1.6081 C   0  0  2  0  0  0  0  0  0  0  0  0
    0.8793   -1.0139    0.2428 C   0  0  0  0  0  0  0  0  0  0  0  0
    1.1486   -2.3800    0.3150 C   0  0  0  0  0  0  0  0  0  0  0  0
    4.1229    0.4991    0.7488 C   0  0  0  0  0  0  0  0  0  0  0  0
   -0.4246   -0.5693    0.0222 C   0  0  0  0  0  0  0  0  0  0  0  0
    4.7412   -2.5062    0.7326 C   0  0  0  0  0  0  0  0  0  0  0  0
   -1.1976   -2.8592    0.0043 C   0  0  0  0  0  0  0  0  0  0  0  0
   -4.4311    0.2821   -1.7572 C   0  0  0  0  0  0  0  0  0  0  0  0
    0.1082   -3.3039    0.2115 C   0  0  0  0  0  0  0  0  0  0  0  0
   -5.1316    0.6027   -0.4981 C   0  0  0  0  0  0  0  0  0  0  0  0
   -4.5016    0.3350    0.7193 C   0  0  0  0  0  0  0  0  0  0  0  0
    4.5149    0.8965   -0.5293 C   0  0  0  0  0  0  0  0  0  0  0  0
    4.6967    1.0946    1.8718 C   0  0  0  0  0  0  0  0  0  0  0  0
   -6.3980    1.1934   -0.5236 C   0  0  0  0  0  0  0  0  0  0  0  0
   -5.1269    0.6920    1.9150 C   0  0  0  0  0  0  0  0  0  0  0  0
    5.4817    1.8900   -0.6844 C   0  0  0  0  0  0  0  0  0  0  0  0
    5.6635    2.0879    1.7167 C   0  0  0  0  0  0  0  0  0  0  0  0
   -6.3894    1.2853    1.8926 C   0  0  0  0  0  0  0  0  0  0  0  0
   -7.0255    1.5310    0.6758 C   0  0  0  0  0  0  0  0  0  0  0  0
    6.0559    2.4858    0.4387 C   0  0  0  0  0  0  0  0  0  0  0  0
    6.9458    1.5668   -2.5304 C   0  0  0  0  0  0  0  0  0  0  0  0
    2.8969   -0.7564    1.9876 H   0  0  0  0  0  0  0  0  0  0  0  0
    3.4782   -1.7971   -0.8658 H   0  0  0  0  0  0  0  0  0  0  0  0
   -3.5432   -1.8905   -0.3880 H   0  0  0  0  0  0  0  0  0  0  0  0
   -2.3619    0.7076   -1.5962 H   0  0  0  0  0  0  0  0  0  0  0  0
   -0.6222    0.4981   -0.0348 H   0  0  0  0  0  0  0  0  0  0  0  0
    4.6785   -2.7400    1.8003 H   0  0  0  0  0  0  0  0  0  0  0  0
    5.5990   -1.8488    0.5660 H   0  0  0  0  0  0  0  0  0  0  0  0
   -1.9972   -3.5900   -0.0816 H   0  0  0  0  0  0  0  0  0  0  0  0
    0.3080   -4.3698    0.2800 H   0  0  0  0  0  0  0  0  0  0  0  0
    4.0683    0.4455   -1.4118 H   0  0  0  0  0  0  0  0  0  0  0  0
    4.4015    0.7946    2.8736 H   0  0  0  0  0  0  0  0  0  0  0  0
   -4.6303    0.4971    2.8627 H   0  0  0  0  0  0  0  0  0  0  0  0
   -2.6853   -0.3981   -3.5160 H   0  0  0  0  0  0  0  0  0  0  0  0
    6.1027    2.5438    2.6000 H   0  0  0  0  0  0  0  0  0  0  0  0
   -8.0097    1.9937    0.6735 H   0  0  0  0  0  0  0  0  0  0  0  0
    5.0643   -3.5155   -0.8993 H   0  0  0  0  0  0  0  0  0  0  0  0
   -7.9152    1.8818   -1.4779 H   0  0  0  0  0  0  0  0  0  0  0  0
   -6.4216    1.3835    3.8025 H   0  0  0  0  0  0  0  0  0  0  0  0
    7.2834    3.7525    1.1823 H   0  0  0  0  0  0  0  0  0  0  0  0
    7.1266    1.9883   -3.5229 H   0  0  0  0  0  0  0  0  0  0  0  0
    6.7022    0.5052   -2.6398 H   0  0  0  0  0  0  0  0  0  0  0  0
    7.8532    1.6841   -1.9297 H   0  0  0  0  0  0  0  0  0  0  0  0
  1 11  1  0  0  0  0
  1 16  1  0  0  0  0
  2 12  1  0  0  0  0
  2 17  1  0  0  0  0
  3 13  1  0  0  0  0
  3 25  1  0  0  0  0
  4 15  1  0  0  0  0
  4 48  1  0  0  0  0
  5 20  1  0  0  0  0
  5 51  1  0  0  0  0
  6 22  2  0  0  0  0
  7 28  1  0  0  0  0
  7 52  1  0  0  0  0
  8 30  1  0  0  0  0
  8 35  1  0  0  0  0
  9 32  1  0  0  0  0
  9 53  1  0  0  0  0
 10 34  1  0  0  0  0
 10 54  1  0  0  0  0
 11 12  1  0  0  0  0
 11 18  1  0  0  0  0
 11 36  1  0  0  0  0
 12 20  1  0  0  0  0
 12 37  1  0  0  0  0
 13 14  1  0  0  0  0
 13 15  1  0  0  0  0
 13 38  1  0  0  0  0
 14 19  2  0  0  0  0
 14 21  1  0  0  0  0
 15 22  1  0  0  0  0
 15 39  1  0  0  0  0
 16 17  2  0  0  0  0
 16 19  1  0  0  0  0
 17 23  1  0  0  0  0
 18 26  2  0  0  0  0
 18 27  1  0  0  0  0
 19 40  1  0  0  0  0
 20 41  1  0  0  0  0
 20 42  1  0  0  0  0
 21 23  2  0  0  0  0
 21 43  1  0  0  0  0
 22 24  1  0  0  0  0
 23 44  1  0  0  0  0
 24 25  1  0  0  0  0
 24 28  2  0  0  0  0
 25 29  2  0  0  0  0
 26 30  1  0  0  0  0
 26 45  1  0  0  0  0
 27 31  2  0  0  0  0
 27 46  1  0  0  0  0
 28 33  1  0  0  0  0
 29 32  1  0  0  0  0
 29 47  1  0  0  0  0
 30 34  2  0  0  0  0
 31 34  1  0  0  0  0
 31 49  1  0  0  0  0
 32 33  2  0  0  0  0
 33 50  1  0  0  0  0
 35 55  1  0  0  0  0
 35 56  1  0  0  0  0
 35 57  1  0  0  0  0
M  END
> <DATABASE_ID>
DB09298

> <DATABASE_NAME>
drugbank

> <ORIGINAL_SOURCE>
PUBCHEM

> <ORIGINAL_SOURCE_URL>
https://pubchem.ncbi.nlm.nih.gov/rest/pug/compound/inchikey/SEBFKMXJBCUCAI-HKTJVKLFSA-N/SDF?record_type=3d

> <SMILES>
[H][C@@]1(OC2=C(O[C@@H]1CO)C=CC(=C2)[C@@]1([H])OC2=C(C(O)=CC(O)=C2)C(=O)[C@@H]1O)C1=CC(OC)=C(O)C=C1

> <INCHI_IDENTIFIER>
InChI=1S/C25H22O10/c1-32-17-6-11(2-4-14(17)28)24-20(10-26)33-16-5-3-12(7-18(16)34-24)25-23(31)22(30)21-15(29)8-13(27)9-19(21)35-25/h2-9,20,23-29,31H,10H2,1H3/t20-,23+,24-,25-/m1/s1

> <INCHI_KEY>
SEBFKMXJBCUCAI-HKTJVKLFSA-N

> <FORMULA>
C25H22O10

> <MOLECULAR_WEIGHT>
482.441

> <EXACT_MASS>
482.121296908

> <JCHEM_ACCEPTOR_COUNT>
10

> <JCHEM_ATOM_COUNT>
57

> <JCHEM_AVERAGE_POLARIZABILITY>
48.411470601745954

> <JCHEM_BIOAVAILABILITY>
1

> <JCHEM_DONOR_COUNT>
5

> <JCHEM_FORMAL_CHARGE>
0

> <JCHEM_GHOSE_FILTER>
0

> <JCHEM_IUPAC>
(2R,3R)-3,5,7-trihydroxy-2-[(2R,3R)-3-(4-hydroxy-3-methoxyphenyl)-2-(hydroxymethyl)-2,3-dihydro-1,4-benzodioxin-6-yl]-3,4-dihydro-2H-1-benzopyran-4-one

> <ALOGPS_LOGP>
2.35

> <JCHEM_LOGP>
2.6293160946666667

> <ALOGPS_LOGS>
-3.72

> <JCHEM_MDDR_LIKE_RULE>
0

> <JCHEM_NUMBER_OF_RINGS>
5

> <JCHEM_PHYSIOLOGICAL_CHARGE>
0

> <JCHEM_PKA>
9.275274448635567

> <JCHEM_PKA_STRONGEST_ACIDIC>
7.7549598399992865

> <JCHEM_PKA_STRONGEST_BASIC>
-2.9904140611148753

> <JCHEM_POLAR_SURFACE_AREA>
155.14

> <JCHEM_REFRACTIVITY>
120.2939

> <JCHEM_ROTATABLE_BOND_COUNT>
4

> <JCHEM_RULE_OF_FIVE>
1

> <ALOGPS_SOLUBILITY>
9.26e-02 g/l

> <JCHEM_TRADITIONAL_IUPAC>
silibinin

> <JCHEM_VEBER_RULE>
0

$$$$
