72276
  -OEChem-10051722393D

 35 37  0     1  0  0  0  0  0999 V2000
    0.4554    0.7571   -0.1114 O   0  0  0  0  0  0  0  0  0  0  0  0
   -0.0198   -1.3181    1.8283 O   0  0  0  0  0  0  0  0  0  0  0  0
    4.3334   -2.1453   -0.0043 O   0  0  0  0  0  0  0  0  0  0  0  0
    4.8215    2.5776   -0.3171 O   0  0  0  0  0  0  0  0  0  0  0  0
   -5.1189   -0.8225   -1.5254 O   0  0  0  0  0  0  0  0  0  0  0  0
   -5.8048    0.9634    0.4911 O   0  0  0  0  0  0  0  0  0  0  0  0
    0.0528   -1.6121    0.4327 C   0  0  1  0  0  0  0  0  0  0  0  0
   -0.3707   -0.3857   -0.3865 C   0  0  1  0  0  0  0  0  0  0  0  0
    1.4880   -1.9916    0.0735 C   0  0  0  0  0  0  0  0  0  0  0  0
    2.3596   -0.7696   -0.0367 C   0  0  0  0  0  0  0  0  0  0  0  0
    1.8044    0.5129   -0.1299 C   0  0  0  0  0  0  0  0  0  0  0  0
   -1.8267   -0.0272   -0.1539 C   0  0  0  0  0  0  0  0  0  0  0  0
    3.7534   -0.9121   -0.0674 C   0  0  0  0  0  0  0  0  0  0  0  0
    2.6318    1.6361   -0.2107 C   0  0  0  0  0  0  0  0  0  0  0  0
   -2.8188   -0.5931   -0.9529 C   0  0  0  0  0  0  0  0  0  0  0  0
   -2.1694    0.8683    0.8581 C   0  0  0  0  0  0  0  0  0  0  0  0
    4.5779    0.2096   -0.1623 C   0  0  0  0  0  0  0  0  0  0  0  0
    4.0172    1.4831   -0.2297 C   0  0  0  0  0  0  0  0  0  0  0  0
   -4.1571   -0.2628   -0.7396 C   0  0  0  0  0  0  0  0  0  0  0  0
   -3.5076    1.1987    1.0713 C   0  0  0  0  0  0  0  0  0  0  0  0
   -4.5014    0.6331    0.2726 C   0  0  0  0  0  0  0  0  0  0  0  0
   -0.6030   -2.4707    0.2456 H   0  0  0  0  0  0  0  0  0  0  0  0
   -0.2554   -0.6034   -1.4586 H   0  0  0  0  0  0  0  0  0  0  0  0
    1.5007   -2.5079   -0.8940 H   0  0  0  0  0  0  0  0  0  0  0  0
    1.8879   -2.6664    0.8395 H   0  0  0  0  0  0  0  0  0  0  0  0
    2.1897    2.6282   -0.2657 H   0  0  0  0  0  0  0  0  0  0  0  0
   -2.5491   -1.2932   -1.7399 H   0  0  0  0  0  0  0  0  0  0  0  0
   -0.9590   -1.2961    2.0778 H   0  0  0  0  0  0  0  0  0  0  0  0
   -1.4138    1.3149    1.4984 H   0  0  0  0  0  0  0  0  0  0  0  0
    5.6594    0.0989   -0.1825 H   0  0  0  0  0  0  0  0  0  0  0  0
   -3.7622    1.8965    1.8646 H   0  0  0  0  0  0  0  0  0  0  0  0
    5.3002   -2.0460   -0.0383 H   0  0  0  0  0  0  0  0  0  0  0  0
    4.2661    3.3752   -0.3553 H   0  0  0  0  0  0  0  0  0  0  0  0
   -4.6962   -1.4158   -2.1700 H   0  0  0  0  0  0  0  0  0  0  0  0
   -5.8521    1.5945    1.2297 H   0  0  0  0  0  0  0  0  0  0  0  0
  1  8  1  0  0  0  0
  1 11  1  0  0  0  0
  2  7  1  0  0  0  0
  2 28  1  0  0  0  0
  3 13  1  0  0  0  0
  3 32  1  0  0  0  0
  4 18  1  0  0  0  0
  4 33  1  0  0  0  0
  5 19  1  0  0  0  0
  5 34  1  0  0  0  0
  6 21  1  0  0  0  0
  6 35  1  0  0  0  0
  7  8  1  0  0  0  0
  7  9  1  0  0  0  0
  7 22  1  0  0  0  0
  8 12  1  0  0  0  0
  8 23  1  0  0  0  0
  9 10  1  0  0  0  0
  9 24  1  0  0  0  0
  9 25  1  0  0  0  0
 10 11  1  0  0  0  0
 10 13  2  0  0  0  0
 11 14  2  0  0  0  0
 12 15  2  0  0  0  0
 12 16  1  0  0  0  0
 13 17  1  0  0  0  0
 14 18  1  0  0  0  0
 14 26  1  0  0  0  0
 15 19  1  0  0  0  0
 15 27  1  0  0  0  0
 16 20  2  0  0  0  0
 16 29  1  0  0  0  0
 17 18  2  0  0  0  0
 17 30  1  0  0  0  0
 19 21  2  0  0  0  0
 20 21  1  0  0  0  0
 20 31  1  0  0  0  0
M  END
> <DATABASE_ID>
DB12039

> <DATABASE_NAME>
drugbank

> <ORIGINAL_SOURCE>
PUBCHEM

> <ORIGINAL_SOURCE_URL>
https://pubchem.ncbi.nlm.nih.gov/rest/pug/compound/inchikey/PFTAWBLQPZVEMU-UKRRQHHQSA-N/SDF?record_type=3d

> <SMILES>
O[C@@H]1CC2=C(O)C=C(O)C=C2O[C@@H]1C1=CC(O)=C(O)C=C1

> <INCHI_IDENTIFIER>
InChI=1S/C15H14O6/c16-8-4-11(18)9-6-13(20)15(21-14(9)5-8)7-1-2-10(17)12(19)3-7/h1-5,13,15-20H,6H2/t13-,15-/m1/s1

> <INCHI_KEY>
PFTAWBLQPZVEMU-UKRRQHHQSA-N

> <FORMULA>
C15H14O6

> <MOLECULAR_WEIGHT>
290.2681

> <EXACT_MASS>
290.07903818

> <JCHEM_ACCEPTOR_COUNT>
6

> <JCHEM_ATOM_COUNT>
35

> <JCHEM_AVERAGE_NEUTRAL_MICROSPECIES_CHARGE>
-0.012453571243911075

> <JCHEM_AVERAGE_POLARIZABILITY>
28.133242403815718

> <JCHEM_BIOAVAILABILITY>
1

> <JCHEM_DONOR_COUNT>
5

> <JCHEM_FORMAL_CHARGE>
0

> <JCHEM_GHOSE_FILTER>
1

> <JCHEM_IUPAC>
(2R,3R)-2-(3,4-dihydroxyphenyl)-3,4-dihydro-2H-1-benzopyran-3,5,7-triol

> <ALOGPS_LOGP>
1.02

> <JCHEM_LOGP>
1.795107015333333

> <ALOGPS_LOGS>
-2.65

> <JCHEM_MDDR_LIKE_RULE>
0

> <JCHEM_NEUTRAL_CHARGE>
0

> <JCHEM_NUMBER_OF_RINGS>
3

> <JCHEM_PHYSIOLOGICAL_CHARGE>
0

> <JCHEM_PKA>
9.624022697297178

> <JCHEM_PKA_STRONGEST_ACIDIC>
9.004573813837975

> <JCHEM_PKA_STRONGEST_BASIC>
-3.2897193322428566

> <JCHEM_POLAR_SURFACE_AREA>
110.38000000000001

> <JCHEM_REFRACTIVITY>
73.99970000000003

> <JCHEM_ROTATABLE_BOND_COUNT>
1

> <JCHEM_RULE_OF_FIVE>
1

> <ALOGPS_SOLUBILITY>
6.45e-01 g/l

> <JCHEM_TRADITIONAL_IUPAC>
biotin

> <JCHEM_VEBER_RULE>
0

$$$$
