
     RDKit          3D

 18 19  0  0  0  0  0  0  0  0999 V2000
   -3.0491    2.5103    0.5225 C   0  0  0  0  0  0  0  0  0  0  0  0
   -3.7826    1.3030    0.3581 O   0  0  0  0  0  0  0  0  0  0  0  0
   -3.0709    0.1140    0.4110 C   0  0  0  0  0  0  0  0  0  0  0  0
   -2.9849   -0.5498    1.6288 C   0  0  0  0  0  0  0  0  0  0  0  0
   -2.2492   -1.7256    1.6835 C   0  0  0  0  0  0  0  0  0  0  0  0
   -1.5708   -2.1267    0.5551 C   0  0  0  0  0  0  0  0  0  0  0  0
   -1.4301   -1.3246   -0.5712 C   0  0  0  0  0  0  0  0  0  0  0  0
   -0.1274   -1.4610   -1.2433 C   0  0  0  0  0  0  0  0  0  0  0  0
    0.6139   -0.4761   -1.5664 N   0  0  0  0  0  0  0  0  0  0  0  0
    1.9888   -0.3372   -1.2173 C   0  0  0  0  0  0  0  0  0  0  0  0
    2.6196   -1.1031   -0.2561 C   0  0  0  0  0  0  0  0  0  0  0  0
    3.4278   -0.5317    0.7162 C   0  0  0  0  0  0  0  0  0  0  0  0
    3.6684    0.8380    0.7299 C   0  0  0  0  0  0  0  0  0  0  0  0
    3.6725    1.6142    2.0102 C   0  0  0  0  0  0  0  0  0  0  0  0
    3.4072    1.4869   -0.4710 C   0  0  0  0  0  0  0  0  0  0  0  0
    2.5778    0.9050   -1.4254 C   0  0  0  0  0  0  0  0  0  0  0  0
   -2.1050   -0.1078   -0.5641 C   0  0  0  0  0  0  0  0  0  0  0  0
   -1.6060    0.9725   -1.3006 O   0  0  0  0  0  0  0  0  0  0  0  0
  1  2  1  0
  2  3  1  0
  3  4  2  0
  4  5  1  0
  5  6  2  0
  6  7  1  0
  7  8  1  0
  8  9  2  0
  9 10  1  0
 10 11  2  0
 11 12  1  0
 12 13  2  0
 13 14  1  0
 13 15  1  0
 15 16  2  0
  7 17  2  0
 17 18  1  0
 17  3  1  0
 16 10  1  0
M  END
>  <zinc_id>  (1) 
ZINC000004793359

>  <smiles>  (1) 
COc1cccc(/C=N/c2ccc(C)cc2)c1O

$$$$
