54682463
  -OEChem-06112217103D

 45 49  0     1  0  0  0  0  0999 V2000
   -1.5562    2.5235    0.2610 O   0  0  0  0  0  0  0  0  0  0  0  0
   -3.7822   -1.6433    0.2453 O   0  0  0  0  0  0  0  0  0  0  0  0
   -4.3848    2.4991    0.8405 O   0  0  0  0  0  0  0  0  0  0  0  0
   -1.5055   -1.0374    0.1996 N   0  0  0  0  0  0  0  0  0  0  0  0
    3.1046    2.4201   -0.7543 N   0  0  0  0  0  0  0  0  0  0  0  0
    0.6440   -1.5314   -0.6461 C   0  0  2  0  0  0  0  0  0  0  0  0
    0.2878    0.0194   -0.8095 C   0  0  1  0  0  0  0  0  0  0  0  0
   -0.7690   -2.1672   -0.3924 C   0  0  0  0  0  0  0  0  0  0  0  0
   -0.7364    0.1829    0.3082 C   0  0  1  0  0  0  0  0  0  0  0  0
    1.7019   -1.8454    0.4756 C   0  0  0  0  0  0  0  0  0  0  0  0
    1.5003    0.8744   -0.6941 C   0  0  0  0  0  0  0  0  0  0  0  0
   -1.3871   -2.5634   -1.7491 C   0  0  0  0  0  0  0  0  0  0  0  0
   -0.7936   -3.3851    0.5328 C   0  0  0  0  0  0  0  0  0  0  0  0
   -1.8331    1.1860    0.2577 C   0  0  0  0  0  0  0  0  0  0  0  0
    2.6776    0.3578   -0.1170 C   0  0  0  0  0  0  0  0  0  0  0  0
    2.8834   -0.9150    0.4222 C   0  0  0  0  0  0  0  0  0  0  0  0
   -2.8725   -0.8332    0.2837 C   0  0  0  0  0  0  0  0  0  0  0  0
   -3.0547    0.6389    0.3131 C   0  0  0  0  0  0  0  0  0  0  0  0
    1.7909    2.1602   -1.0891 C   0  0  0  0  0  0  0  0  0  0  0  0
    3.6726    1.3157   -0.1583 C   0  0  0  0  0  0  0  0  0  0  0  0
    4.1492   -1.1852    0.9490 C   0  0  0  0  0  0  0  0  0  0  0  0
   -4.3110    1.3676    0.3397 C   0  0  0  0  0  0  0  0  0  0  0  0
    4.9477    1.0587    0.3471 C   0  0  0  0  0  0  0  0  0  0  0  0
    5.1618   -0.2151    0.9029 C   0  0  0  0  0  0  0  0  0  0  0  0
   -5.5355    0.7176   -0.2683 C   0  0  0  0  0  0  0  0  0  0  0  0
    1.0734   -1.8877   -1.5933 H   0  0  0  0  0  0  0  0  0  0  0  0
   -0.1760    0.1774   -1.7926 H   0  0  0  0  0  0  0  0  0  0  0  0
   -0.2616    0.2014    1.2978 H   0  0  0  0  0  0  0  0  0  0  0  0
    2.0421   -2.8815    0.3640 H   0  0  0  0  0  0  0  0  0  0  0  0
    1.2547   -1.7408    1.4705 H   0  0  0  0  0  0  0  0  0  0  0  0
   -2.3970   -2.9702   -1.6276 H   0  0  0  0  0  0  0  0  0  0  0  0
   -0.7812   -3.3306   -2.2441 H   0  0  0  0  0  0  0  0  0  0  0  0
   -1.4660   -1.7067   -2.4273 H   0  0  0  0  0  0  0  0  0  0  0  0
   -1.8073   -3.7944    0.6150 H   0  0  0  0  0  0  0  0  0  0  0  0
   -0.4823   -3.1345    1.5519 H   0  0  0  0  0  0  0  0  0  0  0  0
   -0.1428   -4.1814    0.1564 H   0  0  0  0  0  0  0  0  0  0  0  0
    1.1944    2.9157   -1.5808 H   0  0  0  0  0  0  0  0  0  0  0  0
    3.5820    3.2931   -0.9312 H   0  0  0  0  0  0  0  0  0  0  0  0
    4.3562   -2.1510    1.4026 H   0  0  0  0  0  0  0  0  0  0  0  0
   -2.3952    3.0141    0.2551 H   0  0  0  0  0  0  0  0  0  0  0  0
    5.7361    1.8022    0.3200 H   0  0  0  0  0  0  0  0  0  0  0  0
    6.1403   -0.4521    1.3153 H   0  0  0  0  0  0  0  0  0  0  0  0
   -6.2473    1.4960   -0.5591 H   0  0  0  0  0  0  0  0  0  0  0  0
   -5.2682    0.1606   -1.1704 H   0  0  0  0  0  0  0  0  0  0  0  0
   -6.0035    0.0563    0.4648 H   0  0  0  0  0  0  0  0  0  0  0  0
  1 14  1  0  0  0  0
  1 40  1  0  0  0  0
  2 17  2  0  0  0  0
  3 22  2  0  0  0  0
  4  8  1  0  0  0  0
  4  9  1  0  0  0  0
  4 17  1  0  0  0  0
  5 19  1  0  0  0  0
  5 20  1  0  0  0  0
  5 38  1  0  0  0  0
  6  7  1  0  0  0  0
  6  8  1  0  0  0  0
  6 10  1  0  0  0  0
  6 26  1  0  0  0  0
  7  9  1  0  0  0  0
  7 11  1  0  0  0  0
  7 27  1  0  0  0  0
  8 12  1  0  0  0  0
  8 13  1  0  0  0  0
  9 14  1  0  0  0  0
  9 28  1  0  0  0  0
 10 16  1  0  0  0  0
 10 29  1  0  0  0  0
 10 30  1  0  0  0  0
 11 15  1  0  0  0  0
 11 19  2  0  0  0  0
 12 31  1  0  0  0  0
 12 32  1  0  0  0  0
 12 33  1  0  0  0  0
 13 34  1  0  0  0  0
 13 35  1  0  0  0  0
 13 36  1  0  0  0  0
 14 18  2  0  0  0  0
 15 16  2  0  0  0  0
 15 20  1  0  0  0  0
 16 21  1  0  0  0  0
 17 18  1  0  0  0  0
 18 22  1  0  0  0  0
 19 37  1  0  0  0  0
 20 23  2  0  0  0  0
 21 24  2  0  0  0  0
 21 39  1  0  0  0  0
 22 25  1  0  0  0  0
 23 24  1  0  0  0  0
 23 41  1  0  0  0  0
 24 42  1  0  0  0  0
 25 43  1  0  0  0  0
 25 44  1  0  0  0  0
 25 45  1  0  0  0  0
M  END
> <PUBCHEM_COMPOUND_CID>
54682463

> <PUBCHEM_CONFORMER_RMSD>
0.6

> <PUBCHEM_CONFORMER_DIVERSEORDER>
1
4
3
2

> <PUBCHEM_MMFF94_PARTIAL_CHARGES>
27
1 -0.53
10 0.14
11 -0.18
14 -0.06
16 -0.14
17 0.62
18 0.03
19 -0.3
2 -0.57
20 -0.15
21 -0.15
22 0.49
23 -0.15
24 -0.15
25 0.06
3 -0.57
37 0.15
38 0.27
39 0.15
4 -0.66
40 0.45
41 0.15
42 0.15
5 0.03
7 0.18
8 0.3
9 0.44

> <PUBCHEM_EFFECTIVE_ROTOR_COUNT>
1.4

> <PUBCHEM_PHARMACOPHORE_FEATURES>
11
1 1 donor
1 2 acceptor
1 3 acceptor
1 5 cation
1 5 donor
3 8 12 13 hydrophobe
5 4 6 7 8 9 rings
5 4 9 14 17 18 rings
5 5 11 15 19 20 rings
6 15 16 20 21 23 24 rings
6 6 7 10 11 15 16 rings

> <PUBCHEM_HEAVY_ATOM_COUNT>
25

> <PUBCHEM_ATOM_DEF_STEREO_COUNT>
3

> <PUBCHEM_ATOM_UDEF_STEREO_COUNT>
0

> <PUBCHEM_BOND_DEF_STEREO_COUNT>
0

> <PUBCHEM_BOND_UDEF_STEREO_COUNT>
0

> <PUBCHEM_ISOTOPIC_ATOM_COUNT>
0

> <PUBCHEM_COMPONENT_COUNT>
1

> <PUBCHEM_CACTVS_TAUTO_COUNT>
12

> <PUBCHEM_CONFORMER_ID>
0342635F00000001

> <PUBCHEM_MMFF94_ENERGY>
76.8425

> <PUBCHEM_FEATURE_SELFOVERLAP>
56.433

> <PUBCHEM_SHAPE_FINGERPRINT>
10062212 137 18410851100905278355
10090160 65 18338511946439550315
10411042 1 17548134888608079759
1100329 8 18409164441694600384
11370993 70 18411417276294775529
11578080 2 17416110922717644088
12011746 2 18335987463304882278
12107183 9 18264202518101832714
12236239 1 18336824281805773690
12251169 10 18335137588113907940
12403260 363 18338794623753889943
12633257 1 17458338650393136912
12788726 201 18053104205219924647
13140716 1 18336262457233978328
13583140 156 17458064846465490929
14341114 176 18335144154965929592
14739800 52 18055907943303113128
15131766 46 16372711780159965740
15196674 1 18409449202131336370
15238133 3 18040444261170921740
15256400 18 18339361864442995292
15420108 30 17766543669249801887
15442244 35 18335699468789355566
16945 1 18336842947454372654
17349148 13 18412820296223811749
17492 89 18408608092890466754
1813 80 16877664526941098836
20511986 3 18336808866825354529
20715895 44 18193272997388242021
20739085 24 17967253105231543412
21033648 29 17987498348008529176
21033650 10 17059238984594875920
21267235 1 18335991968657335066
21524375 3 18342739589827916367
22113638 7 18410854386445100917
22149856 69 17986138261690435361
22950370 63 8718821003319303921
23184049 59 18334013865470784388
23227448 37 18411136982370982183
23402539 116 18272362109739429239
23558518 356 17901390314033073428
23559900 14 18201733816620038630
23569917 315 18413390921643624047
23598288 3 18125723628261700678
23622692 88 18407758119246748788
25147074 1 18262231244351151644
2748010 2 17760075230075762238
335352 9 18408886209655685718
34934 24 18409164454616522836
350125 39 18408322194001845893
392239 28 18042701644537668195
4017518 198 17918275325629620302
404807 14 15762492352987705086
4340502 62 18341057324616714913
474 4 18337674109815287723
5104073 3 18334576866890064896
58807428 26 18336553715887869651
59755656 215 18272097046138763854
6328613 192 18336554897700442052
7064713 232 18341888563543795192
7097593 13 18333725836796057586
7471813 234 17553180504654804366
7832392 63 18409729599561814094
9709674 26 18411426145645367518
9862522 239 18263349318168600829
9981440 41 18410297978385780651

> <PUBCHEM_SHAPE_MULTIPOLES>
486.92
9.67
3.14
1.02
0.7
0.9
-0.24
-4.47
2.46
1.19
-0.28
-0.16
0.22
-1.28

> <PUBCHEM_SHAPE_SELFOVERLAP>
1102.504

> <PUBCHEM_SHAPE_VOLUME>
256.2

> <PUBCHEM_COORDINATE_TYPE>
2
5
10

$$$$
