10026128
  -OEChem-10051722513D

 56 59  0     0  0  0  0  0  0999 V2000
   -4.8441   -0.8881    2.8377 F   0  0  0  0  0  0  0  0  0  0  0  0
   -6.5262    0.6048    1.2828 F   0  0  0  0  0  0  0  0  0  0  0  0
    0.3786    3.0340   -0.9540 O   0  0  0  0  0  0  0  0  0  0  0  0
   -2.1877   -2.9803   -1.3918 O   0  0  0  0  0  0  0  0  0  0  0  0
   -0.2320    2.6131    1.2391 O   0  0  0  0  0  0  0  0  0  0  0  0
   -0.8089   -1.1108   -1.0293 N   0  0  0  0  0  0  0  0  0  0  0  0
    2.7331    1.0301    0.4484 N   0  0  0  0  0  0  0  0  0  0  0  0
    1.4976   -2.1922   -0.9093 C   0  0  0  0  0  0  0  0  0  0  0  0
    2.2291   -1.0174   -0.2657 C   0  0  0  0  0  0  0  0  0  0  0  0
    0.3095   -1.6976   -1.7745 C   0  0  0  0  0  0  0  0  0  0  0  0
    1.7093    0.2638   -0.0601 C   0  0  0  0  0  0  0  0  0  0  0  0
    3.5609   -1.0252    0.3037 C   0  0  0  0  0  0  0  0  0  0  0  0
    1.0069   -3.1755    0.1696 C   0  0  0  0  0  0  0  0  0  0  0  0
    2.4173   -2.9550   -1.8969 C   0  0  0  0  0  0  0  0  0  0  0  0
    3.8454    0.2745    0.7113 C   0  0  0  0  0  0  0  0  0  0  0  0
    0.4239    0.8623   -0.2174 C   0  0  0  0  0  0  0  0  0  0  0  0
   -0.6887    0.1931   -0.5669 C   0  0  0  0  0  0  0  0  0  0  0  0
    4.5569   -2.0052    0.5242 C   0  0  0  0  0  0  0  0  0  0  0  0
   -2.0277   -1.8254   -0.9956 C   0  0  0  0  0  0  0  0  0  0  0  0
    5.0632    0.6554    1.2888 C   0  0  0  0  0  0  0  0  0  0  0  0
    0.1430    2.2697    0.1371 C   0  0  0  0  0  0  0  0  0  0  0  0
    5.7809   -1.6465    1.1036 C   0  0  0  0  0  0  0  0  0  0  0  0
    6.0313   -0.3312    1.4750 C   0  0  0  0  0  0  0  0  0  0  0  0
   -3.2138   -1.1840   -0.3946 C   0  0  0  0  0  0  0  0  0  0  0  0
    0.1501    4.4347   -0.7672 C   0  0  0  0  0  0  0  0  0  0  0  0
   -3.4705   -1.3434    0.9633 C   0  0  0  0  0  0  0  0  0  0  0  0
   -4.0662   -0.4264   -1.1910 C   0  0  0  0  0  0  0  0  0  0  0  0
    1.0381    4.9410    0.3591 C   0  0  0  0  0  0  0  0  0  0  0  0
    0.4202    5.1648   -2.0739 C   0  0  0  0  0  0  0  0  0  0  0  0
   -4.5917   -0.7382    1.5309 C   0  0  0  0  0  0  0  0  0  0  0  0
   -5.1875    0.1786   -0.6236 C   0  0  0  0  0  0  0  0  0  0  0  0
   -5.4503    0.0227    0.7375 C   0  0  0  0  0  0  0  0  0  0  0  0
    0.6448   -0.9572   -2.5157 H   0  0  0  0  0  0  0  0  0  0  0  0
   -0.0791   -2.5359   -2.3668 H   0  0  0  0  0  0  0  0  0  0  0  0
    0.4356   -3.9981   -0.2747 H   0  0  0  0  0  0  0  0  0  0  0  0
    1.8461   -3.6167    0.7193 H   0  0  0  0  0  0  0  0  0  0  0  0
    0.3673   -2.6803    0.9090 H   0  0  0  0  0  0  0  0  0  0  0  0
    2.8899   -2.2695   -2.6101 H   0  0  0  0  0  0  0  0  0  0  0  0
    3.2099   -3.5110   -1.3929 H   0  0  0  0  0  0  0  0  0  0  0  0
    1.8519   -3.6976   -2.4730 H   0  0  0  0  0  0  0  0  0  0  0  0
    2.6597    2.0116    0.6774 H   0  0  0  0  0  0  0  0  0  0  0  0
   -1.6321    0.7251   -0.4861 H   0  0  0  0  0  0  0  0  0  0  0  0
    4.3930   -3.0471    0.2711 H   0  0  0  0  0  0  0  0  0  0  0  0
    5.2483    1.6812    1.5904 H   0  0  0  0  0  0  0  0  0  0  0  0
    6.5393   -2.4075    1.2674 H   0  0  0  0  0  0  0  0  0  0  0  0
    6.9856   -0.0693    1.9238 H   0  0  0  0  0  0  0  0  0  0  0  0
   -0.9051    4.5889   -0.5077 H   0  0  0  0  0  0  0  0  0  0  0  0
   -2.8072   -1.9341    1.5894 H   0  0  0  0  0  0  0  0  0  0  0  0
   -3.8696   -0.2994   -2.2522 H   0  0  0  0  0  0  0  0  0  0  0  0
    0.6537    4.7020    1.3534 H   0  0  0  0  0  0  0  0  0  0  0  0
    2.0499    4.5266    0.2871 H   0  0  0  0  0  0  0  0  0  0  0  0
    1.1145    6.0337    0.3271 H   0  0  0  0  0  0  0  0  0  0  0  0
    1.4581    5.0205   -2.3934 H   0  0  0  0  0  0  0  0  0  0  0  0
    0.2267    6.2376   -1.9811 H   0  0  0  0  0  0  0  0  0  0  0  0
   -0.2129    4.7631   -2.8725 H   0  0  0  0  0  0  0  0  0  0  0  0
   -5.8559    0.7715   -1.2409 H   0  0  0  0  0  0  0  0  0  0  0  0
  1 30  1  0  0  0  0
  2 32  1  0  0  0  0
  3 21  1  0  0  0  0
  3 25  1  0  0  0  0
  4 19  2  0  0  0  0
  5 21  2  0  0  0  0
  6 10  1  0  0  0  0
  6 17  1  0  0  0  0
  6 19  1  0  0  0  0
  7 11  1  0  0  0  0
  7 15  1  0  0  0  0
  7 41  1  0  0  0  0
  8  9  1  0  0  0  0
  8 10  1  0  0  0  0
  8 13  1  0  0  0  0
  8 14  1  0  0  0  0
  9 11  2  0  0  0  0
  9 12  1  0  0  0  0
 10 33  1  0  0  0  0
 10 34  1  0  0  0  0
 11 16  1  0  0  0  0
 12 15  1  0  0  0  0
 12 18  2  0  0  0  0
 13 35  1  0  0  0  0
 13 36  1  0  0  0  0
 13 37  1  0  0  0  0
 14 38  1  0  0  0  0
 14 39  1  0  0  0  0
 14 40  1  0  0  0  0
 15 20  2  0  0  0  0
 16 17  2  0  0  0  0
 16 21  1  0  0  0  0
 17 42  1  0  0  0  0
 18 22  1  0  0  0  0
 18 43  1  0  0  0  0
 19 24  1  0  0  0  0
 20 23  1  0  0  0  0
 20 44  1  0  0  0  0
 22 23  2  0  0  0  0
 22 45  1  0  0  0  0
 23 46  1  0  0  0  0
 24 26  2  0  0  0  0
 24 27  1  0  0  0  0
 25 28  1  0  0  0  0
 25 29  1  0  0  0  0
 25 47  1  0  0  0  0
 26 30  1  0  0  0  0
 26 48  1  0  0  0  0
 27 31  2  0  0  0  0
 27 49  1  0  0  0  0
 28 50  1  0  0  0  0
 28 51  1  0  0  0  0
 28 52  1  0  0  0  0
 29 53  1  0  0  0  0
 29 54  1  0  0  0  0
 29 55  1  0  0  0  0
 30 32  2  0  0  0  0
 31 32  1  0  0  0  0
 31 56  1  0  0  0  0
M  END
> <DATABASE_ID>
DB12719

> <DATABASE_NAME>
drugbank

> <ORIGINAL_SOURCE>
PUBCHEM

> <ORIGINAL_SOURCE_URL>
https://pubchem.ncbi.nlm.nih.gov/rest/pug/compound/inchikey/INASOKQDNHHMRE-UHFFFAOYSA-N/SDF?record_type=3d

> <SMILES>
CC(C)OC(=O)C1=CN(CC(C)(C)C2=C1NC1=CC=CC=C21)C(=O)C1=CC(F)=C(F)C=C1

> <INCHI_IDENTIFIER>
InChI=1S/C25H24F2N2O3/c1-14(2)32-24(31)17-12-29(23(30)15-9-10-18(26)19(27)11-15)13-25(3,4)21-16-7-5-6-8-20(16)28-22(17)21/h5-12,14,28H,13H2,1-4H3

> <INCHI_KEY>
INASOKQDNHHMRE-UHFFFAOYSA-N

> <FORMULA>
C25H24F2N2O3

> <MOLECULAR_WEIGHT>
438.4665

> <EXACT_MASS>
438.175499054

> <JCHEM_ACCEPTOR_COUNT>
2

> <JCHEM_ATOM_COUNT>
56

> <JCHEM_AVERAGE_NEUTRAL_MICROSPECIES_CHARGE>
-2.6306496519103154e-07

> <JCHEM_AVERAGE_POLARIZABILITY>
45.61689813978373

> <JCHEM_BIOAVAILABILITY>
1

> <JCHEM_DONOR_COUNT>
1

> <JCHEM_FORMAL_CHARGE>
0

> <JCHEM_GHOSE_FILTER>
1

> <JCHEM_IUPAC>
propan-2-yl 3-(3,4-difluorobenzoyl)-1,1-dimethyl-1H,2H,3H,6H-azepino[4,5-b]indole-5-carboxylate

> <ALOGPS_LOGP>
4.78

> <JCHEM_LOGP>
5.109778353666666

> <ALOGPS_LOGS>
-5.51

> <JCHEM_MDDR_LIKE_RULE>
0

> <JCHEM_NEUTRAL_CHARGE>
0

> <JCHEM_NUMBER_OF_RINGS>
4

> <JCHEM_PHYSIOLOGICAL_CHARGE>
0

> <JCHEM_PKA_STRONGEST_ACIDIC>
13.579931465581767

> <JCHEM_PKA_STRONGEST_BASIC>
-4.483563704181769

> <JCHEM_POLAR_SURFACE_AREA>
62.400000000000006

> <JCHEM_REFRACTIVITY>
117.90229999999998

> <JCHEM_ROTATABLE_BOND_COUNT>
4

> <JCHEM_RULE_OF_FIVE>
0

> <ALOGPS_SOLUBILITY>
1.35e-03 g/l

> <JCHEM_TRADITIONAL_IUPAC>
biotin

> <JCHEM_VEBER_RULE>
0

$$$$
