
     RDKit          3D

 51 53  0  0  0  0  0  0  0  0999 V2000
   -2.8534    3.0711   -1.8636 C   0  0  0  0  0  0  0  0  0  0  0  0
   -2.5393    2.6638   -1.4480 C   0  0  0  0  0  0  0  0  0  0  0  0
   -2.9783    2.5506    0.1429 C   0  0  1  0  0  0  0  0  0  0  0  0
   -1.5825    2.1285    0.6394 O   0  0  0  0  0  0  0  0  0  0  0  0
   -1.8572    1.1634    1.6191 C   0  0  0  0  0  0  0  0  0  0  0  0
   -1.1854    1.1463    2.6564 O   0  0  0  0  0  0  0  0  0  0  0  0
   -2.2699   -0.1483    0.8570 C   0  0  2  0  0  0  0  0  0  0  0  0
   -2.5566   -0.8601    2.3086 C   0  0  0  0  0  0  0  0  0  0  0  0
   -0.7685   -0.9456    0.7174 C   0  0  1  0  0  0  0  0  0  0  0  0
   -1.4947   -1.8262   -0.2721 O   0  0  0  0  0  0  0  0  0  0  0  0
   -1.7032   -3.0987    0.5343 C   0  0  1  0  0  0  0  0  0  0  0  0
   -3.3664   -2.9537    0.5756 C   0  0  0  0  0  0  0  0  0  0  0  0
   -3.8586   -4.3373    0.5231 C   0  0  1  0  0  0  0  0  0  0  0  0
   -2.8967   -5.3860    1.0612 C   0  0  0  0  0  0  0  0  0  0  0  0
   -5.0672   -4.5762    1.1063 O   0  0  0  0  0  0  0  0  0  0  0  0
   -5.7204   -3.4489    1.5776 C   0  0  0  0  0  0  0  0  0  0  0  0
   -3.9826   -4.6008   -1.0825 C   0  0  1  0  0  0  0  0  0  0  0  0
   -5.1599   -3.6591   -1.1700 O   0  0  0  0  0  0  0  0  0  0  0  0
   -2.8960   -3.3180   -1.4864 C   0  0  2  0  0  0  0  0  0  0  0  0
   -2.4898   -4.0628   -2.8836 C   0  0  0  0  0  0  0  0  0  0  0  0
   -1.7736   -3.9683   -0.7249 O   0  0  0  0  0  0  0  0  0  0  0  0
   -0.0332    0.0590   -0.4273 C   0  0  2  0  0  0  0  0  0  0  0  0
    0.1160   -0.9772   -1.6419 C   0  0  0  0  0  0  0  0  0  0  0  0
    1.5347   -0.2513    0.1771 C   0  0  1  0  0  0  0  0  0  0  0  0
    2.2682   -0.2747   -1.1406 O   0  0  0  0  0  0  0  0  0  0  0  0
    2.9618   -1.6367   -1.1463 C   0  0  2  0  0  0  0  0  0  0  0  0
    3.0909   -1.6644    0.3686 O   0  0  0  0  0  0  0  0  0  0  0  0
    3.6330   -3.0754    0.4627 C   0  0  2  0  0  0  0  0  0  0  0  0
    3.2973   -3.1164    2.0869 C   0  0  0  0  0  0  0  0  0  0  0  0
    5.1755   -2.4749    0.5825 C   0  0  0  0  0  0  0  0  0  0  0  0
    5.3787   -2.3734   -1.0435 C   0  0  2  0  0  0  0  0  0  0  0  0
    6.7164   -1.5698   -0.9803 N   0  0  0  0  0  0  0  0  0  0  0  0
    6.6228   -0.5953    0.0320 C   0  0  0  0  0  0  0  0  0  0  0  0
    7.6803   -2.5715   -0.5569 C   0  0  0  0  0  0  0  0  0  0  0  0
    4.5252   -0.9050   -1.2478 C   0  0  1  0  0  0  0  0  0  0  0  0
    4.5030   -1.0751   -2.7331 O   0  0  0  0  0  0  0  0  0  0  0  0
    1.8849    1.3102    0.4705 C   0  0  2  0  0  0  0  0  0  0  0  0
    3.0537    1.3081    1.4734 C   0  0  0  0  0  0  0  0  0  0  0  0
    0.8969    1.6410    1.2034 O   0  0  0  0  0  0  0  0  0  0  0  0
    1.9594    2.1688   -0.6533 C   0  0  0  0  0  0  0  0  0  0  0  0
    2.3164    3.6103    0.0631 C   0  0  1  0  0  0  0  0  0  0  0  0
    2.0957    4.4636   -1.3296 C   0  0  0  0  0  0  0  0  0  0  0  0
    0.8991    3.9230    0.7477 C   0  0  0  0  0  0  0  0  0  0  0  0
    1.1193    4.5803    1.7434 O   0  0  0  0  0  0  0  0  0  0  0  0
   -0.2917    4.3703   -0.1936 C   0  0  2  0  0  0  0  0  0  0  0  0
    0.2332    5.9164   -0.2300 C   0  0  0  0  0  0  0  0  0  0  0  0
   -1.3804    4.4689    1.1237 C   0  0  1  0  0  0  0  0  0  0  0  0
   -1.6641    5.9449    0.9361 O   0  0  0  0  0  0  0  0  0  0  0  0
   -2.7680    4.1324    0.3820 C   0  0  1  0  0  0  0  0  0  0  0  0
   -3.2830    4.9656   -0.5950 C   0  0  0  0  0  0  0  0  0  0  0  0
   -3.5416    4.1647    1.5744 O   0  0  0  0  0  0  0  0  0  0  0  0
  1  2  1  0
  3  2  1  6
  3  4  1  0
  4  5  1  0
  5  6  2  0
  5  7  1  0
  7  8  1  1
  7  9  1  0
  9 10  1  6
 11 10  1  6
 11 12  1  0
 12 13  1  0
 13 14  1  1
 13 15  1  0
 15 16  1  0
 13 17  1  0
 17 18  1  6
 17 19  1  0
 19 20  1  6
 19 21  1  0
  9 22  1  0
 22 23  1  6
 22 24  1  0
 24 25  1  6
 26 25  1  1
 26 27  1  0
 27 28  1  0
 28 29  1  1
 28 30  1  0
 30 31  1  0
 31 32  1  1
 32 33  1  0
 32 34  1  0
 31 35  1  0
 35 36  1  6
 24 37  1  0
 37 38  1  1
 37 39  1  0
 37 40  1  0
 40 41  1  0
 41 42  1  6
 41 43  1  0
 43 44  2  0
 43 45  1  0
 45 46  1  1
 45 47  1  0
 47 48  1  6
 47 49  1  0
 49 50  1  6
 49 51  1  0
 49  3  1  0
 21 11  1  0
 35 26  1  0
M  END
>  <zinc_id>  (1) 
ZINC000085534336

>  <smiles>  (1) 
CC[C@H]1OC(=O)[C@H](C)[C@@H](O[C@H]2C[C@@](C)(OC)[C@@H](O)[C@H](C)O2)[C@H](C)[C@@H](O[C@@H]2O[C@H](C)C[C@H](N(C)C)[C@H]2O)[C@](C)(O)C[C@@H](C)C(=O)[C@H](C)[C@@H](O)[C@]1(C)O

$$$$
