53232
  -OEChem-10051719103D

 65 67  0     1  0  0  0  0  0999 V2000
    2.0839   -0.8703    0.0288 O   0  0  0  0  0  0  0  0  0  0  0  0
   -3.6451    0.4837    0.7835 O   0  0  0  0  0  0  0  0  0  0  0  0
   -5.1942   -2.3787   -0.1945 O   0  0  0  0  0  0  0  0  0  0  0  0
    2.6187   -2.4733    1.5993 O   0  0  0  0  0  0  0  0  0  0  0  0
   -5.1382    0.7137    2.4512 O   0  0  0  0  0  0  0  0  0  0  0  0
    1.5235    1.4649    0.4638 C   0  0  1  0  0  0  0  0  0  0  0  0
    0.3206    1.3659   -0.5209 C   0  0  2  0  0  0  0  0  0  0  0  0
    1.9412    0.1007    1.0606 C   0  0  2  0  0  0  0  0  0  0  0  0
   -0.0709    2.7668   -1.0756 C   0  0  2  0  0  0  0  0  0  0  0  0
   -0.8861    0.6396    0.0838 C   0  0  0  0  0  0  0  0  0  0  0  0
    2.7012    2.1800   -0.1919 C   0  0  0  0  0  0  0  0  0  0  0  0
    3.2403    0.2199    1.8627 C   0  0  0  0  0  0  0  0  0  0  0  0
    4.4117    0.7942    1.0472 C   0  0  2  0  0  0  0  0  0  0  0  0
    3.9805    1.8653    0.0806 C   0  0  0  0  0  0  0  0  0  0  0  0
   -1.9932    0.4660   -0.9473 C   0  0  0  0  0  0  0  0  0  0  0  0
    1.1472    3.5272   -1.5323 C   0  0  0  0  0  0  0  0  0  0  0  0
    2.3939    3.2389   -1.1367 C   0  0  0  0  0  0  0  0  0  0  0  0
   -0.8662    3.6388   -0.0987 C   0  0  0  0  0  0  0  0  0  0  0  0
   -3.1826   -0.2777   -0.3533 C   0  0  2  0  0  0  0  0  0  0  0  0
    5.1883   -0.2964    0.3045 C   0  0  0  0  0  0  0  0  0  0  0  0
   -4.2749   -0.4865   -1.3919 C   0  0  0  0  0  0  0  0  0  0  0  0
   -5.4955   -1.0899   -0.7224 C   0  0  2  0  0  0  0  0  0  0  0  0
    2.4288   -2.1296    0.4397 C   0  0  0  0  0  0  0  0  0  0  0  0
   -5.9694   -0.1937    0.4051 C   0  0  0  0  0  0  0  0  0  0  0  0
    2.5732   -3.0439   -0.7650 C   0  0  2  0  0  0  0  0  0  0  0  0
   -4.8818    0.3313    1.3110 C   0  0  0  0  0  0  0  0  0  0  0  0
    1.2470   -3.7395   -1.1042 C   0  0  0  0  0  0  0  0  0  0  0  0
    3.6650   -4.0670   -0.4638 C   0  0  0  0  0  0  0  0  0  0  0  0
    0.1332   -2.7504   -1.4233 C   0  0  0  0  0  0  0  0  0  0  0  0
    1.2163    2.0966    1.3106 H   0  0  0  0  0  0  0  0  0  0  0  0
    0.6573    0.7695   -1.3837 H   0  0  0  0  0  0  0  0  0  0  0  0
    1.1524   -0.2380    1.7444 H   0  0  0  0  0  0  0  0  0  0  0  0
   -0.6825    2.6217   -1.9751 H   0  0  0  0  0  0  0  0  0  0  0  0
   -0.5971   -0.3512    0.4416 H   0  0  0  0  0  0  0  0  0  0  0  0
   -1.2440    1.1785    0.9682 H   0  0  0  0  0  0  0  0  0  0  0  0
    3.0376    0.9297    2.6792 H   0  0  0  0  0  0  0  0  0  0  0  0
    3.5636   -0.6851    2.3784 H   0  0  0  0  0  0  0  0  0  0  0  0
    5.1073    1.2528    1.7628 H   0  0  0  0  0  0  0  0  0  0  0  0
    4.7861    2.4064   -0.4131 H   0  0  0  0  0  0  0  0  0  0  0  0
   -2.3496    1.4393   -1.2981 H   0  0  0  0  0  0  0  0  0  0  0  0
   -1.6116   -0.0790   -1.8188 H   0  0  0  0  0  0  0  0  0  0  0  0
    0.9943    4.3477   -2.2289 H   0  0  0  0  0  0  0  0  0  0  0  0
    3.2170    3.8248   -1.5370 H   0  0  0  0  0  0  0  0  0  0  0  0
   -1.0533    4.6305   -0.5279 H   0  0  0  0  0  0  0  0  0  0  0  0
   -0.3297    3.7875    0.8443 H   0  0  0  0  0  0  0  0  0  0  0  0
   -1.8451    3.2103    0.1334 H   0  0  0  0  0  0  0  0  0  0  0  0
   -2.8390   -1.2464    0.0307 H   0  0  0  0  0  0  0  0  0  0  0  0
    5.4453   -1.1244    0.9733 H   0  0  0  0  0  0  0  0  0  0  0  0
    4.6326   -0.6969   -0.5482 H   0  0  0  0  0  0  0  0  0  0  0  0
    6.1280    0.1080   -0.0901 H   0  0  0  0  0  0  0  0  0  0  0  0
   -3.9060   -1.1465   -2.1854 H   0  0  0  0  0  0  0  0  0  0  0  0
   -4.5548    0.4705   -1.8493 H   0  0  0  0  0  0  0  0  0  0  0  0
   -6.3030   -1.2200   -1.4512 H   0  0  0  0  0  0  0  0  0  0  0  0
   -6.4767    0.6844   -0.0115 H   0  0  0  0  0  0  0  0  0  0  0  0
   -6.6812   -0.7428    1.0327 H   0  0  0  0  0  0  0  0  0  0  0  0
    2.9094   -2.4412   -1.6183 H   0  0  0  0  0  0  0  0  0  0  0  0
    1.3970   -4.3934   -1.9717 H   0  0  0  0  0  0  0  0  0  0  0  0
    0.9250   -4.3774   -0.2720 H   0  0  0  0  0  0  0  0  0  0  0  0
   -4.8840   -2.9314   -0.9319 H   0  0  0  0  0  0  0  0  0  0  0  0
    4.6036   -3.5712   -0.1929 H   0  0  0  0  0  0  0  0  0  0  0  0
    3.8574   -4.6955   -1.3397 H   0  0  0  0  0  0  0  0  0  0  0  0
    3.3855   -4.7245    0.3670 H   0  0  0  0  0  0  0  0  0  0  0  0
   -0.2127   -2.2535   -0.5161 H   0  0  0  0  0  0  0  0  0  0  0  0
   -0.7263   -3.2805   -1.8468 H   0  0  0  0  0  0  0  0  0  0  0  0
    0.4569   -1.9971   -2.1477 H   0  0  0  0  0  0  0  0  0  0  0  0
  1  8  1  0  0  0  0
  1 23  1  0  0  0  0
  2 19  1  0  0  0  0
  2 26  1  0  0  0  0
  3 22  1  0  0  0  0
  3 59  1  0  0  0  0
  4 23  2  0  0  0  0
  5 26  2  0  0  0  0
  6  7  1  0  0  0  0
  6  8  1  0  0  0  0
  6 11  1  0  0  0  0
  6 30  1  0  0  0  0
  7  9  1  0  0  0  0
  7 10  1  0  0  0  0
  7 31  1  0  0  0  0
  8 12  1  0  0  0  0
  8 32  1  0  0  0  0
  9 16  1  0  0  0  0
  9 18  1  0  0  0  0
  9 33  1  0  0  0  0
 10 15  1  0  0  0  0
 10 34  1  0  0  0  0
 10 35  1  0  0  0  0
 11 14  2  0  0  0  0
 11 17  1  0  0  0  0
 12 13  1  0  0  0  0
 12 36  1  0  0  0  0
 12 37  1  0  0  0  0
 13 14  1  0  0  0  0
 13 20  1  0  0  0  0
 13 38  1  0  0  0  0
 14 39  1  0  0  0  0
 15 19  1  0  0  0  0
 15 40  1  0  0  0  0
 15 41  1  0  0  0  0
 16 17  2  0  0  0  0
 16 42  1  0  0  0  0
 17 43  1  0  0  0  0
 18 44  1  0  0  0  0
 18 45  1  0  0  0  0
 18 46  1  0  0  0  0
 19 21  1  0  0  0  0
 19 47  1  0  0  0  0
 20 48  1  0  0  0  0
 20 49  1  0  0  0  0
 20 50  1  0  0  0  0
 21 22  1  0  0  0  0
 21 51  1  0  0  0  0
 21 52  1  0  0  0  0
 22 24  1  0  0  0  0
 22 53  1  0  0  0  0
 23 25  1  0  0  0  0
 24 26  1  0  0  0  0
 24 54  1  0  0  0  0
 24 55  1  0  0  0  0
 25 27  1  0  0  0  0
 25 28  1  0  0  0  0
 25 56  1  0  0  0  0
 27 29  1  0  0  0  0
 27 57  1  0  0  0  0
 27 58  1  0  0  0  0
 28 60  1  0  0  0  0
 28 61  1  0  0  0  0
 28 62  1  0  0  0  0
 29 63  1  0  0  0  0
 29 64  1  0  0  0  0
 29 65  1  0  0  0  0
M  END
> <DATABASE_ID>
DB00227

> <DATABASE_NAME>
drugbank

> <ORIGINAL_SOURCE>
PUBCHEM

> <ORIGINAL_SOURCE_URL>
https://pubchem.ncbi.nlm.nih.gov/rest/pug/compound/inchikey/PCZOHLXUXFIOCF-BXMDZJJMSA-N/SDF?record_type=3d

> <SMILES>
[H][C@]12[C@H](C[C@@H](C)C=C1C=C[C@H](C)[C@@H]2CC[C@@H]1C[C@@H](O)CC(=O)O1)OC(=O)[C@@H](C)CC

> <INCHI_IDENTIFIER>
InChI=1S/C24H36O5/c1-5-15(3)24(27)29-21-11-14(2)10-17-7-6-16(4)20(23(17)21)9-8-19-12-18(25)13-22(26)28-19/h6-7,10,14-16,18-21,23,25H,5,8-9,11-13H2,1-4H3/t14-,15-,16-,18+,19+,20-,21-,23-/m0/s1

> <INCHI_KEY>
PCZOHLXUXFIOCF-BXMDZJJMSA-N

> <FORMULA>
C24H36O5

> <MOLECULAR_WEIGHT>
404.5396

> <EXACT_MASS>
404.256274262

> <JCHEM_ACCEPTOR_COUNT>
3

> <JCHEM_ATOM_COUNT>
65

> <JCHEM_AVERAGE_NEUTRAL_MICROSPECIES_CHARGE>
-1.2028993232781207e-08

> <JCHEM_AVERAGE_POLARIZABILITY>
46.05853270513368

> <JCHEM_BIOAVAILABILITY>
1

> <JCHEM_DONOR_COUNT>
1

> <JCHEM_FORMAL_CHARGE>
0

> <JCHEM_GHOSE_FILTER>
1

> <JCHEM_IUPAC>
(1S,3R,7S,8S,8aR)-8-{2-[(2R,4R)-4-hydroxy-6-oxooxan-2-yl]ethyl}-3,7-dimethyl-1,2,3,7,8,8a-hexahydronaphthalen-1-yl (2S)-2-methylbutanoate

> <ALOGPS_LOGP>
4.11

> <JCHEM_LOGP>
3.9021869143333325

> <ALOGPS_LOGS>
-4.22

> <JCHEM_MDDR_LIKE_RULE>
1

> <JCHEM_NEUTRAL_CHARGE>
0

> <JCHEM_NUMBER_OF_RINGS>
3

> <JCHEM_PHYSIOLOGICAL_CHARGE>
0

> <JCHEM_PKA_STRONGEST_ACIDIC>
14.914537666911102

> <JCHEM_PKA_STRONGEST_BASIC>
-2.8361812244930835

> <JCHEM_POLAR_SURFACE_AREA>
72.83

> <JCHEM_REFRACTIVITY>
113.18239999999999

> <JCHEM_ROTATABLE_BOND_COUNT>
7

> <JCHEM_RULE_OF_FIVE>
1

> <ALOGPS_SOLUBILITY>
2.43e-02 g/l

> <JCHEM_TRADITIONAL_IUPAC>
biotin

> <JCHEM_VEBER_RULE>
0

$$$$
