
     RDKit          3D

 65 67  0  0  0  0  0  0  0  0999 V2000
   -9.0366    3.0559    0.1553 C   0  0  0  0  0  0  0  0  0  0  0  0
   -8.2229    2.0870    1.1397 C   0  0  2  0  0  0  0  0  0  0  0  0
   -6.8594    3.0696    1.3377 C   0  0  2  0  0  0  0  0  0  0  0  0
   -7.7047    4.2021    1.8299 O   0  0  0  0  0  0  0  0  0  0  0  0
   -6.7431    3.5126   -0.3049 C   0  0  1  0  0  0  0  0  0  0  0  0
   -7.2410    5.0523   -0.2035 C   0  0  0  0  0  0  0  0  0  0  0  0
   -5.2086    3.9047   -0.1412 C   0  0  0  0  0  0  0  0  0  0  0  0
   -4.8796    4.7270    0.8193 C   0  0  0  0  0  0  0  0  0  0  0  0
   -4.2921    6.0282    0.4929 C   0  0  0  0  0  0  0  0  0  0  0  0
   -3.6890    6.0998   -0.7096 C   0  0  0  0  0  0  0  0  0  0  0  0
   -2.3232    5.5615   -0.7095 C   0  0  0  0  0  0  0  0  0  0  0  0
   -1.5073    5.8562    0.3030 C   0  0  0  0  0  0  0  0  0  0  0  0
   -0.4531    4.8621    0.6209 C   0  0  0  0  0  0  0  0  0  0  0  0
    0.4526    5.0422   -0.3829 C   0  0  0  0  0  0  0  0  0  0  0  0
    1.8154    5.2307    0.0316 C   0  0  0  0  0  0  0  0  0  0  0  0
    2.3817    4.2950    0.7338 C   0  0  0  0  0  0  0  0  0  0  0  0
    2.1472    2.8764    0.8293 C   0  0  0  0  0  0  0  0  0  0  0  0
    1.5690    2.3835   -0.2428 C   0  0  0  0  0  0  0  0  0  0  0  0
    2.3578    1.4294   -0.9885 C   0  0  0  0  0  0  0  0  0  0  0  0
    3.3285    0.6779   -0.5893 C   0  0  0  0  0  0  0  0  0  0  0  0
    3.9367    0.9458    0.8817 C   0  0  2  0  0  0  0  0  0  0  0  0
    5.3688    0.6345    0.5133 O   0  0  0  0  0  0  0  0  0  0  0  0
    5.7284    1.6960   -0.5063 C   0  0  2  0  0  0  0  0  0  0  0  0
    7.1439    1.1709   -0.5741 O   0  0  0  0  0  0  0  0  0  0  0  0
    7.4707    2.1899   -1.6142 C   0  0  2  0  0  0  0  0  0  0  0  0
    8.9081    1.4377   -1.9359 C   0  0  0  0  0  0  0  0  0  0  0  0
    8.2868    3.3078   -0.6322 C   0  0  1  0  0  0  0  0  0  0  0  0
    7.2684    4.3740   -0.9533 O   0  0  0  0  0  0  0  0  0  0  0  0
    7.6301    3.0426    0.9043 C   0  0  2  0  0  0  0  0  0  0  0  0
    7.9430    1.5409    1.1293 N   0  0  0  0  0  0  0  0  0  0  0  0
    5.9756    3.0131    0.5669 C   0  0  2  0  0  0  0  0  0  0  0  0
    5.7493    2.2798    1.8669 O   0  0  0  0  0  0  0  0  0  0  0  0
    3.6998   -0.6004    1.4007 C   0  0  0  0  0  0  0  0  0  0  0  0
    4.0355   -1.5253    0.0959 C   0  0  2  0  0  0  0  0  0  0  0  0
    2.6150   -2.0545    0.1864 O   0  0  0  0  0  0  0  0  0  0  0  0
    2.5585   -3.1289   -0.6846 C   0  0  2  0  0  0  0  0  0  0  0  0
    3.4381   -2.8195   -1.7562 O   0  0  0  0  0  0  0  0  0  0  0  0
    1.2272   -3.3245   -1.2047 C   0  0  0  0  0  0  0  0  0  0  0  0
    0.8709   -4.8973   -1.5138 C   0  0  1  0  0  0  0  0  0  0  0  0
    2.2885   -5.4313   -1.4986 O   0  0  0  0  0  0  0  0  0  0  0  0
    0.6071   -5.1887    0.0969 C   0  0  0  0  0  0  0  0  0  0  0  0
   -0.9805   -4.9316   -0.2445 C   0  0  1  0  0  0  0  0  0  0  0  0
   -1.2805   -6.4088   -0.1797 O   0  0  0  0  0  0  0  0  0  0  0  0
   -1.4709   -4.5535    1.3649 C   0  0  2  0  0  0  0  0  0  0  0  0
   -0.7793   -5.7168    2.0242 O   0  0  0  0  0  0  0  0  0  0  0  0
   -2.8704   -5.3849    1.1887 C   0  0  0  0  0  0  0  0  0  0  0  0
   -3.4195   -4.9634   -0.1768 C   0  0  0  0  0  0  0  0  0  0  0  0
   -4.9614   -4.6643    0.2950 C   0  0  1  0  0  0  0  0  0  0  0  0
   -4.5194   -3.6202    1.3069 O   0  0  0  0  0  0  0  0  0  0  0  0
   -5.1840   -3.4947   -0.8412 C   0  0  0  0  0  0  0  0  0  0  0  0
   -6.8119   -3.2746   -0.7240 C   0  0  1  0  0  0  0  0  0  0  0  0
   -6.8408   -3.4635    0.7816 O   0  0  0  0  0  0  0  0  0  0  0  0
   -6.6589   -1.6470   -0.5516 C   0  0  0  0  0  0  0  0  0  0  0  0
   -7.9246   -1.3226    0.1586 C   0  0  0  0  0  0  0  0  0  0  0  0
   -8.7091   -2.1748    0.6815 O   0  0  0  0  0  0  0  0  0  0  0  0
   -7.8211   -0.1110    0.8209 O   0  0  0  0  0  0  0  0  0  0  0  0
   -7.4617    1.1101   -0.0197 C   0  0  1  0  0  0  0  0  0  0  0  0
   -8.7896    0.9637   -0.9637 C   0  0  0  0  0  0  0  0  0  0  0  0
    3.1014   -4.1788    0.2493 C   0  0  0  0  0  0  0  0  0  0  0  0
    4.7002   -3.9675   -0.0374 C   0  0  2  0  0  0  0  0  0  0  0  0
    5.0379   -4.9824    1.0412 O   0  0  0  0  0  0  0  0  0  0  0  0
    4.8082   -2.6890    1.0638 C   0  0  1  0  0  0  0  0  0  0  0  0
    6.2459   -2.2355    0.5862 C   0  0  0  0  0  0  0  0  0  0  0  0
    6.9987   -2.0274    1.5958 O   0  0  0  0  0  0  0  0  0  0  0  0
    6.9490   -2.8782   -0.3868 O   0  0  0  0  0  0  0  0  0  0  0  0
  2  1  1  6
  2  3  1  0
  3  4  1  1
  3  5  1  0
  5  6  1  1
  5  7  1  0
  7  8  2  0
  8  9  1  0
  9 10  2  0
 10 11  1  0
 11 12  2  0
 12 13  1  0
 13 14  2  0
 14 15  1  0
 15 16  2  0
 16 17  1  0
 17 18  2  0
 18 19  1  0
 19 20  2  0
 20 21  1  0
 21 22  1  6
 23 22  1  1
 23 24  1  0
 24 25  1  0
 25 26  1  6
 25 27  1  0
 27 28  1  6
 27 29  1  0
 29 30  1  6
 29 31  1  0
 31 32  1  1
 21 33  1  0
 34 33  1  1
 34 35  1  0
 35 36  1  0
 36 37  1  6
 36 38  1  0
 38 39  1  0
 39 40  1  1
 39 41  1  0
 41 42  1  0
 42 43  1  1
 42 44  1  0
 44 45  1  1
 44 46  1  0
 46 47  1  0
 47 48  1  0
 48 49  1  1
 48 50  1  0
 50 51  1  0
 51 52  1  1
 51 53  1  0
 53 54  1  0
 54 55  2  0
 54 56  1  0
 56 57  1  0
 57 58  1  6
 36 59  1  0
 59 60  1  0
 60 61  1  1
 60 62  1  0
 62 63  1  6
 63 64  2  0
 63 65  1  0
 57  2  1  0
 31 23  1  0
 62 34  1  0
M  END
>  <zinc_id>  (1) 
ZINC000253387843

>  <smiles>  (1) 
C[C@@H]1OC(=O)C[C@H](O)C[C@H](O)CC[C@@H](O)[C@H](O)C[C@H](O)C[C@]2(O)C[C@H](O)[C@@H](C(=O)O)[C@H](C[C@@H](O[C@@H]3O[C@H](C)[C@@H](O)[C@H](N)[C@@H]3O)/C=C/C=C/C=C/C=C/C=C/C=C/C=C/[C@H](C)[C@@H](O)[C@H]1C)O2

$$$$
