
     RDKit          3D

 65 68  0  0  0  0  0  0  0  0999 V2000
    6.9939    4.3377    1.1124 C   0  0  0  0  0  0  0  0  0  0  0  0
    6.0261    4.3750    1.9375 O   0  0  0  0  0  0  0  0  0  0  0  0
    6.1445    3.1261    2.7953 C   0  0  2  0  0  0  0  0  0  0  0  0
    6.3233    2.2754    1.4343 C   0  0  0  0  0  0  0  0  0  0  0  0
    6.0480    0.7159    1.7136 C   0  0  2  0  0  0  0  0  0  0  0  0
    5.7474    0.5785    0.1015 C   0  0  0  0  0  0  0  0  0  0  0  0
    4.4368    1.4838   -0.1453 C   0  0  1  0  0  0  0  0  0  0  0  0
    5.0880    2.1925   -1.4394 C   0  0  0  0  0  0  0  0  0  0  0  0
    3.5885    0.3319   -1.0843 C   0  0  2  0  0  0  0  0  0  0  0  0
    2.8280    1.4879   -1.9490 C   0  0  0  0  0  0  0  0  0  0  0  0
    1.3955    1.4024   -1.8590 C   0  0  0  0  0  0  0  0  0  0  0  0
    0.7749    0.6553   -2.6155 O   0  0  0  0  0  0  0  0  0  0  0  0
    0.8475    2.8737   -2.2855 C   0  0  2  0  0  0  0  0  0  0  0  0
    1.4641    3.5971   -0.9497 C   0  0  0  0  0  0  0  0  0  0  0  0
   -0.6129    2.6587   -1.6894 C   0  0  0  0  0  0  0  0  0  0  0  0
   -1.3078    3.1316   -0.8421 C   0  0  0  0  0  0  0  0  0  0  0  0
   -1.9179    2.2361    0.2188 C   0  0  0  0  0  0  0  0  0  0  0  0
   -1.6475    4.6666   -0.4993 C   0  0  1  0  0  0  0  0  0  0  0  0
   -1.0565    5.1966   -1.7920 O   0  0  0  0  0  0  0  0  0  0  0  0
   -3.2537    4.7696   -1.1725 C   0  0  1  0  0  0  0  0  0  0  0  0
   -3.1140    3.5765   -2.0867 O   0  0  0  0  0  0  0  0  0  0  0  0
   -3.1673    4.1337   -3.3692 C   0  0  0  0  0  0  0  0  0  0  0  0
   -3.9294    3.9531    0.0414 C   0  0  0  0  0  0  0  0  0  0  0  0
   -3.8953    4.4079    1.0949 O   0  0  0  0  0  0  0  0  0  0  0  0
   -5.0301    2.9079   -0.4608 C   0  0  2  0  0  0  0  0  0  0  0  0
   -5.8178    4.0133   -1.3810 C   0  0  0  0  0  0  0  0  0  0  0  0
   -6.0355    3.1473    0.7939 C   0  0  0  0  0  0  0  0  0  0  0  0
   -6.2892    1.6692    1.4359 C   0  0  2  0  0  0  0  0  0  0  0  0
   -5.1909    1.9410    2.6231 C   0  0  0  0  0  0  0  0  0  0  0  0
   -5.2223    0.8342    0.5728 C   0  0  0  0  0  0  0  0  0  0  0  0
   -5.7464   -0.0537   -0.2634 C   0  0  0  0  0  0  0  0  0  0  0  0
   -5.6320   -1.4399    0.2221 C   0  0  0  0  0  0  0  0  0  0  0  0
   -6.3855   -1.6653    1.2700 C   0  0  0  0  0  0  0  0  0  0  0  0
   -5.4956   -1.9454    2.4123 C   0  0  0  0  0  0  0  0  0  0  0  0
   -4.7558   -3.0626    2.4595 C   0  0  0  0  0  0  0  0  0  0  0  0
   -5.1809   -3.8217    3.6875 C   0  0  0  0  0  0  0  0  0  0  0  0
   -3.1875   -2.6241    2.3750 C   0  0  1  0  0  0  0  0  0  0  0  0
   -2.7268   -3.2825    3.6715 O   0  0  0  0  0  0  0  0  0  0  0  0
   -2.6573   -4.5863    3.5508 C   0  0  0  0  0  0  0  0  0  0  0  0
   -2.7557   -3.9229    1.4278 C   0  0  0  0  0  0  0  0  0  0  0  0
   -1.6251   -3.1292    0.5216 C   0  0  2  0  0  0  0  0  0  0  0  0
   -2.5788   -3.2802   -0.8133 C   0  0  0  0  0  0  0  0  0  0  0  0
   -1.8148   -3.0219   -2.0294 C   0  0  0  0  0  0  0  0  0  0  0  0
   -0.9291   -4.4028   -1.9807 C   0  0  1  0  0  0  0  0  0  0  0  0
   -0.0246   -3.9458   -3.2540 C   0  0  0  0  0  0  0  0  0  0  0  0
    0.1147   -3.9461   -0.7642 C   0  0  1  0  0  0  0  0  0  0  0  0
   -0.1292   -2.6606   -0.9190 O   0  0  0  0  0  0  0  0  0  0  0  0
   -0.7819   -4.3722    0.2461 O   0  0  0  0  0  0  0  0  0  0  0  0
    1.2364   -4.7211   -1.0697 C   0  0  0  0  0  0  0  0  0  0  0  0
    1.0665   -6.0005   -1.0650 O   0  0  0  0  0  0  0  0  0  0  0  0
    2.2519   -4.0587   -1.9044 C   0  0  0  0  0  0  0  0  0  0  0  0
    2.8870   -4.7733   -2.7396 O   0  0  0  0  0  0  0  0  0  0  0  0
    2.3209   -2.6024   -1.8927 N   0  0  0  0  0  0  0  0  0  0  0  0
    3.4178   -2.2146   -2.7250 C   0  0  0  0  0  0  0  0  0  0  0  0
    4.6814   -3.0045   -2.4469 C   0  0  0  0  0  0  0  0  0  0  0  0
    4.6911   -3.0914   -0.9226 C   0  0  0  0  0  0  0  0  0  0  0  0
    3.9134   -2.0179   -0.3271 C   0  0  0  0  0  0  0  0  0  0  0  0
    2.3271   -2.3855   -0.3209 C   0  0  1  0  0  0  0  0  0  0  0  0
    1.8184   -0.8524   -0.1954 C   0  0  0  0  0  0  0  0  0  0  0  0
    1.1739   -0.8849    0.9287 O   0  0  0  0  0  0  0  0  0  0  0  0
    2.5079    0.2249   -0.0371 O   0  0  0  0  0  0  0  0  0  0  0  0
    4.4760    0.8083    2.1605 C   0  0  0  0  0  0  0  0  0  0  0  0
    4.5674    1.4761    3.4829 C   0  0  0  0  0  0  0  0  0  0  0  0
    4.4261    2.9689    2.8205 C   0  0  1  0  0  0  0  0  0  0  0  0
    4.3110    3.6159    4.1788 O   0  0  0  0  0  0  0  0  0  0  0  0
  1  2  1  0
  3  2  1  6
  3  4  1  0
  4  5  1  0
  5  6  1  6
  7  6  1  1
  7  8  1  0
  7  9  1  0
  9 10  1  6
 10 11  1  0
 11 12  2  0
 11 13  1  0
 13 14  1  1
 13 15  1  0
 15 16  2  0
 16 17  1  0
 16 18  1  0
 18 19  1  6
 18 20  1  0
 20 21  1  6
 21 22  1  0
 20 23  1  0
 23 24  2  0
 23 25  1  0
 25 26  1  6
 25 27  1  0
 27 28  1  0
 28 29  1  1
 28 30  1  0
 30 31  2  0
 31 32  1  0
 32 33  2  0
 33 34  1  0
 34 35  2  0
 35 36  1  0
 35 37  1  0
 37 38  1  1
 38 39  1  0
 37 40  1  0
 41 40  1  1
 41 42  1  0
 42 43  1  0
 43 44  1  0
 44 45  1  6
 44 46  1  0
 46 47  1  1
 46 48  1  0
 46 49  1  0
 49 50  2  0
 49 51  1  0
 51 52  2  0
 51 53  1  0
 53 54  1  0
 54 55  1  0
 55 56  1  0
 56 57  1  0
 58 57  1  6
 58 59  1  0
 59 60  2  0
 59 61  1  0
  5 62  1  0
 62 63  1  0
 63 64  1  0
 64 65  1  1
 64  3  1  0
 61  9  1  0
 48 41  1  0
 58 53  1  0
M  END
>  <zinc_id>  (1) 
ZINC000169289388

>  <smiles>  (1) 
CO[C@H]1C[C@@H]2CC[C@@H](C)[C@@](O)(O2)C(=O)C(=O)N2CCCC[C@H]2C(=O)O[C@H]([C@H](C)C[C@@H]2CC[C@@H](O)[C@H](OC)C2)CC(=O)[C@H](C)/C=C(\C)[C@@H](O)[C@@H](OC)C(=O)[C@H](C)C[C@H](C)/C=C/C=C/C=C/1C

$$$$
