
     RDKit          3D

 52 54  0  0  0  0  0  0  0  0999 V2000
    5.1894    2.6780   -1.4255 C   0  0  0  0  0  0  0  0  0  0  0  0
    4.5453    1.8563   -1.4649 C   0  0  0  0  0  0  0  0  0  0  0  0
    4.0222    1.6900    0.0870 C   0  0  1  0  0  0  0  0  0  0  0  0
    2.7671    0.8964   -0.3309 O   0  0  0  0  0  0  0  0  0  0  0  0
    1.9695    0.9869    0.7134 C   0  0  0  0  0  0  0  0  0  0  0  0
    1.4685    0.3244    1.6161 O   0  0  0  0  0  0  0  0  0  0  0  0
    1.0799    2.2207    0.3008 C   0  0  2  0  0  0  0  0  0  0  0  0
    1.0777    2.6926    1.8617 C   0  0  0  0  0  0  0  0  0  0  0  0
   -0.3638    1.2945    0.3506 C   0  0  1  0  0  0  0  0  0  0  0  0
   -1.0108    2.2753   -0.5762 O   0  0  0  0  0  0  0  0  0  0  0  0
   -0.8339    3.5864    0.1971 C   0  0  1  0  0  0  0  0  0  0  0  0
   -1.8781    4.3452   -0.8433 C   0  0  0  0  0  0  0  0  0  0  0  0
   -2.6037    5.3333   -0.2971 C   0  0  1  0  0  0  0  0  0  0  0  0
   -2.0393    6.7553   -0.4881 C   0  0  0  0  0  0  0  0  0  0  0  0
   -3.7702    5.4450   -1.0910 O   0  0  0  0  0  0  0  0  0  0  0  0
   -4.5538    6.4463   -0.5124 C   0  0  0  0  0  0  0  0  0  0  0  0
   -3.3289    5.2957    1.1447 C   0  0  1  0  0  0  0  0  0  0  0  0
   -4.1419    4.0580    0.8340 O   0  0  0  0  0  0  0  0  0  0  0  0
   -2.1388    4.4082    2.0349 C   0  0  2  0  0  0  0  0  0  0  0  0
   -0.9568    5.4030    1.4821 C   0  0  0  0  0  0  0  0  0  0  0  0
   -2.0111    3.2487    1.0934 O   0  0  0  0  0  0  0  0  0  0  0  0
    0.1131    0.1541   -0.8105 C   0  0  2  0  0  0  0  0  0  0  0  0
   -1.1297    0.3825   -1.8014 C   0  0  0  0  0  0  0  0  0  0  0  0
   -0.4720   -1.2170    0.0322 C   0  0  1  0  0  0  0  0  0  0  0  0
   -1.5595   -1.5938   -0.9558 O   0  0  0  0  0  0  0  0  0  0  0  0
   -2.8111   -1.5881   -0.0899 C   0  0  2  0  0  0  0  0  0  0  0  0
   -2.2281   -2.6343    0.8514 O   0  0  0  0  0  0  0  0  0  0  0  0
   -3.5525   -2.3375    1.5540 C   0  0  2  0  0  0  0  0  0  0  0  0
   -2.9412   -2.7110    3.0324 C   0  0  0  0  0  0  0  0  0  0  0  0
   -3.9292   -3.8822    1.1508 C   0  0  0  0  0  0  0  0  0  0  0  0
   -4.7620   -3.3672   -0.1534 C   0  0  2  0  0  0  0  0  0  0  0  0
   -4.7131   -4.7691   -0.8437 N   0  0  0  0  0  0  0  0  0  0  0  0
   -3.8818   -4.8319   -1.9574 C   0  0  0  0  0  0  0  0  0  0  0  0
   -4.5238   -5.8131    0.0570 C   0  0  0  0  0  0  0  0  0  0  0  0
   -3.5138   -2.7560   -1.1357 C   0  0  1  0  0  0  0  0  0  0  0  0
   -4.4693   -1.6817   -1.5956 O   0  0  0  0  0  0  0  0  0  0  0  0
    0.5430   -2.3520   -0.5241 C   0  0  2  0  0  0  0  0  0  0  0  0
   -0.0882   -3.2301   -1.5419 C   0  0  0  0  0  0  0  0  0  0  0  0
    0.5457   -3.1464    0.6502 O   0  0  0  0  0  0  0  0  0  0  0  0
    1.0308   -2.4814    1.7642 C   0  0  0  0  0  0  0  0  0  0  0  0
    1.8567   -2.1307   -0.8831 C   0  0  0  0  0  0  0  0  0  0  0  0
    2.8470   -3.1709   -0.0749 C   0  0  1  0  0  0  0  0  0  0  0  0
    2.3426   -4.4728   -0.9295 C   0  0  0  0  0  0  0  0  0  0  0  0
    4.1498   -2.9702   -0.9851 C   0  0  0  0  0  0  0  0  0  0  0  0
    4.0237   -2.7756   -2.1340 O   0  0  0  0  0  0  0  0  0  0  0  0
    5.2394   -1.9814   -0.3663 C   0  0  2  0  0  0  0  0  0  0  0  0
    5.3340   -2.7899    1.0362 C   0  0  0  0  0  0  0  0  0  0  0  0
    3.9961   -0.8742    0.0284 C   0  0  1  0  0  0  0  0  0  0  0  0
    3.7843   -1.3791    1.4425 O   0  0  0  0  0  0  0  0  0  0  0  0
    4.9672    0.3766    0.4133 C   0  0  1  0  0  0  0  0  0  0  0  0
    6.1462    0.3803   -0.3968 C   0  0  0  0  0  0  0  0  0  0  0  0
    5.1674    0.4039    1.7413 O   0  0  0  0  0  0  0  0  0  0  0  0
  1  2  1  0
  3  2  1  6
  3  4  1  0
  4  5  1  0
  5  6  2  0
  5  7  1  0
  7  8  1  1
  7  9  1  0
  9 10  1  6
 11 10  1  6
 11 12  1  0
 12 13  1  0
 13 14  1  1
 13 15  1  0
 15 16  1  0
 13 17  1  0
 17 18  1  6
 17 19  1  0
 19 20  1  6
 19 21  1  0
  9 22  1  0
 22 23  1  6
 22 24  1  0
 24 25  1  6
 26 25  1  6
 26 27  1  0
 27 28  1  0
 28 29  1  1
 28 30  1  0
 30 31  1  0
 31 32  1  6
 32 33  1  0
 32 34  1  0
 31 35  1  0
 35 36  1  6
 24 37  1  0
 37 38  1  6
 37 39  1  0
 39 40  1  0
 37 41  1  0
 41 42  1  0
 42 43  1  6
 42 44  1  0
 44 45  2  0
 44 46  1  0
 46 47  1  1
 46 48  1  0
 48 49  1  1
 48 50  1  0
 50 51  1  6
 50 52  1  0
 50  3  1  0
 21 11  1  0
 35 26  1  0
M  END
>  <zinc_id>  (1) 
ZINC000085534098

>  <smiles>  (1) 
CC[C@H]1OC(=O)[C@H](C)[C@@H](O[C@H]2C[C@@](C)(OC)[C@@H](O)[C@H](C)O2)[C@H](C)[C@@H](O[C@@H]2O[C@H](C)C[C@H](N(C)C)[C@H]2O)[C@](C)(OC)C[C@@H](C)C(=O)[C@H](C)[C@@H](O)[C@]1(C)O

$$$$
