
     RDKit          3D

 68 71  0  0  0  0  0  0  0  0999 V2000
    7.8778    0.3557   -1.4744 C   0  0  0  0  0  0  0  0  0  0  0  0
    7.4836   -0.4007   -0.7692 O   0  0  0  0  0  0  0  0  0  0  0  0
    6.2124    0.1200   -0.1427 C   0  0  2  0  0  0  0  0  0  0  0  0
    5.7275    0.7729   -1.5580 C   0  0  0  0  0  0  0  0  0  0  0  0
    4.3287    1.4061   -0.9912 C   0  0  2  0  0  0  0  0  0  0  0  0
    3.7979    1.6817   -2.4922 C   0  0  0  0  0  0  0  0  0  0  0  0
    2.2175    1.9481   -2.4380 C   0  0  1  0  0  0  0  0  0  0  0  0
    1.9797    1.2334   -3.8838 C   0  0  0  0  0  0  0  0  0  0  0  0
    1.6020    0.5529   -1.6495 C   0  0  2  0  0  0  0  0  0  0  0  0
    1.8297    1.2950   -0.1991 C   0  0  0  0  0  0  0  0  0  0  0  0
    1.1405    2.6202   -0.3296 C   0  0  0  0  0  0  0  0  0  0  0  0
    1.6710    3.6939   -0.1913 O   0  0  0  0  0  0  0  0  0  0  0  0
   -0.3684    2.7305    0.2110 C   0  0  2  0  0  0  0  0  0  0  0  0
   -0.8490    1.4291   -0.6573 C   0  0  0  0  0  0  0  0  0  0  0  0
   -0.8009    3.7658   -0.9510 C   0  0  0  0  0  0  0  0  0  0  0  0
   -1.4890    4.8112   -0.5890 C   0  0  0  0  0  0  0  0  0  0  0  0
   -0.9482    6.1816   -0.8998 C   0  0  0  0  0  0  0  0  0  0  0  0
   -3.0560    4.9053   -0.9619 C   0  0  1  0  0  0  0  0  0  0  0  0
   -3.2611    3.4094   -0.9101 O   0  0  0  0  0  0  0  0  0  0  0  0
   -3.4607    5.0414    0.7118 C   0  0  1  0  0  0  0  0  0  0  0  0
   -3.5527    6.5457    0.6001 O   0  0  0  0  0  0  0  0  0  0  0  0
   -4.3076    6.8615   -0.4872 C   0  0  0  0  0  0  0  0  0  0  0  0
   -5.0367    4.8471    0.4688 C   0  0  0  0  0  0  0  0  0  0  0  0
   -5.4142    4.1619   -0.4329 O   0  0  0  0  0  0  0  0  0  0  0  0
   -5.7692    4.2518    1.7678 C   0  0  2  0  0  0  0  0  0  0  0  0
   -5.1129    5.3417    2.7916 C   0  0  0  0  0  0  0  0  0  0  0  0
   -4.6144    3.1345    2.0685 C   0  0  0  0  0  0  0  0  0  0  0  0
   -5.6123    1.9251    2.5273 C   0  0  2  0  0  0  0  0  0  0  0  0
   -4.4123    1.1110    3.2823 C   0  0  0  0  0  0  0  0  0  0  0  0
   -5.3835    1.1253    1.1561 C   0  0  0  0  0  0  0  0  0  0  0  0
   -6.4865    0.7545    0.5534 C   0  0  0  0  0  0  0  0  0  0  0  0
   -7.1846   -0.4907    0.7784 C   0  0  0  0  0  0  0  0  0  0  0  0
   -6.8688   -1.2021    1.8486 C   0  0  0  0  0  0  0  0  0  0  0  0
   -6.8723   -2.6382    1.5347 C   0  0  0  0  0  0  0  0  0  0  0  0
   -5.8767   -3.0481    0.7382 C   0  0  0  0  0  0  0  0  0  0  0  0
   -6.0656   -4.4830    0.3893 C   0  0  0  0  0  0  0  0  0  0  0  0
   -4.4305   -2.5992    1.3199 C   0  0  1  0  0  0  0  0  0  0  0  0
   -4.6482   -3.4162    2.5852 O   0  0  0  0  0  0  0  0  0  0  0  0
   -3.3937   -3.5058    3.1347 C   0  0  0  0  0  0  0  0  0  0  0  0
   -3.5642   -3.8217    0.6299 C   0  0  0  0  0  0  0  0  0  0  0  0
   -2.4158   -2.9561   -0.1795 C   0  0  2  0  0  0  0  0  0  0  0  0
   -2.6056   -3.9510   -1.4827 C   0  0  0  0  0  0  0  0  0  0  0  0
   -2.2225   -5.2894   -1.0243 C   0  0  0  0  0  0  0  0  0  0  0  0
   -0.5997   -5.3896   -1.0713 C   0  0  1  0  0  0  0  0  0  0  0  0
   -0.5682   -5.0088   -2.6578 C   0  0  0  0  0  0  0  0  0  0  0  0
   -0.2487   -3.8829   -0.4818 C   0  0  1  0  0  0  0  0  0  0  0  0
   -0.4157   -3.0497   -1.3947 O   0  0  0  0  0  0  0  0  0  0  0  0
   -1.2947   -3.7470    0.4583 O   0  0  0  0  0  0  0  0  0  0  0  0
    0.8628   -4.3359    0.3248 C   0  0  0  0  0  0  0  0  0  0  0  0
    0.6958   -4.9722    1.4164 O   0  0  0  0  0  0  0  0  0  0  0  0
    2.0956   -4.6785   -0.3986 C   0  0  0  0  0  0  0  0  0  0  0  0
    2.8592   -5.6450   -0.0860 O   0  0  0  0  0  0  0  0  0  0  0  0
    2.3890   -3.7735   -1.4789 N   0  0  0  0  0  0  0  0  0  0  0  0
    3.5627   -4.0703   -2.1845 C   0  0  0  0  0  0  0  0  0  0  0  0
    4.6890   -3.8660   -1.1751 C   0  0  0  0  0  0  0  0  0  0  0  0
    4.5213   -2.3750   -0.8889 C   0  0  0  0  0  0  0  0  0  0  0  0
    3.3102   -2.1681   -0.0535 C   0  0  0  0  0  0  0  0  0  0  0  0
    1.9764   -2.3303   -1.0130 C   0  0  1  0  0  0  0  0  0  0  0  0
    2.6552   -1.5299   -2.2248 C   0  0  0  0  0  0  0  0  0  0  0  0
    2.9668   -2.0133   -3.2696 O   0  0  0  0  0  0  0  0  0  0  0  0
    2.8738   -0.2804   -1.7029 O   0  0  0  0  0  0  0  0  0  0  0  0
    5.0954    2.8225   -0.7092 C   0  0  0  0  0  0  0  0  0  0  0  0
    5.6384    2.3581    0.6491 C   0  0  0  0  0  0  0  0  0  0  0  0
    7.0320    1.5607    0.3348 C   0  0  1  0  0  0  0  0  0  0  0  0
    7.1181    0.9963    1.7275 O   0  0  0  0  0  0  0  0  0  0  0  0
    7.5818    1.9519    2.5785 C   0  0  0  0  0  0  0  0  0  0  0  0
    7.3479    1.3134    3.9466 C   0  0  0  0  0  0  0  0  0  0  0  0
    8.0720    1.9012    4.9513 O   0  0  0  0  0  0  0  0  0  0  0  0
  1  2  1  0
  3  2  1  6
  3  4  1  0
  4  5  1  0
  5  6  1  6
  7  6  1  1
  7  8  1  0
  7  9  1  0
  9 10  1  1
 10 11  1  0
 11 12  2  0
 11 13  1  0
 13 14  1  6
 13 15  1  0
 15 16  2  0
 16 17  1  0
 16 18  1  0
 18 19  1  1
 18 20  1  0
 20 21  1  6
 21 22  1  0
 20 23  1  0
 23 24  2  0
 23 25  1  0
 25 26  1  1
 25 27  1  0
 27 28  1  0
 28 29  1  1
 28 30  1  0
 30 31  2  0
 31 32  1  0
 32 33  2  0
 33 34  1  0
 34 35  2  0
 35 36  1  0
 35 37  1  0
 37 38  1  1
 38 39  1  0
 37 40  1  0
 41 40  1  1
 41 42  1  0
 42 43  1  0
 43 44  1  0
 44 45  1  6
 44 46  1  0
 46 47  1  6
 46 48  1  0
 46 49  1  0
 49 50  2  0
 49 51  1  0
 51 52  2  0
 51 53  1  0
 53 54  1  0
 54 55  1  0
 55 56  1  0
 56 57  1  0
 58 57  1  1
 58 59  1  0
 59 60  2  0
 59 61  1  0
  5 62  1  0
 62 63  1  0
 63 64  1  0
 64 65  1  1
 65 66  1  0
 66 67  1  0
 67 68  1  0
 64  3  1  0
 61  9  1  0
 48 41  1  0
 58 53  1  0
M  END
>  <zinc_id>  (1) 
ZINC000169677008

>  <smiles>  (1) 
CO[C@H]1C[C@@H]2CC[C@@H](C)[C@@](O)(O2)C(=O)C(=O)N2CCCC[C@H]2C(=O)O[C@H]([C@H](C)C[C@@H]2CC[C@@H](OCCO)[C@H](OC)C2)CC(=O)[C@H](C)/C=C(\C)[C@@H](O)[C@@H](OC)C(=O)[C@H](C)C[C@H](C)/C=C/C=C/C=C/1C

$$$$
