445420
  -OEChem-12131919453D

 60 62  0     1  0  0  0  0  0999 V2000
   -5.2555   -1.9974    0.0675 S   0  0  0  0  0  0  0  0  0  0  0  0
   -1.6226   -0.0617   -0.7533 O   0  0  0  0  0  0  0  0  0  0  0  0
   -0.5723   -0.9823    1.1711 O   0  0  0  0  0  0  0  0  0  0  0  0
    1.7042   -1.5305   -0.6424 O   0  0  0  0  0  0  0  0  0  0  0  0
   -5.4691   -0.3447    2.1141 O   0  0  0  0  0  0  0  0  0  0  0  0
    2.3202   -3.7281   -0.9654 O   0  0  0  0  0  0  0  0  0  0  0  0
   -3.3326   -0.9044    1.3627 N   0  0  0  0  0  0  0  0  0  0  0  0
   -1.3262   -1.2502   -0.0113 C   0  0  2  0  0  0  0  0  0  0  0  0
   -0.4657    0.6005   -1.2682 C   0  0  1  0  0  0  0  0  0  0  0  0
   -0.6172   -2.2667   -0.9194 C   0  0  0  0  0  0  0  0  0  0  0  0
    0.6263   -1.6786   -1.5967 C   0  0  1  0  0  0  0  0  0  0  0  0
    0.3052   -0.3203   -2.2218 C   0  0  0  0  0  0  0  0  0  0  0  0
   -2.6602   -1.8114    0.4557 C   0  0  2  0  0  0  0  0  0  0  0  0
   -0.9199    1.8692   -2.0095 C   0  0  0  0  0  0  0  0  0  0  0  0
   -3.6124   -2.0716   -0.7038 C   0  0  0  0  0  0  0  0  0  0  0  0
   -1.7489    2.8561   -1.1684 C   0  0  0  0  0  0  0  0  0  0  0  0
   -1.0227    3.4680    0.0463 C   0  0  2  0  0  0  0  0  0  0  0  0
   -4.7097   -0.9364    1.3623 C   0  0  0  0  0  0  0  0  0  0  0  0
   -1.9742    4.3912    0.8151 C   0  0  0  0  0  0  0  0  0  0  0  0
    2.4776   -2.6301   -0.4434 C   0  0  0  0  0  0  0  0  0  0  0  0
    0.2012    4.2529   -0.3743 C   0  0  0  0  0  0  0  0  0  0  0  0
    3.5437   -2.4238    0.5613 C   0  0  0  0  0  0  0  0  0  0  0  0
    1.4908    3.9481   -0.1549 C   0  0  0  0  0  0  0  0  0  0  0  0
    4.2584   -1.3234    0.8615 C   0  0  0  0  0  0  0  0  0  0  0  0
    4.1365    0.0389    0.2155 C   0  0  0  0  0  0  0  0  0  0  0  0
    1.9741    2.7922    0.5596 C   0  0  0  0  0  0  0  0  0  0  0  0
    3.6818    1.1084    1.2169 C   0  0  0  0  0  0  0  0  0  0  0  0
    3.2427    2.3619    0.5172 C   0  0  0  0  0  0  0  0  0  0  0  0
    5.3465   -1.4260    1.9060 C   0  0  0  0  0  0  0  0  0  0  0  0
    0.1804    0.8766   -0.4325 H   0  0  0  0  0  0  0  0  0  0  0  0
   -1.2836   -2.5873   -1.7279 H   0  0  0  0  0  0  0  0  0  0  0  0
   -0.3394   -3.1506   -0.3338 H   0  0  0  0  0  0  0  0  0  0  0  0
    0.9582   -2.3445   -2.4037 H   0  0  0  0  0  0  0  0  0  0  0  0
   -0.3091   -0.5009   -3.1136 H   0  0  0  0  0  0  0  0  0  0  0  0
    1.2283    0.1753   -2.5446 H   0  0  0  0  0  0  0  0  0  0  0  0
   -2.4980   -2.7331    1.0317 H   0  0  0  0  0  0  0  0  0  0  0  0
   -1.5534    1.5707   -2.8555 H   0  0  0  0  0  0  0  0  0  0  0  0
   -0.0501    2.3801   -2.4385 H   0  0  0  0  0  0  0  0  0  0  0  0
   -3.5809   -1.3021   -1.4805 H   0  0  0  0  0  0  0  0  0  0  0  0
   -3.4546   -3.0500   -1.1655 H   0  0  0  0  0  0  0  0  0  0  0  0
   -2.0856    3.6633   -1.8331 H   0  0  0  0  0  0  0  0  0  0  0  0
   -2.6606    2.3508   -0.8243 H   0  0  0  0  0  0  0  0  0  0  0  0
   -2.8225   -0.3906    2.0747 H   0  0  0  0  0  0  0  0  0  0  0  0
    0.3727   -1.0305    0.9523 H   0  0  0  0  0  0  0  0  0  0  0  0
   -0.7603    2.6571    0.7315 H   0  0  0  0  0  0  0  0  0  0  0  0
   -2.8536    3.8375    1.1619 H   0  0  0  0  0  0  0  0  0  0  0  0
   -1.4807    4.8167    1.6962 H   0  0  0  0  0  0  0  0  0  0  0  0
   -2.3247    5.2209    0.1907 H   0  0  0  0  0  0  0  0  0  0  0  0
    0.0038    5.1545   -0.9537 H   0  0  0  0  0  0  0  0  0  0  0  0
    3.7964   -3.3508    1.0761 H   0  0  0  0  0  0  0  0  0  0  0  0
    2.2452    4.6104   -0.5747 H   0  0  0  0  0  0  0  0  0  0  0  0
    5.1141    0.3213   -0.1980 H   0  0  0  0  0  0  0  0  0  0  0  0
    3.4631    0.0159   -0.6459 H   0  0  0  0  0  0  0  0  0  0  0  0
    1.2590    2.2204    1.1416 H   0  0  0  0  0  0  0  0  0  0  0  0
    4.5034    1.3640    1.8969 H   0  0  0  0  0  0  0  0  0  0  0  0
    2.8691    0.7135    1.8403 H   0  0  0  0  0  0  0  0  0  0  0  0
    3.9902    2.9001   -0.0598 H   0  0  0  0  0  0  0  0  0  0  0  0
    5.4913   -2.4520    2.2611 H   0  0  0  0  0  0  0  0  0  0  0  0
    5.1038   -0.8102    2.7776 H   0  0  0  0  0  0  0  0  0  0  0  0
    6.3024   -1.0871    1.4930 H   0  0  0  0  0  0  0  0  0  0  0  0
  1 15  1  0  0  0  0
  1 18  1  0  0  0  0
  2  8  1  0  0  0  0
  2  9  1  0  0  0  0
  3  8  1  0  0  0  0
  3 44  1  0  0  0  0
  4 11  1  0  0  0  0
  4 20  1  0  0  0  0
  5 18  2  0  0  0  0
  6 20  2  0  0  0  0
  7 13  1  0  0  0  0
  7 18  1  0  0  0  0
  7 43  1  0  0  0  0
  8 10  1  0  0  0  0
  8 13  1  0  0  0  0
  9 12  1  0  0  0  0
  9 14  1  0  0  0  0
  9 30  1  0  0  0  0
 10 11  1  0  0  0  0
 10 31  1  0  0  0  0
 10 32  1  0  0  0  0
 11 12  1  0  0  0  0
 11 33  1  0  0  0  0
 12 34  1  0  0  0  0
 12 35  1  0  0  0  0
 13 15  1  0  0  0  0
 13 36  1  0  0  0  0
 14 16  1  0  0  0  0
 14 37  1  0  0  0  0
 14 38  1  0  0  0  0
 15 39  1  0  0  0  0
 15 40  1  0  0  0  0
 16 17  1  0  0  0  0
 16 41  1  0  0  0  0
 16 42  1  0  0  0  0
 17 19  1  0  0  0  0
 17 21  1  0  0  0  0
 17 45  1  0  0  0  0
 19 46  1  0  0  0  0
 19 47  1  0  0  0  0
 19 48  1  0  0  0  0
 20 22  1  0  0  0  0
 21 23  2  0  0  0  0
 21 49  1  0  0  0  0
 22 24  2  0  0  0  0
 22 50  1  0  0  0  0
 23 26  1  0  0  0  0
 23 51  1  0  0  0  0
 24 25  1  0  0  0  0
 24 29  1  0  0  0  0
 25 27  1  0  0  0  0
 25 52  1  0  0  0  0
 25 53  1  0  0  0  0
 26 28  2  0  0  0  0
 26 54  1  0  0  0  0
 27 28  1  0  0  0  0
 27 55  1  0  0  0  0
 27 56  1  0  0  0  0
 28 57  1  0  0  0  0
 29 58  1  0  0  0  0
 29 59  1  0  0  0  0
 29 60  1  0  0  0  0
M  END
> <DATABASE_ID>
DB02621

> <DATABASE_NAME>
drugbank

> <ORIGINAL_SOURCE>
PUBCHEM

> <ORIGINAL_SOURCE_URL>
https://pubchem.ncbi.nlm.nih.gov/rest/pug/compound/inchikey/DDVBPZROPPMBLW-IZGXTMSKSA-N/SDF?record_type=3d

> <SMILES>
[H][C@]1(CSC(=O)N1)[C@@]1(O)C[C@H]2C[C@@H](CC[C@H](C)\C=C/C=C/CC\C(C)=C/C(=O)O2)O1

> <INCHI_IDENTIFIER>
InChI=1S/C22H31NO5S/c1-15-7-5-3-4-6-8-16(2)11-20(24)27-18-12-17(10-9-15)28-22(26,13-18)19-14-29-21(25)23-19/h3-5,7,11,15,17-19,26H,6,8-10,12-14H2,1-2H3,(H,23,25)/b4-3+,7-5-,16-11-/t15-,17-,18-,19+,22-/m1/s1

> <INCHI_KEY>
DDVBPZROPPMBLW-IZGXTMSKSA-N

> <FORMULA>
C22H31NO5S

> <MOLECULAR_WEIGHT>
421.55

> <EXACT_MASS>
421.192293797

> <JCHEM_ACCEPTOR_COUNT>
4

> <JCHEM_ATOM_COUNT>
60

> <JCHEM_AVERAGE_POLARIZABILITY>
44.758274941150844

> <JCHEM_BIOAVAILABILITY>
1

> <JCHEM_DONOR_COUNT>
2

> <JCHEM_FORMAL_CHARGE>
0

> <JCHEM_GHOSE_FILTER>
1

> <JCHEM_IUPAC>
(4R)-4-[(1R,4Z,8E,10Z,12S,15R,17R)-17-hydroxy-5,12-dimethyl-3-oxo-2,16-dioxabicyclo[13.3.1]nonadeca-4,8,10-trien-17-yl]-1,3-thiazolidin-2-one

> <ALOGPS_LOGP>
3.00

> <JCHEM_LOGP>
4.314082884666666

> <ALOGPS_LOGS>
-4.31

> <JCHEM_MDDR_LIKE_RULE>
0

> <JCHEM_NUMBER_OF_RINGS>
3

> <JCHEM_PHYSIOLOGICAL_CHARGE>
0

> <JCHEM_PKA>
13.51775949263852

> <JCHEM_PKA_STRONGEST_ACIDIC>
11.356813156336859

> <JCHEM_PKA_STRONGEST_BASIC>
-4.366840692603634

> <JCHEM_POLAR_SURFACE_AREA>
84.86

> <JCHEM_REFRACTIVITY>
115.96109999999999

> <JCHEM_ROTATABLE_BOND_COUNT>
1

> <JCHEM_RULE_OF_FIVE>
1

> <ALOGPS_SOLUBILITY>
2.04e-02 g/l

> <JCHEM_TRADITIONAL_IUPAC>
2-amino-3-({[3-(4-{3-[(3-nitro-5-{[(2R,3R,4S,5R,6R)-3,4,5-trihydroxy-6-(hydroxymethyl)oxan-2-yl]oxy}phenyl)formamido]propyl}piperazin-1-yl)propyl]carbamoyl}oxy)propyl N-[3-(4-{3-[(3-nitro-5-{[3,4,5-trihydroxy-6-(hydroxymethyl)oxan-2-yl]oxy}phenyl)formamido]propyl}piperazin-1-yl)propyl]carbamate

> <JCHEM_VEBER_RULE>
0

$$$$
