
     RDKit          3D

 67 72  0  0  0  0  0  0  0  0999 V2000
   -3.3515    4.0325   -0.6793 C   0  0  0  0  0  0  0  0  0  0  0  0
   -3.0439    4.2602   -1.6147 C   0  0  0  0  0  0  0  0  0  0  0  0
   -2.3489    2.9747   -2.3514 C   0  0  2  0  0  0  0  0  0  0  0  0
   -3.1945    1.9173   -1.4726 C   0  0  0  0  0  0  0  0  0  0  0  0
   -4.1451    1.2444   -2.0945 C   0  0  0  0  0  0  0  0  0  0  0  0
   -4.0127   -0.0423   -2.8121 C   0  0  0  0  0  0  0  0  0  0  0  0
   -5.6453    1.7940   -1.8457 C   0  0  1  0  0  0  0  0  0  0  0  0
   -5.9813    1.7407   -3.3186 O   0  0  0  0  0  0  0  0  0  0  0  0
   -6.3346    0.2491   -1.6088 C   0  0  2  0  0  0  0  0  0  0  0  0
   -7.8179    0.7931   -1.9502 C   0  0  0  0  0  0  0  0  0  0  0  0
   -6.5116    0.4918   -0.0223 C   0  0  0  0  0  0  0  0  0  0  0  0
   -7.1885   -0.9725    0.2751 C   0  0  2  0  0  0  0  0  0  0  0  0
   -7.2228   -0.7237    1.7568 O   0  0  0  0  0  0  0  0  0  0  0  0
   -8.4275   -1.1679    2.2464 C   0  0  0  0  0  0  0  0  0  0  0  0
   -5.6637   -1.7604    0.1939 C   0  0  1  0  0  0  0  0  0  0  0  0
   -5.1225   -1.3246    1.5108 O   0  0  0  0  0  0  0  0  0  0  0  0
   -3.7574   -1.6194    1.3506 C   0  0  1  0  0  0  0  0  0  0  0  0
   -3.4935   -1.3439    0.1443 O   0  0  0  0  0  0  0  0  0  0  0  0
   -3.2909   -1.4613    2.6697 C   0  0  0  0  0  0  0  0  0  0  0  0
   -3.7357   -2.2592    3.5702 O   0  0  0  0  0  0  0  0  0  0  0  0
   -3.0765   -0.1211    3.2394 C   0  0  0  0  0  0  0  0  0  0  0  0
   -3.2437    0.1353    4.4713 O   0  0  0  0  0  0  0  0  0  0  0  0
   -1.9827    0.5166    2.6134 N   0  0  0  0  0  0  0  0  0  0  0  0
   -1.3543    1.7150    3.0894 C   0  0  0  0  0  0  0  0  0  0  0  0
   -2.2926    2.8576    2.6999 C   0  0  0  0  0  0  0  0  0  0  0  0
   -2.8951    2.3954    1.3697 C   0  0  0  0  0  0  0  0  0  0  0  0
   -1.7942    1.7095    0.6371 C   0  0  0  0  0  0  0  0  0  0  0  0
   -1.7219    0.1370    1.1144 C   0  0  1  0  0  0  0  0  0  0  0  0
   -0.1201    0.1980    1.2708 C   0  0  0  0  0  0  0  0  0  0  0  0
    0.3801   -0.2640    2.2964 O   0  0  0  0  0  0  0  0  0  0  0  0
    0.4993    0.5191    0.0862 O   0  0  0  0  0  0  0  0  0  0  0  0
    0.1849   -0.4557   -1.0545 C   0  0  2  0  0  0  0  0  0  0  0  0
    1.7073   -0.5762   -1.5636 C   0  0  0  0  0  0  0  0  0  0  0  0
    1.8785   -1.9235   -2.2052 C   0  0  0  0  0  0  0  0  0  0  0  0
    2.6766   -0.1483   -0.8397 C   0  0  0  0  0  0  0  0  0  0  0  0
    4.0844   -0.9052   -0.9199 C   0  0  2  0  0  0  0  0  0  0  0  0
    4.3782   -0.6703    0.6705 C   0  0  0  0  0  0  0  0  0  0  0  0
    4.3275    0.7829    0.9417 C   0  0  0  0  0  0  0  0  0  0  0  0
    5.8098    1.4203    0.6793 C   0  0  1  0  0  0  0  0  0  0  0  0
    6.4206    0.5625    1.7816 O   0  0  0  0  0  0  0  0  0  0  0  0
    7.6116   -0.0780    1.5612 C   0  0  0  0  0  0  0  0  0  0  0  0
    7.5463   -1.4692    1.4738 C   0  0  0  0  0  0  0  0  0  0  0  0
    8.3348   -2.2013    0.6155 C   0  0  0  0  0  0  0  0  0  0  0  0
    9.5315   -1.6333    0.2017 C   0  0  0  0  0  0  0  0  0  0  0  0
    9.6766   -0.2605    0.3512 C   0  0  0  0  0  0  0  0  0  0  0  0
   10.7253    0.1494   -0.4284 C   0  0  0  0  0  0  0  0  0  0  0  0
   11.0988   -0.9532   -1.1563 C   0  0  0  0  0  0  0  0  0  0  0  0
   10.2575   -1.9600   -0.8778 N   0  0  0  0  0  0  0  0  0  0  0  0
   10.3021   -3.2271   -1.6011 C   0  0  0  0  0  0  0  0  0  0  0  0
    8.7381    0.5135    1.0149 C   0  0  0  0  0  0  0  0  0  0  0  0
    6.2602    0.3046   -0.5494 C   0  0  2  0  0  0  0  0  0  0  0  0
    6.9338    1.3972   -1.3376 O   0  0  0  0  0  0  0  0  0  0  0  0
    6.0598    2.4690   -1.4083 C   0  0  0  0  0  0  0  0  0  0  0  0
    4.8597    0.4604   -1.3789 C   0  0  0  0  0  0  0  0  0  0  0  0
   -0.2551    0.7595   -2.1661 C   0  0  2  0  0  0  0  0  0  0  0  0
    0.2382   -0.0972   -3.4267 C   0  0  0  0  0  0  0  0  0  0  0  0
    1.0950    1.7567   -1.9248 C   0  0  1  0  0  0  0  0  0  0  0  0
    1.5423    1.8203   -3.3671 O   0  0  0  0  0  0  0  0  0  0  0  0
    0.2084    3.1239   -2.1241 C   0  0  0  0  0  0  0  0  0  0  0  0
   -1.0679    2.9443   -1.3821 C   0  0  0  0  0  0  0  0  0  0  0  0
   -1.1550    3.3513   -0.2636 O   0  0  0  0  0  0  0  0  0  0  0  0
   -3.6367   -3.2766    1.3115 C   0  0  2  0  0  0  0  0  0  0  0  0
   -3.7584   -3.5366   -0.3035 C   0  0  0  0  0  0  0  0  0  0  0  0
   -5.1211   -3.6755    1.7594 C   0  0  0  0  0  0  0  0  0  0  0  0
   -6.3528   -3.1753    0.8658 C   0  0  2  0  0  0  0  0  0  0  0  0
   -6.0302   -4.0576   -0.3294 O   0  0  0  0  0  0  0  0  0  0  0  0
   -7.2188   -4.1559   -1.0455 C   0  0  0  0  0  0  0  0  0  0  0  0
  1  2  1  0
  3  2  1  1
  3  4  1  0
  4  5  2  0
  5  6  1  0
  5  7  1  0
  7  8  1  6
  7  9  1  0
  9 10  1  6
  9 11  1  0
 11 12  1  0
 12 13  1  1
 13 14  1  0
 12 15  1  0
 15 16  1  1
 16 17  1  0
 17 18  1  6
 17 19  1  0
 19 20  2  0
 19 21  1  0
 21 22  2  0
 21 23  1  0
 23 24  1  0
 24 25  1  0
 25 26  1  0
 26 27  1  0
 28 27  1  6
 28 29  1  0
 29 30  2  0
 29 31  1  0
 31 32  1  0
 32 33  1  6
 33 34  1  0
 33 35  2  0
 36 35  1  1
 36 37  1  0
 37 38  1  0
 38 39  1  0
 39 40  1  1
 40 41  1  0
 41 42  2  0
 42 43  1  0
 43 44  2  0
 44 45  1  0
 45 46  1  0
 46 47  2  0
 47 48  1  0
 48 49  1  0
 45 50  2  0
 39 51  1  0
 51 52  1  6
 52 53  1  0
 51 54  1  0
 32 55  1  0
 55 56  1  6
 55 57  1  0
 57 58  1  6
 57 59  1  0
 59 60  1  0
 60 61  2  0
 17 62  1  0
 62 63  1  6
 62 64  1  0
 64 65  1  0
 65 66  1  6
 66 67  1  0
 60  3  1  0
 65 15  1  0
 28 23  1  0
 54 36  1  0
 50 41  1  0
 48 44  1  0
M  END
>  <zinc_id>  (1) 
ZINC000169290591

>  <smiles>  (1) 
CC[C@@H]1/C=C(\C)[C@@H](O)[C@H](C)C[C@H](OC)[C@H]2O[C@@](O)(C(=O)C(=O)N3CCCC[C@H]3C(=O)O[C@H](/C(C)=C/[C@@H]3CC[C@@H](Oc4ccc5c(ccn5C)c4)[C@H](OC)C3)[C@H](C)[C@@H](O)CC1=O)[C@H](C)C[C@@H]2OC

$$$$
