66440
  -OEChem-02112006183D

 55 58  0     1  0  0  0  0  0999 V2000
    2.9572    0.1244   -0.0267 O   0  0  0  0  0  0  0  0  0  0  0  0
    4.3727   -1.3998   -1.0227 O   0  0  0  0  0  0  0  0  0  0  0  0
   -7.9471    1.1582    0.4967 O   0  0  0  0  0  0  0  0  0  0  0  0
    8.9820    0.6481   -0.0066 O   0  0  0  0  0  0  0  0  0  0  0  0
    7.4670    1.9950    1.0196 O   0  0  0  0  0  0  0  0  0  0  0  0
    0.4951   -0.0118   -0.0021 C   0  0  1  0  0  0  0  0  0  0  0  0
   -0.4227   -1.2215   -0.2704 C   0  0  2  0  0  0  0  0  0  0  0  0
   -1.8619   -0.9633    0.1748 C   0  0  1  0  0  0  0  0  0  0  0  0
   -2.4280    0.2391   -0.6400 C   0  0  2  0  0  0  0  0  0  0  0  0
    1.8337   -0.6039   -0.4829 C   0  0  2  0  0  0  0  0  0  0  0  0
   -0.0210    1.1715   -0.8299 C   0  0  0  0  0  0  0  0  0  0  0  0
    0.3478   -2.3929    0.3323 C   0  0  0  0  0  0  0  0  0  0  0  0
   -1.5006    1.4793   -0.5296 C   0  0  0  0  0  0  0  0  0  0  0  0
    1.8237   -2.0434    0.0676 C   0  0  0  0  0  0  0  0  0  0  0  0
   -2.7689   -2.1772   -0.0350 C   0  0  0  0  0  0  0  0  0  0  0  0
    0.5963    0.4101    1.4860 C   0  0  0  0  0  0  0  0  0  0  0  0
   -3.8941    0.4953   -0.3015 C   0  0  0  0  0  0  0  0  0  0  0  0
   -4.1471   -1.9024    0.5590 C   0  0  0  0  0  0  0  0  0  0  0  0
   -4.7000   -0.5387    0.2238 C   0  0  0  0  0  0  0  0  0  0  0  0
   -4.5011    1.7316   -0.5852 C   0  0  0  0  0  0  0  0  0  0  0  0
   -6.0577   -0.2976    0.4987 C   0  0  0  0  0  0  0  0  0  0  0  0
    4.1875   -0.3840   -0.3672 C   0  0  0  0  0  0  0  0  0  0  0  0
   -5.8532    1.9546   -0.3160 C   0  0  0  0  0  0  0  0  0  0  0  0
   -6.6307    0.9420    0.2305 C   0  0  0  0  0  0  0  0  0  0  0  0
    5.2734    0.5067    0.1972 C   0  0  0  0  0  0  0  0  0  0  0  0
    6.6765    0.0672   -0.2040 C   0  0  0  0  0  0  0  0  0  0  0  0
    7.7213    1.0136    0.3335 C   0  0  0  0  0  0  0  0  0  0  0  0
   -0.4530   -1.4053   -1.3576 H   0  0  0  0  0  0  0  0  0  0  0  0
   -1.8769   -0.7222    1.2455 H   0  0  0  0  0  0  0  0  0  0  0  0
   -2.4289   -0.0509   -1.7023 H   0  0  0  0  0  0  0  0  0  0  0  0
    1.8528   -0.6299   -1.5816 H   0  0  0  0  0  0  0  0  0  0  0  0
    0.0741    0.9485   -1.9007 H   0  0  0  0  0  0  0  0  0  0  0  0
    0.5861    2.0663   -0.6477 H   0  0  0  0  0  0  0  0  0  0  0  0
    0.0748   -3.3459   -0.1325 H   0  0  0  0  0  0  0  0  0  0  0  0
    0.1633   -2.4840    1.4085 H   0  0  0  0  0  0  0  0  0  0  0  0
   -1.5949    1.9249    0.4681 H   0  0  0  0  0  0  0  0  0  0  0  0
   -1.8165    2.2526   -1.2393 H   0  0  0  0  0  0  0  0  0  0  0  0
    2.4116   -2.1482    0.9866 H   0  0  0  0  0  0  0  0  0  0  0  0
    2.2425   -2.7402   -0.6670 H   0  0  0  0  0  0  0  0  0  0  0  0
   -2.3517   -3.0721    0.4399 H   0  0  0  0  0  0  0  0  0  0  0  0
   -2.8608   -2.3977   -1.1064 H   0  0  0  0  0  0  0  0  0  0  0  0
    1.2673    1.2698    1.5977 H   0  0  0  0  0  0  0  0  0  0  0  0
   -0.3673    0.7062    1.9087 H   0  0  0  0  0  0  0  0  0  0  0  0
    0.9908   -0.3890    2.1215 H   0  0  0  0  0  0  0  0  0  0  0  0
   -4.0866   -1.9807    1.6522 H   0  0  0  0  0  0  0  0  0  0  0  0
   -4.8389   -2.6793    0.2118 H   0  0  0  0  0  0  0  0  0  0  0  0
   -3.9368    2.5461   -1.0291 H   0  0  0  0  0  0  0  0  0  0  0  0
   -6.6719   -1.0888    0.9243 H   0  0  0  0  0  0  0  0  0  0  0  0
   -6.2853    2.9257   -0.5432 H   0  0  0  0  0  0  0  0  0  0  0  0
    5.1797    0.5027    1.2894 H   0  0  0  0  0  0  0  0  0  0  0  0
    5.0901    1.5265   -0.1620 H   0  0  0  0  0  0  0  0  0  0  0  0
    6.7637    0.0416   -1.2959 H   0  0  0  0  0  0  0  0  0  0  0  0
    6.8811   -0.9354    0.1874 H   0  0  0  0  0  0  0  0  0  0  0  0
   -8.1734    2.0708    0.2477 H   0  0  0  0  0  0  0  0  0  0  0  0
    9.6527    1.2649    0.3568 H   0  0  0  0  0  0  0  0  0  0  0  0
  1 10  1  0  0  0  0
  1 22  1  0  0  0  0
  2 22  2  0  0  0  0
  3 24  1  0  0  0  0
  3 54  1  0  0  0  0
  4 27  1  0  0  0  0
  4 55  1  0  0  0  0
  5 27  2  0  0  0  0
  6  7  1  0  0  0  0
  6 10  1  0  0  0  0
  6 11  1  0  0  0  0
  6 16  1  0  0  0  0
  7  8  1  0  0  0  0
  7 12  1  0  0  0  0
  7 28  1  0  0  0  0
  8  9  1  0  0  0  0
  8 15  1  0  0  0  0
  8 29  1  0  0  0  0
  9 13  1  0  0  0  0
  9 17  1  0  0  0  0
  9 30  1  0  0  0  0
 10 14  1  0  0  0  0
 10 31  1  0  0  0  0
 11 13  1  0  0  0  0
 11 32  1  0  0  0  0
 11 33  1  0  0  0  0
 12 14  1  0  0  0  0
 12 34  1  0  0  0  0
 12 35  1  0  0  0  0
 13 36  1  0  0  0  0
 13 37  1  0  0  0  0
 14 38  1  0  0  0  0
 14 39  1  0  0  0  0
 15 18  1  0  0  0  0
 15 40  1  0  0  0  0
 15 41  1  0  0  0  0
 16 42  1  0  0  0  0
 16 43  1  0  0  0  0
 16 44  1  0  0  0  0
 17 19  2  0  0  0  0
 17 20  1  0  0  0  0
 18 19  1  0  0  0  0
 18 45  1  0  0  0  0
 18 46  1  0  0  0  0
 19 21  1  0  0  0  0
 20 23  2  0  0  0  0
 20 47  1  0  0  0  0
 21 24  2  0  0  0  0
 21 48  1  0  0  0  0
 22 25  1  0  0  0  0
 23 24  1  0  0  0  0
 23 49  1  0  0  0  0
 25 26  1  0  0  0  0
 25 50  1  0  0  0  0
 25 51  1  0  0  0  0
 26 27  1  0  0  0  0
 26 52  1  0  0  0  0
 26 53  1  0  0  0  0
M  END
> <DATABASE_ID>
DB07891

> <DATABASE_NAME>
drugbank

> <ORIGINAL_SOURCE>
PUBCHEM

> <ORIGINAL_SOURCE_URL>
https://pubchem.ncbi.nlm.nih.gov/rest/pug/compound/inchikey/YJPIDPAGJSWWBE-FNIAAEIWSA-N/SDF?record_type=3d

> <SMILES>
[H][C@@]12CC[C@H](OC(=O)CCC(O)=O)[C@@]1(C)CC[C@]1([H])C3=CC=C(O)C=C3CC[C@@]21[H]

> <INCHI_IDENTIFIER>
InChI=1S/C22H28O5/c1-22-11-10-16-15-5-3-14(23)12-13(15)2-4-17(16)18(22)6-7-19(22)27-21(26)9-8-20(24)25/h3,5,12,16-19,23H,2,4,6-11H2,1H3,(H,24,25)/t16-,17-,18+,19+,22+/m1/s1

> <INCHI_KEY>
YJPIDPAGJSWWBE-FNIAAEIWSA-N

> <FORMULA>
C22H28O5

> <MOLECULAR_WEIGHT>
372.4547

> <EXACT_MASS>
372.193674006

> <JCHEM_ACCEPTOR_COUNT>
4

> <JCHEM_ATOM_COUNT>
55

> <JCHEM_AVERAGE_NEUTRAL_MICROSPECIES_CHARGE>
-0.9984309197559863

> <JCHEM_AVERAGE_POLARIZABILITY>
41.875383105439575

> <JCHEM_BIOAVAILABILITY>
1

> <JCHEM_DONOR_COUNT>
2

> <JCHEM_FORMAL_CHARGE>
0

> <JCHEM_GHOSE_FILTER>
1

> <JCHEM_IUPAC>
4-{[(1S,3aS,3bR,9bS,11aS)-7-hydroxy-11a-methyl-1H,2H,3H,3aH,3bH,4H,5H,9bH,10H,11H,11aH-cyclopenta[a]phenanthren-1-yl]oxy}-4-oxobutanoic acid

> <ALOGPS_LOGP>
3.82

> <JCHEM_LOGP>
4.011489485666667

> <ALOGPS_LOGS>
-4.89

> <JCHEM_MDDR_LIKE_RULE>
0

> <JCHEM_NEUTRAL_CHARGE>
-1

> <JCHEM_NUMBER_OF_RINGS>
4

> <JCHEM_PHYSIOLOGICAL_CHARGE>
-1

> <JCHEM_PKA>
10.327061103005903

> <JCHEM_PKA_STRONGEST_ACIDIC>
4.310467989327538

> <JCHEM_PKA_STRONGEST_BASIC>
-5.448288518230447

> <JCHEM_POLAR_SURFACE_AREA>
83.83

> <JCHEM_REFRACTIVITY>
99.9495

> <JCHEM_ROTATABLE_BOND_COUNT>
5

> <JCHEM_RULE_OF_FIVE>
1

> <ALOGPS_SOLUBILITY>
4.80e-03 g/l

> <JCHEM_TRADITIONAL_IUPAC>
decyl formate

> <JCHEM_VEBER_RULE>
0

$$$$
