4680
  -OEChem-10051719303D

 46 48  0     0  0  0  0  0  0999 V2000
   -4.5276    2.0829   -0.2217 O   0  0  0  0  0  0  0  0  0  0  0  0
   -5.8545   -0.3546   -0.1167 O   0  0  0  0  0  0  0  0  0  0  0  0
    4.8417    0.2406   -1.8690 O   0  0  0  0  0  0  0  0  0  0  0  0
    6.0567    0.2340    0.6304 O   0  0  0  0  0  0  0  0  0  0  0  0
    0.4372   -1.3593    0.3747 N   0  0  0  0  0  0  0  0  0  0  0  0
   -1.7011   -0.2237    0.1452 C   0  0  0  0  0  0  0  0  0  0  0  0
    0.4870    1.0271    0.1903 C   0  0  0  0  0  0  0  0  0  0  0  0
   -0.3079   -0.2394    0.2378 C   0  0  0  0  0  0  0  0  0  0  0  0
   -2.3709   -1.4636    0.1989 C   0  0  0  0  0  0  0  0  0  0  0  0
    1.9812    0.8142    0.3051 C   0  0  0  0  0  0  0  0  0  0  0  0
   -2.4389    0.9631    0.0033 C   0  0  0  0  0  0  0  0  0  0  0  0
   -3.7722   -1.4878    0.1088 C   0  0  0  0  0  0  0  0  0  0  0  0
   -3.8302    0.9206   -0.0845 C   0  0  0  0  0  0  0  0  0  0  0  0
   -1.6175   -2.6348    0.3404 C   0  0  0  0  0  0  0  0  0  0  0  0
   -4.4953   -0.3021   -0.0320 C   0  0  0  0  0  0  0  0  0  0  0  0
    2.7261    0.6242   -0.8456 C   0  0  0  0  0  0  0  0  0  0  0  0
    2.5689    0.8137    1.5579 C   0  0  0  0  0  0  0  0  0  0  0  0
   -0.2377   -2.5276    0.4224 C   0  0  0  0  0  0  0  0  0  0  0  0
    4.1030    0.4274   -0.7399 C   0  0  0  0  0  0  0  0  0  0  0  0
    4.7127    0.4239    0.5148 C   0  0  0  0  0  0  0  0  0  0  0  0
    3.9456    0.6170    1.6636 C   0  0  0  0  0  0  0  0  0  0  0  0
   -4.9423    2.7351    0.9769 C   0  0  0  0  0  0  0  0  0  0  0  0
   -6.4178   -0.4787   -1.4208 C   0  0  0  0  0  0  0  0  0  0  0  0
    4.1420    0.2582   -3.1118 C   0  0  0  0  0  0  0  0  0  0  0  0
    6.5117   -1.1104    0.7717 C   0  0  0  0  0  0  0  0  0  0  0  0
    0.1690    1.6929    1.0036 H   0  0  0  0  0  0  0  0  0  0  0  0
    0.2816    1.5589   -0.7482 H   0  0  0  0  0  0  0  0  0  0  0  0
   -1.9525    1.9342   -0.0424 H   0  0  0  0  0  0  0  0  0  0  0  0
   -4.3061   -2.4356    0.1492 H   0  0  0  0  0  0  0  0  0  0  0  0
   -2.0894   -3.6115    0.3862 H   0  0  0  0  0  0  0  0  0  0  0  0
    2.1948    0.6349   -1.7908 H   0  0  0  0  0  0  0  0  0  0  0  0
    1.9795    0.9614    2.4581 H   0  0  0  0  0  0  0  0  0  0  0  0
    0.3807   -3.4124    0.5325 H   0  0  0  0  0  0  0  0  0  0  0  0
    4.4139    0.6158    2.6442 H   0  0  0  0  0  0  0  0  0  0  0  0
   -5.6058    2.0874    1.5586 H   0  0  0  0  0  0  0  0  0  0  0  0
   -5.4902    3.6405    0.7022 H   0  0  0  0  0  0  0  0  0  0  0  0
   -4.0734    3.0206    1.5783 H   0  0  0  0  0  0  0  0  0  0  0  0
   -7.5066   -0.5005   -1.3230 H   0  0  0  0  0  0  0  0  0  0  0  0
   -6.0900   -1.4101   -1.8931 H   0  0  0  0  0  0  0  0  0  0  0  0
   -6.1397    0.3771   -2.0440 H   0  0  0  0  0  0  0  0  0  0  0  0
    3.6845    1.2347   -3.3040 H   0  0  0  0  0  0  0  0  0  0  0  0
    3.4196   -0.5623   -3.1800 H   0  0  0  0  0  0  0  0  0  0  0  0
    4.8834    0.0944   -3.9009 H   0  0  0  0  0  0  0  0  0  0  0  0
    6.2256   -1.7078   -0.0997 H   0  0  0  0  0  0  0  0  0  0  0  0
    6.1058   -1.5583    1.6842 H   0  0  0  0  0  0  0  0  0  0  0  0
    7.6026   -1.0972    0.8438 H   0  0  0  0  0  0  0  0  0  0  0  0
  1 13  1  0  0  0  0
  1 22  1  0  0  0  0
  2 15  1  0  0  0  0
  2 23  1  0  0  0  0
  3 19  1  0  0  0  0
  3 24  1  0  0  0  0
  4 20  1  0  0  0  0
  4 25  1  0  0  0  0
  5  8  2  0  0  0  0
  5 18  1  0  0  0  0
  6  8  1  0  0  0  0
  6  9  1  0  0  0  0
  6 11  2  0  0  0  0
  7  8  1  0  0  0  0
  7 10  1  0  0  0  0
  7 26  1  0  0  0  0
  7 27  1  0  0  0  0
  9 12  2  0  0  0  0
  9 14  1  0  0  0  0
 10 16  2  0  0  0  0
 10 17  1  0  0  0  0
 11 13  1  0  0  0  0
 11 28  1  0  0  0  0
 12 15  1  0  0  0  0
 12 29  1  0  0  0  0
 13 15  2  0  0  0  0
 14 18  2  0  0  0  0
 14 30  1  0  0  0  0
 16 19  1  0  0  0  0
 16 31  1  0  0  0  0
 17 21  2  0  0  0  0
 17 32  1  0  0  0  0
 18 33  1  0  0  0  0
 19 20  2  0  0  0  0
 20 21  1  0  0  0  0
 21 34  1  0  0  0  0
 22 35  1  0  0  0  0
 22 36  1  0  0  0  0
 22 37  1  0  0  0  0
 23 38  1  0  0  0  0
 23 39  1  0  0  0  0
 23 40  1  0  0  0  0
 24 41  1  0  0  0  0
 24 42  1  0  0  0  0
 24 43  1  0  0  0  0
 25 44  1  0  0  0  0
 25 45  1  0  0  0  0
 25 46  1  0  0  0  0
M  END
> <DATABASE_ID>
DB01113

> <DATABASE_NAME>
drugbank

> <ORIGINAL_SOURCE>
PUBCHEM

> <ORIGINAL_SOURCE_URL>
https://pubchem.ncbi.nlm.nih.gov/rest/pug/compound/inchikey/XQYZDYMELSJDRZ-UHFFFAOYSA-N/SDF?record_type=3d

> <SMILES>
COC1=C(OC)C=C(CC2=NC=CC3=CC(OC)=C(OC)C=C23)C=C1

> <INCHI_IDENTIFIER>
InChI=1S/C20H21NO4/c1-22-17-6-5-13(10-18(17)23-2)9-16-15-12-20(25-4)19(24-3)11-14(15)7-8-21-16/h5-8,10-12H,9H2,1-4H3

> <INCHI_KEY>
XQYZDYMELSJDRZ-UHFFFAOYSA-N

> <FORMULA>
C20H21NO4

> <MOLECULAR_WEIGHT>
339.385

> <EXACT_MASS>
339.147058165

> <JCHEM_ACCEPTOR_COUNT>
5

> <JCHEM_ATOM_COUNT>
46

> <JCHEM_AVERAGE_NEUTRAL_MICROSPECIES_CHARGE>
0.09596589979257059

> <JCHEM_AVERAGE_POLARIZABILITY>
36.57162759178174

> <JCHEM_BIOAVAILABILITY>
1

> <JCHEM_DONOR_COUNT>
0

> <JCHEM_FORMAL_CHARGE>
0

> <JCHEM_GHOSE_FILTER>
1

> <JCHEM_IUPAC>
1-[(3,4-dimethoxyphenyl)methyl]-6,7-dimethoxyisoquinoline

> <ALOGPS_LOGP>
4.19

> <JCHEM_LOGP>
3.0800750716666663

> <ALOGPS_LOGS>
-4.42

> <JCHEM_MDDR_LIKE_RULE>
1

> <JCHEM_NEUTRAL_CHARGE>
0

> <JCHEM_NUMBER_OF_RINGS>
3

> <JCHEM_PHYSIOLOGICAL_CHARGE>
0

> <JCHEM_PKA_STRONGEST_BASIC>
6.025932127285557

> <JCHEM_POLAR_SURFACE_AREA>
49.81

> <JCHEM_REFRACTIVITY>
95.51749999999998

> <JCHEM_ROTATABLE_BOND_COUNT>
6

> <JCHEM_RULE_OF_FIVE>
1

> <ALOGPS_SOLUBILITY>
1.29e-02 g/l

> <JCHEM_TRADITIONAL_IUPAC>
tetrahydrofolic acid

> <JCHEM_VEBER_RULE>
0

$$$$
