
     RDKit          3D

 55 57  0  0  0  0  0  0  0  0999 V2000
   -2.5966    0.9553    2.3131 C   0  0  0  0  0  0  0  0  0  0  0  0
   -2.5978    1.0485    0.9300 O   0  0  0  0  0  0  0  0  0  0  0  0
   -3.5086   -0.0432    0.4545 C   0  0  1  0  0  0  0  0  0  0  0  0
   -4.6065    1.0112   -0.3399 C   0  0  2  0  0  0  0  0  0  0  0  0
   -3.6088    1.9171   -1.0161 O   0  0  0  0  0  0  0  0  0  0  0  0
   -4.8407    1.9503    0.9921 C   0  0  0  0  0  0  0  0  0  0  0  0
   -4.7118    3.3754    0.5096 C   0  0  0  0  0  0  0  0  0  0  0  0
   -3.5493    3.8628    0.3156 O   0  0  0  0  0  0  0  0  0  0  0  0
   -5.6586    3.4949   -0.4971 O   0  0  0  0  0  0  0  0  0  0  0  0
   -7.1368    3.4604   -0.0825 C   0  0  2  0  0  0  0  0  0  0  0  0
   -6.9440    2.5378    1.2648 C   0  0  0  0  0  0  0  0  0  0  0  0
   -7.4513    2.1528   -1.0304 C   0  0  0  0  0  0  0  0  0  0  0  0
   -8.4075    1.3270   -0.4178 C   0  0  0  0  0  0  0  0  0  0  0  0
   -8.6055    0.1547   -0.0082 C   0  0  0  0  0  0  0  0  0  0  0  0
   -8.5185   -0.9932   -0.9194 C   0  0  0  0  0  0  0  0  0  0  0  0
   -7.2681   -1.1673   -1.3418 C   0  0  0  0  0  0  0  0  0  0  0  0
   -6.9250   -2.7323   -1.1739 C   0  0  2  0  0  0  0  0  0  0  0  0
   -6.5216   -2.5906    0.2732 O   0  0  0  0  0  0  0  0  0  0  0  0
   -5.3510   -2.5869   -1.8239 C   0  0  2  0  0  0  0  0  0  0  0  0
   -4.9343   -4.0092   -1.1654 C   0  0  0  0  0  0  0  0  0  0  0  0
   -4.6332   -1.6871   -0.6882 C   0  0  0  0  0  0  0  0  0  0  0  0
   -3.2508   -1.6662   -1.5411 C   0  0  2  0  0  0  0  0  0  0  0  0
   -2.4973   -2.7461   -0.6218 C   0  0  0  0  0  0  0  0  0  0  0  0
   -2.7967   -2.6223    0.7928 C   0  0  0  0  0  0  0  0  0  0  0  0
   -1.9203   -3.0773    1.5313 O   0  0  0  0  0  0  0  0  0  0  0  0
   -2.5855   -0.2070   -0.9606 C   0  0  2  0  0  0  0  0  0  0  0  0
   -1.4792   -0.8079   -0.1570 O   0  0  0  0  0  0  0  0  0  0  0  0
   -0.3121   -0.8032   -1.1357 C   0  0  2  0  0  0  0  0  0  0  0  0
    0.5874   -1.6060   -0.2291 O   0  0  0  0  0  0  0  0  0  0  0  0
    1.6591   -1.1144   -1.1623 C   0  0  2  0  0  0  0  0  0  0  0  0
    2.4866   -2.5279   -1.0962 C   0  0  0  0  0  0  0  0  0  0  0  0
    2.3615   -0.4387    0.2115 C   0  0  1  0  0  0  0  0  0  0  0  0
    3.0618    0.6279   -0.5672 O   0  0  0  0  0  0  0  0  0  0  0  0
    4.3090    0.8357    0.3035 C   0  0  1  0  0  0  0  0  0  0  0  0
    4.6080   -0.7966    0.4441 C   0  0  0  0  0  0  0  0  0  0  0  0
    6.0381   -0.9930    0.1171 C   0  0  1  0  0  0  0  0  0  0  0  0
    6.5724   -2.1360    0.9361 C   0  0  0  0  0  0  0  0  0  0  0  0
    6.4085   -1.0145   -1.1688 O   0  0  0  0  0  0  0  0  0  0  0  0
    6.6501    0.3428    0.8253 C   0  0  1  0  0  0  0  0  0  0  0  0
    8.0649   -0.0220    0.3797 O   0  0  0  0  0  0  0  0  0  0  0  0
    9.0174    0.9647    0.5514 C   0  0  0  0  0  0  0  0  0  0  0  0
    8.8509    1.6992    1.5478 O   0  0  0  0  0  0  0  0  0  0  0  0
   10.3077    0.9946   -0.2115 C   0  0  0  0  0  0  0  0  0  0  0  0
   10.4257   -0.0294   -1.2634 C   0  0  0  0  0  0  0  0  0  0  0  0
   11.2797   -1.2054   -0.9994 C   0  0  0  0  0  0  0  0  0  0  0  0
    9.4179   -0.1284   -2.3047 C   0  0  0  0  0  0  0  0  0  0  0  0
    6.4705    1.4023   -0.5158 C   0  0  2  0  0  0  0  0  0  0  0  0
    5.8600    2.5852    0.4383 C   0  0  0  0  0  0  0  0  0  0  0  0
    5.1280    0.9304   -0.9695 O   0  0  0  0  0  0  0  0  0  0  0  0
    1.1539    0.6598    0.6731 C   0  0  2  0  0  0  0  0  0  0  0  0
    0.5548   -0.3756    1.6386 N   0  0  0  0  0  0  0  0  0  0  0  0
   -0.5516   -0.3350    2.3379 C   0  0  0  0  0  0  0  0  0  0  0  0
    1.3475    0.3266    2.7301 C   0  0  0  0  0  0  0  0  0  0  0  0
    0.0531    0.7772   -0.5881 C   0  0  1  0  0  0  0  0  0  0  0  0
    1.0944    1.0676   -1.6552 O   0  0  0  0  0  0  0  0  0  0  0  0
  1  2  1  0
  3  2  1  1
  3  4  1  0
  4  5  1  6
  4  6  1  0
  6  7  1  0
  7  8  2  0
  7  9  1  0
  9 10  1  0
 10 11  1  1
 10 12  1  0
 12 13  1  0
 13 14  2  0
 14 15  1  0
 15 16  2  0
 16 17  1  0
 17 18  1  1
 17 19  1  0
 19 20  1  1
 19 21  1  0
 21 22  1  0
 22 23  1  1
 23 24  1  0
 24 25  2  0
 22 26  1  0
 26 27  1  1
 28 27  1  1
 28 29  1  0
 29 30  1  0
 30 31  1  1
 30 32  1  0
 32 33  1  6
 34 33  1  6
 34 35  1  0
 35 36  1  0
 36 37  1  1
 36 38  1  0
 36 39  1  0
 39 40  1  6
 40 41  1  0
 41 42  2  0
 41 43  1  0
 43 44  1  0
 44 45  1  0
 44 46  1  0
 39 47  1  0
 47 48  1  1
 47 49  1  0
 32 50  1  0
 50 51  1  1
 51 52  1  0
 51 53  1  0
 50 54  1  0
 54 55  1  6
 26  3  1  0
 54 28  1  0
 49 34  1  0
M  END
>  <zinc_id>  (1) 
ZINC000085537070

>  <smiles>  (1) 
CO[C@@H]1[C@@H](O[C@@H]2O[C@H](C)[C@@H](O[C@H]3C[C@@](C)(O)[C@@H](OC(=O)CC(C)C)[C@H](C)O3)[C@H](N(C)C)[C@H]2O)[C@@H](CC=O)C[C@@H](C)[C@@H](O)/C=C/C=C/C[C@@H](C)OC(=O)C[C@H]1O

$$$$
