
     RDKit          3D

 56 58  0  0  0  0  0  0  0  0999 V2000
    9.3874    2.5955   -0.5763 C   0  0  0  0  0  0  0  0  0  0  0  0
    8.7824    2.9716   -0.4604 C   0  0  0  0  0  0  0  0  0  0  0  0
    7.5315    2.4942    0.2312 C   0  0  0  0  0  0  0  0  0  0  0  0
    7.6080    1.0473    0.4080 N   0  0  0  0  0  0  0  0  0  0  0  0
    6.3803    0.7065    1.1311 C   0  0  0  0  0  0  0  0  0  0  0  0
    5.1812    0.7643    0.1907 C   0  0  2  0  0  0  0  0  0  0  0  0
    5.4602    1.4588   -0.9587 O   0  0  0  0  0  0  0  0  0  0  0  0
    4.0884    1.6763    1.0067 C   0  0  2  0  0  0  0  0  0  0  0  0
    3.7792    0.5045    2.1299 C   0  0  0  0  0  0  0  0  0  0  0  0
    2.9094    1.4152    0.0925 O   0  0  0  0  0  0  0  0  0  0  0  0
    2.5181   -0.0188    0.4060 C   0  0  1  0  0  0  0  0  0  0  0  0
    1.2999    0.0487   -0.5142 O   0  0  0  0  0  0  0  0  0  0  0  0
    0.3096   -0.6721    0.3517 C   0  0  2  0  0  0  0  0  0  0  0  0
    0.0316   -1.9586   -0.7384 C   0  0  1  0  0  0  0  0  0  0  0  0
    1.4475   -2.7282   -0.5457 C   0  0  0  0  0  0  0  0  0  0  0  0
   -0.6158   -2.8992    0.3680 C   0  0  0  0  0  0  0  0  0  0  0  0
   -0.2386   -2.8211    1.5450 O   0  0  0  0  0  0  0  0  0  0  0  0
   -1.7363   -3.4633   -0.1090 O   0  0  0  0  0  0  0  0  0  0  0  0
   -1.6789   -4.1069   -1.5027 C   0  0  2  0  0  0  0  0  0  0  0  0
   -2.9753   -3.2164   -2.0047 C   0  0  0  0  0  0  0  0  0  0  0  0
   -2.9724   -3.3542   -3.5163 C   0  0  0  0  0  0  0  0  0  0  0  0
   -2.5618   -5.4218   -1.1353 C   0  0  1  0  0  0  0  0  0  0  0  0
   -3.7471   -5.5453   -1.9454 C   0  0  0  0  0  0  0  0  0  0  0  0
   -1.6830   -6.4967   -1.1667 O   0  0  0  0  0  0  0  0  0  0  0  0
   -2.9116   -5.3395    0.4487 C   0  0  2  0  0  0  0  0  0  0  0  0
   -3.7478   -6.5912    0.3449 O   0  0  0  0  0  0  0  0  0  0  0  0
   -4.1577   -4.1840    0.1781 C   0  0  1  0  0  0  0  0  0  0  0  0
   -5.4464   -5.1349    0.4440 C   0  0  0  0  0  0  0  0  0  0  0  0
   -4.1240   -3.6902    1.6643 N   0  0  0  0  0  0  0  0  0  0  0  0
   -4.5206   -2.2733    1.6086 C   0  0  0  0  0  0  0  0  0  0  0  0
   -3.3304   -1.4725    2.4025 C   0  0  2  0  0  0  0  0  0  0  0  0
   -4.3837   -0.5923    3.2974 C   0  0  0  0  0  0  0  0  0  0  0  0
   -3.1071   -0.2674    1.3049 C   0  0  0  0  0  0  0  0  0  0  0  0
   -2.0763    0.5245    1.9756 C   0  0  1  0  0  0  0  0  0  0  0  0
   -2.5814    1.4807    2.9842 C   0  0  0  0  0  0  0  0  0  0  0  0
   -1.0961   -0.2332    2.6568 O   0  0  0  0  0  0  0  0  0  0  0  0
   -1.0496    1.2944    0.9697 C   0  0  2  0  0  0  0  0  0  0  0  0
   -2.1096    2.1549    0.3109 O   0  0  0  0  0  0  0  0  0  0  0  0
   -1.4067    3.5216    0.4290 C   0  0  2  0  0  0  0  0  0  0  0  0
   -2.3574    4.1557    1.3668 O   0  0  0  0  0  0  0  0  0  0  0  0
   -3.7653    4.4603    1.0375 C   0  0  2  0  0  0  0  0  0  0  0  0
   -4.1060    3.2616   -0.0632 C   0  0  0  0  0  0  0  0  0  0  0  0
   -3.5964    5.6019   -0.1546 C   0  0  0  0  0  0  0  0  0  0  0  0
   -1.9990    5.7405   -0.3320 C   0  0  2  0  0  0  0  0  0  0  0  0
   -2.0951    6.4378   -1.7280 N   0  0  0  0  0  0  0  0  0  0  0  0
   -3.2421    7.2456   -1.8216 C   0  0  0  0  0  0  0  0  0  0  0  0
   -0.9610    7.3747   -1.7801 C   0  0  0  0  0  0  0  0  0  0  0  0
   -2.0355    4.1840   -1.0347 C   0  0  1  0  0  0  0  0  0  0  0  0
   -0.6964    4.4505   -1.6347 O   0  0  0  0  0  0  0  0  0  0  0  0
   -1.1125    0.0671   -0.2016 C   0  0  1  0  0  0  0  0  0  0  0  0
   -0.5226    1.0011   -1.3587 C   0  0  0  0  0  0  0  0  0  0  0  0
    3.4742   -0.5090   -0.8664 C   0  0  0  0  0  0  0  0  0  0  0  0
    4.7539   -0.5739   -0.0900 C   0  0  2  0  0  0  0  0  0  0  0  0
    4.8239   -1.6438    0.9456 C   0  0  0  0  0  0  0  0  0  0  0  0
    5.6319   -1.0312   -1.0983 O   0  0  0  0  0  0  0  0  0  0  0  0
    5.3487   -2.4004   -1.2297 C   0  0  0  0  0  0  0  0  0  0  0  0
  1  2  1  0
  2  3  1  0
  3  4  1  0
  4  5  1  0
  6  5  1  1
  6  7  1  0
  6  8  1  0
  8  9  1  1
  8 10  1  0
 10 11  1  0
 11 12  1  6
 13 12  1  6
 13 14  1  0
 14 15  1  1
 14 16  1  0
 16 17  2  0
 16 18  1  0
 18 19  1  0
 19 20  1  6
 20 21  1  0
 19 22  1  0
 22 23  1  6
 22 24  1  0
 22 25  1  0
 25 26  1  6
 25 27  1  0
 27 28  1  1
 27 29  1  0
 29 30  1  0
 30 31  1  0
 31 32  1  1
 31 33  1  0
 33 34  1  0
 34 35  1  1
 34 36  1  0
 34 37  1  0
 37 38  1  6
 39 38  1  6
 39 40  1  0
 40 41  1  0
 41 42  1  6
 41 43  1  0
 43 44  1  0
 44 45  1  6
 45 46  1  0
 45 47  1  0
 44 48  1  0
 48 49  1  6
 37 50  1  0
 50 51  1  6
 11 52  1  0
 52 53  1  0
 53 54  1  1
 53 55  1  0
 55 56  1  0
 53  6  1  0
 50 13  1  0
 48 39  1  0
M  END
>  <zinc_id>  (1) 
ZINC000094313254

>  <smiles>  (1) 
CCCNC[C@]1(O)[C@H](C)O[C@@H](O[C@H]2[C@H](C)[C@@H](O[C@@H]3O[C@H](C)C[C@H](N(C)C)[C@H]3O)[C@](C)(O)C[C@@H](C)CN[C@H](C)[C@@H](O)[C@](C)(O)[C@@H](CC)OC(=O)[C@@H]2C)C[C@@]1(C)OC

$$$$
