
     RDKit          3D

 61 63  0  0  0  0  0  0  0  0999 V2000
    2.6987   -7.0278    2.6850 C   0  0  0  0  0  0  0  0  0  0  0  0
    3.1718   -6.2615    1.7842 C   0  0  0  0  0  0  0  0  0  0  0  0
    3.0224   -4.9488    1.7128 C   0  0  0  0  0  0  0  0  0  0  0  0
    3.7418   -4.2780    0.3887 C   0  0  1  0  0  0  0  0  0  0  0  0
    2.3837   -3.8115   -0.1796 O   0  0  0  0  0  0  0  0  0  0  0  0
    2.8259   -2.7783   -0.9661 C   0  0  1  0  0  0  0  0  0  0  0  0
    2.2647   -3.0378   -2.2149 O   0  0  0  0  0  0  0  0  0  0  0  0
    2.1728   -1.3911   -0.4252 C   0  0  1  0  0  0  0  0  0  0  0  0
    2.1535   -0.6490   -1.8846 C   0  0  0  0  0  0  0  0  0  0  0  0
    0.5358   -1.9935   -0.4467 C   0  0  2  0  0  0  0  0  0  0  0  0
    0.2934   -1.7607   -1.9271 O   0  0  0  0  0  0  0  0  0  0  0  0
   -0.1009   -0.4684   -0.0175 C   0  0  2  0  0  0  0  0  0  0  0  0
    0.8083   -0.4847    1.3210 C   0  0  0  0  0  0  0  0  0  0  0  0
   -1.3897   -1.1571    0.8482 C   0  0  1  0  0  0  0  0  0  0  0  0
   -2.2163    0.0508    1.2436 O   0  0  0  0  0  0  0  0  0  0  0  0
   -1.3328    1.0269    1.7344 C   0  0  0  0  0  0  0  0  0  0  0  0
   -1.4001    1.5340    2.8682 O   0  0  0  0  0  0  0  0  0  0  0  0
   -1.2565    1.8282    0.4924 C   0  0  0  0  0  0  0  0  0  0  0  0
   -0.1930    2.7470    0.5802 O   0  0  0  0  0  0  0  0  0  0  0  0
   -0.5134    3.9175    1.3337 C   0  0  0  0  0  0  0  0  0  0  0  0
   -1.8788    1.3132   -0.5004 C   0  0  0  0  0  0  0  0  0  0  0  0
   -2.9888    1.9579   -1.2342 C   0  0  0  0  0  0  0  0  0  0  0  0
   -3.0147    1.7149   -2.7195 C   0  0  0  0  0  0  0  0  0  0  0  0
   -3.7510    2.8733   -0.6168 C   0  0  0  0  0  0  0  0  0  0  0  0
   -5.0431    2.1266   -0.0160 C   0  0  1  0  0  0  0  0  0  0  0  0
   -4.6681    2.4464    1.5564 C   0  0  0  0  0  0  0  0  0  0  0  0
   -6.0940    3.5020    0.0787 C   0  0  1  0  0  0  0  0  0  0  0  0
   -6.3998    3.7187   -1.3874 O   0  0  0  0  0  0  0  0  0  0  0  0
   -7.3836    2.4267    0.4443 C   0  0  1  0  0  0  0  0  0  0  0  0
   -8.4943    3.4807   -0.1053 C   0  0  0  0  0  0  0  0  0  0  0  0
   -8.2509    4.7432    0.6959 C   0  0  0  0  0  0  0  0  0  0  0  0
   -7.5921    1.4492   -0.9475 C   0  0  1  0  0  0  0  0  0  0  0  0
   -6.4574    1.9224   -1.8303 O   0  0  0  0  0  0  0  0  0  0  0  0
   -6.5199    0.1932   -0.3962 C   0  0  2  0  0  0  0  0  0  0  0  0
   -6.5586   -0.4589   -1.9009 C   0  0  0  0  0  0  0  0  0  0  0  0
   -7.6480   -0.8390    0.1490 C   0  0  0  0  0  0  0  0  0  0  0  0
   -6.6262   -1.8799    0.6092 C   0  0  0  0  0  0  0  0  0  0  0  0
   -7.5018   -2.8429    1.4019 C   0  0  0  0  0  0  0  0  0  0  0  0
   -5.9518   -2.5331   -0.3415 C   0  0  0  0  0  0  0  0  0  0  0  0
   -4.5220   -2.4802   -0.3877 C   0  0  0  0  0  0  0  0  0  0  0  0
   -3.7208   -1.7316    0.3105 C   0  0  0  0  0  0  0  0  0  0  0  0
   -2.3330   -1.6208   -0.5627 C   0  0  2  0  0  0  0  0  0  0  0  0
   -2.0015   -3.0917   -0.2919 O   0  0  0  0  0  0  0  0  0  0  0  0
   -2.4808   -3.8255   -1.3445 C   0  0  0  0  0  0  0  0  0  0  0  0
    4.2245   -2.6402   -1.2524 C   0  0  0  0  0  0  0  0  0  0  0  0
    5.1198   -2.2564    0.0963 C   0  0  1  0  0  0  0  0  0  0  0  0
    4.6044   -0.8013    0.1090 O   0  0  0  0  0  0  0  0  0  0  0  0
    6.0123   -0.2006   -0.2455 C   0  0  1  0  0  0  0  0  0  0  0  0
    5.3041    1.2871   -0.6851 C   0  0  0  0  0  0  0  0  0  0  0  0
    6.7767    1.9672   -1.0762 C   0  0  1  0  0  0  0  0  0  0  0  0
    6.1242    3.3253   -1.3630 O   0  0  0  0  0  0  0  0  0  0  0  0
    7.0469    2.4151    0.5783 C   0  0  2  0  0  0  0  0  0  0  0  0
    8.4455    2.9323    0.2689 O   0  0  0  0  0  0  0  0  0  0  0  0
    8.5134    4.2605   -0.1312 C   0  0  0  0  0  0  0  0  0  0  0  0
    9.7248    4.8143   -0.6546 N   0  0  0  0  0  0  0  0  0  0  0  0
    7.6818    5.0651    0.3469 O   0  0  0  0  0  0  0  0  0  0  0  0
    7.6393    0.8143    0.8998 C   0  0  1  0  0  0  0  0  0  0  0  0
    7.9184    1.2070    2.4942 C   0  0  0  0  0  0  0  0  0  0  0  0
    6.2269    0.3073    1.2268 O   0  0  0  0  0  0  0  0  0  0  0  0
    3.8988   -2.7653    1.1957 C   0  0  2  0  0  0  0  0  0  0  0  0
    4.9491   -3.3528    2.2448 C   0  0  0  0  0  0  0  0  0  0  0  0
  1  2  1  0
  2  3  2  0
  4  3  1  1
  4  5  1  0
  5  6  1  0
  6  7  1  6
  6  8  1  0
  8  9  1  6
  8 10  1  0
 10 11  1  6
 10 12  1  0
 12 13  1  1
 12 14  1  0
 14 15  1  1
 15 16  1  0
 16 17  2  0
 16 18  1  0
 18 19  1  0
 19 20  1  0
 18 21  2  0
 21 22  1  0
 22 23  1  0
 22 24  2  0
 24 25  1  0
 25 26  1  1
 25 27  1  0
 27 28  1  6
 27 29  1  0
 29 30  1  6
 30 31  1  0
 29 32  1  0
 32 33  1  6
 32 34  1  0
 34 35  1  6
 34 36  1  0
 36 37  1  0
 37 38  1  0
 37 39  2  0
 39 40  1  0
 40 41  2  0
 41 42  1  0
 42 43  1  1
 43 44  1  0
  6 45  1  0
 45 46  1  0
 46 47  1  6
 48 47  1  1
 48 49  1  0
 49 50  1  0
 50 51  1  6
 50 52  1  0
 52 53  1  6
 53 54  1  0
 54 55  1  0
 54 56  2  0
 52 57  1  0
 57 58  1  1
 57 59  1  0
 46 60  1  0
 60 61  1  1
 60  4  1  0
 42 14  1  0
 59 48  1  0
M  END
>  <zinc_id>  (1) 
ZINC000254286797

>  <smiles>  (1) 
C/C=C/[C@H]1O[C@@](O)([C@@H](C)[C@H](O)[C@H](C)[C@H]2OC(=O)/C(OC)=C/C(C)=C/[C@@H](C)[C@@H](O)[C@@H](CC)[C@@H](O)[C@H](C)C/C(C)=C/C=C/[C@@H]2OC)C[C@@H](O[C@H]2C[C@@H](O)[C@H](OC(N)=O)[C@@H](C)O2)[C@@H]1C

$$$$
