
     RDKit          3D

 70 73  0  0  0  0  0  0  0  0999 V2000
   11.1782    2.9265   -0.0613 C   0  0  0  0  0  0  0  0  0  0  0  0
   10.4714    2.3063   -1.0530 C   0  0  0  0  0  0  0  0  0  0  0  0
   10.8351    0.9802   -1.2469 O   0  0  0  0  0  0  0  0  0  0  0  0
   10.1960    0.1458   -0.3453 C   0  0  0  0  0  0  0  0  0  0  0  0
    9.0301   -0.5211   -1.0229 C   0  0  0  0  0  0  0  0  0  0  0  0
    8.5707   -1.6197   -0.3599 O   0  0  0  0  0  0  0  0  0  0  0  0
    7.1841   -1.3254    0.1521 C   0  0  2  0  0  0  0  0  0  0  0  0
    6.7066   -0.6528   -1.2632 C   0  0  0  0  0  0  0  0  0  0  0  0
    5.3492   -0.1365   -0.9014 C   0  0  0  0  0  0  0  0  0  0  0  0
    5.7044    1.2867   -0.1830 C   0  0  1  0  0  0  0  0  0  0  0  0
    4.1718    1.5595    0.3115 C   0  0  0  0  0  0  0  0  0  0  0  0
    3.6993    0.1286    0.8772 C   0  0  1  0  0  0  0  0  0  0  0  0
    3.3215    0.7427    2.3305 C   0  0  0  0  0  0  0  0  0  0  0  0
    2.1143    0.1461    0.2009 C   0  0  2  0  0  0  0  0  0  0  0  0
    1.6902    1.6079    0.8125 C   0  0  0  0  0  0  0  0  0  0  0  0
    1.5342    2.5606   -0.3215 C   0  0  0  0  0  0  0  0  0  0  0  0
    1.9112    2.2472   -1.4549 O   0  0  0  0  0  0  0  0  0  0  0  0
    0.0466    3.1353   -0.5930 C   0  0  2  0  0  0  0  0  0  0  0  0
    0.6452    4.4605   -1.3605 C   0  0  0  0  0  0  0  0  0  0  0  0
   -0.0484    3.9180    0.8097 C   0  0  0  0  0  0  0  0  0  0  0  0
   -1.2118    4.5671    1.0164 C   0  0  0  0  0  0  0  0  0  0  0  0
   -1.0601    5.3901    2.2777 C   0  0  0  0  0  0  0  0  0  0  0  0
   -1.5643    5.5209   -0.2396 C   0  0  1  0  0  0  0  0  0  0  0  0
   -2.3350    4.4428   -0.9708 O   0  0  0  0  0  0  0  0  0  0  0  0
   -2.9375    6.2408    0.5349 C   0  0  1  0  0  0  0  0  0  0  0  0
   -3.5078    6.5608   -0.8242 O   0  0  0  0  0  0  0  0  0  0  0  0
   -3.0443    7.8088   -1.1595 C   0  0  0  0  0  0  0  0  0  0  0  0
   -3.7409    4.8635    0.7985 C   0  0  0  0  0  0  0  0  0  0  0  0
   -4.0326    4.8689    1.9833 O   0  0  0  0  0  0  0  0  0  0  0  0
   -4.9655    4.6876   -0.2289 C   0  0  2  0  0  0  0  0  0  0  0  0
   -5.7685    5.9731    0.3938 C   0  0  0  0  0  0  0  0  0  0  0  0
   -5.7956    3.6073    0.6819 C   0  0  0  0  0  0  0  0  0  0  0  0
   -6.4548    2.9052   -0.6463 C   0  0  2  0  0  0  0  0  0  0  0  0
   -7.7492    3.9051   -0.6104 C   0  0  0  0  0  0  0  0  0  0  0  0
   -7.2034    1.7791    0.2193 C   0  0  0  0  0  0  0  0  0  0  0  0
   -7.3293    0.7027   -0.5623 C   0  0  0  0  0  0  0  0  0  0  0  0
   -6.2121   -0.2444   -0.6620 C   0  0  0  0  0  0  0  0  0  0  0  0
   -5.6291   -0.5720    0.4653 C   0  0  0  0  0  0  0  0  0  0  0  0
   -5.7159   -1.9345    0.9099 C   0  0  0  0  0  0  0  0  0  0  0  0
   -6.0372   -2.9988    0.1640 C   0  0  0  0  0  0  0  0  0  0  0  0
   -7.1959   -3.7318    0.7976 C   0  0  0  0  0  0  0  0  0  0  0  0
   -4.6339   -3.8379    0.1189 C   0  0  1  0  0  0  0  0  0  0  0  0
   -5.2755   -5.2059    0.2892 O   0  0  0  0  0  0  0  0  0  0  0  0
   -5.4247   -5.8620   -0.8233 C   0  0  0  0  0  0  0  0  0  0  0  0
   -4.6093   -3.9199   -1.5352 C   0  0  0  0  0  0  0  0  0  0  0  0
   -3.0246   -3.5437   -1.8198 C   0  0  2  0  0  0  0  0  0  0  0  0
   -2.9016   -4.6467   -3.0417 C   0  0  0  0  0  0  0  0  0  0  0  0
   -1.4630   -5.0108   -3.2126 C   0  0  0  0  0  0  0  0  0  0  0  0
   -1.0237   -5.7762   -1.8286 C   0  0  1  0  0  0  0  0  0  0  0  0
    0.5676   -5.6175   -2.1367 C   0  0  0  0  0  0  0  0  0  0  0  0
   -1.0902   -4.4303   -0.8735 C   0  0  1  0  0  0  0  0  0  0  0  0
   -0.8270   -3.6170   -1.7641 O   0  0  0  0  0  0  0  0  0  0  0  0
   -2.5121   -4.5268   -0.7805 O   0  0  0  0  0  0  0  0  0  0  0  0
   -0.6226   -4.7783    0.4307 C   0  0  0  0  0  0  0  0  0  0  0  0
   -0.9763   -5.9352    0.8723 O   0  0  0  0  0  0  0  0  0  0  0  0
   -0.6954   -3.6668    1.4020 C   0  0  0  0  0  0  0  0  0  0  0  0
   -1.0543   -3.7976    2.6073 O   0  0  0  0  0  0  0  0  0  0  0  0
   -0.5542   -2.3315    0.9247 N   0  0  0  0  0  0  0  0  0  0  0  0
   -0.9097   -1.1482    1.5483 C   0  0  0  0  0  0  0  0  0  0  0  0
   -1.8126   -0.3981    0.5841 C   0  0  0  0  0  0  0  0  0  0  0  0
   -1.1124   -0.4866   -0.7385 C   0  0  0  0  0  0  0  0  0  0  0  0
    0.2949   -0.8235   -0.7148 C   0  0  0  0  0  0  0  0  0  0  0  0
    0.5515   -2.3640   -0.1913 C   0  0  1  0  0  0  0  0  0  0  0  0
    1.7182   -1.9798    0.8592 C   0  0  0  0  0  0  0  0  0  0  0  0
    2.0618   -3.0101    1.5065 O   0  0  0  0  0  0  0  0  0  0  0  0
    1.6227   -0.6990    1.3856 O   0  0  0  0  0  0  0  0  0  0  0  0
    6.1449    0.5626    1.2142 C   0  0  0  0  0  0  0  0  0  0  0  0
    7.6785    0.2116    0.7519 C   0  0  1  0  0  0  0  0  0  0  0  0
    8.0252   -0.3716    2.0981 O   0  0  0  0  0  0  0  0  0  0  0  0
    7.0366   -1.2277    2.4712 C   0  0  0  0  0  0  0  0  0  0  0  0
  1  2  1  0
  2  3  1  0
  3  4  1  0
  4  5  1  0
  5  6  1  0
  7  6  1  6
  7  8  1  0
  8  9  1  0
  9 10  1  0
 10 11  1  1
 12 11  1  6
 12 13  1  0
 12 14  1  0
 14 15  1  1
 15 16  1  0
 16 17  2  0
 16 18  1  0
 18 19  1  6
 18 20  1  0
 20 21  2  0
 21 22  1  0
 21 23  1  0
 23 24  1  6
 23 25  1  0
 25 26  1  6
 26 27  1  0
 25 28  1  0
 28 29  2  0
 28 30  1  0
 30 31  1  1
 30 32  1  0
 32 33  1  0
 33 34  1  1
 33 35  1  0
 35 36  2  0
 36 37  1  0
 37 38  2  0
 38 39  1  0
 39 40  2  0
 40 41  1  0
 40 42  1  0
 42 43  1  1
 43 44  1  0
 42 45  1  0
 46 45  1  1
 46 47  1  0
 47 48  1  0
 48 49  1  0
 49 50  1  6
 49 51  1  0
 51 52  1  6
 51 53  1  0
 51 54  1  0
 54 55  2  0
 54 56  1  0
 56 57  2  0
 56 58  1  0
 58 59  1  0
 59 60  1  0
 60 61  1  0
 61 62  1  0
 63 62  1  6
 63 64  1  0
 64 65  2  0
 64 66  1  0
 10 67  1  0
 67 68  1  0
 68 69  1  1
 69 70  1  0
 68  7  1  0
 66 14  1  0
 53 46  1  0
 63 58  1  0
M  END
>  <zinc_id>  (1) 
ZINC000169677041

>  <smiles>  (1) 
CCOCCO[C@@H]1CC[C@@H](C[C@@H](C)[C@@H]2CC(=O)[C@H](C)/C=C(\C)[C@@H](O)[C@@H](OC)C(=O)[C@H](C)C[C@H](C)/C=C/C=C/C=C(\C)[C@@H](OC)C[C@@H]3CC[C@@H](C)[C@@](O)(O3)C(=O)C(=O)N3CCCC[C@H]3C(=O)O2)C[C@H]1OC

$$$$
