3869
  -OEChem-10051719193D

 48 49  0     1  0  0  0  0  0999 V2000
   -2.5394   -1.7102    2.6460 O   0  0  0  0  0  0  0  0  0  0  0  0
   -3.2137    2.6856   -1.7309 O   0  0  0  0  0  0  0  0  0  0  0  0
   -1.3958    3.5342    1.0335 O   0  0  0  0  0  0  0  0  0  0  0  0
   -0.6017   -2.8328   -0.3105 N   0  0  0  0  0  0  0  0  0  0  0  0
    0.0530    2.7983   -0.5845 N   0  0  0  0  0  0  0  0  0  0  0  0
    0.7643   -3.3273   -0.4839 C   0  0  2  0  0  0  0  0  0  0  0  0
    1.7902   -2.3015    0.0332 C   0  0  0  0  0  0  0  0  0  0  0  0
   -0.8632   -2.5238    1.0864 C   0  0  0  0  0  0  0  0  0  0  0  0
    1.8240   -0.9732   -0.7378 C   0  0  0  0  0  0  0  0  0  0  0  0
   -2.2944   -2.0042    1.2714 C   0  0  2  0  0  0  0  0  0  0  0  0
    1.0137   -3.6332   -1.9611 C   0  0  0  0  0  0  0  0  0  0  0  0
   -2.5348   -0.7448    0.4682 C   0  0  0  0  0  0  0  0  0  0  0  0
    2.8815   -0.0133   -0.2537 C   0  0  0  0  0  0  0  0  0  0  0  0
   -1.7298    0.3601    0.6852 C   0  0  0  0  0  0  0  0  0  0  0  0
   -3.5559   -0.7248   -0.4659 C   0  0  0  0  0  0  0  0  0  0  0  0
    2.5702    0.8948    0.7471 C   0  0  0  0  0  0  0  0  0  0  0  0
    4.1477   -0.0540   -0.8176 C   0  0  0  0  0  0  0  0  0  0  0  0
   -1.9531    1.5212   -0.0549 C   0  0  0  0  0  0  0  0  0  0  0  0
   -3.7790    0.4364   -1.2061 C   0  0  0  0  0  0  0  0  0  0  0  0
   -2.9775    1.5593   -1.0006 C   0  0  0  0  0  0  0  0  0  0  0  0
    3.5481    1.7832    1.1945 C   0  0  0  0  0  0  0  0  0  0  0  0
    5.1257    0.8342   -0.3700 C   0  0  0  0  0  0  0  0  0  0  0  0
    4.8258    1.7528    0.6360 C   0  0  0  0  0  0  0  0  0  0  0  0
   -1.1059    2.6829    0.1761 C   0  0  0  0  0  0  0  0  0  0  0  0
    0.8913   -4.2602    0.0805 H   0  0  0  0  0  0  0  0  0  0  0  0
    2.7830   -2.7645   -0.0731 H   0  0  0  0  0  0  0  0  0  0  0  0
    1.7125   -2.1272    1.1112 H   0  0  0  0  0  0  0  0  0  0  0  0
   -1.2665   -3.5302   -0.6438 H   0  0  0  0  0  0  0  0  0  0  0  0
   -0.7367   -3.4216    1.7058 H   0  0  0  0  0  0  0  0  0  0  0  0
   -0.1871   -1.7742    1.5043 H   0  0  0  0  0  0  0  0  0  0  0  0
    0.8464   -0.4803   -0.6833 H   0  0  0  0  0  0  0  0  0  0  0  0
    1.9986   -1.1506   -1.8055 H   0  0  0  0  0  0  0  0  0  0  0  0
   -3.0094   -2.7841    0.9806 H   0  0  0  0  0  0  0  0  0  0  0  0
    0.7625   -2.7904   -2.6136 H   0  0  0  0  0  0  0  0  0  0  0  0
    2.0600   -3.9054   -2.1366 H   0  0  0  0  0  0  0  0  0  0  0  0
    0.3957   -4.4799   -2.2820 H   0  0  0  0  0  0  0  0  0  0  0  0
   -0.9413    0.3445    1.4323 H   0  0  0  0  0  0  0  0  0  0  0  0
   -4.1865   -1.5927   -0.6350 H   0  0  0  0  0  0  0  0  0  0  0  0
    1.5820    0.9194    1.1960 H   0  0  0  0  0  0  0  0  0  0  0  0
    4.3918   -0.7670   -1.5998 H   0  0  0  0  0  0  0  0  0  0  0  0
   -2.3771   -2.5243    3.1526 H   0  0  0  0  0  0  0  0  0  0  0  0
   -4.5792    0.4596   -1.9408 H   0  0  0  0  0  0  0  0  0  0  0  0
    3.3150    2.4969    1.9792 H   0  0  0  0  0  0  0  0  0  0  0  0
    6.1209    0.8102   -0.8043 H   0  0  0  0  0  0  0  0  0  0  0  0
    5.5875    2.4441    0.9848 H   0  0  0  0  0  0  0  0  0  0  0  0
   -2.5842    3.3843   -1.4895 H   0  0  0  0  0  0  0  0  0  0  0  0
    0.6843    3.5826   -0.4587 H   0  0  0  0  0  0  0  0  0  0  0  0
    0.3104    2.1081   -1.2830 H   0  0  0  0  0  0  0  0  0  0  0  0
  1 10  1  0  0  0  0
  1 41  1  0  0  0  0
  2 20  1  0  0  0  0
  2 46  1  0  0  0  0
  3 24  2  0  0  0  0
  4  6  1  0  0  0  0
  4  8  1  0  0  0  0
  4 28  1  0  0  0  0
  5 24  1  0  0  0  0
  5 47  1  0  0  0  0
  5 48  1  0  0  0  0
  6  7  1  0  0  0  0
  6 11  1  0  0  0  0
  6 25  1  0  0  0  0
  7  9  1  0  0  0  0
  7 26  1  0  0  0  0
  7 27  1  0  0  0  0
  8 10  1  0  0  0  0
  8 29  1  0  0  0  0
  8 30  1  0  0  0  0
  9 13  1  0  0  0  0
  9 31  1  0  0  0  0
  9 32  1  0  0  0  0
 10 12  1  0  0  0  0
 10 33  1  0  0  0  0
 11 34  1  0  0  0  0
 11 35  1  0  0  0  0
 11 36  1  0  0  0  0
 12 14  2  0  0  0  0
 12 15  1  0  0  0  0
 13 16  2  0  0  0  0
 13 17  1  0  0  0  0
 14 18  1  0  0  0  0
 14 37  1  0  0  0  0
 15 19  2  0  0  0  0
 15 38  1  0  0  0  0
 16 21  1  0  0  0  0
 16 39  1  0  0  0  0
 17 22  2  0  0  0  0
 17 40  1  0  0  0  0
 18 20  2  0  0  0  0
 18 24  1  0  0  0  0
 19 20  1  0  0  0  0
 19 42  1  0  0  0  0
 21 23  2  0  0  0  0
 21 43  1  0  0  0  0
 22 23  1  0  0  0  0
 22 44  1  0  0  0  0
 23 45  1  0  0  0  0
M  END
> <DATABASE_ID>
DB00598

> <DATABASE_NAME>
drugbank

> <ORIGINAL_SOURCE>
PUBCHEM

> <ORIGINAL_SOURCE_URL>
https://pubchem.ncbi.nlm.nih.gov/rest/pug/compound/inchikey/SGUAFYQXFOLMHL-UHFFFAOYSA-N/SDF?record_type=3d

> <SMILES>
CC(CCC1=CC=CC=C1)NCC(O)C1=CC(C(N)=O)=C(O)C=C1

> <INCHI_IDENTIFIER>
InChI=1S/C19H24N2O3/c1-13(7-8-14-5-3-2-4-6-14)21-12-18(23)15-9-10-17(22)16(11-15)19(20)24/h2-6,9-11,13,18,21-23H,7-8,12H2,1H3,(H2,20,24)

> <INCHI_KEY>
SGUAFYQXFOLMHL-UHFFFAOYSA-N

> <FORMULA>
C19H24N2O3

> <MOLECULAR_WEIGHT>
328.4055

> <EXACT_MASS>
328.178692644

> <JCHEM_ACCEPTOR_COUNT>
4

> <JCHEM_ATOM_COUNT>
48

> <JCHEM_AVERAGE_NEUTRAL_MICROSPECIES_CHARGE>
0.9165187242393862

> <JCHEM_AVERAGE_POLARIZABILITY>
36.834566289524936

> <JCHEM_BIOAVAILABILITY>
1

> <JCHEM_DONOR_COUNT>
4

> <JCHEM_FORMAL_CHARGE>
0

> <JCHEM_GHOSE_FILTER>
1

> <JCHEM_IUPAC>
2-hydroxy-5-{1-hydroxy-2-[(4-phenylbutan-2-yl)amino]ethyl}benzamide

> <ALOGPS_LOGP>
1.73

> <JCHEM_LOGP>
1.886505183063263

> <ALOGPS_LOGS>
-4.75

> <JCHEM_MDDR_LIKE_RULE>
0

> <JCHEM_NEUTRAL_CHARGE>
1

> <JCHEM_NUMBER_OF_RINGS>
2

> <JCHEM_PHYSIOLOGICAL_CHARGE>
1

> <JCHEM_PKA>
14.107054338746938

> <JCHEM_PKA_STRONGEST_ACIDIC>
8.04959652157084

> <JCHEM_PKA_STRONGEST_BASIC>
9.800780452003565

> <JCHEM_POLAR_SURFACE_AREA>
95.58

> <JCHEM_REFRACTIVITY>
94.71520000000001

> <JCHEM_ROTATABLE_BOND_COUNT>
8

> <JCHEM_RULE_OF_FIVE>
1

> <ALOGPS_SOLUBILITY>
5.78e-03 g/l

> <JCHEM_TRADITIONAL_IUPAC>
biotin

> <JCHEM_VEBER_RULE>
0

$$$$
