39042
  -OEChem-10051719343D

 45 46  0     0  0  0  0  0  0999 V2000
    4.9343   -4.3123    0.1083 Cl  0  0  0  0  0  0  0  0  0  0  0  0
   -3.8398    0.0230    0.6388 O   0  0  0  0  0  0  0  0  0  0  0  0
   -5.4111   -2.9116   -0.6908 O   0  0  0  0  0  0  0  0  0  0  0  0
   -5.9944   -1.4486    0.9333 O   0  0  0  0  0  0  0  0  0  0  0  0
    3.9862    2.2639    0.4175 O   0  0  0  0  0  0  0  0  0  0  0  0
    2.1081    1.6850   -0.8145 N   0  0  0  0  0  0  0  0  0  0  0  0
   -3.9240   -1.0596   -0.2884 C   0  0  0  0  0  0  0  0  0  0  0  0
    0.6406    3.4178    0.1558 C   0  0  0  0  0  0  0  0  0  0  0  0
   -0.5435    2.5206    0.2841 C   0  0  0  0  0  0  0  0  0  0  0  0
    1.5932    3.0181   -0.9778 C   0  0  0  0  0  0  0  0  0  0  0  0
   -2.7535    0.8455    0.5217 C   0  0  0  0  0  0  0  0  0  0  0  0
   -3.9911   -0.4728   -1.6953 C   0  0  0  0  0  0  0  0  0  0  0  0
   -2.7006   -1.9492   -0.0886 C   0  0  0  0  0  0  0  0  0  0  0  0
   -1.7126    2.8039   -0.4220 C   0  0  0  0  0  0  0  0  0  0  0  0
   -0.4821    1.3977    1.1092 C   0  0  0  0  0  0  0  0  0  0  0  0
   -2.8201    1.9644   -0.3029 C   0  0  0  0  0  0  0  0  0  0  0  0
   -1.5896    0.5581    1.2283 C   0  0  0  0  0  0  0  0  0  0  0  0
   -5.2077   -1.8005    0.0622 C   0  0  0  0  0  0  0  0  0  0  0  0
    3.2803    1.4142   -0.1194 C   0  0  0  0  0  0  0  0  0  0  0  0
    3.6916   -0.0122   -0.0630 C   0  0  0  0  0  0  0  0  0  0  0  0
    5.0300   -0.3137    0.0812 C   0  0  0  0  0  0  0  0  0  0  0  0
    2.7228   -0.9898   -0.1554 C   0  0  0  0  0  0  0  0  0  0  0  0
    5.4169   -1.6527    0.1352 C   0  0  0  0  0  0  0  0  0  0  0  0
    3.1096   -2.3289   -0.1014 C   0  0  0  0  0  0  0  0  0  0  0  0
    4.4567   -2.6604    0.0438 C   0  0  0  0  0  0  0  0  0  0  0  0
    1.1885    3.4349    1.1075 H   0  0  0  0  0  0  0  0  0  0  0  0
    0.3062    4.4505   -0.0064 H   0  0  0  0  0  0  0  0  0  0  0  0
    1.0743    3.0468   -1.9425 H   0  0  0  0  0  0  0  0  0  0  0  0
    2.4280    3.7260   -1.0237 H   0  0  0  0  0  0  0  0  0  0  0  0
   -4.7706    0.2936   -1.7730 H   0  0  0  0  0  0  0  0  0  0  0  0
   -4.2377   -1.2521   -2.4262 H   0  0  0  0  0  0  0  0  0  0  0  0
   -3.0432   -0.0366   -2.0257 H   0  0  0  0  0  0  0  0  0  0  0  0
   -2.8027   -2.8828   -0.6545 H   0  0  0  0  0  0  0  0  0  0  0  0
   -1.7710   -1.4874   -0.4362 H   0  0  0  0  0  0  0  0  0  0  0  0
   -2.5753   -2.2270    0.9642 H   0  0  0  0  0  0  0  0  0  0  0  0
   -1.7742    3.6774   -1.0657 H   0  0  0  0  0  0  0  0  0  0  0  0
    0.4193    1.1685    1.6716 H   0  0  0  0  0  0  0  0  0  0  0  0
   -3.7312    2.2117   -0.8396 H   0  0  0  0  0  0  0  0  0  0  0  0
   -1.5348   -0.2983    1.8938 H   0  0  0  0  0  0  0  0  0  0  0  0
    1.6057    0.9449   -1.2921 H   0  0  0  0  0  0  0  0  0  0  0  0
    5.7904    0.4585    0.1486 H   0  0  0  0  0  0  0  0  0  0  0  0
    1.6623   -0.7753   -0.2344 H   0  0  0  0  0  0  0  0  0  0  0  0
   -6.2425   -3.3715   -0.4472 H   0  0  0  0  0  0  0  0  0  0  0  0
    6.4703   -1.8964    0.2472 H   0  0  0  0  0  0  0  0  0  0  0  0
    2.3499   -3.1037   -0.1664 H   0  0  0  0  0  0  0  0  0  0  0  0
  1 25  1  0  0  0  0
  2  7  1  0  0  0  0
  2 11  1  0  0  0  0
  3 18  1  0  0  0  0
  3 43  1  0  0  0  0
  4 18  2  0  0  0  0
  5 19  2  0  0  0  0
  6 10  1  0  0  0  0
  6 19  1  0  0  0  0
  6 40  1  0  0  0  0
  7 12  1  0  0  0  0
  7 13  1  0  0  0  0
  7 18  1  0  0  0  0
  8  9  1  0  0  0  0
  8 10  1  0  0  0  0
  8 26  1  0  0  0  0
  8 27  1  0  0  0  0
  9 14  2  0  0  0  0
  9 15  1  0  0  0  0
 10 28  1  0  0  0  0
 10 29  1  0  0  0  0
 11 16  2  0  0  0  0
 11 17  1  0  0  0  0
 12 30  1  0  0  0  0
 12 31  1  0  0  0  0
 12 32  1  0  0  0  0
 13 33  1  0  0  0  0
 13 34  1  0  0  0  0
 13 35  1  0  0  0  0
 14 16  1  0  0  0  0
 14 36  1  0  0  0  0
 15 17  2  0  0  0  0
 15 37  1  0  0  0  0
 16 38  1  0  0  0  0
 17 39  1  0  0  0  0
 19 20  1  0  0  0  0
 20 21  2  0  0  0  0
 20 22  1  0  0  0  0
 21 23  1  0  0  0  0
 21 41  1  0  0  0  0
 22 24  2  0  0  0  0
 22 42  1  0  0  0  0
 23 25  2  0  0  0  0
 23 44  1  0  0  0  0
 24 25  1  0  0  0  0
 24 45  1  0  0  0  0
M  END
> <DATABASE_ID>
DB01393

> <DATABASE_NAME>
drugbank

> <ORIGINAL_SOURCE>
PUBCHEM

> <ORIGINAL_SOURCE_URL>
https://pubchem.ncbi.nlm.nih.gov/rest/pug/compound/inchikey/IIBYAHWJQTYFKB-UHFFFAOYSA-N/SDF?record_type=3d

> <SMILES>
CC(C)(OC1=CC=C(CCNC(=O)C2=CC=C(Cl)C=C2)C=C1)C(O)=O

> <INCHI_IDENTIFIER>
InChI=1S/C19H20ClNO4/c1-19(2,18(23)24)25-16-9-3-13(4-10-16)11-12-21-17(22)14-5-7-15(20)8-6-14/h3-10H,11-12H2,1-2H3,(H,21,22)(H,23,24)

> <INCHI_KEY>
IIBYAHWJQTYFKB-UHFFFAOYSA-N

> <FORMULA>
C19H20ClNO4

> <MOLECULAR_WEIGHT>
361.819

> <EXACT_MASS>
361.10808584

> <JCHEM_ACCEPTOR_COUNT>
4

> <JCHEM_ATOM_COUNT>
45

> <JCHEM_AVERAGE_NEUTRAL_MICROSPECIES_CHARGE>
-0.9993262072484088

> <JCHEM_AVERAGE_POLARIZABILITY>
37.5302964971406

> <JCHEM_BIOAVAILABILITY>
1

> <JCHEM_DONOR_COUNT>
2

> <JCHEM_FORMAL_CHARGE>
0

> <JCHEM_GHOSE_FILTER>
1

> <JCHEM_IUPAC>
2-(4-{2-[(4-chlorophenyl)formamido]ethyl}phenoxy)-2-methylpropanoic acid

> <ALOGPS_LOGP>
3.97

> <JCHEM_LOGP>
3.986583345666667

> <ALOGPS_LOGS>
-5.37

> <JCHEM_MDDR_LIKE_RULE>
0

> <JCHEM_NEUTRAL_CHARGE>
-1

> <JCHEM_NUMBER_OF_RINGS>
2

> <JCHEM_PHYSIOLOGICAL_CHARGE>
-1

> <JCHEM_PKA>
14.745638150722504

> <JCHEM_PKA_STRONGEST_ACIDIC>
3.82883068613538

> <JCHEM_PKA_STRONGEST_BASIC>
-0.8434560009342841

> <JCHEM_POLAR_SURFACE_AREA>
75.63

> <JCHEM_REFRACTIVITY>
95.96050000000001

> <JCHEM_ROTATABLE_BOND_COUNT>
7

> <JCHEM_RULE_OF_FIVE>
1

> <ALOGPS_SOLUBILITY>
1.55e-03 g/l

> <JCHEM_TRADITIONAL_IUPAC>
biotin

> <JCHEM_VEBER_RULE>
0

$$$$
