3036505
  -OEChem-10051720453D

 50 52  0     0  0  0  0  0  0999 V2000
    5.3074   -2.3904   -0.5973 Cl  0  0  0  0  0  0  0  0  0  0  0  0
   -4.1953    1.7515   -0.3844 O   0  0  0  0  0  0  0  0  0  0  0  0
   -6.4237    0.1490   -0.8491 O   0  0  0  0  0  0  0  0  0  0  0  0
    1.5317   -0.9984    0.2288 C   0  0  0  0  0  0  0  0  0  0  0  0
    1.2047    0.3316    0.1054 C   0  0  0  0  0  0  0  0  0  0  0  0
    2.9489   -1.5170    0.4316 C   0  0  0  0  0  0  0  0  0  0  0  0
   -0.2408    0.7110   -0.0259 C   0  0  0  0  0  0  0  0  0  0  0  0
    0.5090   -2.0743    0.2285 C   0  0  0  0  0  0  0  0  0  0  0  0
    2.2395    1.3538    0.1050 C   0  0  0  0  0  0  0  0  0  0  0  0
   -0.9544    0.9641    1.1190 C   0  0  0  0  0  0  0  0  0  0  0  0
   -0.7828    0.7882   -1.2844 C   0  0  0  0  0  0  0  0  0  0  0  0
    3.6523   -1.8048   -0.8923 C   0  0  0  0  0  0  0  0  0  0  0  0
    0.1424   -2.6466   -0.9728 C   0  0  0  0  0  0  0  0  0  0  0  0
   -0.0439   -2.4703    1.4294 C   0  0  0  0  0  0  0  0  0  0  0  0
    2.6496    1.9316    1.3065 C   0  0  0  0  0  0  0  0  0  0  0  0
    2.8223    1.7559   -1.0967 C   0  0  0  0  0  0  0  0  0  0  0  0
   -2.2983    1.3175    0.9972 C   0  0  0  0  0  0  0  0  0  0  0  0
   -2.1266    1.1416   -1.4062 C   0  0  0  0  0  0  0  0  0  0  0  0
   -2.8844    1.4063   -0.2653 C   0  0  0  0  0  0  0  0  0  0  0  0
   -0.8182   -3.6581   -0.9732 C   0  0  0  0  0  0  0  0  0  0  0  0
   -1.0044   -3.4819    1.4292 C   0  0  0  0  0  0  0  0  0  0  0  0
    3.6423    2.9115    1.3064 C   0  0  0  0  0  0  0  0  0  0  0  0
    3.8152    2.7357   -1.0970 C   0  0  0  0  0  0  0  0  0  0  0  0
   -1.3916   -4.0758    0.2278 C   0  0  0  0  0  0  0  0  0  0  0  0
    4.2251    3.3134    0.1047 C   0  0  0  0  0  0  0  0  0  0  0  0
   -5.0638    1.3834    0.6863 C   0  0  0  0  0  0  0  0  0  0  0  0
   -6.4621    1.1716    0.1387 C   0  0  0  0  0  0  0  0  0  0  0  0
    2.9288   -2.4280    1.0455 H   0  0  0  0  0  0  0  0  0  0  0  0
    3.5389   -0.8016    1.0167 H   0  0  0  0  0  0  0  0  0  0  0  0
   -0.5047    0.9030    2.1056 H   0  0  0  0  0  0  0  0  0  0  0  0
   -0.2009    0.5838   -2.1782 H   0  0  0  0  0  0  0  0  0  0  0  0
    3.7300   -0.9154   -1.5213 H   0  0  0  0  0  0  0  0  0  0  0  0
    3.1335   -2.5821   -1.4607 H   0  0  0  0  0  0  0  0  0  0  0  0
    0.5800   -2.3283   -1.9148 H   0  0  0  0  0  0  0  0  0  0  0  0
    0.2513   -2.0157    2.3710 H   0  0  0  0  0  0  0  0  0  0  0  0
    2.2071    1.6287    2.2525 H   0  0  0  0  0  0  0  0  0  0  0  0
    2.5135    1.3177   -2.0428 H   0  0  0  0  0  0  0  0  0  0  0  0
   -2.8448    1.5414    1.9085 H   0  0  0  0  0  0  0  0  0  0  0  0
   -2.5781    1.2087   -2.3923 H   0  0  0  0  0  0  0  0  0  0  0  0
   -1.1202   -4.1199   -1.9087 H   0  0  0  0  0  0  0  0  0  0  0  0
   -1.4510   -3.8070    2.3643 H   0  0  0  0  0  0  0  0  0  0  0  0
    3.9619    3.3610    2.2420 H   0  0  0  0  0  0  0  0  0  0  0  0
    4.2689    3.0490   -2.0326 H   0  0  0  0  0  0  0  0  0  0  0  0
   -2.1397   -4.8630    0.2276 H   0  0  0  0  0  0  0  0  0  0  0  0
    4.9981    4.0762    0.1045 H   0  0  0  0  0  0  0  0  0  0  0  0
   -5.0736    2.1789    1.4393 H   0  0  0  0  0  0  0  0  0  0  0  0
   -4.7431    0.4385    1.1439 H   0  0  0  0  0  0  0  0  0  0  0  0
   -7.1539    0.8691    0.9297 H   0  0  0  0  0  0  0  0  0  0  0  0
   -6.8415    2.0811   -0.3375 H   0  0  0  0  0  0  0  0  0  0  0  0
   -5.7958    0.4301   -1.5365 H   0  0  0  0  0  0  0  0  0  0  0  0
  1 12  1  0  0  0  0
  2 19  1  0  0  0  0
  2 26  1  0  0  0  0
  3 27  1  0  0  0  0
  3 50  1  0  0  0  0
  4  5  2  0  0  0  0
  4  6  1  0  0  0  0
  4  8  1  0  0  0  0
  5  7  1  0  0  0  0
  5  9  1  0  0  0  0
  6 12  1  0  0  0  0
  6 28  1  0  0  0  0
  6 29  1  0  0  0  0
  7 10  2  0  0  0  0
  7 11  1  0  0  0  0
  8 13  2  0  0  0  0
  8 14  1  0  0  0  0
  9 15  2  0  0  0  0
  9 16  1  0  0  0  0
 10 17  1  0  0  0  0
 10 30  1  0  0  0  0
 11 18  2  0  0  0  0
 11 31  1  0  0  0  0
 12 32  1  0  0  0  0
 12 33  1  0  0  0  0
 13 20  1  0  0  0  0
 13 34  1  0  0  0  0
 14 21  2  0  0  0  0
 14 35  1  0  0  0  0
 15 22  1  0  0  0  0
 15 36  1  0  0  0  0
 16 23  2  0  0  0  0
 16 37  1  0  0  0  0
 17 19  2  0  0  0  0
 17 38  1  0  0  0  0
 18 19  1  0  0  0  0
 18 39  1  0  0  0  0
 20 24  2  0  0  0  0
 20 40  1  0  0  0  0
 21 24  1  0  0  0  0
 21 41  1  0  0  0  0
 22 25  2  0  0  0  0
 22 42  1  0  0  0  0
 23 25  1  0  0  0  0
 23 43  1  0  0  0  0
 24 44  1  0  0  0  0
 25 45  1  0  0  0  0
 26 27  1  0  0  0  0
 26 46  1  0  0  0  0
 26 47  1  0  0  0  0
 27 48  1  0  0  0  0
 27 49  1  0  0  0  0
M  END
> <DATABASE_ID>
DB04938

> <DATABASE_NAME>
drugbank

> <ORIGINAL_SOURCE>
PUBCHEM

> <ORIGINAL_SOURCE_URL>
https://pubchem.ncbi.nlm.nih.gov/rest/pug/compound/inchikey/LUMKNAVTFCDUIE-VHXPQNKSSA-N/SDF?record_type=3d

> <SMILES>
OCCOC1=CC=C(C=C1)C(=C(\CCCl)C1=CC=CC=C1)\C1=CC=CC=C1

> <INCHI_IDENTIFIER>
InChI=1S/C24H23ClO2/c25-16-15-23(19-7-3-1-4-8-19)24(20-9-5-2-6-10-20)21-11-13-22(14-12-21)27-18-17-26/h1-14,26H,15-18H2/b24-23-

> <INCHI_KEY>
LUMKNAVTFCDUIE-VHXPQNKSSA-N

> <FORMULA>
C24H23ClO2

> <MOLECULAR_WEIGHT>
378.891

> <EXACT_MASS>
378.138657687

> <JCHEM_ACCEPTOR_COUNT>
2

> <JCHEM_ATOM_COUNT>
50

> <JCHEM_AVERAGE_NEUTRAL_MICROSPECIES_CHARGE>
-7.727112536136217e-09

> <JCHEM_AVERAGE_POLARIZABILITY>
41.96786881666529

> <JCHEM_BIOAVAILABILITY>
1

> <JCHEM_DONOR_COUNT>
1

> <JCHEM_FORMAL_CHARGE>
0

> <JCHEM_GHOSE_FILTER>
1

> <JCHEM_IUPAC>
2-{4-[(1Z)-4-chloro-1,2-diphenylbut-1-en-1-yl]phenoxy}ethan-1-ol

> <ALOGPS_LOGP>
5.70

> <JCHEM_LOGP>
5.560388660666667

> <ALOGPS_LOGS>
-5.86

> <JCHEM_MDDR_LIKE_RULE>
1

> <JCHEM_NEUTRAL_CHARGE>
0

> <JCHEM_NUMBER_OF_RINGS>
3

> <JCHEM_PHYSIOLOGICAL_CHARGE>
0

> <JCHEM_PKA_STRONGEST_ACIDIC>
15.102173097502284

> <JCHEM_PKA_STRONGEST_BASIC>
-2.754109487152501

> <JCHEM_POLAR_SURFACE_AREA>
29.46

> <JCHEM_REFRACTIVITY>
121.68370000000003

> <JCHEM_ROTATABLE_BOND_COUNT>
8

> <JCHEM_RULE_OF_FIVE>
0

> <ALOGPS_SOLUBILITY>
5.26e-04 g/l

> <JCHEM_TRADITIONAL_IUPAC>
tetrahydrofolic acid

> <JCHEM_VEBER_RULE>
1

$$$$
