
     RDKit          3D

 13 12  0  0  0  0  0  0  0  0999 V2000
    3.3454   -1.6576    0.6256 N   0  0  0  0  0  0  0  0  0  0  0  0
    2.5979   -0.9878   -0.5974 C   0  0  1  0  0  0  0  0  0  0  0  0
    1.1357   -1.0998    0.1621 C   0  0  0  0  0  0  0  0  0  0  0  0
    0.1794   -1.0584   -0.9817 C   0  0  0  0  0  0  0  0  0  0  0  0
   -0.7335    0.1720   -0.9527 C   0  0  0  0  0  0  0  0  0  0  0  0
   -1.7795    0.0492   -0.1474 C   0  0  0  0  0  0  0  0  0  0  0  0
   -3.1004    0.4201    0.3411 B   0  0  0  0  0  0  0  0  0  0  0  0
   -3.9936   -0.7589    0.1605 O   0  0  0  0  0  0  0  0  0  0  0  0
   -3.7392    1.5594   -0.3518 O   0  0  0  0  0  0  0  0  0  0  0  0
   -2.9558    0.7040    1.7963 O   0  0  0  0  0  0  0  0  0  0  0  0
    2.9092    0.5056   -0.0686 C   0  0  0  0  0  0  0  0  0  0  0  0
    2.4003    0.9251    0.9241 O   0  0  0  0  0  0  0  0  0  0  0  0
    3.7339    1.2271   -0.9100 O   0  0  0  0  0  0  0  0  0  0  0  0
  2  1  1  1
  2  3  1  0
  3  4  1  0
  4  5  1  0
  5  6  1  0
  6  7  1  0
  7  8  1  0
  7  9  1  0
  7 10  1  0
  2 11  1  0
 11 12  2  0
 11 13  1  0
M  CHG  1   7  -1
M  END
>  <zinc_id>  (1) 
ZINC000169748469

>  <smiles>  (1) 
N[C@@H](CCCC[B-](O)(O)O)C(=O)O

$$$$
