5321765
  -OEChem-10051721033D

 47 48  0     0  0  0  0  0  0999 V2000
   -4.3080    1.9590   -1.2367 O   0  0  0  0  0  0  0  0  0  0  0  0
   -0.3796    2.9503    1.2554 O   0  0  0  0  0  0  0  0  0  0  0  0
    0.3659   -0.1001    2.5081 O   0  0  0  0  0  0  0  0  0  0  0  0
    7.7197   -0.5741   -1.5664 O   0  0  0  0  0  0  0  0  0  0  0  0
   -2.8263    0.1830   -0.6082 C   0  0  0  0  0  0  0  0  0  0  0  0
   -3.7113   -0.8340   -1.2846 C   0  0  0  0  0  0  0  0  0  0  0  0
   -3.1724    1.5263   -0.6204 C   0  0  0  0  0  0  0  0  0  0  0  0
   -1.6687   -0.2530    0.0206 C   0  0  0  0  0  0  0  0  0  0  0  0
   -0.8394    0.6749    0.6505 C   0  0  0  0  0  0  0  0  0  0  0  0
   -1.1765    2.0285    0.6450 C   0  0  0  0  0  0  0  0  0  0  0  0
   -4.7543   -1.3912   -0.3572 C   0  0  0  0  0  0  0  0  0  0  0  0
   -2.3431    2.4541    0.0097 C   0  0  0  0  0  0  0  0  0  0  0  0
   -4.9246   -2.6720    0.0225 C   0  0  0  0  0  0  0  0  0  0  0  0
    0.3738    0.2098    1.3082 C   0  0  0  0  0  0  0  0  0  0  0  0
   -5.9925   -3.1653    0.9571 C   0  0  0  0  0  0  0  0  0  0  0  0
   -4.0128   -3.7495   -0.5016 C   0  0  0  0  0  0  0  0  0  0  0  0
    1.6434    0.1432    0.5085 C   0  0  0  0  0  0  0  0  0  0  0  0
    2.7897   -0.2532    1.0810 C   0  0  0  0  0  0  0  0  0  0  0  0
    4.0857   -0.3370    0.3848 C   0  0  0  0  0  0  0  0  0  0  0  0
   -4.5751    3.3592   -1.1935 C   0  0  0  0  0  0  0  0  0  0  0  0
    4.1097   -0.4035   -0.9987 C   0  0  0  0  0  0  0  0  0  0  0  0
    5.2550   -0.3481    1.1278 C   0  0  0  0  0  0  0  0  0  0  0  0
    5.3367   -0.4835   -1.6574 C   0  0  0  0  0  0  0  0  0  0  0  0
    6.4820   -0.4280    0.4690 C   0  0  0  0  0  0  0  0  0  0  0  0
    6.5228   -0.4957   -0.9235 C   0  0  0  0  0  0  0  0  0  0  0  0
   -4.2271   -0.3709   -2.1360 H   0  0  0  0  0  0  0  0  0  0  0  0
   -3.0863   -1.6032   -1.7484 H   0  0  0  0  0  0  0  0  0  0  0  0
   -1.4075   -1.3084    0.0257 H   0  0  0  0  0  0  0  0  0  0  0  0
   -5.4546   -0.6573    0.0412 H   0  0  0  0  0  0  0  0  0  0  0  0
   -2.5540    3.5177    0.0378 H   0  0  0  0  0  0  0  0  0  0  0  0
   -6.6470   -2.3512    1.2854 H   0  0  0  0  0  0  0  0  0  0  0  0
   -6.6158   -3.9164    0.4614 H   0  0  0  0  0  0  0  0  0  0  0  0
   -5.5438   -3.6137    1.8493 H   0  0  0  0  0  0  0  0  0  0  0  0
   -3.0066   -3.3987   -0.7414 H   0  0  0  0  0  0  0  0  0  0  0  0
   -3.8772   -4.5306    0.2555 H   0  0  0  0  0  0  0  0  0  0  0  0
   -4.4510   -4.2164   -1.3894 H   0  0  0  0  0  0  0  0  0  0  0  0
    1.5667    0.4550   -0.5268 H   0  0  0  0  0  0  0  0  0  0  0  0
    2.8087   -0.5285    2.1329 H   0  0  0  0  0  0  0  0  0  0  0  0
   -0.7703    3.8343    1.1491 H   0  0  0  0  0  0  0  0  0  0  0  0
   -3.8051    3.9343   -1.7192 H   0  0  0  0  0  0  0  0  0  0  0  0
   -4.7328    3.7095   -0.1676 H   0  0  0  0  0  0  0  0  0  0  0  0
   -5.5147    3.5236   -1.7314 H   0  0  0  0  0  0  0  0  0  0  0  0
    3.2124   -0.4191   -1.6091 H   0  0  0  0  0  0  0  0  0  0  0  0
    5.2396   -0.2947    2.2131 H   0  0  0  0  0  0  0  0  0  0  0  0
    5.3626   -0.5409   -2.7423 H   0  0  0  0  0  0  0  0  0  0  0  0
    7.3989   -0.4364    1.0522 H   0  0  0  0  0  0  0  0  0  0  0  0
    8.4332   -0.5710   -0.9054 H   0  0  0  0  0  0  0  0  0  0  0  0
  1  7  1  0  0  0  0
  1 20  1  0  0  0  0
  2 10  1  0  0  0  0
  2 39  1  0  0  0  0
  3 14  2  0  0  0  0
  4 25  1  0  0  0  0
  4 47  1  0  0  0  0
  5  6  1  0  0  0  0
  5  7  1  0  0  0  0
  5  8  2  0  0  0  0
  6 11  1  0  0  0  0
  6 26  1  0  0  0  0
  6 27  1  0  0  0  0
  7 12  2  0  0  0  0
  8  9  1  0  0  0  0
  8 28  1  0  0  0  0
  9 10  2  0  0  0  0
  9 14  1  0  0  0  0
 10 12  1  0  0  0  0
 11 13  2  0  0  0  0
 11 29  1  0  0  0  0
 12 30  1  0  0  0  0
 13 15  1  0  0  0  0
 13 16  1  0  0  0  0
 14 17  1  0  0  0  0
 15 31  1  0  0  0  0
 15 32  1  0  0  0  0
 15 33  1  0  0  0  0
 16 34  1  0  0  0  0
 16 35  1  0  0  0  0
 16 36  1  0  0  0  0
 17 18  2  0  0  0  0
 17 37  1  0  0  0  0
 18 19  1  0  0  0  0
 18 38  1  0  0  0  0
 19 21  2  0  0  0  0
 19 22  1  0  0  0  0
 20 40  1  0  0  0  0
 20 41  1  0  0  0  0
 20 42  1  0  0  0  0
 21 23  1  0  0  0  0
 21 43  1  0  0  0  0
 22 24  2  0  0  0  0
 22 44  1  0  0  0  0
 23 25  2  0  0  0  0
 23 45  1  0  0  0  0
 24 25  1  0  0  0  0
 24 46  1  0  0  0  0
M  END
> <DATABASE_ID>
DB07500

> <DATABASE_NAME>
drugbank

> <ORIGINAL_SOURCE>
PUBCHEM

> <ORIGINAL_SOURCE_URL>
https://pubchem.ncbi.nlm.nih.gov/rest/pug/compound/inchikey/ZUGCRBMNFSAUOC-YRNVUSSQSA-N/SDF?record_type=3d

> <SMILES>
COC1=CC(O)=C(C=C1CC=C(C)C)C(=O)\C=C\C1=CC=C(O)C=C1

> <INCHI_IDENTIFIER>
InChI=1S/C21H22O4/c1-14(2)4-8-16-12-18(20(24)13-21(16)25-3)19(23)11-7-15-5-9-17(22)10-6-15/h4-7,9-13,22,24H,8H2,1-3H3/b11-7+

> <INCHI_KEY>
ZUGCRBMNFSAUOC-YRNVUSSQSA-N

> <FORMULA>
C21H22O4

> <MOLECULAR_WEIGHT>
338.397

> <EXACT_MASS>
338.151809192

> <JCHEM_ACCEPTOR_COUNT>
4

> <JCHEM_ATOM_COUNT>
47

> <JCHEM_AVERAGE_NEUTRAL_MICROSPECIES_CHARGE>
-0.4697905381298773

> <JCHEM_AVERAGE_POLARIZABILITY>
37.26089119802725

> <JCHEM_BIOAVAILABILITY>
1

> <JCHEM_DONOR_COUNT>
2

> <JCHEM_FORMAL_CHARGE>
0

> <JCHEM_GHOSE_FILTER>
1

> <JCHEM_IUPAC>
(2E)-1-[2-hydroxy-4-methoxy-5-(3-methylbut-2-en-1-yl)phenyl]-3-(4-hydroxyphenyl)prop-2-en-1-one

> <ALOGPS_LOGP>
4.49

> <JCHEM_LOGP>
5.504090399333334

> <ALOGPS_LOGS>
-5.02

> <JCHEM_MDDR_LIKE_RULE>
0

> <JCHEM_NEUTRAL_CHARGE>
0

> <JCHEM_NUMBER_OF_RINGS>
2

> <JCHEM_PHYSIOLOGICAL_CHARGE>
-1

> <JCHEM_PKA>
9.040211815297623

> <JCHEM_PKA_STRONGEST_ACIDIC>
7.068483039780771

> <JCHEM_PKA_STRONGEST_BASIC>
-4.858005623500163

> <JCHEM_POLAR_SURFACE_AREA>
66.76

> <JCHEM_REFRACTIVITY>
101.54480000000001

> <JCHEM_ROTATABLE_BOND_COUNT>
6

> <JCHEM_RULE_OF_FIVE>
0

> <ALOGPS_SOLUBILITY>
3.22e-03 g/l

> <JCHEM_TRADITIONAL_IUPAC>
biotin

> <JCHEM_VEBER_RULE>
0

$$$$
