
     RDKit          3D

 29 28  0  0  0  0  0  0  0  0999 V2000
   -8.6375    2.6100   -0.4086 N   0  0  0  0  0  0  0  0  0  0  0  0
   -8.3052    2.3999   -0.1889 C   0  0  0  0  0  0  0  0  0  0  0  0
   -8.2480    1.0720    0.5492 C   0  0  0  0  0  0  0  0  0  0  0  0
   -7.1041    0.2471    0.0127 C   0  0  0  0  0  0  0  0  0  0  0  0
   -7.5044   -1.2068    0.1438 C   0  0  0  0  0  0  0  0  0  0  0  0
   -6.3219   -2.0531    0.1486 N   0  0  0  0  0  0  0  0  0  0  0  0
   -5.8049   -2.0490   -1.1997 C   0  0  0  0  0  0  0  0  0  0  0  0
   -4.7923   -0.9246   -1.3484 C   0  0  0  0  0  0  0  0  0  0  0  0
   -3.9732   -0.8679   -0.0640 C   0  0  0  0  0  0  0  0  0  0  0  0
   -2.6226   -1.2906   -0.4277 N   0  0  0  0  0  0  0  0  0  0  0  0
   -1.5497   -0.3949   -0.1159 C   0  0  0  0  0  0  0  0  0  0  0  0
   -1.5403    0.0428    1.0715 O   0  0  0  0  0  0  0  0  0  0  0  0
   -0.4009   -0.2033   -1.0048 C   0  0  0  0  0  0  0  0  0  0  0  0
    0.8681   -0.5598   -0.3818 N   0  0  0  0  0  0  0  0  0  0  0  0
    1.1788   -1.9163   -0.2470 C   0  0  0  0  0  0  0  0  0  0  0  0
    0.6868   -2.8065   -0.9778 O   0  0  0  0  0  0  0  0  0  0  0  0
    2.7311   -2.2605    0.1674 C   0  0  2  0  0  0  0  0  0  0  0  0
    2.7221   -1.1135    1.3937 C   0  0  0  0  0  0  0  0  0  0  0  0
    1.2866   -1.5668    2.3991 S   0  0  0  0  0  0  0  0  0  0  0  0
    3.3271   -1.2824   -0.9602 N   0  0  0  0  0  0  0  0  0  0  0  0
    4.2468   -0.3329   -0.5210 C   0  0  0  0  0  0  0  0  0  0  0  0
    3.6929    0.4321    0.3314 O   0  0  0  0  0  0  0  0  0  0  0  0
    5.4730    0.1472   -1.2077 C   0  0  0  0  0  0  0  0  0  0  0  0
    6.3549    0.7301   -0.1018 C   0  0  0  0  0  0  0  0  0  0  0  0
    7.1813    1.9695   -0.8675 C   0  0  2  0  0  0  0  0  0  0  0  0
    8.4692    1.7496    0.0668 N   0  0  0  0  0  0  0  0  0  0  0  0
    6.5515    3.1067    0.1353 C   0  0  0  0  0  0  0  0  0  0  0  0
    5.4780    3.4904   -0.4047 O   0  0  0  0  0  0  0  0  0  0  0  0
    6.5569    2.8317    1.4588 O   0  0  0  0  0  0  0  0  0  0  0  0
  1  2  1  0
  2  3  1  0
  3  4  1  0
  4  5  1  0
  5  6  1  0
  6  7  1  0
  7  8  1  0
  8  9  1  0
  9 10  1  0
 10 11  1  0
 11 12  2  0
 11 13  1  0
 13 14  1  0
 14 15  1  0
 15 16  2  0
 17 15  1  6
 17 18  1  0
 18 19  1  0
 17 20  1  0
 20 21  1  0
 21 22  2  0
 21 23  1  0
 23 24  1  0
 25 24  1  1
 25 26  1  0
 25 27  1  0
 27 28  2  0
 27 29  1  0
M  END
>  <zinc_id>  (1) 
ZINC000003869959

>  <smiles>  (1) 
NCCCCNCCCNC(=O)CNC(=O)[C@H](CS)NC(=O)CC[C@H](N)C(=O)O

$$$$
