
     RDKit          3D

 13 12  0  0  0  0  0  0  0  0999 V2000
    4.0484   -1.1523   -0.0945 N   0  0  0  0  0  0  0  0  0  0  0  0
    3.0697   -0.2515   -0.9423 C   0  0  1  0  0  0  0  0  0  0  0  0
    1.7572   -1.1427   -0.5033 C   0  0  0  0  0  0  0  0  0  0  0  0
    0.4539    0.0992   -0.2854 S   0  0  0  0  0  0  0  0  0  0  0  0
   -0.8615   -0.4413    0.7911 C   0  0  0  0  0  0  0  0  0  0  0  0
   -2.0152   -0.9970   -0.0003 C   0  0  0  0  0  0  0  0  0  0  0  0
   -3.2529   -0.0120    0.0840 B   0  0  0  0  0  0  0  0  0  0  0  0
   -4.4444   -0.8148    0.3557 O   0  0  0  0  0  0  0  0  0  0  0  0
   -3.1289    0.9771    1.1548 O   0  0  0  0  0  0  0  0  0  0  0  0
   -3.4667    0.7387   -1.1636 O   0  0  0  0  0  0  0  0  0  0  0  0
    2.8778    0.8036    0.2630 C   0  0  0  0  0  0  0  0  0  0  0  0
    2.3614    1.8774   -0.1284 O   0  0  0  0  0  0  0  0  0  0  0  0
    2.6010    0.3158    1.5087 O   0  0  0  0  0  0  0  0  0  0  0  0
  2  1  1  1
  2  3  1  0
  3  4  1  0
  4  5  1  0
  5  6  1  0
  6  7  1  0
  7  8  1  0
  7  9  1  0
  7 10  1  0
  2 11  1  0
 11 12  2  0
 11 13  1  0
M  CHG  1   7  -1
M  END
>  <zinc_id>  (1) 
ZINC000195757320

>  <smiles>  (1) 
N[C@@H](CSCC[B-](O)(O)O)C(=O)O

$$$$
