
     RDKit          3D

 22 23  0  0  0  0  0  0  0  0999 V2000
   -3.1019   -3.1629    1.1080 C   0  0  0  0  0  0  0  0  0  0  0  0
   -3.8214   -1.9649    0.8571 O   0  0  0  0  0  0  0  0  0  0  0  0
   -3.2449   -0.8778    0.2083 C   0  0  0  0  0  0  0  0  0  0  0  0
   -1.8867   -0.9273   -0.0645 C   0  0  0  0  0  0  0  0  0  0  0  0
   -1.1277    0.2367   -0.0733 C   0  0  0  0  0  0  0  0  0  0  0  0
    0.1386    0.1383   -0.7371 N   0  0  0  0  0  0  0  0  0  0  0  0
    1.2314    0.2267   -0.1018 N   0  0  0  0  0  0  0  0  0  0  0  0
    2.3848   -0.4959   -0.5503 C   0  0  0  0  0  0  0  0  0  0  0  0
    2.2800   -1.7572   -1.1240 C   0  0  0  0  0  0  0  0  0  0  0  0
    3.1804   -2.7568   -0.8008 C   0  0  0  0  0  0  0  0  0  0  0  0
    4.3499   -2.4490   -0.1174 C   0  0  0  0  0  0  0  0  0  0  0  0
    4.5287   -1.1581    0.3525 C   0  0  0  0  0  0  0  0  0  0  0  0
    3.6414   -0.1697   -0.0556 C   0  0  0  0  0  0  0  0  0  0  0  0
    3.9055    1.2140    0.3070 C   0  0  0  0  0  0  0  0  0  0  0  0
    3.1143    2.1306   -0.0236 O   0  0  0  0  0  0  0  0  0  0  0  0
    5.2517    1.5851    0.3872 O   0  0  0  0  0  0  0  0  0  0  0  0
   -1.8380    1.4056   -0.3182 C   0  0  0  0  0  0  0  0  0  0  0  0
   -3.2172    1.4410   -0.1552 C   0  0  0  0  0  0  0  0  0  0  0  0
   -3.8127    2.6861    0.0399 O   0  0  0  0  0  0  0  0  0  0  0  0
   -3.0367    3.8713    0.1971 C   0  0  0  0  0  0  0  0  0  0  0  0
   -3.9182    0.3328    0.2999 C   0  0  0  0  0  0  0  0  0  0  0  0
   -5.0013    0.4513    1.1749 O   0  0  0  0  0  0  0  0  0  0  0  0
  1  2  1  0
  2  3  1  0
  3  4  2  0
  4  5  1  0
  5  6  1  0
  6  7  2  0
  7  8  1  0
  8  9  2  0
  9 10  1  0
 10 11  2  0
 11 12  1  0
 12 13  2  0
 13 14  1  0
 14 15  2  0
 14 16  1  0
  5 17  2  0
 17 18  1  0
 18 19  1  0
 19 20  1  0
 18 21  2  0
 21 22  1  0
 21  3  1  0
 13  8  1  0
M  END
>  <zinc_id>  (1) 
ZINC000038311600

>  <smiles>  (1) 
COc1cc(/N=N/c2ccccc2C(=O)O)cc(OC)c1O

$$$$
