MODEL 1
REMARK VINA RESULT:    -4.866      0.000      0.000
REMARK INTER + INTRA:          -9.454
REMARK INTER:                  -7.253
REMARK INTRA:                  -2.201
REMARK CONF_INDEPENDENT:        2.386
REMARK UNBOUND:                 2.201
REMARK  Name = 
REMARK  8 active torsions:
REMARK  status: ('A' for Active; 'I' for Inactive)
REMARK    1  A    between atoms: C_2  and  C_3
REMARK    2  A    between atoms: C_2  and  O_13
REMARK    3  A    between atoms: C_4  and  C_5
REMARK    4  A    between atoms: C_8  and  O_9
REMARK    5  A    between atoms: C_10  and  O_11
REMARK    6  A    between atoms: O_13  and  C_14
REMARK    7  A    between atoms: C_14  and  C_15
REMARK    8  A    between atoms: C_15  and  C_16
REMARK                            x       y       z     vdW  Elec       q    Type
REMARK                         _______ _______ _______ _____ _____    ______ ____
ROOT
ATOM      1  C   UNL     1      -1.525   0.077  -4.920  0.00  0.00    +0.000 C 
ATOM      2  C   UNL     1      -0.612  -0.152  -4.011  0.00  0.00    +0.000 C 
ENDROOT
BRANCH   2   3
ATOM      3  C   UNL     1      -0.641  -1.286  -3.083  0.00  0.00    +0.000 A 
ATOM      4  C   UNL     1      -1.636  -2.255  -3.144  0.00  0.00    +0.000 A 
ATOM      5  C   UNL     1      -1.316  -3.596  -2.967  0.00  0.00    +0.000 A 
ATOM      6  C   UNL     1      -0.030  -3.978  -2.600  0.00  0.00    +0.000 A 
ATOM      7  C   UNL     1       0.764  -2.975  -2.061  0.00  0.00    +0.000 A 
ATOM      8  C   UNL     1       0.487  -1.645  -2.355  0.00  0.00    +0.000 A 
BRANCH   6   9
ATOM      9  O   UNL     1       0.524  -5.174  -3.064  0.00  0.00    +0.000 OA
ATOM     10  H   UNL     1       1.441  -5.336  -2.966  0.00  0.00    +0.000 HD
ENDBRANCH   6   9
BRANCH   7  11
ATOM     11  O   UNL     1       1.925  -3.374  -1.424  0.00  0.00    +0.000 OA
ATOM     12  H   UNL     1       1.886  -3.723  -0.555  0.00  0.00    +0.000 HD
ENDBRANCH   7  11
ENDBRANCH   2   3
BRANCH   1  14
ATOM     13  O   UNL     1      -1.721   2.227  -5.846  0.00  0.00    +0.000 OA
ATOM     14  C   UNL     1      -1.336   1.031  -6.020  0.00  0.00    +0.000 C 
BRANCH  14  15
ATOM     15  O   UNL     1      -0.432   0.719  -7.027  0.00  0.00    +0.000 OA
BRANCH  15  16
ATOM     16  C   UNL     1       0.161  -0.574  -7.050  0.00  0.00    +0.000 C 
BRANCH  16  17
ATOM     17  C   UNL     1       1.632  -0.396  -7.367  0.00  0.00    +0.000 C 
BRANCH  17  18
ATOM     18  C   UNL     1       2.380  -1.331  -6.497  0.00  0.00    +0.000 A 
ATOM     19  C   UNL     1       3.613  -0.927  -6.019  0.00  0.00    +0.000 A 
ATOM     20  C   UNL     1       4.075  -1.485  -4.842  0.00  0.00    +0.000 A 
ATOM     21  C   UNL     1       3.315  -2.393  -4.139  0.00  0.00    +0.000 A 
ATOM     22  C   UNL     1       2.266  -3.031  -4.785  0.00  0.00    +0.000 A 
ATOM     23  C   UNL     1       1.814  -2.465  -5.969  0.00  0.00    +0.000 A 
ENDBRANCH  17  18
ENDBRANCH  16  17
ENDBRANCH  15  16
ENDBRANCH  14  15
ENDBRANCH   1  14
TORSDOF 8
ENDMDL
MODEL 2
REMARK VINA RESULT:    -4.791      2.043      3.464
REMARK INTER + INTRA:          -9.810
REMARK INTER:                  -7.178
REMARK INTRA:                  -2.633
REMARK CONF_INDEPENDENT:        2.386
REMARK UNBOUND:                 2.633
REMARK  Name = 
REMARK  8 active torsions:
REMARK  status: ('A' for Active; 'I' for Inactive)
REMARK    1  A    between atoms: C_2  and  C_3
REMARK    2  A    between atoms: C_2  and  O_13
REMARK    3  A    between atoms: C_4  and  C_5
REMARK    4  A    between atoms: C_8  and  O_9
REMARK    5  A    between atoms: C_10  and  O_11
REMARK    6  A    between atoms: O_13  and  C_14
REMARK    7  A    between atoms: C_14  and  C_15
REMARK    8  A    between atoms: C_15  and  C_16
REMARK                            x       y       z     vdW  Elec       q    Type
REMARK                         _______ _______ _______ _____ _____    ______ ____
ROOT
ATOM      1  C   UNL     1      -0.129  -1.604  -6.180  0.00  0.00    +0.000 C 
ATOM      2  C   UNL     1      -1.165  -0.829  -5.984  0.00  0.00    +0.000 C 
ENDROOT
BRANCH   2   3
ATOM      3  C   UNL     1      -2.198  -1.077  -4.974  0.00  0.00    +0.000 A 
ATOM      4  C   UNL     1      -3.392  -1.715  -5.290  0.00  0.00    +0.000 A 
ATOM      5  C   UNL     1      -3.936  -2.649  -4.417  0.00  0.00    +0.000 A 
ATOM      6  C   UNL     1      -3.372  -2.866  -3.166  0.00  0.00    +0.000 A 
ATOM      7  C   UNL     1      -2.524  -1.868  -2.707  0.00  0.00    +0.000 A 
ATOM      8  C   UNL     1      -1.900  -1.023  -3.617  0.00  0.00    +0.000 A 
BRANCH   6   9
ATOM      9  O   UNL     1      -3.381  -4.138  -2.585  0.00  0.00    +0.000 OA
ATOM     10  H   UNL     1      -2.685  -4.398  -2.014  0.00  0.00    +0.000 HD
ENDBRANCH   6   9
BRANCH   7  11
ATOM     11  O   UNL     1      -2.182  -1.907  -1.367  0.00  0.00    +0.000 OA
ATOM     12  H   UNL     1      -2.382  -2.666  -0.855  0.00  0.00    +0.000 HD
ENDBRANCH   7  11
ENDBRANCH   2   3
BRANCH   1  14
ATOM     13  O   UNL     1       1.046  -0.022  -7.459  0.00  0.00    +0.000 OA
ATOM     14  C   UNL     1       1.034  -1.195  -6.979  0.00  0.00    +0.000 C 
BRANCH  14  15
ATOM     15  O   UNL     1       2.209  -1.927  -6.870  0.00  0.00    +0.000 OA
BRANCH  15  16
ATOM     16  C   UNL     1       3.158  -1.571  -5.872  0.00  0.00    +0.000 C 
BRANCH  16  17
ATOM     17  C   UNL     1       3.240  -2.721  -4.889  0.00  0.00    +0.000 C 
BRANCH  17  18
ATOM     18  C   UNL     1       2.056  -2.626  -4.007  0.00  0.00    +0.000 A 
ATOM     19  C   UNL     1       1.274  -3.754  -3.846  0.00  0.00    +0.000 A 
ATOM     20  C   UNL     1       0.529  -3.877  -2.688  0.00  0.00    +0.000 A 
ATOM     21  C   UNL     1       0.589  -2.920  -1.699  0.00  0.00    +0.000 A 
ATOM     22  C   UNL     1       1.092  -1.666  -2.012  0.00  0.00    +0.000 A 
ATOM     23  C   UNL     1       1.833  -1.553  -3.180  0.00  0.00    +0.000 A 
ENDBRANCH  17  18
ENDBRANCH  16  17
ENDBRANCH  15  16
ENDBRANCH  14  15
ENDBRANCH   1  14
TORSDOF 8
ENDMDL
MODEL 3
REMARK VINA RESULT:    -4.648      1.979      2.700
REMARK INTER + INTRA:          -9.148
REMARK INTER:                  -7.034
REMARK INTRA:                  -2.114
REMARK CONF_INDEPENDENT:        2.386
REMARK UNBOUND:                 2.114
REMARK  Name = 
REMARK  8 active torsions:
REMARK  status: ('A' for Active; 'I' for Inactive)
REMARK    1  A    between atoms: C_2  and  C_3
REMARK    2  A    between atoms: C_2  and  O_13
REMARK    3  A    between atoms: C_4  and  C_5
REMARK    4  A    between atoms: C_8  and  O_9
REMARK    5  A    between atoms: C_10  and  O_11
REMARK    6  A    between atoms: O_13  and  C_14
REMARK    7  A    between atoms: C_14  and  C_15
REMARK    8  A    between atoms: C_15  and  C_16
REMARK                            x       y       z     vdW  Elec       q    Type
REMARK                         _______ _______ _______ _____ _____    ______ ____
ROOT
ATOM      1  C   UNL     1      -0.533  -0.822  -5.736  0.00  0.00    +0.000 C 
ATOM      2  C   UNL     1      -0.551  -0.365  -4.510  0.00  0.00    +0.000 C 
ENDROOT
BRANCH   2   3
ATOM      3  C   UNL     1      -0.737  -1.203  -3.323  0.00  0.00    +0.000 A 
ATOM      4  C   UNL     1      -0.360  -0.771  -2.056  0.00  0.00    +0.000 A 
ATOM      5  C   UNL     1      -1.171  -1.035  -0.959  0.00  0.00    +0.000 A 
ATOM      6  C   UNL     1      -2.297  -1.841  -1.085  0.00  0.00    +0.000 A 
ATOM      7  C   UNL     1      -2.338  -2.646  -2.215  0.00  0.00    +0.000 A 
ATOM      8  C   UNL     1      -1.605  -2.288  -3.341  0.00  0.00    +0.000 A 
BRANCH   6   9
ATOM      9  O   UNL     1      -3.444  -1.596  -0.325  0.00  0.00    +0.000 OA
ATOM     10  H   UNL     1      -4.272  -1.939  -0.599  0.00  0.00    +0.000 HD
ENDBRANCH   6   9
BRANCH   7  11
ATOM     11  O   UNL     1      -3.281  -3.657  -2.226  0.00  0.00    +0.000 OA
ATOM     12  H   UNL     1      -3.723  -3.894  -1.434  0.00  0.00    +0.000 HD
ENDBRANCH   7  11
ENDBRANCH   2   3
BRANCH   1  14
ATOM     13  O   UNL     1      -0.594   1.101  -7.084  0.00  0.00    +0.000 OA
ATOM     14  C   UNL     1      -0.058  -0.030  -6.878  0.00  0.00    +0.000 C 
BRANCH  14  15
ATOM     15  O   UNL     1       1.171  -0.343  -7.443  0.00  0.00    +0.000 OA
BRANCH  15  16
ATOM     16  C   UNL     1       1.808  -1.563  -7.084  0.00  0.00    +0.000 C 
BRANCH  16  17
ATOM     17  C   UNL     1       2.836  -1.244  -6.016  0.00  0.00    +0.000 C 
BRANCH  17  18
ATOM     18  C   UNL     1       2.839  -2.378  -5.064  0.00  0.00    +0.000 A 
ATOM     19  C   UNL     1       3.987  -2.604  -4.328  0.00  0.00    +0.000 A 
ATOM     20  C   UNL     1       3.870  -3.253  -3.113  0.00  0.00    +0.000 A 
ATOM     21  C   UNL     1       2.640  -3.634  -2.626  0.00  0.00    +0.000 A 
ATOM     22  C   UNL     1       1.567  -3.709  -3.502  0.00  0.00    +0.000 A 
ATOM     23  C   UNL     1       1.697  -3.060  -4.721  0.00  0.00    +0.000 A 
ENDBRANCH  17  18
ENDBRANCH  16  17
ENDBRANCH  15  16
ENDBRANCH  14  15
ENDBRANCH   1  14
TORSDOF 8
ENDMDL
MODEL 4
REMARK VINA RESULT:    -4.627      2.207      5.237
REMARK INTER + INTRA:          -9.445
REMARK INTER:                  -7.013
REMARK INTRA:                  -2.432
REMARK CONF_INDEPENDENT:        2.386
REMARK UNBOUND:                 2.432
REMARK  Name = 
REMARK  8 active torsions:
REMARK  status: ('A' for Active; 'I' for Inactive)
REMARK    1  A    between atoms: C_2  and  C_3
REMARK    2  A    between atoms: C_2  and  O_13
REMARK    3  A    between atoms: C_4  and  C_5
REMARK    4  A    between atoms: C_8  and  O_9
REMARK    5  A    between atoms: C_10  and  O_11
REMARK    6  A    between atoms: O_13  and  C_14
REMARK    7  A    between atoms: C_14  and  C_15
REMARK    8  A    between atoms: C_15  and  C_16
REMARK                            x       y       z     vdW  Elec       q    Type
REMARK                         _______ _______ _______ _____ _____    ______ ____
ROOT
ATOM      1  C   UNL     1      -0.858  -2.944  -3.686  0.00  0.00    +0.000 C 
ATOM      2  C   UNL     1       0.419  -3.169  -3.511  0.00  0.00    +0.000 C 
ENDROOT
BRANCH   2   3
ATOM      3  C   UNL     1       1.453  -2.848  -4.498  0.00  0.00    +0.000 A 
ATOM      4  C   UNL     1       1.199  -2.890  -5.864  0.00  0.00    +0.000 A 
ATOM      5  C   UNL     1       1.716  -1.908  -6.700  0.00  0.00    +0.000 A 
ATOM      6  C   UNL     1       2.595  -0.948  -6.212  0.00  0.00    +0.000 A 
ATOM      7  C   UNL     1       3.205  -1.251  -5.002  0.00  0.00    +0.000 A 
ATOM      8  C   UNL     1       2.599  -2.151  -4.133  0.00  0.00    +0.000 A 
BRANCH   6   9
ATOM      9  O   UNL     1       2.589   0.355  -6.717  0.00  0.00    +0.000 OA
ATOM     10  H   UNL     1       2.882   1.067  -6.183  0.00  0.00    +0.000 HD
ENDBRANCH   6   9
BRANCH   7  11
ATOM     11  O   UNL     1       4.287  -0.472  -4.637  0.00  0.00    +0.000 OA
ATOM     12  H   UNL     1       4.278   0.450  -4.805  0.00  0.00    +0.000 HD
ENDBRANCH   7  11
ENDBRANCH   2   3
BRANCH   1  14
ATOM     13  O   UNL     1      -1.622  -2.283  -1.565  0.00  0.00    +0.000 OA
ATOM     14  C   UNL     1      -1.837  -2.996  -2.592  0.00  0.00    +0.000 C 
BRANCH  14  15
ATOM     15  O   UNL     1      -3.105  -3.495  -2.854  0.00  0.00    +0.000 OA
BRANCH  15  16
ATOM     16  C   UNL     1      -4.105  -2.619  -3.361  0.00  0.00    +0.000 C 
BRANCH  16  17
ATOM     17  C   UNL     1      -3.977  -2.605  -4.871  0.00  0.00    +0.000 C 
BRANCH  17  18
ATOM     18  C   UNL     1      -3.184  -1.408  -5.229  0.00  0.00    +0.000 A 
ATOM     19  C   UNL     1      -3.135  -0.366  -4.322  0.00  0.00    +0.000 A 
ATOM     20  C   UNL     1      -2.043   0.481  -4.354  0.00  0.00    +0.000 A 
ATOM     21  C   UNL     1      -1.009   0.275  -5.239  0.00  0.00    +0.000 A 
ATOM     22  C   UNL     1      -1.224  -0.541  -6.341  0.00  0.00    +0.000 A 
ATOM     23  C   UNL     1      -2.326  -1.382  -6.301  0.00  0.00    +0.000 A 
ENDBRANCH  17  18
ENDBRANCH  16  17
ENDBRANCH  15  16
ENDBRANCH  14  15
ENDBRANCH   1  14
TORSDOF 8
ENDMDL
MODEL 5
REMARK VINA RESULT:    -4.613      2.116      5.253
REMARK INTER + INTRA:          -9.113
REMARK INTER:                  -6.999
REMARK INTRA:                  -2.114
REMARK CONF_INDEPENDENT:        2.386
REMARK UNBOUND:                 2.114
REMARK  Name = 
REMARK  8 active torsions:
REMARK  status: ('A' for Active; 'I' for Inactive)
REMARK    1  A    between atoms: C_2  and  C_3
REMARK    2  A    between atoms: C_2  and  O_13
REMARK    3  A    between atoms: C_4  and  C_5
REMARK    4  A    between atoms: C_8  and  O_9
REMARK    5  A    between atoms: C_10  and  O_11
REMARK    6  A    between atoms: O_13  and  C_14
REMARK    7  A    between atoms: C_14  and  C_15
REMARK    8  A    between atoms: C_15  and  C_16
REMARK                            x       y       z     vdW  Elec       q    Type
REMARK                         _______ _______ _______ _____ _____    ______ ____
ROOT
ATOM      1  C   UNL     1       1.444  -2.405  -1.545  0.00  0.00    +0.000 C 
ATOM      2  C   UNL     1       0.300  -2.633  -2.138  0.00  0.00    +0.000 C 
ENDROOT
BRANCH   2   3
ATOM      3  C   UNL     1       0.019  -2.303  -3.538  0.00  0.00    +0.000 A 
ATOM      4  C   UNL     1      -0.649  -1.137  -3.895  0.00  0.00    +0.000 A 
ATOM      5  C   UNL     1      -0.235  -0.407  -5.002  0.00  0.00    +0.000 A 
ATOM      6  C   UNL     1       0.761  -0.891  -5.841  0.00  0.00    +0.000 A 
ATOM      7  C   UNL     1       1.022  -2.251  -5.743  0.00  0.00    +0.000 A 
ATOM      8  C   UNL     1       0.703  -2.930  -4.573  0.00  0.00    +0.000 A 
BRANCH   6   9
ATOM      9  O   UNL     1       1.660  -0.022  -6.467  0.00  0.00    +0.000 OA
ATOM     10  H   UNL     1       2.333   0.396  -5.968  0.00  0.00    +0.000 HD
ENDBRANCH   6   9
BRANCH   7  11
ATOM     11  O   UNL     1       1.785  -2.814  -6.750  0.00  0.00    +0.000 OA
ATOM     12  H   UNL     1       1.902  -3.743  -6.785  0.00  0.00    +0.000 HD
ENDBRANCH   7  11
ENDBRANCH   2   3
BRANCH   1  14
ATOM     13  O   UNL     1       0.902  -3.102   0.632  0.00  0.00    +0.000 OA
ATOM     14  C   UNL     1       1.805  -2.999  -0.251  0.00  0.00    +0.000 C 
BRANCH  14  15
ATOM     15  O   UNL     1       2.967  -3.754  -0.165  0.00  0.00    +0.000 OA
BRANCH  15  16
ATOM     16  C   UNL     1       4.184  -3.116   0.205  0.00  0.00    +0.000 C 
BRANCH  16  17
ATOM     17  C   UNL     1       5.170  -3.322  -0.926  0.00  0.00    +0.000 C 
BRANCH  17  18
ATOM     18  C   UNL     1       4.503  -2.879  -2.171  0.00  0.00    +0.000 A 
ATOM     19  C   UNL     1       4.528  -1.531  -2.477  0.00  0.00    +0.000 A 
ATOM     20  C   UNL     1       4.415  -1.156  -3.802  0.00  0.00    +0.000 A 
ATOM     21  C   UNL     1       4.316  -2.099  -4.802  0.00  0.00    +0.000 A 
ATOM     22  C   UNL     1       3.955  -3.396  -4.465  0.00  0.00    +0.000 A 
ATOM     23  C   UNL     1       4.067  -3.759  -3.131  0.00  0.00    +0.000 A 
ENDBRANCH  17  18
ENDBRANCH  16  17
ENDBRANCH  15  16
ENDBRANCH  14  15
ENDBRANCH   1  14
TORSDOF 8
ENDMDL
MODEL 6
REMARK VINA RESULT:    -4.582      1.770      4.228
REMARK INTER + INTRA:          -9.227
REMARK INTER:                  -6.969
REMARK INTRA:                  -2.259
REMARK CONF_INDEPENDENT:        2.386
REMARK UNBOUND:                 2.259
REMARK  Name = 
REMARK  8 active torsions:
REMARK  status: ('A' for Active; 'I' for Inactive)
REMARK    1  A    between atoms: C_2  and  C_3
REMARK    2  A    between atoms: C_2  and  O_13
REMARK    3  A    between atoms: C_4  and  C_5
REMARK    4  A    between atoms: C_8  and  O_9
REMARK    5  A    between atoms: C_10  and  O_11
REMARK    6  A    between atoms: O_13  and  C_14
REMARK    7  A    between atoms: C_14  and  C_15
REMARK    8  A    between atoms: C_15  and  C_16
REMARK                            x       y       z     vdW  Elec       q    Type
REMARK                         _______ _______ _______ _____ _____    ______ ____
ROOT
ATOM      1  C   UNL     1       2.565  -1.545  -5.545  0.00  0.00    +0.000 C 
ATOM      2  C   UNL     1       2.542  -2.577  -4.741  0.00  0.00    +0.000 C 
ENDROOT
BRANCH   2   3
ATOM      3  C   UNL     1       2.930  -2.529  -3.329  0.00  0.00    +0.000 A 
ATOM      4  C   UNL     1       3.751  -1.525  -2.830  0.00  0.00    +0.000 A 
ATOM      5  C   UNL     1       3.484  -0.957  -1.590  0.00  0.00    +0.000 A 
ATOM      6  C   UNL     1       2.480  -1.468  -0.776  0.00  0.00    +0.000 A 
ATOM      7  C   UNL     1       2.052  -2.752  -1.082  0.00  0.00    +0.000 A 
ATOM      8  C   UNL     1       2.227  -3.247  -2.369  0.00  0.00    +0.000 A 
BRANCH   6   9
ATOM      9  O   UNL     1       1.726  -0.627   0.048  0.00  0.00    +0.000 OA
ATOM     10  H   UNL     1       0.864  -0.366  -0.211  0.00  0.00    +0.000 HD
ENDBRANCH   6   9
BRANCH   7  11
ATOM     11  O   UNL     1       1.278  -3.394  -0.133  0.00  0.00    +0.000 OA
ATOM     12  H   UNL     1       0.772  -4.146  -0.371  0.00  0.00    +0.000 HD
ENDBRANCH   7  11
ENDBRANCH   2   3
BRANCH   1  14
ATOM     13  O   UNL     1       1.660  -2.654  -7.407  0.00  0.00    +0.000 OA
ATOM     14  C   UNL     1       1.905  -1.538  -6.856  0.00  0.00    +0.000 C 
BRANCH  14  15
ATOM     15  O   UNL     1       1.244  -0.387  -7.265  0.00  0.00    +0.000 OA
BRANCH  15  16
ATOM     16  C   UNL     1      -0.053  -0.112  -6.750  0.00  0.00    +0.000 C 
BRANCH  16  17
ATOM     17  C   UNL     1      -0.628  -1.418  -6.239  0.00  0.00    +0.000 C 
BRANCH  17  18
ATOM     18  C   UNL     1      -1.029  -1.195  -4.832  0.00  0.00    +0.000 A 
ATOM     19  C   UNL     1      -1.144  -2.299  -4.007  0.00  0.00    +0.000 A 
ATOM     20  C   UNL     1      -0.984  -2.120  -2.646  0.00  0.00    +0.000 A 
ATOM     21  C   UNL     1      -0.681  -0.883  -2.122  0.00  0.00    +0.000 A 
ATOM     22  C   UNL     1      -0.904   0.245  -2.898  0.00  0.00    +0.000 A 
ATOM     23  C   UNL     1      -1.069   0.054  -4.262  0.00  0.00    +0.000 A 
ENDBRANCH  17  18
ENDBRANCH  16  17
ENDBRANCH  15  16
ENDBRANCH  14  15
ENDBRANCH   1  14
TORSDOF 8
ENDMDL
MODEL 7
REMARK VINA RESULT:    -4.487      1.853      4.100
REMARK INTER + INTRA:          -9.203
REMARK INTER:                  -6.873
REMARK INTRA:                  -2.329
REMARK CONF_INDEPENDENT:        2.386
REMARK UNBOUND:                 2.329
REMARK  Name = 
REMARK  8 active torsions:
REMARK  status: ('A' for Active; 'I' for Inactive)
REMARK    1  A    between atoms: C_2  and  C_3
REMARK    2  A    between atoms: C_2  and  O_13
REMARK    3  A    between atoms: C_4  and  C_5
REMARK    4  A    between atoms: C_8  and  O_9
REMARK    5  A    between atoms: C_10  and  O_11
REMARK    6  A    between atoms: O_13  and  C_14
REMARK    7  A    between atoms: C_14  and  C_15
REMARK    8  A    between atoms: C_15  and  C_16
REMARK                            x       y       z     vdW  Elec       q    Type
REMARK                         _______ _______ _______ _____ _____    ______ ____
ROOT
ATOM      1  C   UNL     1       2.664  -1.143  -5.570  0.00  0.00    +0.000 C 
ATOM      2  C   UNL     1       3.438  -2.071  -5.068  0.00  0.00    +0.000 C 
ENDROOT
BRANCH   2   3
ATOM      3  C   UNL     1       3.820  -2.149  -3.656  0.00  0.00    +0.000 A 
ATOM      4  C   UNL     1       3.444  -1.172  -2.742  0.00  0.00    +0.000 A 
ATOM      5  C   UNL     1       3.033  -1.533  -1.464  0.00  0.00    +0.000 A 
ATOM      6  C   UNL     1       3.114  -2.853  -1.038  0.00  0.00    +0.000 A 
ATOM      7  C   UNL     1       3.953  -3.674  -1.778  0.00  0.00    +0.000 A 
ATOM      8  C   UNL     1       4.250  -3.346  -3.096  0.00  0.00    +0.000 A 
BRANCH   6   9
ATOM      9  O   UNL     1       2.161  -3.386  -0.165  0.00  0.00    +0.000 OA
ATOM     10  H   UNL     1       2.279  -4.244   0.193  0.00  0.00    +0.000 HD
ENDBRANCH   6   9
BRANCH   7  11
ATOM     11  O   UNL     1       4.281  -4.896  -1.220  0.00  0.00    +0.000 OA
ATOM     12  H   UNL     1       3.727  -5.277  -0.567  0.00  0.00    +0.000 HD
ENDBRANCH   7  11
ENDBRANCH   2   3
BRANCH   1  14
ATOM     13  O   UNL     1       2.026  -2.380  -7.462  0.00  0.00    +0.000 OA
ATOM     14  C   UNL     1       2.058  -1.242  -6.904  0.00  0.00    +0.000 C 
BRANCH  14  15
ATOM     15  O   UNL     1       1.224  -0.219  -7.336  0.00  0.00    +0.000 OA
BRANCH  15  16
ATOM     16  C   UNL     1      -0.018  -0.011  -6.675  0.00  0.00    +0.000 C 
BRANCH  16  17
ATOM     17  C   UNL     1      -0.583  -1.372  -6.325  0.00  0.00    +0.000 C 
BRANCH  17  18
ATOM     18  C   UNL     1      -0.422  -1.547  -4.864  0.00  0.00    +0.000 A 
ATOM     19  C   UNL     1      -1.187  -0.756  -4.027  0.00  0.00    +0.000 A 
ATOM     20  C   UNL     1      -1.467  -1.224  -2.757  0.00  0.00    +0.000 A 
ATOM     21  C   UNL     1      -1.030  -2.463  -2.343  0.00  0.00    +0.000 A 
ATOM     22  C   UNL     1      -0.004  -3.079  -3.045  0.00  0.00    +0.000 A 
ATOM     23  C   UNL     1       0.273  -2.597  -4.316  0.00  0.00    +0.000 A 
ENDBRANCH  17  18
ENDBRANCH  16  17
ENDBRANCH  15  16
ENDBRANCH  14  15
ENDBRANCH   1  14
TORSDOF 8
ENDMDL
MODEL 8
REMARK VINA RESULT:    -4.486      1.808      5.483
REMARK INTER + INTRA:          -9.248
REMARK INTER:                  -6.872
REMARK INTRA:                  -2.376
REMARK CONF_INDEPENDENT:        2.386
REMARK UNBOUND:                 2.376
REMARK  Name = 
REMARK  8 active torsions:
REMARK  status: ('A' for Active; 'I' for Inactive)
REMARK    1  A    between atoms: C_2  and  C_3
REMARK    2  A    between atoms: C_2  and  O_13
REMARK    3  A    between atoms: C_4  and  C_5
REMARK    4  A    between atoms: C_8  and  O_9
REMARK    5  A    between atoms: C_10  and  O_11
REMARK    6  A    between atoms: O_13  and  C_14
REMARK    7  A    between atoms: C_14  and  C_15
REMARK    8  A    between atoms: C_15  and  C_16
REMARK                            x       y       z     vdW  Elec       q    Type
REMARK                         _______ _______ _______ _____ _____    ______ ____
ROOT
ATOM      1  C   UNL     1       0.605  -2.572  -2.233  0.00  0.00    +0.000 C 
ATOM      2  C   UNL     1       1.861  -2.609  -2.599  0.00  0.00    +0.000 C 
ENDROOT
BRANCH   2   3
ATOM      3  C   UNL     1       2.318  -2.483  -3.985  0.00  0.00    +0.000 A 
ATOM      4  C   UNL     1       1.600  -3.026  -5.044  0.00  0.00    +0.000 A 
ATOM      5  C   UNL     1       1.466  -2.318  -6.232  0.00  0.00    +0.000 A 
ATOM      6  C   UNL     1       2.149  -1.123  -6.429  0.00  0.00    +0.000 A 
ATOM      7  C   UNL     1       3.222  -0.897  -5.579  0.00  0.00    +0.000 A 
ATOM      8  C   UNL     1       3.266  -1.532  -4.343  0.00  0.00    +0.000 A 
BRANCH   6   9
ATOM      9  O   UNL     1       1.583  -0.087  -7.178  0.00  0.00    +0.000 OA
ATOM     10  H   UNL     1       2.043   0.722  -7.282  0.00  0.00    +0.000 HD
ENDBRANCH   6   9
BRANCH   7  11
ATOM     11  O   UNL     1       4.090   0.121  -5.928  0.00  0.00    +0.000 OA
ATOM     12  H   UNL     1       3.926   0.997  -5.637  0.00  0.00    +0.000 HD
ENDBRANCH   7  11
ENDBRANCH   2   3
BRANCH   1  14
ATOM     13  O   UNL     1       0.838  -3.016   0.062  0.00  0.00    +0.000 OA
ATOM     14  C   UNL     1       0.184  -2.405  -0.836  0.00  0.00    +0.000 C 
BRANCH  14  15
ATOM     15  O   UNL     1      -0.632  -1.330  -0.509  0.00  0.00    +0.000 OA
BRANCH  15  16
ATOM     16  C   UNL     1      -0.773  -0.260  -1.436  0.00  0.00    +0.000 C 
BRANCH  16  17
ATOM     17  C   UNL     1      -2.065  -0.483  -2.197  0.00  0.00    +0.000 C 
BRANCH  17  18
ATOM     18  C   UNL     1      -1.695  -0.807  -3.593  0.00  0.00    +0.000 A 
ATOM     19  C   UNL     1      -2.325  -1.877  -4.200  0.00  0.00    +0.000 A 
ATOM     20  C   UNL     1      -2.423  -1.886  -5.579  0.00  0.00    +0.000 A 
ATOM     21  C   UNL     1      -1.940  -0.839  -6.332  0.00  0.00    +0.000 A 
ATOM     22  C   UNL     1      -1.031   0.037  -5.756  0.00  0.00    +0.000 A 
ATOM     23  C   UNL     1      -0.937   0.032  -4.372  0.00  0.00    +0.000 A 
ENDBRANCH  17  18
ENDBRANCH  16  17
ENDBRANCH  15  16
ENDBRANCH  14  15
ENDBRANCH   1  14
TORSDOF 8
ENDMDL
MODEL 9
REMARK VINA RESULT:    -4.280      1.356      4.102
REMARK INTER + INTRA:          -9.371
REMARK INTER:                  -6.667
REMARK INTRA:                  -2.704
REMARK CONF_INDEPENDENT:        2.386
REMARK UNBOUND:                 2.704
REMARK  Name = 
REMARK  8 active torsions:
REMARK  status: ('A' for Active; 'I' for Inactive)
REMARK    1  A    between atoms: C_2  and  C_3
REMARK    2  A    between atoms: C_2  and  O_13
REMARK    3  A    between atoms: C_4  and  C_5
REMARK    4  A    between atoms: C_8  and  O_9
REMARK    5  A    between atoms: C_10  and  O_11
REMARK    6  A    between atoms: O_13  and  C_14
REMARK    7  A    between atoms: C_14  and  C_15
REMARK    8  A    between atoms: C_15  and  C_16
REMARK                            x       y       z     vdW  Elec       q    Type
REMARK                         _______ _______ _______ _____ _____    ______ ____
ROOT
ATOM      1  C   UNL     1      -0.333  -0.288  -5.456  0.00  0.00    +0.000 C 
ATOM      2  C   UNL     1       0.760  -0.713  -6.036  0.00  0.00    +0.000 C 
ENDROOT
BRANCH   2   3
ATOM      3  C   UNL     1       1.590  -1.807  -5.525  0.00  0.00    +0.000 A 
ATOM      4  C   UNL     1       2.880  -1.589  -5.054  0.00  0.00    +0.000 A 
ATOM      5  C   UNL     1       3.328  -2.249  -3.916  0.00  0.00    +0.000 A 
ATOM      6  C   UNL     1       2.550  -3.227  -3.308  0.00  0.00    +0.000 A 
ATOM      7  C   UNL     1       1.534  -3.759  -4.089  0.00  0.00    +0.000 A 
ATOM      8  C   UNL     1       1.024  -3.021  -5.152  0.00  0.00    +0.000 A 
BRANCH   6   9
ATOM      9  O   UNL     1       2.566  -3.398  -1.921  0.00  0.00    +0.000 OA
ATOM     10  H   UNL     1       2.078  -4.095  -1.528  0.00  0.00    +0.000 HD
ENDBRANCH   6   9
BRANCH   7  11
ATOM     11  O   UNL     1       0.937  -4.919  -3.631  0.00  0.00    +0.000 OA
ATOM     12  H   UNL     1       1.098  -5.214  -2.756  0.00  0.00    +0.000 HD
ENDBRANCH   7  11
ENDBRANCH   2   3
BRANCH   1  14
ATOM     13  O   UNL     1      -0.851   1.576  -6.789  0.00  0.00    +0.000 OA
ATOM     14  C   UNL     1      -1.299   0.595  -6.122  0.00  0.00    +0.000 C 
BRANCH  14  15
ATOM     15  O   UNL     1      -2.594   0.137  -6.323  0.00  0.00    +0.000 OA
BRANCH  15  16
ATOM     16  C   UNL     1      -3.471   0.025  -5.209  0.00  0.00    +0.000 C 
BRANCH  16  17
ATOM     17  C   UNL     1      -3.454  -1.422  -4.757  0.00  0.00    +0.000 C 
BRANCH  17  18
ATOM     18  C   UNL     1      -2.650  -1.480  -3.516  0.00  0.00    +0.000 A 
ATOM     19  C   UNL     1      -2.037  -2.676  -3.195  0.00  0.00    +0.000 A 
ATOM     20  C   UNL     1      -0.905  -2.642  -2.403  0.00  0.00    +0.000 A 
ATOM     21  C   UNL     1      -0.375  -1.446  -1.971  0.00  0.00    +0.000 A 
ATOM     22  C   UNL     1      -1.170  -0.309  -2.009  0.00  0.00    +0.000 A 
ATOM     23  C   UNL     1      -2.308  -0.357  -2.803  0.00  0.00    +0.000 A 
ENDBRANCH  17  18
ENDBRANCH  16  17
ENDBRANCH  15  16
ENDBRANCH  14  15
ENDBRANCH   1  14
TORSDOF 8
ENDMDL
