REMARK  Name = 4369534
REMARK  6 active torsions:
REMARK  status: ('A' for Active; 'I' for Inactive)
REMARK    1  A    between atoms: O_3  and  C_32
REMARK    2  A    between atoms: N_5  and  C_17
REMARK    3  A    between atoms: C_7  and  C_10
REMARK    4  A    between atoms: C_14  and  C_18
REMARK    5  A    between atoms: C_17  and  C_21
REMARK    6  A    between atoms: C_22  and  C_32
REMARK                            x       y       z     vdW  Elec       q    Type
REMARK                         _______ _______ _______ _____ _____    ______ ____
ROOT
ATOM      1  N   UNL     1      -0.218   0.306   0.488  0.00  0.00    +0.000 N 
ATOM      2  C   UNL     1       1.815  -0.482   0.071  0.00  0.00    +0.000 A 
ATOM      3  C   UNL     1       0.512  -0.841   0.331  0.00  0.00    +0.000 A 
ATOM      4  C   UNL     1       1.880   0.940   0.071  0.00  0.00    +0.000 A 
ATOM      5  C   UNL     1       0.591   1.409   0.335  0.00  0.00    +0.000 A 
ATOM      6  C   UNL     1       2.915   1.875  -0.129  0.00  0.00    +0.000 A 
ATOM      7  C   UNL     1       0.285   2.773   0.409  0.00  0.00    +0.000 A 
ATOM      8  C   UNL     1       1.327   3.682   0.207  0.00  0.00    +0.000 A 
ATOM      9  C   UNL     1       2.623   3.242  -0.058  0.00  0.00    +0.000 A 
ENDROOT
BRANCH   2  10
ATOM     10  C   UNL     1       2.978  -1.426  -0.171  0.00  0.00    +0.000 C 
ATOM     11  C   UNL     1       4.068  -1.278   0.905  0.00  0.00    +0.000 C 
ATOM     12  C   UNL     1       3.570  -1.256  -1.581  0.00  0.00    +0.000 C 
ATOM     13  C   UNL     1       5.230  -2.239   0.658  0.00  0.00    +0.000 C 
ATOM     14  C   UNL     1       4.734  -2.217  -1.818  0.00  0.00    +0.000 C 
ATOM     15  C   UNL     1       5.809  -2.075  -0.744  0.00  0.00    +0.000 C 
ENDBRANCH   2  10
BRANCH   3  16
ATOM     16  C   UNL     1      -0.070  -2.162   0.437  0.00  0.00    +0.000 A 
ATOM     17  C   UNL     1      -0.110  -2.803   1.672  0.00  0.00    +0.000 A 
ATOM     18  C   UNL     1      -0.587  -2.785  -0.696  0.00  0.00    +0.000 A 
ATOM     19  C   UNL     1      -0.670  -4.077   1.775  0.00  0.00    +0.000 A 
ATOM     20  C   UNL     1      -1.147  -4.058  -0.593  0.00  0.00    +0.000 A 
ATOM     21  C   UNL     1      -1.188  -4.704   0.642  0.00  0.00    +0.000 A 
ENDBRANCH   3  16
BRANCH   8  23
ATOM     22  O   UNL     1       1.887   6.006   0.117  0.00  0.00    +0.000 OA
ATOM     23  C   UNL     1       1.053   5.109   0.277  0.00  0.00    +0.000 C 
BRANCH  23  24
ATOM     24  O   UNL     1      -0.255   5.375   0.541  0.00  0.00    +0.000 OA
ATOM     25  H   UNL     1      -0.430   6.339   0.586  0.00  0.00    +0.000 HD
ENDBRANCH  23  24
ENDBRANCH   8  23
BRANCH   1  26
ATOM     26  C   UNL     1      -1.638   0.363   0.775  0.00  0.00    +0.000 C 
BRANCH  26  30
ATOM     27  O   UNL     1      -6.555  -0.181  -0.233  0.00  0.00    +0.000 OA
ATOM     28  O   UNL     1      -1.831   0.369  -1.588  0.00  0.00    +0.000 OA
ATOM     29  N   UNL     1      -3.814   0.454  -0.384  0.00  0.00    +0.000 N 
ATOM     30  C   UNL     1      -2.428   0.397  -0.509  0.00  0.00    +0.000 C 
ATOM     31  C   UNL     1      -4.550   0.617   0.875  0.00  0.00    +0.000 C 
ATOM     32  C   UNL     1      -4.657   0.485  -1.580  0.00  0.00    +0.000 C 
ATOM     33  C   UNL     1      -5.730  -0.345   0.924  0.00  0.00    +0.000 C 
ATOM     34  C   UNL     1      -5.828  -0.474  -1.428  0.00  0.00    +0.000 C 
ENDBRANCH  26  30
ENDBRANCH   1  26
TORSDOF 6
