REMARK  Name = 9917862
REMARK  12 active torsions:
REMARK  status: ('A' for Active; 'I' for Inactive)
REMARK    1  A    between atoms: N_7  and  C_22
REMARK    2  A    between atoms: N_8  and  C_14
REMARK    3  A    between atoms: N_9  and  C_24
REMARK    4  A    between atoms: N_9  and  C_27
REMARK    5  A    between atoms: N_10  and  C_21
REMARK    6  A    between atoms: C_12  and  C_16
REMARK    7  A    between atoms: C_14  and  C_19
REMARK    8  A    between atoms: C_14  and  C_20
REMARK    9  A    between atoms: C_24  and  C_28
REMARK   10  A    between atoms: C_29  and  C_30
REMARK   11  A    between atoms: C_33  and  C_37
REMARK   12  A    between atoms: C_47  and  C_50
REMARK                            x       y       z     vdW  Elec       q    Type
REMARK                         _______ _______ _______ _____ _____    ______ ____
ROOT
ATOM      1  N   UNL     1       0.564  -3.541   1.184  0.00  0.00    +0.000 N 
ATOM      2  C   UNL     1      -0.795  -3.321   1.163  0.00  0.00    +0.000 A 
ATOM      3  C   UNL     1       1.177  -2.805   0.205  0.00  0.00    +0.000 A 
ATOM      4  C   UNL     1      -1.049  -2.415   0.132  0.00  0.00    +0.000 A 
ATOM      5  C   UNL     1       0.204  -2.098  -0.464  0.00  0.00    +0.000 A 
ATOM      6  C   UNL     1      -2.378  -2.016  -0.108  0.00  0.00    +0.000 A 
ATOM      7  C   UNL     1      -1.808  -3.851   1.969  0.00  0.00    +0.000 A 
ATOM      8  C   UNL     1      -3.403  -2.538   0.690  0.00  0.00    +0.000 A 
ATOM      9  C   UNL     1       1.248  -4.421   2.109  0.00  0.00    +0.000 C 
ATOM     10  C   UNL     1      -3.119  -3.441   1.713  0.00  0.00    +0.000 A 
ENDROOT
BRANCH   3  13
ATOM     11  O   UNL     1       3.340  -3.771   0.195  0.00  0.00    +0.000 OA
ATOM     12  N   UNL     1       3.141  -1.614  -0.569  0.00  0.00    +0.000 N 
ATOM     13  C   UNL     1       2.623  -2.800  -0.053  0.00  0.00    +0.000 C 
ATOM     14  H   UNL     1       2.527  -0.815  -0.701  0.00  0.00    +0.000 HD
BRANCH  12  15
ATOM     15  C   UNL     1       4.550  -1.446  -0.845  0.00  0.00    +0.000 C 
BRANCH  15  16
ATOM     16  C   UNL     1       4.746  -0.482  -1.994  0.00  0.00    +0.000 A 
ATOM     17  C   UNL     1       4.771  -0.956  -3.306  0.00  0.00    +0.000 A 
ATOM     18  C   UNL     1       4.901   0.881  -1.742  0.00  0.00    +0.000 A 
ATOM     19  C   UNL     1       4.952  -0.067  -4.365  0.00  0.00    +0.000 A 
ATOM     20  C   UNL     1       5.082   1.770  -2.802  0.00  0.00    +0.000 A 
ATOM     21  C   UNL     1       5.108   1.296  -4.113  0.00  0.00    +0.000 A 
ENDBRANCH  15  16
BRANCH  15  24
ATOM     22  O   UNL     1       4.553  -0.709   1.439  0.00  0.00    +0.000 OA
ATOM     23  N   UNL     1       6.629  -0.876   0.432  0.00  0.00    +0.000 N 
ATOM     24  C   UNL     1       5.234  -0.991   0.447  0.00  0.00    +0.000 C 
ATOM     25  C   UNL     1       7.504  -1.188  -0.696  0.00  0.00    +0.000 C 
BRANCH  23  26
ATOM     26  C   UNL     1       7.313  -0.351   1.609  0.00  0.00    +0.000 C 
BRANCH  26  27
ATOM     27  C   UNL     1       7.422   1.146   1.574  0.00  0.00    +0.000 A 
ATOM     28  C   UNL     1       8.532   1.750   0.983  0.00  0.00    +0.000 A 
ATOM     29  C   UNL     1       6.414   1.931   2.132  0.00  0.00    +0.000 A 
ATOM     30  C   UNL     1       8.633   3.141   0.951  0.00  0.00    +0.000 A 
ATOM     31  C   UNL     1       6.516   3.322   2.100  0.00  0.00    +0.000 A 
ATOM     32  C   UNL     1       7.625   3.927   1.509  0.00  0.00    +0.000 A 
ENDBRANCH  26  27
ENDBRANCH  23  26
ENDBRANCH  15  24
ENDBRANCH  12  15
ENDBRANCH   3  13
BRANCH   8  34
ATOM     33  O   UNL     1      -4.535  -0.653  -1.347  0.00  0.00    +0.000 OA
ATOM     34  N   UNL     1      -4.723  -2.147   0.458  0.00  0.00    +0.000 N 
ATOM     35  C   UNL     1      -5.200  -1.258  -0.513  0.00  0.00    +0.000 C 
ATOM     36  H   UNL     1      -5.413  -2.558   1.083  0.00  0.00    +0.000 HD
BRANCH  35  37
ATOM     37  C   UNL     1      -6.667  -1.020  -0.492  0.00  0.00    +0.000 A 
ATOM     38  C   UNL     1      -7.202   0.252  -0.292  0.00  0.00    +0.000 A 
ATOM     39  C   UNL     1      -7.515  -2.111  -0.682  0.00  0.00    +0.000 A 
ATOM     40  C   UNL     1      -8.585   0.433  -0.280  0.00  0.00    +0.000 A 
ATOM     41  C   UNL     1      -8.898  -1.931  -0.670  0.00  0.00    +0.000 A 
ATOM     42  C   UNL     1      -9.433  -0.658  -0.469  0.00  0.00    +0.000 A 
BRANCH  38  43
ATOM     43  C   UNL     1      -6.346   1.405  -0.092  0.00  0.00    +0.000 A 
ATOM     44  C   UNL     1      -5.949   1.765   1.196  0.00  0.00    +0.000 A 
ATOM     45  C   UNL     1      -5.920   2.155  -1.188  0.00  0.00    +0.000 A 
ATOM     46  C   UNL     1      -4.700   3.624   0.292  0.00  0.00    +0.000 A 
ATOM     47  C   UNL     1      -5.127   2.874   1.388  0.00  0.00    +0.000 A 
ATOM     48  C   UNL     1      -5.097   3.265  -0.996  0.00  0.00    +0.000 A 
BRANCH  46  52
ATOM     49  F   UNL     1      -3.513   5.045   1.807  0.00  0.00    +0.000 F 
ATOM     50  F   UNL     1      -2.616   4.716  -0.139  0.00  0.00    +0.000 F 
ATOM     51  F   UNL     1      -4.385   5.968   0.041  0.00  0.00    +0.000 F 
ATOM     52  C   UNL     1      -3.821   4.811   0.497  0.00  0.00    +0.000 C 
ENDBRANCH  46  52
ENDBRANCH  38  43
ENDBRANCH  35  37
ENDBRANCH   8  34
TORSDOF 10
