REMARK  Name = 60165029
REMARK  13 active torsions:
REMARK  status: ('A' for Active; 'I' for Inactive)
REMARK    1  A    between atoms: O_2  and  C_16
REMARK    2  A    between atoms: O_2  and  C_24
REMARK    3  A    between atoms: O_3  and  C_13
REMARK    4  A    between atoms: O_5  and  C_29
REMARK    5  A    between atoms: O_5  and  C_35
REMARK    6  A    between atoms: N_7  and  C_17
REMARK    7  A    between atoms: N_8  and  C_15
REMARK    8  A    between atoms: N_9  and  C_27
REMARK    9  A    between atoms: C_11  and  C_18
REMARK   10  A    between atoms: C_12  and  C_19
REMARK   11  A    between atoms: C_13  and  C_16
REMARK   12  A    between atoms: C_13  and  C_20
REMARK   13  A    between atoms: C_13  and  C_21
REMARK                            x       y       z     vdW  Elec       q    Type
REMARK                         _______ _______ _______ _____ _____    ______ ____
ROOT
ATOM      1  F   UNL     1       0.695   4.326   0.701  0.00  0.00    +0.000 F 
ATOM      2  C   UNL     1      -1.310   1.304   0.427  0.00  0.00    +0.000 A 
ATOM      3  C   UNL     1       1.373   2.058   0.555  0.00  0.00    +0.000 A 
ATOM      4  C   UNL     1      -0.968   2.652   0.533  0.00  0.00    +0.000 A 
ATOM      5  C   UNL     1      -0.309   0.332   0.385  0.00  0.00    +0.000 A 
ATOM      6  C   UNL     1       0.373   3.029   0.597  0.00  0.00    +0.000 A 
ATOM      7  C   UNL     1       1.032   0.709   0.449  0.00  0.00    +0.000 A 
ENDROOT
BRANCH   2   9
ATOM      8  O   UNL     1      -3.820   2.973   0.478  0.00  0.00    +0.000 OA
ATOM      9  N   UNL     1      -2.671   0.920   0.363  0.00  0.00    +0.000 N 
ATOM     10  C   UNL     1      -3.798   1.740   0.391  0.00  0.00    +0.000 C 
ATOM     11  H   UNL     1      -2.817  -0.085   0.299  0.00  0.00    +0.000 HD
BRANCH  10  16
ATOM     12  O   UNL     1      -4.322  -0.903  -0.957  0.00  0.00    +0.000 OA
ATOM     13  N   UNL     1      -7.207   0.347   0.503  0.00  0.00    +0.000 N 
ATOM     14  N   UNL     1      -6.563  -0.688  -0.191  0.00  0.00    +0.000 N 
ATOM     15  C   UNL     1      -6.238   1.301   0.822  0.00  0.00    +0.000 A 
ATOM     16  C   UNL     1      -5.040   0.989   0.304  0.00  0.00    +0.000 A 
ATOM     17  C   UNL     1      -5.233  -0.312  -0.400  0.00  0.00    +0.000 A 
ATOM     18  C   UNL     1      -8.539   0.752   0.066  0.00  0.00    +0.000 C 
ATOM     19  C   UNL     1      -6.603   2.513   1.613  0.00  0.00    +0.000 C 
BRANCH  14  20
ATOM     20  C   UNL     1      -7.104  -1.991  -0.327  0.00  0.00    +0.000 A 
ATOM     21  C   UNL     1      -6.551  -2.884  -1.244  0.00  0.00    +0.000 A 
ATOM     22  C   UNL     1      -8.191  -2.380   0.457  0.00  0.00    +0.000 A 
ATOM     23  C   UNL     1      -7.084  -4.166  -1.379  0.00  0.00    +0.000 A 
ATOM     24  C   UNL     1      -8.724  -3.662   0.322  0.00  0.00    +0.000 A 
ATOM     25  C   UNL     1      -8.171  -4.555  -0.595  0.00  0.00    +0.000 A 
ENDBRANCH  14  20
ENDBRANCH  10  16
ENDBRANCH   2   9
BRANCH   3  26
ATOM     26  O   UNL     1       2.682   2.424   0.618  0.00  0.00    +0.000 OA
BRANCH  26  32
ATOM     27  N   UNL     1       5.092   1.446  -2.638  0.00  0.00    +0.000 NA
ATOM     28  C   UNL     1       6.872  -0.357   0.000  0.00  0.00    +0.000 A 
ATOM     29  C   UNL     1       4.623   1.267  -0.281  0.00  0.00    +0.000 A 
ATOM     30  C   UNL     1       5.403   0.968  -1.418  0.00  0.00    +0.000 A 
ATOM     31  C   UNL     1       6.521   0.155  -1.251  0.00  0.00    +0.000 A 
ATOM     32  C   UNL     1       3.498   2.085  -0.449  0.00  0.00    +0.000 A 
ATOM     33  C   UNL     1       6.100  -0.060   1.116  0.00  0.00    +0.000 A 
ATOM     34  C   UNL     1       4.977   0.751   0.977  0.00  0.00    +0.000 A 
ATOM     35  C   UNL     1       3.175   2.579  -1.705  0.00  0.00    +0.000 A 
ATOM     36  C   UNL     1       3.997   2.232  -2.757  0.00  0.00    +0.000 A 
BRANCH  28  37
ATOM     37  O   UNL     1       7.973  -1.149   0.125  0.00  0.00    +0.000 OA
BRANCH  37  38
ATOM     38  C   UNL     1       7.947  -2.138   1.153  0.00  0.00    +0.000 C 
BRANCH  38  39
ATOM     39  C   UNL     1       8.810  -3.343   0.758  0.00  0.00    +0.000 C 
ATOM     40  C   UNL     1      10.258  -2.941   0.475  0.00  0.00    +0.000 C 
ATOM     41  C   UNL     1       8.760  -4.413   1.850  0.00  0.00    +0.000 C 
BRANCH  39  42
ATOM     42  O   UNL     1       8.285  -3.910  -0.445  0.00  0.00    +0.000 OA
ATOM     43  H   UNL     1       8.826  -4.684  -0.676  0.00  0.00    +0.000 HD
ENDBRANCH  39  42
ENDBRANCH  38  39
ENDBRANCH  37  38
ENDBRANCH  28  37
ENDBRANCH  26  32
ENDBRANCH   3  26
TORSDOF 9
