REMARK  Name = 2662
REMARK  6 active torsions:
REMARK  status: ('A' for Active; 'I' for Inactive)
REMARK    1  A    between atoms: S_1  and  N_9
REMARK    2  A    between atoms: S_1  and  C_17
REMARK    3  A    between atoms: N_7  and  C_11
REMARK    4  A    between atoms: C_10  and  C_12
REMARK    5  A    between atoms: C_14  and  C_25
REMARK    6  A    between atoms: C_22  and  C_26
REMARK                            x       y       z     vdW  Elec       q    Type
REMARK                         _______ _______ _______ _____ _____    ______ ____
ROOT
ATOM      1  N   UNL     1      -1.064  -0.609   0.001  0.00  0.00    +0.000 N 
ATOM      2  N   UNL     1      -1.915  -1.649   0.023  0.00  0.00    +0.000 NA
ATOM      3  C   UNL     1      -1.679   0.610  -0.007  0.00  0.00    +0.000 A 
ATOM      4  C   UNL     1      -3.028   0.345   0.011  0.00  0.00    +0.000 A 
ATOM      5  C   UNL     1      -3.113  -1.060   0.029  0.00  0.00    +0.000 A 
ENDROOT
BRANCH   3   6
ATOM      6  C   UNL     1      -0.989   1.876  -0.030  0.00  0.00    +0.000 A 
ATOM      7  C   UNL     1      -0.642   2.503   1.167  0.00  0.00    +0.000 A 
ATOM      8  C   UNL     1      -0.668   2.474  -1.249  0.00  0.00    +0.000 A 
ATOM      9  C   UNL     1       0.346   4.325  -0.074  0.00  0.00    +0.000 A 
ATOM     10  C   UNL     1       0.026   3.728   1.145  0.00  0.00    +0.000 A 
ATOM     11  C   UNL     1      -0.001   3.699  -1.271  0.00  0.00    +0.000 A 
ATOM     12  C   UNL     1       1.059   5.635  -0.099  0.00  0.00    +0.000 C 
ENDBRANCH   3   6
BRANCH   1  13
ATOM     13  C   UNL     1       0.312  -0.848  -0.012  0.00  0.00    +0.000 A 
ATOM     14  C   UNL     1       1.171   0.074   0.571  0.00  0.00    +0.000 A 
ATOM     15  C   UNL     1       0.800  -2.002  -0.608  0.00  0.00    +0.000 A 
ATOM     16  C   UNL     1       3.047  -1.321  -0.038  0.00  0.00    +0.000 A 
ATOM     17  C   UNL     1       2.546  -0.164   0.558  0.00  0.00    +0.000 A 
ATOM     18  C   UNL     1       2.175  -2.240  -0.621  0.00  0.00    +0.000 A 
BRANCH  16  19
ATOM     19  S   UNL     1       4.768  -1.619  -0.054  0.00  0.00    +0.000 S 
ATOM     20  O   UNL     1       5.070  -2.506  -1.169  0.00  0.00    +0.000 OA
ATOM     21  O   UNL     1       5.459  -0.343   0.064  0.00  0.00    +0.000 OA
BRANCH  19  22
ATOM     22  N   UNL     1       4.961  -2.485   1.407  0.00  0.00    +0.000 NA
ATOM     23  H   UNL     1       5.172  -3.488   1.342  0.00  0.00    +0.000 HD
ATOM     24  H   UNL     1       5.436  -2.009   2.183  0.00  0.00    +0.000 HD
ENDBRANCH  19  22
ENDBRANCH  16  19
ENDBRANCH   1  13
BRANCH   5  28
ATOM     25  F   UNL     1      -5.477  -1.141   0.059  0.00  0.00    +0.000 F 
ATOM     26  F   UNL     1      -4.440  -2.720  -1.018  0.00  0.00    +0.000 F 
ATOM     27  F   UNL     1      -4.391  -2.677   1.161  0.00  0.00    +0.000 F 
ATOM     28  C   UNL     1      -4.333  -1.884   0.054  0.00  0.00    +0.000 C 
ENDBRANCH   5  28
TORSDOF 5
