REMARK  Name = 444795
REMARK  11 active torsions:
REMARK  status: ('A' for Active; 'I' for Inactive)
REMARK    1  A    between atoms: O_1  and  C_22
REMARK    2  A    between atoms: C_3  and  C_9
REMARK    3  A    between atoms: C_3  and  C_10
REMARK    4  A    between atoms: C_6  and  C_11
REMARK    5  A    between atoms: C_8  and  C_12
REMARK    6  A    between atoms: C_13  and  C_14
REMARK    7  A    between atoms: C_14  and  C_15
REMARK    8  A    between atoms: C_16  and  C_17
REMARK    9  A    between atoms: C_18  and  C_19
REMARK   10  A    between atoms: C_19  and  C_20
REMARK   11  A    between atoms: C_21  and  C_22
REMARK                            x       y       z     vdW  Elec       q    Type
REMARK                         _______ _______ _______ _____ _____    ______ ____
ROOT
ATOM      1  C   UNL     1      -0.005  -0.628  -0.314  0.00  0.00    +0.000 C 
ATOM      2  C   UNL     1       0.054  -2.059  -0.798  0.00  0.00    +0.000 C 
ATOM      3  C   UNL     1       1.156   0.015  -0.063  0.00  0.00    +0.000 C 
ENDROOT
BRANCH   1   5
ATOM      4  C   UNL     1      -2.508  -0.627  -0.383  0.00  0.00    +0.000 C 
ATOM      5  C   UNL     1      -1.329  -0.028  -0.147  0.00  0.00    +0.000 C 
BRANCH   4   9
ATOM      6  C   UNL     1      -4.899  -0.828   0.451  0.00  0.00    +0.000 C 
ATOM      7  C   UNL     1      -6.289  -0.145   0.341  0.00  0.00    +0.000 C 
ATOM      8  C   UNL     1      -6.232   1.333   0.683  0.00  0.00    +0.000 C 
ATOM      9  C   UNL     1      -3.788   0.035  -0.195  0.00  0.00    +0.000 C 
ATOM     10  C   UNL     1      -5.293   2.054  -0.273  0.00  0.00    +0.000 C 
ATOM     11  C   UNL     1      -3.989   1.331  -0.542  0.00  0.00    +0.000 C 
ATOM     12  C   UNL     1      -5.044  -2.204  -0.243  0.00  0.00    +0.000 C 
ATOM     13  C   UNL     1      -4.570  -1.062   1.943  0.00  0.00    +0.000 C 
ATOM     14  C   UNL     1      -2.982   2.229  -1.224  0.00  0.00    +0.000 C 
ENDBRANCH   4   9
ENDBRANCH   1   5
BRANCH   3  15
ATOM     15  C   UNL     1       2.513  -0.484  -0.195  0.00  0.00    +0.000 C 
ATOM     16  C   UNL     1       3.591   0.268   0.089  0.00  0.00    +0.000 C 
BRANCH  16  17
ATOM     17  C   UNL     1       4.998  -0.136  -0.015  0.00  0.00    +0.000 C 
ATOM     18  C   UNL     1       5.280  -1.546  -0.466  0.00  0.00    +0.000 C 
ATOM     19  C   UNL     1       5.940   0.769   0.319  0.00  0.00    +0.000 C 
BRANCH  19  21
ATOM     20  O   UNL     1       8.017  -0.198  -0.457  0.00  0.00    +0.000 OA
ATOM     21  C   UNL     1       7.403   0.552   0.281  0.00  0.00    +0.000 C 
BRANCH  21  22
ATOM     22  O   UNL     1       7.978   1.359   1.205  0.00  0.00    +0.000 OA
ATOM     23  H   UNL     1       8.954   1.265   1.219  0.00  0.00    +0.000 HD
ENDBRANCH  21  22
ENDBRANCH  19  21
ENDBRANCH  16  17
ENDBRANCH   3  15
TORSDOF 6
