REMARK  Name = 
REMARK  17 active torsions:
REMARK  status: ('A' for Active; 'I' for Inactive)
REMARK    1  A    between atoms: CB_1  and  CA_2
REMARK    2  A    between atoms: CA_2  and  N_3
REMARK    3  A    between atoms: CA_2  and  C_25
REMARK    4  A    between atoms: C_4  and  CA_6
REMARK    5  A    between atoms: CA_6  and  CB_7
REMARK    6  A    between atoms: CA_6  and  N_12
REMARK    7  A    between atoms: CB_7  and  CG_8
REMARK    8  A    between atoms: CG_8  and  CD_9
REMARK    9  A    between atoms: CD_9  and  OE2_11
REMARK   10  A    between atoms: C_13  and  CA_15
REMARK   11  A    between atoms: CA_15  and  N_16
REMARK   12  A    between atoms: C_17  and  CA_19
REMARK   13  A    between atoms: CA_19  and  N_20
REMARK   14  A    between atoms: CA_19  and  CB_21
REMARK   15  A    between atoms: CB_21  and  CG_22
REMARK   16  A    between atoms: CG_22  and  OD2_24
REMARK   17  A    between atoms: C_25  and  OXT_27
REMARK                            x       y       z     vdW  Elec       q    Type
REMARK                         _______ _______ _______ _____ _____    ______ ____
ROOT
ATOM      1  N   GLU A   3      -0.009   0.713   0.485  0.00  0.00    +0.000 N 
ATOM      2  C   GLY A   2       0.314   0.960   1.834  0.00  0.00    +0.000 C 
ATOM      3  O   GLY A   2      -0.398   1.638   2.605  0.00  0.00    +0.000 OA
ATOM      4  H   GLU A   3       0.484   0.072  -0.076  0.00  0.00    +0.000 HD
ENDROOT
BRANCH   1   5
ATOM      5  CA  GLU A   3      -1.254   1.573  -0.055  0.00  0.00    +0.000 C 
BRANCH   5   7
ATOM      6  N   ALA A   4      -3.351   0.661   1.146  0.00  0.00    +0.000 N 
ATOM      7  C   GLU A   3      -2.335   0.369   0.198  0.00  0.00    +0.000 C 
ATOM      8  O   GLU A   3      -1.935  -0.778   0.102  0.00  0.00    +0.000 OA
ATOM      9  H   ALA A   4      -3.276   1.252   1.930  0.00  0.00    +0.000 HD
BRANCH   6  11
ATOM     10  CB  ALA A   4      -3.892  -1.636   0.973  0.00  0.00    +0.000 C 
ATOM     11  CA  ALA A   4      -4.648  -0.168   0.684  0.00  0.00    +0.000 C 
BRANCH  11  12
ATOM     12  C   ALA A   4      -5.302  -0.127   2.188  0.00  0.00    +0.000 C 
ATOM     13  O   ALA A   4      -6.455  -0.636   2.183  0.00  0.00    +0.000 OA
BRANCH  12  14
ATOM     14  OXT ALA A   4      -4.470  -0.440   3.221  0.00  0.00    +0.000 OA
ATOM     15  HXT ALA A   4      -3.606  -0.078   3.254  0.00  0.00    +0.000 HD
ENDBRANCH  12  14
ENDBRANCH  11  12
ENDBRANCH   6  11
ENDBRANCH   5   7
BRANCH   5  16
ATOM     16  CB  GLU A   3      -0.977   1.064  -1.629  0.00  0.00    +0.000 C 
BRANCH  16  17
ATOM     17  CG  GLU A   3      -2.289   1.306  -2.329  0.00  0.00    +0.000 C 
BRANCH  17  18
ATOM     18  CD  GLU A   3      -2.608   0.215  -3.290  0.00  0.00    +0.000 C 
ATOM     19  OE1 GLU A   3      -2.519   0.461  -4.520  0.00  0.00    +0.000 OA
BRANCH  18  20
ATOM     20  OE2 GLU A   3      -3.366  -0.892  -2.950  0.00  0.00    +0.000 OA
ATOM     21  HE2 GLU A   3      -3.472  -1.129  -2.050  0.00  0.00    +0.000 HD
ENDBRANCH  18  20
ENDBRANCH  17  18
ENDBRANCH  16  17
ENDBRANCH   5  16
ENDBRANCH   1   5
BRANCH   2  22
ATOM     22  CA  GLY A   2       1.683   0.570   2.294  0.00  0.00    +0.000 C 
BRANCH  22  23
ATOM     23  N   GLY A   2       2.588   0.736   1.175  0.00  0.00    +0.000 N 
ATOM     24  C   ASP A   1       3.777  -0.008   1.046  0.00  0.00    +0.000 C 
ATOM     25  O   ASP A   1       4.107  -0.873   1.887  0.00  0.00    +0.000 OA
ATOM     26  H   GLY A   2       2.363   1.394   0.477  0.00  0.00    +0.000 HD
BRANCH  24  27
ATOM     27  CA  ASP A   1       4.093  -0.483  -0.495  0.00  0.00    +0.000 C 
BRANCH  27  28
ATOM     28  N   ASP A   1       4.094   1.039  -1.002  0.00  0.00    +0.000 NA
ATOM     29  H1  ASP A   1       4.639   1.612  -0.358  0.00  0.00    +0.000 HD
ATOM     30  H2  ASP A   1       3.135   1.386  -1.039  0.00  0.00    +0.000 HD
ENDBRANCH  27  28
BRANCH  27  31
ATOM     31  CB  ASP A   1       5.742  -0.438  -0.206  0.00  0.00    +0.000 C 
BRANCH  31  32
ATOM     32  CG  ASP A   1       6.313   0.082  -1.463  0.00  0.00    +0.000 C 
ATOM     33  OD1 ASP A   1       7.340   0.809  -1.383  0.00  0.00    +0.000 OA
BRANCH  32  34
ATOM     34  OD2 ASP A   1       5.760  -0.182  -2.696  0.00  0.00    +0.000 OA
ATOM     35  HD2 ASP A   1       4.996  -0.721  -2.762  0.00  0.00    +0.000 HD
ENDBRANCH  32  34
ENDBRANCH  31  32
ENDBRANCH  27  31
ENDBRANCH  24  27
ENDBRANCH  22  23
ENDBRANCH   2  22
TORSDOF 16
