REMARK  Name = 10364585
REMARK  8 active torsions:
REMARK  status: ('A' for Active; 'I' for Inactive)
REMARK    1  A    between atoms: O_3  and  C_23
REMARK    2  A    between atoms: O_4  and  C_25
REMARK    3  A    between atoms: O_5  and  C_26
REMARK    4  A    between atoms: O_5  and  C_31
REMARK    5  A    between atoms: N_6  and  C_14
REMARK    6  A    between atoms: C_14  and  C_17
REMARK    7  A    between atoms: C_15  and  C_22
REMARK    8  A    between atoms: C_17  and  C_25
REMARK                            x       y       z     vdW  Elec       q    Type
REMARK                         _______ _______ _______ _____ _____    ______ ____
ROOT
ATOM      1  O   UNL     1       1.280   3.840   0.562  0.00  0.00    +0.000 OA
ATOM      2  O   UNL     1      -3.160   2.711   0.131  0.00  0.00    +0.000 OA
ATOM      3  N   UNL     1       1.873  -1.265  -0.598  0.00  0.00    +0.000 N 
ATOM      4  N   UNL     1      -1.038   3.632   0.424  0.00  0.00    +0.000 N 
ATOM      5  C   UNL     1       1.204   0.818  -0.141  0.00  0.00    +0.000 A 
ATOM      6  C   UNL     1       0.758  -0.475  -0.458  0.00  0.00    +0.000 A 
ATOM      7  C   UNL     1       2.638   0.772  -0.095  0.00  0.00    +0.000 A 
ATOM      8  C   UNL     1       3.019  -0.540  -0.385  0.00  0.00    +0.000 A 
ATOM      9  C   UNL     1       0.197   1.774   0.042  0.00  0.00    +0.000 A 
ATOM     10  C   UNL     1      -1.150   1.438  -0.088  0.00  0.00    +0.000 A 
ATOM     11  C   UNL     1      -1.576   0.167  -0.399  0.00  0.00    +0.000 A 
ATOM     12  C   UNL     1      -0.605  -0.820  -0.590  0.00  0.00    +0.000 A 
ATOM     13  C   UNL     1       3.661   1.710   0.164  0.00  0.00    +0.000 A 
ATOM     14  C   UNL     1       0.266   3.196   0.373  0.00  0.00    +0.000 C 
ATOM     15  C   UNL     1       4.355  -0.957  -0.428  0.00  0.00    +0.000 A 
ATOM     16  C   UNL     1      -1.946   2.639   0.160  0.00  0.00    +0.000 C 
ATOM     17  C   UNL     1       5.003   1.310   0.124  0.00  0.00    +0.000 A 
ATOM     18  C   UNL     1       5.343  -0.006  -0.169  0.00  0.00    +0.000 A 
ATOM     19  H   UNL     1      -1.300   4.589   0.636  0.00  0.00    +0.000 HD
ENDROOT
BRANCH  11  20
ATOM     20  C   UNL     1      -2.974  -0.179  -0.533  0.00  0.00    +0.000 A 
ATOM     21  C   UNL     1      -3.713  -0.621   0.566  0.00  0.00    +0.000 A 
ATOM     22  C   UNL     1      -3.587  -0.068  -1.783  0.00  0.00    +0.000 A 
ATOM     23  C   UNL     1      -5.060  -0.950   0.416  0.00  0.00    +0.000 A 
ATOM     24  C   UNL     1      -4.935  -0.397  -1.932  0.00  0.00    +0.000 A 
ATOM     25  C   UNL     1      -5.671  -0.838  -0.833  0.00  0.00    +0.000 A 
BRANCH  21  26
ATOM     26  O   UNL     1      -3.141  -0.741   1.798  0.00  0.00    +0.000 OA
ATOM     27  C   UNL     1      -3.977  -1.200   2.857  0.00  0.00    +0.000 C 
ENDBRANCH  21  26
ENDBRANCH  11  20
BRANCH  17  28
ATOM     28  O   UNL     1       5.984   2.221   0.375  0.00  0.00    +0.000 OA
ATOM     29  H   UNL     1       5.575   3.084   0.559  0.00  0.00    +0.000 HD
ENDBRANCH  17  28
BRANCH   3  30
ATOM     30  C   UNL     1       1.843  -2.677  -0.927  0.00  0.00    +0.000 C 
BRANCH  30  31
ATOM     31  C   UNL     1       1.776  -3.594   0.294  0.00  0.00    +0.000 C 
BRANCH  31  32
ATOM     32  C   UNL     1       1.684  -5.072  -0.064  0.00  0.00    +0.000 C 
BRANCH  32  33
ATOM     33  O   UNL     1       1.650  -5.831   1.138  0.00  0.00    +0.000 OA
ATOM     34  H   UNL     1       0.856  -5.564   1.631  0.00  0.00    +0.000 HD
ENDBRANCH  32  33
ENDBRANCH  31  32
ENDBRANCH  30  31
ENDBRANCH   3  30
TORSDOF 7
