REMARK  Name = 984170
REMARK  7 active torsions:
REMARK  status: ('A' for Active; 'I' for Inactive)
REMARK    1  A    between atoms: O_3  and  C_18
REMARK    2  A    between atoms: O_4  and  C_21
REMARK    3  A    between atoms: C_7  and  C_9
REMARK    4  A    between atoms: C_8  and  C_10
REMARK    5  A    between atoms: C_11  and  C_22
REMARK    6  A    between atoms: C_14  and  C_20
REMARK    7  A    between atoms: C_20  and  C_26
REMARK                            x       y       z     vdW  Elec       q    Type
REMARK                         _______ _______ _______ _____ _____    ______ ____
ROOT
ATOM      1  N   UNL     1      -0.854  -3.722  -1.024  0.00  0.00    +0.000 N 
ATOM      2  N   UNL     1      -1.863  -2.866  -0.790  0.00  0.00    +0.000 NA
ATOM      3  C   UNL     1       0.160  -1.929  -0.305  0.00  0.00    +0.000 A 
ATOM      4  C   UNL     1      -1.236  -1.771  -0.350  0.00  0.00    +0.000 A 
ATOM      5  C   UNL     1       0.380  -3.209  -0.749  0.00  0.00    +0.000 A 
ATOM      6  C   UNL     1       1.607  -4.002  -0.945  0.00  0.00    +0.000 C 
ATOM      7  H   UNL     1      -1.082  -4.645  -1.373  0.00  0.00    +0.000 HD
ENDROOT
BRANCH   3  10
ATOM      8  O   UNL     1       3.326   1.519  -1.415  0.00  0.00    +0.000 OA
ATOM      9  O   UNL     1       4.256   1.520   1.313  0.00  0.00    +0.000 OA
ATOM     10  C   UNL     1       1.206  -1.029   0.095  0.00  0.00    +0.000 A 
ATOM     11  C   UNL     1       1.793  -0.182  -0.845  0.00  0.00    +0.000 A 
ATOM     12  C   UNL     1       2.803   0.697  -0.452  0.00  0.00    +0.000 A 
ATOM     13  C   UNL     1       3.246   0.705   0.873  0.00  0.00    +0.000 A 
ATOM     14  C   UNL     1       1.629  -1.001   1.424  0.00  0.00    +0.000 A 
ATOM     15  C   UNL     1       2.649  -0.133   1.815  0.00  0.00    +0.000 A 
ATOM     16  C   UNL     1       4.083   2.591  -0.848  0.00  0.00    +0.000 C 
ATOM     17  C   UNL     1       5.012   2.066   0.229  0.00  0.00    +0.000 C 
ENDBRANCH   3  10
BRANCH   4  18
ATOM     18  C   UNL     1      -1.995  -0.602   0.015  0.00  0.00    +0.000 A 
ATOM     19  C   UNL     1      -2.999   1.498  -0.624  0.00  0.00    +0.000 A 
ATOM     20  C   UNL     1      -2.268   0.358  -0.958  0.00  0.00    +0.000 A 
ATOM     21  C   UNL     1      -2.450  -0.427   1.320  0.00  0.00    +0.000 A 
ATOM     22  C   UNL     1      -3.456   1.675   0.682  0.00  0.00    +0.000 A 
ATOM     23  C   UNL     1      -3.182   0.713   1.654  0.00  0.00    +0.000 A 
BRANCH  21  24
ATOM     24  O   UNL     1      -2.196  -1.352   2.290  0.00  0.00    +0.000 OA
ATOM     25  H   UNL     1      -1.704  -2.106   1.929  0.00  0.00    +0.000 HD
ENDBRANCH  21  24
BRANCH  22  26
ATOM     26  O   UNL     1      -4.173   2.782   1.025  0.00  0.00    +0.000 OA
ATOM     27  H   UNL     1      -4.403   2.732   1.969  0.00  0.00    +0.000 HD
ENDBRANCH  22  26
BRANCH  19  28
ATOM     28  C   UNL     1      -3.283   2.518  -1.676  0.00  0.00    +0.000 C 
ATOM     29  C   UNL     1      -2.195   3.586  -1.755  0.00  0.00    +0.000 C 
ENDBRANCH  19  28
ENDBRANCH   4  18
TORSDOF 5
