REMARK  Name = 447835
REMARK  7 active torsions:
REMARK  status: ('A' for Active; 'I' for Inactive)
REMARK    1  A    between atoms: O_2  and  C_16
REMARK    2  A    between atoms: O_2  and  C_25
REMARK    3  A    between atoms: O_4  and  C_19
REMARK    4  A    between atoms: C_7  and  C_11
REMARK    5  A    between atoms: C_10  and  C_14
REMARK    6  A    between atoms: C_11  and  C_19
REMARK    7  A    between atoms: C_15  and  C_18
REMARK                            x       y       z     vdW  Elec       q    Type
REMARK                         _______ _______ _______ _____ _____    ______ ____
ROOT
ATOM      1  O   UNL     1      -1.549   2.544  -1.382  0.00  0.00    +0.000 OA
ATOM      2  N   UNL     1      -0.076   0.991  -0.645  0.00  0.00    +0.000 N 
ATOM      3  C   UNL     1       2.160   0.961  -0.411  0.00  0.00    +0.000 A 
ATOM      4  C   UNL     1       1.708  -0.379  -0.417  0.00  0.00    +0.000 A 
ATOM      5  C   UNL     1       0.314  -0.350  -0.559  0.00  0.00    +0.000 A 
ATOM      6  C   UNL     1       1.060   1.771  -0.543  0.00  0.00    +0.000 A 
ATOM      7  C   UNL     1       2.370  -1.620  -0.312  0.00  0.00    +0.000 A 
ATOM      8  C   UNL     1      -0.428  -1.546  -0.608  0.00  0.00    +0.000 A 
ATOM      9  C   UNL     1       1.048   3.253  -0.581  0.00  0.00    +0.000 C 
ATOM     10  C   UNL     1      -1.391   1.491  -0.773  0.00  0.00    +0.000 C 
ATOM     11  C   UNL     1       1.631  -2.803  -0.355  0.00  0.00    +0.000 A 
ATOM     12  C   UNL     1       0.251  -2.764  -0.502  0.00  0.00    +0.000 A 
ENDROOT
BRANCH  10  14
ATOM     13  I   UNL     1      -6.571  -1.347   1.526  0.00  0.00    +0.000 I 
ATOM     14  C   UNL     1      -2.597   0.831  -0.237  0.00  0.00    +0.000 A 
ATOM     15  C   UNL     1      -2.506   0.049   0.911  0.00  0.00    +0.000 A 
ATOM     16  C   UNL     1      -3.820   0.992  -0.884  0.00  0.00    +0.000 A 
ATOM     17  C   UNL     1      -3.646  -0.576   1.417  0.00  0.00    +0.000 A 
ATOM     18  C   UNL     1      -4.960   0.368  -0.378  0.00  0.00    +0.000 A 
ATOM     19  C   UNL     1      -4.873  -0.416   0.773  0.00  0.00    +0.000 A 
ENDBRANCH  10  14
BRANCH  11  20
ATOM     20  O   UNL     1       2.270  -4.002  -0.253  0.00  0.00    +0.000 OA
ATOM     21  C   UNL     1       3.688  -3.971  -0.104  0.00  0.00    +0.000 C 
ENDBRANCH  11  20
BRANCH   3  22
ATOM     22  C   UNL     1       3.563   1.409  -0.280  0.00  0.00    +0.000 C 
BRANCH  22  24
ATOM     23  O   UNL     1       3.161   1.523   2.104  0.00  0.00    +0.000 OA
ATOM     24  C   UNL     1       3.946   1.619   1.169  0.00  0.00    +0.000 C 
BRANCH  24  25
ATOM     25  O   UNL     1       5.247   1.970   1.323  0.00  0.00    +0.000 OA
ATOM     26  H   UNL     1       5.476   2.122   2.265  0.00  0.00    +0.000 HD
ENDBRANCH  24  25
ENDBRANCH  22  24
ENDBRANCH   3  22
TORSDOF 5
