REMARK  Name = 
REMARK  9 active torsions:
REMARK  status: ('A' for Active; 'I' for Inactive)
REMARK    1  A    between atoms: C_1  and  O_2
REMARK    2  A    between atoms: O_2  and  C_3
REMARK    3  A    between atoms: C_13  and  N_14
REMARK    4  A    between atoms: N_17  and  C_18
REMARK    5  A    between atoms: C_18  and  C_19
REMARK    6  A    between atoms: C_19  and  C_20
REMARK    7  A    between atoms: C_20  and  N_21
REMARK    8  A    between atoms: N_21  and  C_22
REMARK    9  A    between atoms: N_21  and  C_23
REMARK                            x       y       z     vdW  Elec       q    Type
REMARK                         _______ _______ _______ _____ _____    ______ ____
ROOT
ATOM      1  C   UNL     1      -3.954   2.044   0.635  0.00  0.00    +0.000 A 
ATOM      2  C   UNL     1      -4.523   0.916   1.161  0.00  0.00    +0.000 A 
ATOM      3  C   UNL     1      -3.919  -0.323   0.999  0.00  0.00    +0.000 A 
ATOM      4  C   UNL     1      -2.621  -0.437   0.524  0.00  0.00    +0.000 A 
ATOM      5  N   UNL     1      -2.025  -1.644   0.356  0.00  0.00    +0.000 N 
ATOM      6  C   UNL     1      -0.774  -1.657  -0.133  0.00  0.00    +0.000 A 
ATOM      7  C   UNL     1      -0.250  -0.536  -0.765  0.00  0.00    +0.000 A 
ATOM      8  C   UNL     1       1.109  -0.315  -0.885  0.00  0.00    +0.000 A 
ATOM      9  C   UNL     1       1.920  -1.444  -0.908  0.00  0.00    +0.000 A 
ATOM     10  C   UNL     1       1.432  -2.617  -0.343  0.00  0.00    +0.000 A 
ATOM     11  C   UNL     1       0.110  -2.707   0.076  0.00  0.00    +0.000 A 
ATOM     12  N   UNL     1       1.341   1.020  -0.862  0.00  0.00    +0.000 N 
ATOM     13  N   UNL     1       0.152   1.628  -0.845  0.00  0.00    +0.000 NA
ATOM     14  C   UNL     1      -0.807   0.723  -0.578  0.00  0.00    +0.000 A 
ATOM     15  C   UNL     1      -2.047   0.737   0.052  0.00  0.00    +0.000 A 
ATOM     16  C   UNL     1      -2.684   1.955   0.120  0.00  0.00    +0.000 A 
ATOM     17  H   UNL     1      -2.492  -2.480   0.585  0.00  0.00    +0.000 HD
ENDROOT
BRANCH  11  18
ATOM     18  N   UNL     1      -0.424  -3.976   0.378  0.00  0.00    +0.000 N 
ATOM     19  O   UNL     1      -1.074  -4.539  -0.540  0.00  0.00    +0.000 OA
ATOM     20  O   UNL     1       0.379  -4.822   1.124  0.00  0.00    +0.000 OA
ENDBRANCH  11  18
BRANCH   1  22
ATOM     21  C   UNL     1      -3.896   4.451   0.337  0.00  0.00    +0.000 C 
ATOM     22  O   UNL     1      -4.534   3.284   0.834  0.00  0.00    +0.000 OA
ENDBRANCH   1  22
BRANCH  12  23
ATOM     23  C   UNL     1       2.593   1.634  -0.426  0.00  0.00    +0.000 C 
BRANCH  23  24
ATOM     24  C   UNL     1       3.700   1.310  -1.383  0.00  0.00    +0.000 C 
BRANCH  24  25
ATOM     25  C   UNL     1       4.939   2.055  -0.903  0.00  0.00    +0.000 C 
BRANCH  25  26
ATOM     26  N   UNL     1       5.519   1.427   0.268  0.00  0.00    +0.000 NA
ATOM     27  C   UNL     1       5.436  -0.017   0.209  0.00  0.00    +0.000 C 
ATOM     28  C   UNL     1       4.902   1.849   1.499  0.00  0.00    +0.000 C 
ENDBRANCH  25  26
ENDBRANCH  24  25
ENDBRANCH  23  24
ENDBRANCH  12  23
TORSDOF 6
