REMARK  Name = 4628
REMARK  4 active torsions:
REMARK  status: ('A' for Active; 'I' for Inactive)
REMARK    1  A    between atoms: O_4  and  C_19
REMARK    2  A    between atoms: N_6  and  C_10
REMARK    3  A    between atoms: C_10  and  C_18
REMARK    4  A    between atoms: C_16  and  C_19
REMARK                            x       y       z     vdW  Elec       q    Type
REMARK                         _______ _______ _______ _____ _____    ______ ____
ROOT
ATOM      1  O   UNL     1      -4.052   0.625   0.137  0.00  0.00    +0.000 OA
ATOM      2  O   UNL     1      -3.682  -1.734  -0.185  0.00  0.00    +0.000 OA
ATOM      3  O   UNL     1       1.410  -2.429  -0.260  0.00  0.00    +0.000 OA
ATOM      4  N   UNL     1       0.773   1.566   0.285  0.00  0.00    +0.000 N 
ATOM      5  C   UNL     1      -0.359   0.723   0.166  0.00  0.00    +0.000 A 
ATOM      6  C   UNL     1      -0.168  -0.678  -0.026  0.00  0.00    +0.000 A 
ATOM      7  C   UNL     1      -1.682   1.204   0.226  0.00  0.00    +0.000 A 
ATOM      8  C   UNL     1      -2.728   0.309   0.099  0.00  0.00    +0.000 A 
ATOM      9  C   UNL     1      -2.518  -1.035  -0.085  0.00  0.00    +0.000 A 
ATOM     10  C   UNL     1      -1.249  -1.564  -0.152  0.00  0.00    +0.000 A 
ATOM     11  C   UNL     1       2.041   1.018   0.215  0.00  0.00    +0.000 A 
ATOM     12  C   UNL     1       1.210  -1.232  -0.096  0.00  0.00    +0.000 A 
ATOM     13  C   UNL     1       2.334  -0.275   0.040  0.00  0.00    +0.000 A 
ATOM     14  C   UNL     1      -4.651  -0.675  -0.044  0.00  0.00    +0.000 C 
ENDROOT
BRANCH  13  16
ATOM     15  O   UNL     1       4.646   0.041  -0.414  0.00  0.00    +0.000 OA
ATOM     16  C   UNL     1       3.743  -0.669  -0.008  0.00  0.00    +0.000 C 
BRANCH  16  17
ATOM     17  O   UNL     1       3.879  -1.927   0.462  0.00  0.00    +0.000 OA
ATOM     18  H   UNL     1       4.812  -2.228   0.445  0.00  0.00    +0.000 HD
ENDBRANCH  16  17
ENDBRANCH  13  16
BRANCH   4  19
ATOM     19  C   UNL     1       0.564   2.999   0.481  0.00  0.00    +0.000 C 
ATOM     20  C   UNL     1       0.490   3.734  -0.842  0.00  0.00    +0.000 C 
ENDBRANCH   4  19
TORSDOF 3
