REMARK  Name = 44582816
REMARK  3 active torsions:
REMARK  status: ('A' for Active; 'I' for Inactive)
REMARK    1  A    between atoms: N_7  and  C_23
REMARK    2  A    between atoms: C_9  and  C_12
REMARK    3  A    between atoms: C_13  and  C_17
REMARK                            x       y       z     vdW  Elec       q    Type
REMARK                         _______ _______ _______ _____ _____    ______ ____
ROOT
ATOM      1  O   UNL     1       0.784  -4.245  -0.766  0.00  0.00    +0.000 OA
ATOM      2  O   UNL     1       3.811  -1.973   1.812  0.00  0.00    +0.000 OA
ATOM      3  N   UNL     1       2.502  -3.445   0.579  0.00  0.00    +0.000 N 
ATOM      4  C   UNL     1       0.935  -1.936  -0.106  0.00  0.00    +0.000 C 
ATOM      5  C   UNL     1       1.828  -1.267   0.647  0.00  0.00    +0.000 C 
ATOM      6  C   UNL     1       1.364  -3.355  -0.167  0.00  0.00    +0.000 C 
ATOM      7  C   UNL     1       2.851  -2.238   1.108  0.00  0.00    +0.000 C 
ATOM      8  H   UNL     1       3.023  -4.303   0.723  0.00  0.00    +0.000 HD
ENDROOT
BRANCH   4  12
ATOM      9  O   UNL     1      -3.458   0.533   2.567  0.00  0.00    +0.000 OA
ATOM     10  O   UNL     1      -4.951   1.062   0.754  0.00  0.00    +0.000 OA
ATOM     11  N   UNL     1      -1.698  -0.897  -2.382  0.00  0.00    +0.000 N 
ATOM     12  C   UNL     1      -0.264  -1.419  -0.770  0.00  0.00    +0.000 A 
ATOM     13  C   UNL     1      -1.394  -0.794  -0.171  0.00  0.00    +0.000 A 
ATOM     14  C   UNL     1      -2.283  -0.475  -1.209  0.00  0.00    +0.000 A 
ATOM     15  C   UNL     1      -0.480  -1.468  -2.128  0.00  0.00    +0.000 A 
ATOM     16  C   UNL     1      -1.738  -0.473   1.161  0.00  0.00    +0.000 A 
ATOM     17  C   UNL     1      -3.517   0.157  -0.997  0.00  0.00    +0.000 A 
ATOM     18  C   UNL     1      -2.959   0.150   1.359  0.00  0.00    +0.000 A 
ATOM     19  C   UNL     1      -3.810   0.452   0.323  0.00  0.00    +0.000 A 
ATOM     20  C   UNL     1      -2.273  -0.763  -3.703  0.00  0.00    +0.000 C 
ATOM     21  C   UNL     1      -4.719   1.110   2.176  0.00  0.00    +0.000 C 
ENDBRANCH   4  12
BRANCH   5  24
ATOM     22  F   UNL     1       2.126   2.962  -3.105  0.00  0.00    +0.000 F 
ATOM     23  O   UNL     1       1.829   2.024   2.241  0.00  0.00    +0.000 OA
ATOM     24  C   UNL     1       1.847   0.157   0.986  0.00  0.00    +0.000 A 
ATOM     25  C   UNL     1       1.919   1.274   0.112  0.00  0.00    +0.000 A 
ATOM     26  C   UNL     1       1.905   2.397   0.933  0.00  0.00    +0.000 A 
ATOM     27  C   UNL     1       1.794   0.666   2.263  0.00  0.00    +0.000 A 
ATOM     28  C   UNL     1       1.996   1.460  -1.279  0.00  0.00    +0.000 A 
ATOM     29  C   UNL     1       1.962   3.709   0.464  0.00  0.00    +0.000 A 
ATOM     30  C   UNL     1       2.054   2.768  -1.781  0.00  0.00    +0.000 A 
ATOM     31  C   UNL     1       2.037   3.870  -0.923  0.00  0.00    +0.000 A 
ENDBRANCH   5  24
TORSDOF 2
