REMARK  Name = 20054959
REMARK  8 active torsions:
REMARK  status: ('A' for Active; 'I' for Inactive)
REMARK    1  A    between atoms: O_2  and  C_10
REMARK    2  A    between atoms: O_2  and  C_20
REMARK    3  A    between atoms: O_3  and  C_16
REMARK    4  A    between atoms: O_3  and  C_21
REMARK    5  A    between atoms: N_4  and  C_15
REMARK    6  A    between atoms: C_5  and  C_7
REMARK    7  A    between atoms: C_7  and  C_13
REMARK    8  A    between atoms: C_7  and  C_14
REMARK                            x       y       z     vdW  Elec       q    Type
REMARK                         _______ _______ _______ _____ _____    ______ ____
ROOT
ATOM      1  O   UNL     1       1.967   1.353  -0.019  0.00  0.00    +0.000 OA
ATOM      2  N   UNL     1      -0.430   1.093   0.003  0.00  0.00    +0.000 N 
ATOM      3  C   UNL     1       2.997   0.410  -0.417  0.00  0.00    +0.000 C 
ATOM      4  C   UNL     1       2.489  -1.017  -0.157  0.00  0.00    +0.000 C 
ATOM      5  C   UNL     1       1.035  -0.755  -0.168  0.00  0.00    +0.000 A 
ATOM      6  C   UNL     1       0.806   0.598  -0.064  0.00  0.00    +0.000 A 
ATOM      7  C   UNL     1      -0.028  -1.634  -0.205  0.00  0.00    +0.000 A 
ATOM      8  C   UNL     1      -1.515   0.292  -0.038  0.00  0.00    +0.000 A 
ATOM      9  C   UNL     1      -1.331  -1.113  -0.146  0.00  0.00    +0.000 A 
ATOM     10  C   UNL     1      -0.514   2.553   0.120  0.00  0.00    +0.000 C 
ATOM     11  C   UNL     1      -2.800   0.837   0.026  0.00  0.00    +0.000 A 
ATOM     12  C   UNL     1      -2.466  -1.937  -0.183  0.00  0.00    +0.000 A 
ATOM     13  C   UNL     1      -3.913  -0.002  -0.014  0.00  0.00    +0.000 A 
ATOM     14  C   UNL     1      -3.747  -1.383  -0.119  0.00  0.00    +0.000 A 
ENDROOT
BRANCH   3  15
ATOM     15  C   UNL     1       4.272   0.723   0.349  0.00  0.00    +0.000 C 
ATOM     16  C   UNL     1       4.724   2.161   0.091  0.00  0.00    +0.000 C 
ATOM     17  C   UNL     1       5.386  -0.258  -0.025  0.00  0.00    +0.000 C 
ENDBRANCH   3  15
BRANCH   7  18
ATOM     18  O   UNL     1       0.208  -2.971  -0.289  0.00  0.00    +0.000 OA
ATOM     19  C   UNL     1       0.349  -3.684   0.939  0.00  0.00    +0.000 C 
ENDBRANCH   7  18
BRANCH  11  20
ATOM     20  O   UNL     1      -3.059   2.171   0.131  0.00  0.00    +0.000 OA
ATOM     21  C   UNL     1      -4.430   2.562   0.186  0.00  0.00    +0.000 C 
ENDBRANCH  11  20
TORSDOF 3
