REMARK  Name = 60838
REMARK  8 active torsions:
REMARK  status: ('A' for Active; 'I' for Inactive)
REMARK    1  A    between atoms: O_1  and  C_21
REMARK    2  A    between atoms: O_1  and  C_38
REMARK    3  A    between atoms: O_4  and  C_26
REMARK    4  A    between atoms: N_7  and  C_11
REMARK    5  A    between atoms: C_26  and  C_33
REMARK    6  A    between atoms: C_29  and  C_37
REMARK    7  A    between atoms: C_33  and  C_42
REMARK    8  A    between atoms: C_37  and  C_43
REMARK                            x       y       z     vdW  Elec       q    Type
REMARK                         _______ _______ _______ _____ _____    ______ ____
ROOT
ATOM      1  O   UNL     1      -9.178  -1.019   0.135  0.00  0.00    +0.000 OA
ATOM      2  O   UNL     1      -5.744  -3.473  -0.179  0.00  0.00    +0.000 OA
ATOM      3  O   UNL     1      -9.930   0.967   0.863  0.00  0.00    +0.000 OA
ATOM      4  N   UNL     1      -4.349  -1.644   0.050  0.00  0.00    +0.000 N 
ATOM      5  N   UNL     1      -2.188   1.216   0.357  0.00  0.00    +0.000 NA
ATOM      6  C   UNL     1      -4.180  -0.271   0.128  0.00  0.00    +0.000 A 
ATOM      7  C   UNL     1      -2.087  -1.209   0.252  0.00  0.00    +0.000 A 
ATOM      8  C   UNL     1      -3.049  -2.343   0.123  0.00  0.00    +0.000 C 
ATOM      9  C   UNL     1      -6.560   0.017  -0.052  0.00  0.00    +0.000 A 
ATOM     10  C   UNL     1      -7.734   0.951  -0.143  0.00  0.00    +0.000 C 
ATOM     11  C   UNL     1      -2.756   0.007   0.255  0.00  0.00    +0.000 A 
ATOM     12  C   UNL     1      -6.750  -1.312  -0.145  0.00  0.00    +0.000 A 
ATOM     13  C   UNL     1      -0.717  -1.202   0.363  0.00  0.00    +0.000 A 
ATOM     14  C   UNL     1      -5.219   0.566   0.079  0.00  0.00    +0.000 A 
ATOM     15  C   UNL     1      -5.580  -2.259  -0.093  0.00  0.00    +0.000 A 
ATOM     16  C   UNL     1      -0.065   0.037   0.473  0.00  0.00    +0.000 A 
ATOM     17  C   UNL     1      -8.115  -1.885  -0.318  0.00  0.00    +0.000 C 
ATOM     18  C   UNL     1      -0.844   1.229   0.465  0.00  0.00    +0.000 A 
ATOM     19  C   UNL     1      -9.029   0.310   0.344  0.00  0.00    +0.000 C 
ATOM     20  C   UNL     1       1.968   1.343   0.698  0.00  0.00    +0.000 A 
ATOM     21  C   UNL     1       1.332   0.109   0.589  0.00  0.00    +0.000 A 
ATOM     22  C   UNL     1      -0.177   2.445   0.576  0.00  0.00    +0.000 A 
ATOM     23  C   UNL     1       1.214   2.510   0.691  0.00  0.00    +0.000 A 
ENDROOT
BRANCH  10  24
ATOM     24  O   UNL     1      -7.535   2.064   0.732  0.00  0.00    +0.000 OA
ATOM     25  H   UNL     1      -7.353   1.723   1.624  0.00  0.00    +0.000 HD
ENDBRANCH  10  24
BRANCH  10  26
ATOM     26  C   UNL     1      -7.933   1.470  -1.569  0.00  0.00    +0.000 C 
ATOM     27  C   UNL     1      -9.099   2.436  -1.645  0.00  0.00    +0.000 C 
ENDBRANCH  10  26
BRANCH  13  28
ATOM     28  C   UNL     1       0.016  -2.504   0.361  0.00  0.00    +0.000 C 
ATOM     29  C   UNL     1       0.414  -2.942  -1.045  0.00  0.00    +0.000 C 
ENDBRANCH  13  28
BRANCH  20  30
ATOM     30  O   UNL     1       3.361   1.408   0.813  0.00  0.00    +0.000 OA
BRANCH  30  38
ATOM     31  O   UNL     1       3.458   1.510  -1.498  0.00  0.00    +0.000 OA
ATOM     32  N   UNL     1       5.420   1.556  -0.252  0.00  0.00    +0.000 N 
ATOM     33  C   UNL     1       8.139   0.589  -0.104  0.00  0.00    +0.000 C 
ATOM     34  C   UNL     1       7.172   0.446   1.079  0.00  0.00    +0.000 C 
ATOM     35  C   UNL     1       7.366   0.611  -1.429  0.00  0.00    +0.000 C 
ATOM     36  C   UNL     1       6.102   1.536   1.046  0.00  0.00    +0.000 C 
ATOM     37  C   UNL     1       6.293   1.698  -1.417  0.00  0.00    +0.000 C 
ATOM     38  C   UNL     1       4.032   1.493  -0.410  0.00  0.00    +0.000 C 
BRANCH  33  39
ATOM     39  N   UNL     1       9.100  -0.514  -0.102  0.00  0.00    +0.000 NA
ATOM     40  C   UNL     1      10.031  -0.386  -1.232  0.00  0.00    +0.000 C 
ATOM     41  C   UNL     1       9.821  -0.566   1.177  0.00  0.00    +0.000 C 
ATOM     42  C   UNL     1      11.013  -1.558  -1.274  0.00  0.00    +0.000 C 
ATOM     43  C   UNL     1      10.796  -1.744   1.214  0.00  0.00    +0.000 C 
ATOM     44  C   UNL     1      11.770  -1.695   0.043  0.00  0.00    +0.000 C 
ENDBRANCH  33  39
ENDBRANCH  30  38
ENDBRANCH  20  30
TORSDOF 6
