REMARK  Name = 
REMARK  18 active torsions:
REMARK  status: ('A' for Active; 'I' for Inactive)
REMARK    1  A    between atoms: C_1  and  C_2
REMARK    2  A    between atoms: C_5  and  O_6
REMARK    3  A    between atoms: C_7  and  N_8
REMARK    4  A    between atoms: C_9  and  C_11
REMARK    5  A    between atoms: C_11  and  C_12
REMARK    6  A    between atoms: C_11  and  C_19
REMARK    7  A    between atoms: C_12  and  C_13
REMARK    8  A    between atoms: C_19  and  C_20
REMARK    9  A    between atoms: C_20  and  O_21
REMARK   10  A    between atoms: C_20  and  C_22
REMARK   11  A    between atoms: C_22  and  N_23
REMARK   12  A    between atoms: C_27  and  C_29
REMARK   13  A    between atoms: N_36  and  C_37
REMARK   14  A    between atoms: C_44  and  C_45
REMARK   15  A    between atoms: N_47  and  C_48
REMARK   16  A    between atoms: C_48  and  C_49
REMARK   17  A    between atoms: C_48  and  C_50
REMARK   18  A    between atoms: C_48  and  C_51
REMARK                            x       y       z     vdW  Elec       q    Type
REMARK                         _______ _______ _______ _____ _____    ______ ____
ROOT
ATOM      1  N   UNL     1       0.022   2.168   0.114  0.00  0.00    +0.000 NA
ATOM      2  C   UNL     1      -0.113   2.455  -1.271  0.00  0.00    +0.000 C 
ATOM      3  C   UNL     1       0.647   1.623  -2.229  0.00  0.00    +0.000 C 
ATOM      4  N   UNL     1       2.043   1.387  -1.858  0.00  0.00    +0.000 N 
ATOM      5  C   UNL     1       2.558   0.083  -2.178  0.00  0.00    +0.000 C 
ATOM      6  O   UNL     1       1.879  -0.780  -2.800  0.00  0.00    +0.000 OA
ATOM      7  C   UNL     1       2.236   1.678  -0.430  0.00  0.00    +0.000 C 
ATOM      8  C   UNL     1       0.876   0.814   0.051  0.00  0.00    +0.000 C 
ENDROOT
BRANCH   5   9
ATOM      9  C   UNL     1       3.888  -0.286  -1.659  0.00  0.00    +0.000 A 
ATOM     10  C   UNL     1       4.030  -0.851  -0.396  0.00  0.00    +0.000 A 
ATOM     11  N   UNL     1       5.062  -0.544   0.428  0.00  0.00    +0.000 NA
ATOM     12  C   UNL     1       6.157   0.046  -0.110  0.00  0.00    +0.000 A 
ATOM     13  N   UNL     1       7.488  -0.307   0.283  0.00  0.00    +0.000 N 
ATOM     14  C   UNL     1       8.412  -0.972  -0.631  0.00  0.00    +0.000 C 
ATOM     15  C   UNL     1       9.762  -0.295  -0.410  0.00  0.00    +0.000 C 
ATOM     16  N   UNL     1      10.253  -0.694   0.900  0.00  0.00    +0.000 NA
ATOM     17  C   UNL     1      10.214  -2.152   0.985  0.00  0.00    +0.000 C 
ATOM     18  C   UNL     1       9.330  -0.207   1.917  0.00  0.00    +0.000 C 
ATOM     19  C   UNL     1       8.121   0.463   1.346  0.00  0.00    +0.000 C 
ATOM     20  C   UNL     1       6.057   0.615  -1.375  0.00  0.00    +0.000 A 
ATOM     21 CL   UNL     1       7.228   1.885  -1.726  0.00  0.00    +0.000 Cl
ATOM     22  N   UNL     1       4.839   0.638  -1.952  0.00  0.00    +0.000 NA
ENDBRANCH   5   9
BRANCH   8  23
ATOM     23  C   UNL     1       1.209   0.879   1.659  0.00  0.00    +0.000 C 
ATOM     24  O   UNL     1       2.326   1.227   1.996  0.00  0.00    +0.000 OA
ATOM     25  N   UNL     1       0.736  -0.345   2.243  0.00  0.00    +0.000 N 
ATOM     26  H   UNL     1      -0.215  -0.566   2.109  0.00  0.00    +0.000 HD
BRANCH  25  27
ATOM     27  C   UNL     1       1.518  -1.273   3.000  0.00  0.00    +0.000 C 
ATOM     28  C   UNL     1       1.019  -2.671   2.646  0.00  0.00    +0.000 C 
ATOM     29  C   UNL     1       1.393  -1.150   4.484  0.00  0.00    +0.000 C 
ATOM     30  C   UNL     1       3.002  -1.236   2.669  0.00  0.00    +0.000 C 
ENDBRANCH  25  27
ENDBRANCH   8  23
BRANCH   1  31
ATOM     31  C   UNL     1      -1.168   1.696   0.764  0.00  0.00    +0.000 C 
BRANCH  31  32
ATOM     32  C   UNL     1      -2.128   1.224  -0.530  0.00  0.00    +0.000 C 
BRANCH  32  33
ATOM     33  O   UNL     1      -1.415  -0.147  -0.601  0.00  0.00    +0.000 OA
ATOM     34  H   UNL     1      -1.336  -0.516   0.292  0.00  0.00    +0.000 HD
ENDBRANCH  32  33
BRANCH  32  35
ATOM     35  C   UNL     1      -3.308   0.611   0.504  0.00  0.00    +0.000 C 
BRANCH  35  36
ATOM     36  C   UNL     1      -4.484   0.981  -0.616  0.00  0.00    +0.000 C 
BRANCH  36  38
ATOM     37  N   UNL     1      -6.869   1.001  -0.383  0.00  0.00    +0.000 N 
ATOM     38  C   UNL     1      -5.735   0.423   0.280  0.00  0.00    +0.000 C 
ATOM     39  O   UNL     1      -5.683   0.795   1.491  0.00  0.00    +0.000 OA
ATOM     40  H   UNL     1      -6.768   1.521  -1.213  0.00  0.00    +0.000 HD
BRANCH  37  46
ATOM     41  C   UNL     1      -7.728   3.083   0.671  0.00  0.00    +0.000 C 
ATOM     42  C   UNL     1      -8.936   2.303  -0.123  0.00  0.00    +0.000 C 
ATOM     43  C   UNL     1      -8.159   2.395  -1.550  0.00  0.00    +0.000 C 
ATOM     44  C   UNL     1      -8.179   1.120  -2.159  0.00  0.00    +0.000 C 
ATOM     45  C   UNL     1      -9.027   0.114  -1.154  0.00  0.00    +0.000 C 
ATOM     46  C   UNL     1      -8.266   0.770   0.266  0.00  0.00    +0.000 C 
BRANCH  45  47
ATOM     47  O   UNL     1      -7.958  -0.988  -1.264  0.00  0.00    +0.000 OA
ATOM     48  H   UNL     1      -7.078  -0.596  -1.151  0.00  0.00    +0.000 HD
ENDBRANCH  45  47
ENDBRANCH  37  46
ENDBRANCH  36  38
BRANCH  36  49
ATOM     49  C   UNL     1      -4.236  -0.447  -1.417  0.00  0.00    +0.000 C 
BRANCH  49  50
ATOM     50  C   UNL     1      -4.688  -1.546  -0.603  0.00  0.00    +0.000 A 
ATOM     51  C   UNL     1      -4.293  -1.875   0.677  0.00  0.00    +0.000 A 
ATOM     52  C   UNL     1      -4.551  -3.075   1.283  0.00  0.00    +0.000 A 
ATOM     53  C   UNL     1      -4.889  -4.144   0.481  0.00  0.00    +0.000 A 
ATOM     54  C   UNL     1      -5.215  -3.890  -0.843  0.00  0.00    +0.000 A 
ATOM     55  C   UNL     1      -5.277  -2.601  -1.295  0.00  0.00    +0.000 A 
ENDBRANCH  49  50
ENDBRANCH  36  49
ENDBRANCH  35  36
ENDBRANCH  32  35
ENDBRANCH  31  32
ENDBRANCH   1  31
TORSDOF 13
