REMARK  Name = 10461508
REMARK  14 active torsions:
REMARK  status: ('A' for Active; 'I' for Inactive)
REMARK    1  A    between atoms: O_2  and  C_34
REMARK    2  A    between atoms: O_2  and  C_45
REMARK    3  A    between atoms: N_4  and  C_15
REMARK    4  A    between atoms: N_5  and  C_16
REMARK    5  A    between atoms: N_6  and  C_23
REMARK    6  A    between atoms: N_7  and  C_31
REMARK    7  A    between atoms: N_8  and  C_44
REMARK    8  A    between atoms: N_9  and  C_37
REMARK    9  A    between atoms: C_12  and  C_15
REMARK   10  A    between atoms: C_26  and  C_27
REMARK   11  A    between atoms: C_30  and  C_33
REMARK   12  A    between atoms: C_31  and  C_39
REMARK   13  A    between atoms: C_31  and  C_40
REMARK   14  A    between atoms: C_33  and  C_41
REMARK                            x       y       z     vdW  Elec       q    Type
REMARK                         _______ _______ _______ _____ _____    ______ ____
ROOT
ATOM      1  C   UNL     1      -0.189  -0.269   1.389  0.00  0.00    +0.000 A 
ATOM      2  C   UNL     1       0.118  -1.413   0.652  0.00  0.00    +0.000 A 
ATOM      3  C   UNL     1       0.827   0.607   1.772  0.00  0.00    +0.000 A 
ATOM      4  C   UNL     1       1.441  -1.681   0.299  0.00  0.00    +0.000 A 
ATOM      5  C   UNL     1       2.150   0.339   1.419  0.00  0.00    +0.000 A 
ATOM      6  C   UNL     1       2.457  -0.806   0.682  0.00  0.00    +0.000 A 
ENDROOT
BRANCH   6  10
ATOM      7  O   UNL     1      10.343   2.314  -1.396  0.00  0.00    +0.000 OA
ATOM      8  N   UNL     1       8.355  -0.578  -0.837  0.00  0.00    +0.000 N 
ATOM      9  N   UNL     1       8.113   2.204  -0.752  0.00  0.00    +0.000 N 
ATOM     10  N   UNL     1       3.795  -1.063   0.332  0.00  0.00    +0.000 N 
ATOM     11  N   UNL     1       6.056  -0.819  -0.245  0.00  0.00    +0.000 NA
ATOM     12  N   UNL     1       4.674   1.101   0.161  0.00  0.00    +0.000 NA
ATOM     13  C   UNL     1       9.566   0.202  -0.625  0.00  0.00    +0.000 C 
ATOM     14  C   UNL     1       7.127  -0.019  -0.490  0.00  0.00    +0.000 A 
ATOM     15  C   UNL     1       9.375   1.663  -0.994  0.00  0.00    +0.000 C 
ATOM     16  C   UNL     1       7.005   1.370  -0.433  0.00  0.00    +0.000 A 
ATOM     17  C   UNL     1       4.894  -0.217   0.071  0.00  0.00    +0.000 A 
ATOM     18  C   UNL     1       5.749   1.869  -0.102  0.00  0.00    +0.000 A 
ATOM     19  C   UNL     1       7.908   3.643  -0.880  0.00  0.00    +0.000 C 
ATOM     20  H   UNL     1       3.991  -2.035   0.111  0.00  0.00    +0.000 HD
BRANCH   8  21
ATOM     21  C   UNL     1       8.455  -2.023  -0.965  0.00  0.00    +0.000 C 
ATOM     22  C   UNL     1       8.124  -2.677   0.371  0.00  0.00    +0.000 C 
ATOM     23  C   UNL     1       7.512  -2.497  -2.063  0.00  0.00    +0.000 C 
ENDBRANCH   8  21
BRANCH  13  24
ATOM     24  C   UNL     1      10.037   0.098   0.825  0.00  0.00    +0.000 C 
ATOM     25  C   UNL     1      11.353   0.821   1.032  0.00  0.00    +0.000 C 
ENDBRANCH  13  24
ENDBRANCH   6  10
BRANCH   1  28
ATOM     26  O   UNL     1      -1.826   0.697   2.761  0.00  0.00    +0.000 OA
ATOM     27  N   UNL     1      -2.565  -0.506   0.922  0.00  0.00    +0.000 N 
ATOM     28  C   UNL     1      -1.567   0.011   1.757  0.00  0.00    +0.000 C 
ATOM     29  H   UNL     1      -2.305  -0.965   0.055  0.00  0.00    +0.000 HD
BRANCH  27  33
ATOM     30  C   UNL     1      -6.743   0.013   0.137  0.00  0.00    +0.000 C 
ATOM     31  C   UNL     1      -6.287  -1.277   0.829  0.00  0.00    +0.000 C 
ATOM     32  C   UNL     1      -5.938   1.219   0.634  0.00  0.00    +0.000 C 
ATOM     33  C   UNL     1      -3.976  -0.295   1.141  0.00  0.00    +0.000 C 
ATOM     34  C   UNL     1      -4.785  -1.500   0.655  0.00  0.00    +0.000 C 
ATOM     35  C   UNL     1      -4.437   0.997   0.461  0.00  0.00    +0.000 C 
BRANCH  30  37
ATOM     36  N   UNL     1     -10.898   0.571  -0.527  0.00  0.00    +0.000 NA
ATOM     37  N   UNL     1      -8.168   0.242   0.365  0.00  0.00    +0.000 NA
ATOM     38  C   UNL     1     -10.106   1.715  -0.060  0.00  0.00    +0.000 C 
ATOM     39  C   UNL     1     -10.456  -0.663   0.135  0.00  0.00    +0.000 C 
ATOM     40  C   UNL     1      -8.611   1.476  -0.295  0.00  0.00    +0.000 C 
ATOM     41  C   UNL     1      -8.961  -0.902  -0.102  0.00  0.00    +0.000 C 
BRANCH  36  42
ATOM     42  C   UNL     1     -12.324   0.799  -0.301  0.00  0.00    +0.000 C 
BRANCH  42  43
ATOM     43  C   UNL     1     -13.160  -0.060  -1.193  0.00  0.00    +0.000 C 
ATOM     44  C   UNL     1     -14.496   0.444  -1.654  0.00  0.00    +0.000 C 
ATOM     45  C   UNL     1     -13.356   0.342  -2.625  0.00  0.00    +0.000 C 
ENDBRANCH  42  43
ENDBRANCH  36  42
ENDBRANCH  30  37
ENDBRANCH  27  33
ENDBRANCH   1  28
BRANCH   4  46
ATOM     46  O   UNL     1       1.720  -2.804  -0.421  0.00  0.00    +0.000 OA
ATOM     47  C   UNL     1       1.696  -2.685  -1.842  0.00  0.00    +0.000 C 
ENDBRANCH   4  46
TORSDOF 9
