REMARK  Name = 59534142
REMARK  15 active torsions:
REMARK  status: ('A' for Active; 'I' for Inactive)
REMARK    1  A    between atoms: P_1  and  O_5
REMARK    2  A    between atoms: P_1  and  O_6
REMARK    3  A    between atoms: P_1  and  C_27
REMARK    4  A    between atoms: O_2  and  C_16
REMARK    5  A    between atoms: O_2  and  C_31
REMARK    6  A    between atoms: O_4  and  C_30
REMARK    7  A    between atoms: O_4  and  C_35
REMARK    8  A    between atoms: N_13  and  C_25
REMARK    9  A    between atoms: C_25  and  C_26
REMARK   10  A    between atoms: C_25  and  C_27
REMARK   11  A    between atoms: C_29  and  C_32
REMARK   12  A    between atoms: C_33  and  C_34
REMARK   13  A    between atoms: C_35  and  C_36
REMARK   14  A    between atoms: C_36  and  C_37
REMARK   15  A    between atoms: C_37  and  C_42
REMARK                            x       y       z     vdW  Elec       q    Type
REMARK                         _______ _______ _______ _____ _____    ______ ____
ROOT
ATOM      1  O   UNL     1      -0.101   0.706  -0.648  0.00  0.00    +0.000 OA
ATOM      2  N   UNL     1       0.361  -1.492  -0.066  0.00  0.00    +0.000 N 
ATOM      3  C   UNL     1       0.703  -0.170  -0.339  0.00  0.00    +0.000 C 
ATOM      4  H   UNL     1       1.094  -2.137   0.217  0.00  0.00    +0.000 HD
ENDROOT
BRANCH   3  14
ATOM      5  N   UNL     1       4.417   2.921  -0.675  0.00  0.00    +0.000 N 
ATOM      6  N   UNL     1       4.825   0.678  -0.109  0.00  0.00    +0.000 NA
ATOM      7  N   UNL     1       2.972  -0.854   0.057  0.00  0.00    +0.000 NA
ATOM      8  C   UNL     1       4.503   5.266  -0.911  0.00  0.00    +0.000 C 
ATOM      9  C   UNL     1       5.865   4.686  -1.253  0.00  0.00    +0.000 C 
ATOM     10  C   UNL     1       3.564   4.062  -1.016  0.00  0.00    +0.000 C 
ATOM     11  C   UNL     1       5.828   3.295  -0.617  0.00  0.00    +0.000 C 
ATOM     12  C   UNL     1       3.944   1.650  -0.427  0.00  0.00    +0.000 A 
ATOM     13  C   UNL     1       2.582   1.450  -0.521  0.00  0.00    +0.000 A 
ATOM     14  C   UNL     1       2.149   0.165  -0.266  0.00  0.00    +0.000 A 
ATOM     15  C   UNL     1       4.279  -0.532   0.116  0.00  0.00    +0.000 A 
BRANCH  15  16
ATOM     16  C   UNL     1       5.188  -1.594   0.460  0.00  0.00    +0.000 A 
ATOM     17  C   UNL     1       4.885  -2.910   0.114  0.00  0.00    +0.000 A 
ATOM     18  C   UNL     1       6.372  -1.306   1.138  0.00  0.00    +0.000 A 
ATOM     19  C   UNL     1       5.765  -3.940   0.446  0.00  0.00    +0.000 A 
ATOM     20  C   UNL     1       7.253  -2.335   1.471  0.00  0.00    +0.000 A 
ATOM     21  C   UNL     1       6.949  -3.652   1.125  0.00  0.00    +0.000 A 
ENDBRANCH  15  16
BRANCH   8  22
ATOM     22  O   UNL     1       4.524   5.756   0.426  0.00  0.00    +0.000 OA
ATOM     23  C   UNL     1       3.480   6.692   0.652  0.00  0.00    +0.000 C 
ENDBRANCH   8  22
ENDBRANCH   3  14
BRANCH   2  24
ATOM     24  C   UNL     1      -0.987  -1.973  -0.119  0.00  0.00    +0.000 C 
BRANCH  24  33
ATOM     25  O   UNL     1      -0.864  -1.706   2.233  0.00  0.00    +0.000 OA
ATOM     26  O   UNL     1      -7.074   1.033   2.522  0.00  0.00    +0.000 OA
ATOM     27  N   UNL     1      -2.928  -1.296   1.249  0.00  0.00    +0.000 N 
ATOM     28  N   UNL     1      -5.192   0.397   1.316  0.00  0.00    +0.000 N 
ATOM     29  C   UNL     1      -3.596  -1.033   2.526  0.00  0.00    +0.000 C 
ATOM     30  C   UNL     1      -3.805  -1.220   0.073  0.00  0.00    +0.000 C 
ATOM     31  C   UNL     1      -4.322   0.308   2.490  0.00  0.00    +0.000 C 
ATOM     32  C   UNL     1      -4.538   0.120   0.032  0.00  0.00    +0.000 C 
ATOM     33  C   UNL     1      -1.579  -1.650   1.229  0.00  0.00    +0.000 C 
ATOM     34  C   UNL     1      -6.523   0.800   1.447  0.00  0.00    +0.000 C 
BRANCH  34  35
ATOM     35  O   UNL     1      -7.161   0.912   0.240  0.00  0.00    +0.000 OA
BRANCH  35  36
ATOM     36  C   UNL     1      -8.533   1.322   0.287  0.00  0.00    +0.000 C 
BRANCH  36  37
ATOM     37  C   UNL     1      -9.074   1.392  -1.133  0.00  0.00    +0.000 C 
BRANCH  37  38
ATOM     38  C   UNL     1     -10.533   1.840  -1.159  0.00  0.00    +0.000 C 
ATOM     39  C   UNL     1     -11.057   1.950  -2.582  0.00  0.00    +0.000 C 
ENDBRANCH  37  38
ENDBRANCH  36  37
ENDBRANCH  35  36
ENDBRANCH  34  35
ENDBRANCH  24  33
BRANCH  24  40
ATOM     40  C   UNL     1      -1.068  -3.453  -0.427  0.00  0.00    +0.000 C 
BRANCH  40  41
ATOM     41  P   UNL     1      -0.380  -3.941  -2.028  0.00  0.00    +0.000 P 
ATOM     42  O   UNL     1       1.063  -3.614  -2.179  0.00  0.00    +0.000 OA
BRANCH  41  43
ATOM     43  O   UNL     1      -1.385  -3.230  -3.065  0.00  0.00    +0.000 OA
ATOM     44  H   UNL     1      -1.219  -3.317  -4.028  0.00  0.00    +0.000 HD
ENDBRANCH  41  43
BRANCH  41  45
ATOM     45  O   UNL     1      -0.771  -5.499  -2.110  0.00  0.00    +0.000 OA
ATOM     46  H   UNL     1      -0.487  -6.023  -2.889  0.00  0.00    +0.000 HD
ENDBRANCH  41  45
ENDBRANCH  40  41
ENDBRANCH  24  40
ENDBRANCH   2  24
TORSDOF 13
