MODEL 1
REMARK VINA RESULT:    -1.378      0.000      0.000
REMARK INTER + INTRA:          -6.814
REMARK INTER:                  -4.062
REMARK INTRA:                  -2.751
REMARK CONF_INDEPENDENT:        2.685
REMARK UNBOUND:                 2.751
REMARK  Name = 71236992
REMARK  10 active torsions:
REMARK  status: ('A' for Active; 'I' for Inactive)
REMARK    1  A    between atoms: O_6  and  C_25
REMARK    2  A    between atoms: N_8  and  C_18
REMARK    3  A    between atoms: N_9  and  C_12
REMARK    4  A    between atoms: N_11  and  C_20
REMARK    5  A    between atoms: C_18  and  C_25
REMARK    6  A    between atoms: C_20  and  C_21
REMARK    7  A    between atoms: C_20  and  C_27
REMARK    8  A    between atoms: C_30  and  C_31
REMARK    9  A    between atoms: C_31  and  C_32
REMARK   10  A    between atoms: C_32  and  C_33
REMARK                            x       y       z     vdW  Elec       q    Type
REMARK                         _______ _______ _______ _____ _____    ______ ____
ROOT
ATOM      1  O   UNL     1       6.581   4.209  -6.072  0.00  0.00    +0.000 OA
ATOM      2  N   UNL     1       5.160   2.504  -6.752  0.00  0.00    +0.000 N 
ATOM      3  N   UNL     1       3.881   0.528  -7.042  0.00  0.00    +0.000 NA
ATOM      4  C   UNL     1       4.437   4.109  -5.000  0.00  0.00    +0.000 C 
ATOM      5  C   UNL     1       3.357   4.829  -5.762  0.00  0.00    +0.000 A 
ATOM      6  C   UNL     1       2.529   4.061  -6.606  0.00  0.00    +0.000 A 
ATOM      7  C   UNL     1       5.494   3.630  -5.986  0.00  0.00    +0.000 C 
ATOM      8  C   UNL     1       2.651   2.584  -6.688  0.00  0.00    +0.000 A 
ATOM      9  C   UNL     1       3.864   1.875  -6.814  0.00  0.00    +0.000 A 
ATOM     10  C   UNL     1       3.192   6.226  -5.702  0.00  0.00    +0.000 A 
ATOM     11  C   UNL     1       1.561   4.739  -7.380  0.00  0.00    +0.000 A 
ATOM     12  C   UNL     1       1.467   1.812  -6.702  0.00  0.00    +0.000 A 
ATOM     13  C   UNL     1       2.219   6.866  -6.466  0.00  0.00    +0.000 A 
ATOM     14  C   UNL     1       1.406   6.124  -7.309  0.00  0.00    +0.000 A 
ATOM     15  C   UNL     1       1.491   0.437  -6.884  0.00  0.00    +0.000 A 
ATOM     16  C   UNL     1       2.718  -0.152  -7.065  0.00  0.00    +0.000 A 
ENDROOT
BRANCH   4  18
ATOM     17  O   UNL     1       5.654   3.126  -2.586  0.00  0.00    +0.000 OA
ATOM     18  N   UNL     1       5.100   4.892  -3.986  0.00  0.00    +0.000 N 
ATOM     19  C   UNL     1       5.661   4.327  -2.848  0.00  0.00    +0.000 C 
ATOM     20  H   UNL     1       5.140   5.900  -4.108  0.00  0.00    +0.000 HD
BRANCH  19  21
ATOM     21  C   UNL     1       6.339   5.366  -1.965  0.00  0.00    +0.000 C 
ATOM     22  C   UNL     1       7.461   4.739  -1.153  0.00  0.00    +0.000 C 
BRANCH  21  24
ATOM     23  O   UNL     1       3.555   5.777  -2.593  0.00  0.00    +0.000 OA
ATOM     24  N   UNL     1       5.337   5.947  -1.112  0.00  0.00    +0.000 N 
ATOM     25  C   UNL     1       4.012   6.105  -1.502  0.00  0.00    +0.000 C 
ATOM     26  H   UNL     1       5.600   6.191  -0.161  0.00  0.00    +0.000 HD
BRANCH  25  27
ATOM     27  C   UNL     1       3.176   6.746  -0.409  0.00  0.00    +0.000 C 
BRANCH  27  28
ATOM     28  C   UNL     1       2.948   5.810   0.775  0.00  0.00    +0.000 C 
BRANCH  28  32
ATOM     29  F   UNL     1       1.130   4.490   0.034  0.00  0.00    +0.000 F 
ATOM     30  F   UNL     1       3.110   4.012  -0.753  0.00  0.00    +0.000 F 
ATOM     31  F   UNL     1       2.616   3.543   1.318  0.00  0.00    +0.000 F 
ATOM     32  C   UNL     1       2.445   4.454   0.335  0.00  0.00    +0.000 C 
ENDBRANCH  28  32
ENDBRANCH  27  28
ENDBRANCH  25  27
ENDBRANCH  21  24
ENDBRANCH  19  21
ENDBRANCH   4  18
BRANCH   2  33
ATOM     33  C   UNL     1       6.231   1.824  -7.485  0.00  0.00    +0.000 C 
BRANCH  33  34
ATOM     34  C   UNL     1       7.266   1.236  -6.543  0.00  0.00    +0.000 C 
BRANCH  34  35
ATOM     35  O   UNL     1       6.828   1.395  -5.200  0.00  0.00    +0.000 OA
ATOM     36  H   UNL     1       7.107   2.281  -4.912  0.00  0.00    +0.000 HD
ENDBRANCH  34  35
ENDBRANCH  33  34
ENDBRANCH   2  33
TORSDOF 9
ENDMDL
