REMARK  Name = 66252
REMARK  9 active torsions:
REMARK  status: ('A' for Active; 'I' for Inactive)
REMARK    1  A    between atoms: O_1  and  C_15
REMARK    2  A    between atoms: O_1  and  C_24
REMARK    3  A    between atoms: O_2  and  C_16
REMARK    4  A    between atoms: O_2  and  C_25
REMARK    5  A    between atoms: O_3  and  C_21
REMARK    6  A    between atoms: O_3  and  C_30
REMARK    7  A    between atoms: O_5  and  C_29
REMARK    8  A    between atoms: O_5  and  C_31
REMARK    9  A    between atoms: C_11  and  C_21
REMARK                            x       y       z     vdW  Elec       q    Type
REMARK                         _______ _______ _______ _____ _____    ______ ____
ROOT
ATOM      1  N   UNL     1      -0.436   2.486  -0.822  0.00  0.00    +0.000 NA
ATOM      2  N   UNL     1       2.041  -0.346  -0.846  0.00  0.00    +0.000 N 
ATOM      3  C   UNL     1      -1.532  -0.068   0.208  0.00  0.00    +0.000 C 
ATOM      4  C   UNL     1      -2.041   1.302   0.704  0.00  0.00    +0.000 C 
ATOM      5  C   UNL     1      -0.979   0.070  -1.226  0.00  0.00    +0.000 C 
ATOM      6  C   UNL     1      -2.643  -1.135   0.346  0.00  0.00    +0.000 C 
ATOM      7  C   UNL     1       0.058   1.195  -1.376  0.00  0.00    +0.000 C 
ATOM      8  C   UNL     1      -0.946   2.369   0.552  0.00  0.00    +0.000 C 
ATOM      9  C   UNL     1      -3.352   1.720   0.006  0.00  0.00    +0.000 C 
ATOM     10  C   UNL     1      -3.951  -0.718  -0.341  0.00  0.00    +0.000 C 
ATOM     11  C   UNL     1      -4.435   0.651   0.149  0.00  0.00    +0.000 C 
ATOM     12  C   UNL     1       1.422   0.872  -0.837  0.00  0.00    +0.000 A 
ATOM     13  C   UNL     1       0.606   3.539  -0.919  0.00  0.00    +0.000 C 
ATOM     14  C   UNL     1       2.297   1.796  -0.304  0.00  0.00    +0.000 A 
ATOM     15  C   UNL     1       1.921   3.231  -0.159  0.00  0.00    +0.000 C 
ATOM     16  C   UNL     1       3.488   1.108   0.054  0.00  0.00    +0.000 A 
ATOM     17  C   UNL     1       3.300  -0.234  -0.296  0.00  0.00    +0.000 A 
ATOM     18  C   UNL     1       4.710   1.490   0.642  0.00  0.00    +0.000 A 
ATOM     19  C   UNL     1       4.280  -1.211  -0.086  0.00  0.00    +0.000 A 
ATOM     20  C   UNL     1       5.697   0.521   0.858  0.00  0.00    +0.000 A 
ATOM     21  C   UNL     1       5.484  -0.807   0.499  0.00  0.00    +0.000 A 
ATOM     22  H   UNL     1       1.644  -1.206  -1.199  0.00  0.00    +0.000 HD
ENDROOT
BRANCH  10  23
ATOM     23  O   UNL     1      -4.982  -1.667  -0.064  0.00  0.00    +0.000 OA
ATOM     24  C   UNL     1      -6.201  -1.301  -0.690  0.00  0.00    +0.000 C 
ENDBRANCH  10  23
BRANCH  11  25
ATOM     25  O   UNL     1      -4.801   0.576   1.529  0.00  0.00    +0.000 OA
ATOM     26  C   UNL     1      -5.303   1.818   1.997  0.00  0.00    +0.000 C 
ENDBRANCH  11  25
BRANCH   6  28
ATOM     27  O   UNL     1      -2.710  -3.093  -1.060  0.00  0.00    +0.000 OA
ATOM     28  C   UNL     1      -2.157  -2.460  -0.171  0.00  0.00    +0.000 C 
BRANCH  28  29
ATOM     29  O   UNL     1      -1.027  -2.824   0.500  0.00  0.00    +0.000 OA
ATOM     30  C   UNL     1      -0.454  -4.075   0.105  0.00  0.00    +0.000 C 
ENDBRANCH  28  29
ENDBRANCH   6  28
BRANCH  21  31
ATOM     31  O   UNL     1       6.463  -1.730   0.719  0.00  0.00    +0.000 OA
ATOM     32  C   UNL     1       6.186  -3.073   0.330  0.00  0.00    +0.000 C 
ENDBRANCH  21  31
TORSDOF 5
