REMARK  Name = 25262792
REMARK  5 active torsions:
REMARK  status: ('A' for Active; 'I' for Inactive)
REMARK    1  A    between atoms: N_9  and  C_34
REMARK    2  A    between atoms: C_10  and  C_20
REMARK    3  A    between atoms: C_11  and  C_22
REMARK    4  A    between atoms: C_26  and  C_27
REMARK    5  A    between atoms: C_30  and  C_33
REMARK                            x       y       z     vdW  Elec       q    Type
REMARK                         _______ _______ _______ _____ _____    ______ ____
ROOT
ATOM      1  O   UNL     1       3.742  -4.821  -0.469  0.00  0.00    +0.000 OA
ATOM      2  O   UNL     1       5.281   4.065   0.983  0.00  0.00    +0.000 OA
ATOM      3  N   UNL     1       2.332  -2.412  -0.124  0.00  0.00    +0.000 N 
ATOM      4  N   UNL     1       3.415   2.115   0.199  0.00  0.00    +0.000 N 
ATOM      5  N   UNL     1       2.895  -0.145   0.040  0.00  0.00    +0.000 NA
ATOM      6  N   UNL     1       1.181   1.537  -0.140  0.00  0.00    +0.000 NA
ATOM      7  N   UNL     1      -1.040   0.971  -0.474  0.00  0.00    +0.000 NA
ATOM      8  C   UNL     1       3.147  -2.948   0.986  0.00  0.00    +0.000 C 
ATOM      9  C   UNL     1       4.858   1.828   0.092  0.00  0.00    +0.000 C 
ATOM     10  C   UNL     1       2.682  -2.900  -1.469  0.00  0.00    +0.000 C 
ATOM     11  C   UNL     1       3.268  -4.473   0.831  0.00  0.00    +0.000 C 
ATOM     12  C   UNL     1       1.931  -1.067  -0.131  0.00  0.00    +0.000 A 
ATOM     13  C   UNL     1       3.045   3.538   0.202  0.00  0.00    +0.000 C 
ATOM     14  C   UNL     1       5.606   2.682   1.126  0.00  0.00    +0.000 C 
ATOM     15  C   UNL     1       2.804  -4.415  -1.462  0.00  0.00    +0.000 C 
ATOM     16  C   UNL     1       2.454   1.120   0.024  0.00  0.00    +0.000 A 
ATOM     17  C   UNL     1       3.891   4.285   1.226  0.00  0.00    +0.000 C 
ATOM     18  C   UNL     1       2.519  -2.663   2.355  0.00  0.00    +0.000 C 
ATOM     19  C   UNL     1       0.586  -0.753  -0.309  0.00  0.00    +0.000 A 
ATOM     20  C   UNL     1       5.369   2.107  -1.325  0.00  0.00    +0.000 C 
ATOM     21  C   UNL     1       0.238   0.603  -0.308  0.00  0.00    +0.000 A 
ATOM     22  C   UNL     1      -0.407  -1.728  -0.485  0.00  0.00    +0.000 A 
ATOM     23  C   UNL     1      -1.724  -1.338  -0.657  0.00  0.00    +0.000 A 
ATOM     24  C   UNL     1      -1.985   0.015  -0.643  0.00  0.00    +0.000 A 
ENDROOT
BRANCH  24  25
ATOM     25  C   UNL     1      -3.328   0.515  -0.818  0.00  0.00    +0.000 A 
ATOM     26  C   UNL     1      -4.330   0.153   0.083  0.00  0.00    +0.000 A 
ATOM     27  C   UNL     1      -3.623   1.362  -1.886  0.00  0.00    +0.000 A 
ATOM     28  C   UNL     1      -5.627   0.637  -0.086  0.00  0.00    +0.000 A 
ATOM     29  C   UNL     1      -4.921   1.846  -2.055  0.00  0.00    +0.000 A 
ATOM     30  C   UNL     1      -5.923   1.483  -1.154  0.00  0.00    +0.000 A 
BRANCH  28  33
ATOM     31  O   UNL     1      -7.657   0.999   1.031  0.00  0.00    +0.000 OA
ATOM     32  N   UNL     1      -6.523  -0.966   1.511  0.00  0.00    +0.000 N 
ATOM     33  C   UNL     1      -6.672   0.260   0.853  0.00  0.00    +0.000 C 
ATOM     34  C   UNL     1      -7.486  -1.490   2.453  0.00  0.00    +0.000 C 
ATOM     35  H   UNL     1      -5.753  -1.582   1.271  0.00  0.00    +0.000 HD
ENDBRANCH  28  33
ENDBRANCH  24  25
TORSDOF 2
