REMARK  Name = 78209992
REMARK  7 active torsions:
REMARK  status: ('A' for Active; 'I' for Inactive)
REMARK    1  A    between atoms: O_3  and  C_17
REMARK    2  A    between atoms: O_3  and  C_18
REMARK    3  A    between atoms: O_5  and  C_20
REMARK    4  A    between atoms: O_5  and  C_27
REMARK    5  A    between atoms: N_7  and  C_16
REMARK    6  A    between atoms: N_8  and  C_25
REMARK    7  A    between atoms: C_11  and  C_15
REMARK                            x       y       z     vdW  Elec       q    Type
REMARK                         _______ _______ _______ _____ _____    ______ ____
ROOT
ATOM      1  N   UNL     1       2.834   0.106   0.386  0.00  0.00    +0.000 N 
ATOM      2  N   UNL     1       2.198  -3.934  -0.247  0.00  0.00    +0.000 NA
ATOM      3  N   UNL     1       3.684  -2.054  -0.001  0.00  0.00    +0.000 NA
ATOM      4  C   UNL     1      -1.109  -1.455   0.293  0.00  0.00    +0.000 A 
ATOM      5  C   UNL     1       0.173  -0.916   0.328  0.00  0.00    +0.000 A 
ATOM      6  C   UNL     1      -1.275  -2.819   0.077  0.00  0.00    +0.000 A 
ATOM      7  C   UNL     1       1.291  -1.750   0.146  0.00  0.00    +0.000 A 
ATOM      8  C   UNL     1       1.137  -3.128  -0.072  0.00  0.00    +0.000 A 
ATOM      9  C   UNL     1      -0.158  -3.641  -0.102  0.00  0.00    +0.000 A 
ATOM     10  C   UNL     1       2.599  -1.275   0.170  0.00  0.00    +0.000 A 
ATOM     11  C   UNL     1       3.414  -3.353  -0.202  0.00  0.00    +0.000 A 
ATOM     12  H   UNL     1       2.281   0.487   1.149  0.00  0.00    +0.000 HD
ENDROOT
BRANCH   1  15
ATOM     13 CL   UNL     1       5.695   4.269   1.287  0.00  0.00    +0.000 Cl
ATOM     14  F   UNL     1       3.599   2.283   1.915  0.00  0.00    +0.000 F 
ATOM     15  C   UNL     1       3.854   0.971  -0.040  0.00  0.00    +0.000 A 
ATOM     16  C   UNL     1       4.222   2.062   0.747  0.00  0.00    +0.000 A 
ATOM     17  C   UNL     1       4.499   0.738  -1.254  0.00  0.00    +0.000 A 
ATOM     18  C   UNL     1       5.235   2.920   0.320  0.00  0.00    +0.000 A 
ATOM     19  C   UNL     1       5.513   1.596  -1.681  0.00  0.00    +0.000 A 
ATOM     20  C   UNL     1       5.881   2.687  -0.894  0.00  0.00    +0.000 A 
ENDBRANCH   1  15
BRANCH   6  21
ATOM     21  O   UNL     1      -2.521  -3.368   0.038  0.00  0.00    +0.000 OA
ATOM     22  C   UNL     1      -3.063  -3.833   1.273  0.00  0.00    +0.000 C 
ENDBRANCH   6  21
BRANCH   4  23
ATOM     23  O   UNL     1      -2.216  -0.620   0.474  0.00  0.00    +0.000 OA
BRANCH  23  33
ATOM     24  O   UNL     1      -2.242  -0.305  -1.821  0.00  0.00    +0.000 OA
ATOM     25  N   UNL     1      -3.827   0.755  -0.486  0.00  0.00    +0.000 N 
ATOM     26  N   UNL     1      -5.790   2.804  -0.062  0.00  0.00    +0.000 NA
ATOM     27  C   UNL     1      -4.514   0.852   0.816  0.00  0.00    +0.000 C 
ATOM     28  C   UNL     1      -5.007   2.288   1.069  0.00  0.00    +0.000 C 
ATOM     29  C   UNL     1      -4.484   1.406  -1.619  0.00  0.00    +0.000 C 
ATOM     30  C   UNL     1      -4.965   2.814  -1.278  0.00  0.00    +0.000 C 
ATOM     31  C   UNL     1      -5.649  -0.173   0.902  0.00  0.00    +0.000 C 
ATOM     32  C   UNL     1      -6.289   4.148   0.229  0.00  0.00    +0.000 C 
ATOM     33  C   UNL     1      -2.720  -0.074  -0.710  0.00  0.00    +0.000 C 
ENDBRANCH  23  33
ENDBRANCH   4  23
TORSDOF 4
