REMARK  Name = 71621331
REMARK  9 active torsions:
REMARK  status: ('A' for Active; 'I' for Inactive)
REMARK    1  A    between atoms: O_2  and  C_27
REMARK    2  A    between atoms: O_2  and  C_30
REMARK    3  A    between atoms: O_3  and  C_28
REMARK    4  A    between atoms: O_3  and  C_31
REMARK    5  A    between atoms: N_5  and  C_10
REMARK    6  A    between atoms: N_9  and  C_19
REMARK    7  A    between atoms: C_15  and  C_18
REMARK    8  A    between atoms: C_17  and  C_21
REMARK    9  A    between atoms: C_23  and  C_24
REMARK                            x       y       z     vdW  Elec       q    Type
REMARK                         _______ _______ _______ _____ _____    ______ ____
ROOT
ATOM      1  N   UNL     1      -2.933   0.918   0.220  0.00  0.00    +0.000 N 
ATOM      2  N   UNL     1      -1.778   0.227   0.243  0.00  0.00    +0.000 NA
ATOM      3  N   UNL     1      -3.721   3.196  -0.009  0.00  0.00    +0.000 NA
ATOM      4  N   UNL     1      -1.875   4.766  -0.289  0.00  0.00    +0.000 NA
ATOM      5  C   UNL     1      -2.761   2.260   0.052  0.00  0.00    +0.000 A 
ATOM      6  C   UNL     1      -1.395   2.462  -0.042  0.00  0.00    +0.000 A 
ATOM      7  C   UNL     1      -0.846   1.172   0.083  0.00  0.00    +0.000 A 
ATOM      8  C   UNL     1      -0.959   3.771  -0.219  0.00  0.00    +0.000 A 
ATOM      9  C   UNL     1      -3.181   4.422  -0.181  0.00  0.00    +0.000 A 
ENDROOT
BRANCH   1  12
ATOM     10  O   UNL     1      -3.438  -3.853   1.615  0.00  0.00    +0.000 OA
ATOM     11  N   UNL     1      -3.990  -2.171   0.125  0.00  0.00    +0.000 N 
ATOM     12  C   UNL     1      -4.251   0.180   0.376  0.00  0.00    +0.000 C 
ATOM     13  C   UNL     1      -4.820  -0.254  -0.983  0.00  0.00    +0.000 C 
ATOM     14  C   UNL     1      -4.209  -1.148   1.141  0.00  0.00    +0.000 C 
ATOM     15  C   UNL     1      -4.213  -1.633  -1.215  0.00  0.00    +0.000 C 
ATOM     16  C   UNL     1      -3.611  -3.456   0.463  0.00  0.00    +0.000 C 
BRANCH  16  17
ATOM     17  C   UNL     1      -3.401  -4.399  -0.653  0.00  0.00    +0.000 C 
ATOM     18  C   UNL     1      -3.035  -5.653  -0.377  0.00  0.00    +0.000 C 
ENDBRANCH  16  17
ENDBRANCH   1  12
BRANCH   8  19
ATOM     19  N   UNL     1       0.410   4.074  -0.323  0.00  0.00    +0.000 N 
ATOM     20  H   UNL     1       1.112   3.350  -0.272  0.00  0.00    +0.000 HD
ATOM     21  H   UNL     1       0.688   5.038  -0.450  0.00  0.00    +0.000 HD
ENDBRANCH   8  19
BRANCH   7  22
ATOM     22  C   UNL     1       0.519   0.769   0.061  0.00  0.00    +0.000 C 
ATOM     23  C   UNL     1       1.671   0.429   0.043  0.00  0.00    +0.000 C 
BRANCH  23  24
ATOM     24  C   UNL     1       3.042   0.024   0.022  0.00  0.00    +0.000 A 
ATOM     25  C   UNL     1       3.374  -1.302  -0.260  0.00  0.00    +0.000 A 
ATOM     26  C   UNL     1       4.049   0.954   0.282  0.00  0.00    +0.000 A 
ATOM     27  C   UNL     1       5.386   0.559   0.260  0.00  0.00    +0.000 A 
ATOM     28  C   UNL     1       4.711  -1.696  -0.281  0.00  0.00    +0.000 A 
ATOM     29  C   UNL     1       5.718  -0.766  -0.022  0.00  0.00    +0.000 A 
BRANCH  27  30
ATOM     30  O   UNL     1       6.368   1.467   0.513  0.00  0.00    +0.000 OA
ATOM     31  C   UNL     1       7.714   0.995   0.474  0.00  0.00    +0.000 C 
ENDBRANCH  27  30
BRANCH  28  32
ATOM     32  O   UNL     1       5.034  -2.990  -0.557  0.00  0.00    +0.000 OA
ATOM     33  C   UNL     1       6.421  -3.325  -0.563  0.00  0.00    +0.000 C 
ENDBRANCH  28  32
ENDBRANCH  23  24
ENDBRANCH   7  22
TORSDOF 7
