REMARK  Name = 40466957
REMARK  12 active torsions:
REMARK  status: ('A' for Active; 'I' for Inactive)
REMARK    1  A    between atoms: O_2  and  C_19
REMARK    2  A    between atoms: O_2  and  C_28
REMARK    3  A    between atoms: N_6  and  CA_8
REMARK    4  A    between atoms: N_6  and  C_10
REMARK    5  A    between atoms: CA_8  and  C_13
REMARK    6  A    between atoms: CA_8  and  CB_17
REMARK    7  A    between atoms: C_9  and  C_20
REMARK    8  A    between atoms: C_10  and  C_16
REMARK    9  A    between atoms: C_10  and  C_19
REMARK   10  A    between atoms: C_16  and  C_18
REMARK   11  A    between atoms: C_18  and  C_23
REMARK   12  A    between atoms: C_28  and  C_32
REMARK                            x       y       z     vdW  Elec       q    Type
REMARK                         _______ _______ _______ _____ _____    ______ ____
ROOT
ATOM      1  N   ALA A   1      -1.162  -0.575   1.321  0.00  0.00    +0.000 N 
ATOM      2  H1  ALA A   1      -1.446  -1.520   1.024  0.00  0.00    +0.000 HD
ATOM      3  H2  ALA A   1      -1.681  -0.408   2.195  0.00  0.00    +0.000 HD
ENDROOT
BRANCH   1   4
ATOM      4  CA  ALA A   1       0.293  -0.572   1.591  0.00  0.00    +0.000 C 
ATOM      5  CB  ALA A   1       0.555  -1.169   2.954  0.00  0.00    +0.000 C 
BRANCH   4  11
ATOM      6  O   ALA A   1       0.407  -2.356   0.030  0.00  0.00    +0.000 OA
ATOM      7  N   UNK A   2       2.257  -0.942   0.134  0.00  0.00    +0.000 N 
ATOM      8  C   UNK A   2       3.061  -1.796  -0.745  0.00  0.00    +0.000 C 
ATOM      9  C   UNK A   2       2.913   0.229   0.737  0.00  0.00    +0.000 C 
ATOM     10  C   UNK A   2       3.815  -0.986  -1.797  0.00  0.00    +0.000 C 
ATOM     11  C   ALA A   1       0.982  -1.379   0.517  0.00  0.00    +0.000 C 
ATOM     12  C   UNK A   2       4.113   0.759  -0.003  0.00  0.00    +0.000 A 
ATOM     13  C   UNK A   2       4.556   0.180  -1.201  0.00  0.00    +0.000 A 
ATOM     14  C   UNK A   2       4.804   1.862   0.522  0.00  0.00    +0.000 A 
ATOM     15  C   UNK A   2       5.663   0.722  -1.869  0.00  0.00    +0.000 A 
ATOM     16  C   UNK A   2       5.913   2.387  -0.141  0.00  0.00    +0.000 A 
ATOM     17  C   UNK A   2       6.341   1.819  -1.337  0.00  0.00    +0.000 A 
BRANCH   8  20
ATOM     18  O   UNK A   2       3.697  -2.973   1.193  0.00  0.00    +0.000 OA
ATOM     19  O   UNK A   2       5.108  -2.941  -0.607  0.00  0.00    +0.000 OA
ATOM     20  C   UNK A   2       4.053  -2.655   0.025  0.00  0.00    +0.000 C 
ENDBRANCH   8  20
ENDBRANCH   4  11
ENDBRANCH   1   4
BRANCH   1  21
ATOM     21  C   UNK A   0      -1.606   0.433   0.317  0.00  0.00    +0.000 C 
BRANCH  21  23
ATOM     22  O   UNK A   0      -1.478   2.044   2.130  0.00  0.00    +0.000 OA
ATOM     23  C   UNK A   0      -1.655   1.812   0.941  0.00  0.00    +0.000 C 
BRANCH  23  24
ATOM     24  O   UNK A   0      -1.883   2.748  -0.026  0.00  0.00    +0.000 OA
BRANCH  24  25
ATOM     25  C   UNK A   0      -1.910   4.107   0.424  0.00  0.00    +0.000 C 
ATOM     26  C   UNK A   0      -2.171   5.013  -0.760  0.00  0.00    +0.000 C 
ENDBRANCH  24  25
ENDBRANCH  23  24
ENDBRANCH  21  23
BRANCH  21  27
ATOM     27  C   UNK A   0      -2.921  -0.023  -0.334  0.00  0.00    +0.000 C 
BRANCH  27  28
ATOM     28  C   UNK A   0      -4.161  -0.105   0.571  0.00  0.00    +0.000 C 
BRANCH  28  29
ATOM     29  C   UNK A   0      -5.426  -0.539  -0.122  0.00  0.00    +0.000 A 
ATOM     30  C   UNK A   0      -6.270   0.413  -0.693  0.00  0.00    +0.000 A 
ATOM     31  C   UNK A   0      -5.753  -1.893  -0.194  0.00  0.00    +0.000 A 
ATOM     32  C   UNK A   0      -7.442   0.012  -1.335  0.00  0.00    +0.000 A 
ATOM     33  C   UNK A   0      -6.925  -2.295  -0.836  0.00  0.00    +0.000 A 
ATOM     34  C   UNK A   0      -7.769  -1.342  -1.407  0.00  0.00    +0.000 A 
ENDBRANCH  28  29
ENDBRANCH  27  28
ENDBRANCH  21  27
ENDBRANCH   1  21
TORSDOF 10
