REMARK  Name = 
REMARK  14 active torsions:
REMARK  status: ('A' for Active; 'I' for Inactive)
REMARK    1  A    between atoms: C_2  and  O_3
REMARK    2  A    between atoms: C_2  and  C_4
REMARK    3  A    between atoms: N_6  and  C_7
REMARK    4  A    between atoms: C_10  and  C_11
REMARK    5  A    between atoms: C_11  and  C_12
REMARK    6  A    between atoms: C_12  and  N_13
REMARK    7  A    between atoms: C_14  and  CA_16
REMARK    8  A    between atoms: CA_16  and  C_17
REMARK    9  A    between atoms: CA_16  and  N_19
REMARK   10  A    between atoms: C_17  and  O_18
REMARK   11  A    between atoms: C_20  and  C_22
REMARK   12  A    between atoms: C_22  and  C_23
REMARK   13  A    between atoms: C_23  and  N_24
REMARK   14  A    between atoms: C_25  and  C_27
REMARK                            x       y       z     vdW  Elec       q    Type
REMARK                         _______ _______ _______ _____ _____    ______ ____
ROOT
ATOM      1  N   UNL     1       0.211  -0.462   0.818  0.00  0.00    +0.000 N 
ATOM      2  C   UNL     1       1.536  -0.404   0.328  0.00  0.00    +0.000 C 
ATOM      3  O   UNL     1       2.168   0.665   0.565  0.00  0.00    +0.000 OA
ATOM      4  H   UNL     1      -0.293  -1.306   0.777  0.00  0.00    +0.000 HD
ENDROOT
BRANCH   1   5
ATOM      5  C   UNL     1      -0.408   0.736   1.387  0.00  0.00    +0.000 C 
BRANCH   5   6
ATOM      6  C   UNL     1      -1.438   1.154   0.340  0.00  0.00    +0.000 C 
BRANCH   6  10
ATOM      7  C   UNL     1      -4.764  -1.244  -0.184  0.00  0.00    +0.000 A 
ATOM      8  C   UNL     1      -4.054  -0.812  -1.298  0.00  0.00    +0.000 A 
ATOM      9  C   UNL     1      -2.741  -0.363  -1.207  0.00  0.00    +0.000 A 
ATOM     10  C   UNL     1      -2.183  -0.110   0.039  0.00  0.00    +0.000 A 
ATOM     11  C   UNL     1      -2.707  -0.884   1.069  0.00  0.00    +0.000 A 
ATOM     12  C   UNL     1      -3.996  -1.396   0.966  0.00  0.00    +0.000 A 
BRANCH   7  15
ATOM     13  C   UNL     1      -6.657   0.396  -0.422  0.00  0.00    +0.000 C 
ATOM     14  O   UNL     1      -6.275   0.691  -1.596  0.00  0.00    +0.000 OA
ATOM     15  N   UNL     1      -6.119  -0.821   0.058  0.00  0.00    +0.000 N 
ATOM     16  H   UNL     1      -6.704  -1.411   0.587  0.00  0.00    +0.000 HD
BRANCH  13  18
ATOM     17  O   UNL     1      -6.720   1.882   0.612  0.00  0.00    +0.000 OA
ATOM     18  C   UNL     1      -7.051   1.529   0.435  0.00  0.00    +0.000 C 
BRANCH  18  19
ATOM     19  O   UNL     1      -8.355   2.048   0.381  0.00  0.00    +0.000 OA
ATOM     20  H   UNL     1      -9.061   1.512   0.077  0.00  0.00    +0.000 HD
ENDBRANCH  18  19
ENDBRANCH  13  18
ENDBRANCH   7  15
ENDBRANCH   6  10
ENDBRANCH   5   6
ENDBRANCH   1   5
BRANCH   2  21
ATOM     21  CA  UNL     1       1.750  -0.972  -1.171  0.00  0.00    +0.000 C 
BRANCH  21  22
ATOM     22  N   UNL     1       3.321  -0.990  -1.059  0.00  0.00    +0.000 N 
ATOM     23  C   UNL     1       3.904  -1.526   0.072  0.00  0.00    +0.000 C 
ATOM     24  O   UNL     1       3.164  -2.081   0.931  0.00  0.00    +0.000 OA
ATOM     25  H   UNL     1       3.878  -0.626  -1.784  0.00  0.00    +0.000 HD
BRANCH  23  26
ATOM     26  C   UNL     1       5.363  -1.355   0.341  0.00  0.00    +0.000 C 
BRANCH  26  27
ATOM     27  C   UNL     1       6.012  -0.578  -0.766  0.00  0.00    +0.000 C 
BRANCH  27  28
ATOM     28  N   UNL     1       5.934   0.854  -0.591  0.00  0.00    +0.000 N 
ATOM     29  C   UNL     1       6.757   1.575   0.327  0.00  0.00    +0.000 C 
ATOM     30  O   UNL     1       7.225   0.892   1.288  0.00  0.00    +0.000 OA
ATOM     31  H   UNL     1       5.283   1.357  -1.132  0.00  0.00    +0.000 HD
BRANCH  29  32
ATOM     32  C   UNL     1       7.350   2.895   0.024  0.00  0.00    +0.000 C 
ATOM     33 BR   UNL     1       6.465   4.233   1.122  0.00  0.00    +0.000 Br
ENDBRANCH  29  32
ENDBRANCH  27  28
ENDBRANCH  26  27
ENDBRANCH  23  26
ENDBRANCH  21  22
BRANCH  21  34
ATOM     34  C   UNL     1       1.603  -2.536  -0.678  0.00  0.00    +0.000 C 
BRANCH  34  35
ATOM     35  O   UNL     1       0.707  -3.017  -1.611  0.00  0.00    +0.000 OA
ATOM     36  H   UNL     1      -0.100  -2.478  -1.591  0.00  0.00    +0.000 HD
ENDBRANCH  34  35
ENDBRANCH  21  34
ENDBRANCH   2  21
TORSDOF 14
