REMARK  Name = 
REMARK  21 active torsions:
REMARK  status: ('A' for Active; 'I' for Inactive)
REMARK    1  A    between atoms: C_1  and  C_2
REMARK    2  A    between atoms: C_2  and  C_3
REMARK    3  A    between atoms: C_3  and  C_4
REMARK    4  A    between atoms: C_4  and  C_5
REMARK    5  A    between atoms: C_5  and  C_6
REMARK    6  A    between atoms: C_6  and  C_7
REMARK    7  A    between atoms: C_7  and  C_8
REMARK    8  A    between atoms: C_8  and  S_9
REMARK    9  A    between atoms: S_9  and  C_10
REMARK   10  A    between atoms: C_10  and  C_11
REMARK   11  A    between atoms: C_11  and  N_12
REMARK   12  A    between atoms: C_11  and  C_22
REMARK   13  A    between atoms: C_13  and  C_15
REMARK   14  A    between atoms: C_15  and  C_16
REMARK   15  A    between atoms: C_16  and  C_17
REMARK   16  A    between atoms: C_17  and  N_18
REMARK   17  A    between atoms: C_17  and  C_19
REMARK   18  A    between atoms: C_19  and  O_21
REMARK   19  A    between atoms: N_24  and  CA_25
REMARK   20  A    between atoms: CA_25  and  C_26
REMARK   21  A    between atoms: C_26  and  OXT_28
REMARK                            x       y       z     vdW  Elec       q    Type
REMARK                         _______ _______ _______ _____ _____    ______ ____
ROOT
ATOM      1  C   UNK A   1       0.026   1.011  -0.214  0.00  0.00    +0.000 C 
ENDROOT
BRANCH   1   2
ATOM      2  N   UNK A   1      -0.433   0.016   0.953  0.00  0.00    +0.000 N 
ATOM      3  C   UNK A   1      -1.141  -1.106   0.616  0.00  0.00    +0.000 C 
ATOM      4  O   UNK A   1      -0.632  -1.774  -0.322  0.00  0.00    +0.000 OA
ATOM      5  H   UNK A   1      -0.210   0.207   1.893  0.00  0.00    +0.000 HD
BRANCH   3   6
ATOM      6  C   UNK A   1      -2.228  -1.798   1.374  0.00  0.00    +0.000 C 
BRANCH   6   7
ATOM      7  C   UNK A   1      -3.267  -2.058   0.286  0.00  0.00    +0.000 C 
BRANCH   7   8
ATOM      8  C   UNK A   1      -3.995  -3.487   0.739  0.00  0.00    +0.000 C 
BRANCH   8   9
ATOM      9  N   UNK A   1      -3.855  -4.088  -0.738  0.00  0.00    +0.000 NA
ATOM     10  H   UNK A   1      -4.155  -3.390  -1.419  0.00  0.00    +0.000 HD
ATOM     11  H   UNK A   1      -4.440  -4.919  -0.824  0.00  0.00    +0.000 HD
ENDBRANCH   8   9
BRANCH   8  12
ATOM     12  C   UNK A   1      -5.495  -2.904   0.442  0.00  0.00    +0.000 C 
ATOM     13  O   UNK A   1      -5.846  -2.306   1.506  0.00  0.00    +0.000 OA
BRANCH  12  14
ATOM     14  O   UNK A   1      -5.657  -2.202  -0.719  0.00  0.00    +0.000 OA
ATOM     15  H   UNK A   1      -5.416  -2.589  -1.537  0.00  0.00    +0.000 HD
ENDBRANCH  12  14
ENDBRANCH   8  12
ENDBRANCH   7   8
ENDBRANCH   6   7
ENDBRANCH   3   6
ENDBRANCH   1   2
BRANCH   1  16
ATOM     16  C   UNK A   1      -1.500   1.422  -0.656  0.00  0.00    +0.000 C 
ATOM     17  O   UNK A   1      -2.291   1.557   0.307  0.00  0.00    +0.000 OA
ATOM     18  N   GLY A   2      -1.440   2.590  -1.492  0.00  0.00    +0.000 N 
ATOM     19  H   GLY A   2      -0.678   2.703  -2.105  0.00  0.00    +0.000 HD
BRANCH  18  20
ATOM     20  CA  GLY A   2      -2.482   3.614  -1.457  0.00  0.00    +0.000 C 
BRANCH  20  21
ATOM     21  C   GLY A   2      -2.447   4.380  -0.182  0.00  0.00    +0.000 C 
ATOM     22  O   GLY A   2      -3.044   5.496  -0.124  0.00  0.00    +0.000 OA
BRANCH  21  23
ATOM     23  OXT GLY A   2      -1.400   4.256   0.737  0.00  0.00    +0.000 OA
ATOM     24  HXT GLY A   2      -0.898   3.466   0.771  0.00  0.00    +0.000 HD
ENDBRANCH  21  23
ENDBRANCH  20  21
ENDBRANCH  18  20
ENDBRANCH   1  16
BRANCH   1  25
ATOM     25  C   UNK A   1       0.102  -0.155  -1.405  0.00  0.00    +0.000 C 
BRANCH  25  26
ATOM     26  S   UNK A   1       1.779  -0.390  -1.869  0.00  0.00    +0.000 S 
BRANCH  26  27
ATOM     27  C   UNK A   1       3.031   0.430  -0.921  0.00  0.00    +0.000 C 
BRANCH  27  28
ATOM     28  C   UNK A   1       3.099   0.049   0.521  0.00  0.00    +0.000 C 
BRANCH  28  29
ATOM     29  C   UNK A   1       3.968  -1.118   0.840  0.00  0.00    +0.000 C 
BRANCH  29  30
ATOM     30  C   UNK A   1       5.319  -1.103   0.207  0.00  0.00    +0.000 C 
BRANCH  30  31
ATOM     31  C   UNK A   1       5.968   0.257   0.392  0.00  0.00    +0.000 C 
BRANCH  31  32
ATOM     32  C   UNK A   1       7.053   0.516  -0.610  0.00  0.00    +0.000 C 
BRANCH  32  34
ATOM     33  C   UNK A   1       8.815  -0.431  -1.036  0.00  0.00    +0.000 C 
ATOM     34  C   UNK A   1       7.992  -0.672  -0.779  0.00  0.00    +0.000 C 
ENDBRANCH  32  34
ENDBRANCH  31  32
ENDBRANCH  30  31
ENDBRANCH  29  30
ENDBRANCH  28  29
ENDBRANCH  27  28
ENDBRANCH  26  27
ENDBRANCH  25  26
ENDBRANCH   1  25
TORSDOF 20
