REMARK  Name = 
REMARK  26 active torsions:
REMARK  status: ('A' for Active; 'I' for Inactive)
REMARK    1  A    between atoms: C_1  and  O_2
REMARK    2  A    between atoms: O_2  and  C_3
REMARK    3  A    between atoms: C_6  and  C_7
REMARK    4  A    between atoms: C_7  and  C_8
REMARK    5  A    between atoms: C_8  and  N_9
REMARK    6  A    between atoms: C_8  and  C_17
REMARK    7  A    between atoms: C_10  and  C_12
REMARK    8  A    between atoms: C_12  and  C_13
REMARK    9  A    between atoms: C_13  and  C_14
REMARK   10  A    between atoms: C_13  and  C_15
REMARK   11  A    between atoms: C_13  and  N_16
REMARK   12  A    between atoms: N_19  and  C_20
REMARK   13  A    between atoms: C_20  and  C_21
REMARK   14  A    between atoms: C_20  and  C_27
REMARK   15  A    between atoms: C_21  and  C_22
REMARK   16  A    between atoms: N_29  and  C_30
REMARK   17  A    between atoms: C_30  and  C_31
REMARK   18  A    between atoms: C_30  and  C_38
REMARK   19  A    between atoms: C_31  and  C_32
REMARK   20  A    between atoms: C_38  and  O_39
REMARK   21  A    between atoms: C_38  and  C_40
REMARK   22  A    between atoms: C_40  and  O_41
REMARK   23  A    between atoms: C_40  and  C_42
REMARK   24  A    between atoms: C_42  and  C_43
REMARK   25  A    between atoms: C_43  and  C_44
REMARK   26  A    between atoms: C_43  and  C_45
REMARK                            x       y       z     vdW  Elec       q    Type
REMARK                         _______ _______ _______ _____ _____    ______ ____
ROOT
ATOM      1  C   UNL     1      -0.177   1.286   0.047  0.00  0.00    +0.000 C 
ENDROOT
BRANCH   1   4
ATOM      2  C   UNL     1       2.184   1.580   0.481  0.00  0.00    +0.000 C 
ATOM      3  O   UNL     1       2.011   2.804   0.649  0.00  0.00    +0.000 OA
ATOM      4  N   UNL     1       1.233   0.583   0.371  0.00  0.00    +0.000 N 
ATOM      5  H   UNL     1       1.391  -0.384   0.473  0.00  0.00    +0.000 HD
BRANCH   2   6
ATOM      6  C   UNL     1       3.757   1.181   0.237  0.00  0.00    +0.000 C 
BRANCH   6   7
ATOM      7  N   UNL     1       3.640  -0.148   1.134  0.00  0.00    +0.000 N 
ATOM      8  C   UNL     1       4.261   0.050   2.416  0.00  0.00    +0.000 C 
ATOM      9  O   UNL     1       3.747   1.006   3.080  0.00  0.00    +0.000 OA
ATOM     10  H   UNL     1       3.203  -0.982   0.846  0.00  0.00    +0.000 HD
BRANCH   8  11
ATOM     11  C   UNL     1       4.430  -1.202   3.228  0.00  0.00    +0.000 C 
BRANCH  11  12
ATOM     12  C   UNL     1       5.717  -1.033   4.015  0.00  0.00    +0.000 C 
ATOM     13  C   UNL     1       5.371  -0.211   5.242  0.00  0.00    +0.000 C 
ATOM     14  C   UNL     1       6.751  -0.349   3.160  0.00  0.00    +0.000 C 
BRANCH  12  15
ATOM     15  N   UNL     1       6.198  -2.352   4.352  0.00  0.00    +0.000 NA
ATOM     16  H   UNL     1       5.506  -2.828   4.932  0.00  0.00    +0.000 HD
ATOM     17  H   UNL     1       7.076  -2.273   4.866  0.00  0.00    +0.000 HD
ENDBRANCH  12  15
ENDBRANCH  11  12
ENDBRANCH   8  11
ENDBRANCH   6   7
BRANCH   6  18
ATOM     18  C   UNL     1       3.410   0.316  -1.158  0.00  0.00    +0.000 C 
BRANCH  18  22
ATOM     19  C   UNL     1       5.635   0.826  -4.515  0.00  0.00    +0.000 A 
ATOM     20  C   UNL     1       4.259   1.006  -4.644  0.00  0.00    +0.000 A 
ATOM     21  C   UNL     1       3.457   1.125  -3.511  0.00  0.00    +0.000 A 
ATOM     22  C   UNL     1       3.999   1.180  -2.235  0.00  0.00    +0.000 A 
ATOM     23  C   UNL     1       5.346   1.525  -2.215  0.00  0.00    +0.000 A 
ATOM     24  C   UNL     1       6.152   1.372  -3.341  0.00  0.00    +0.000 A 
BRANCH  19  26
ATOM     25  C   UNL     1       6.437  -1.394  -4.643  0.00  0.00    +0.000 C 
ATOM     26  O   UNL     1       6.322  -0.165  -5.226  0.00  0.00    +0.000 OA
ENDBRANCH  19  26
ENDBRANCH  18  22
ENDBRANCH   6  18
ENDBRANCH   2   6
ENDBRANCH   1   4
BRANCH   1  27
ATOM     27  C   UNL     1      -1.014   0.011   0.669  0.00  0.00    +0.000 C 
ATOM     28  O   UNL     1      -1.016   0.252   1.917  0.00  0.00    +0.000 OA
ATOM     29  N   UNL     1      -2.243  -0.324   0.193  0.00  0.00    +0.000 N 
ATOM     30  H   UNL     1      -2.326  -1.113  -0.389  0.00  0.00    +0.000 HD
BRANCH  29  31
ATOM     31  C   UNL     1      -3.539   0.505   0.537  0.00  0.00    +0.000 C 
BRANCH  31  32
ATOM     32  C   UNL     1      -4.231  -0.011  -0.874  0.00  0.00    +0.000 C 
BRANCH  32  33
ATOM     33  C   UNL     1      -5.365  -0.868  -0.642  0.00  0.00    +0.000 C 
ATOM     34  C   UNL     1      -5.138  -2.350  -0.680  0.00  0.00    +0.000 C 
ATOM     35  C   UNL     1      -6.338  -3.116  -0.200  0.00  0.00    +0.000 C 
ATOM     36  C   UNL     1      -7.650  -2.522  -0.626  0.00  0.00    +0.000 C 
ATOM     37  C   UNL     1      -7.432  -1.590  -1.788  0.00  0.00    +0.000 C 
ATOM     38  C   UNL     1      -6.556  -0.427  -1.433  0.00  0.00    +0.000 C 
ENDBRANCH  32  33
ENDBRANCH  31  32
BRANCH  31  39
ATOM     39  C   UNL     1      -4.237  -0.767   1.493  0.00  0.00    +0.000 C 
BRANCH  39  40
ATOM     40  O   UNL     1      -3.569  -0.332   2.772  0.00  0.00    +0.000 OA
ATOM     41  H   UNL     1      -3.655   0.629   2.872  0.00  0.00    +0.000 HD
ENDBRANCH  39  40
BRANCH  39  42
ATOM     42  C   UNL     1      -5.677   0.197   1.759  0.00  0.00    +0.000 C 
BRANCH  42  43
ATOM     43  O   UNL     1      -5.876  -0.326   3.189  0.00  0.00    +0.000 OA
ATOM     44  H   UNL     1      -5.033  -0.284   3.669  0.00  0.00    +0.000 HD
ENDBRANCH  42  43
BRANCH  42  45
ATOM     45  C   UNL     1      -4.851   1.539   2.309  0.00  0.00    +0.000 C 
BRANCH  45  46
ATOM     46  C   UNL     1      -5.854   2.626   2.071  0.00  0.00    +0.000 C 
ATOM     47  C   UNL     1      -5.396   3.850   2.836  0.00  0.00    +0.000 C 
ATOM     48  C   UNL     1      -5.980   3.036   0.634  0.00  0.00    +0.000 C 
ENDBRANCH  45  46
ENDBRANCH  42  45
ENDBRANCH  39  42
ENDBRANCH  31  39
ENDBRANCH  29  31
ENDBRANCH   1  27
BRANCH   1  49
ATOM     49  C   UNL     1      -0.137   0.721  -1.527  0.00  0.00    +0.000 C 
BRANCH  49  50
ATOM     50  C   UNL     1      -0.335  -0.694  -1.540  0.00  0.00    +0.000 A 
ATOM     51  C   UNL     1      -1.007  -1.226  -2.643  0.00  0.00    +0.000 A 
ATOM     52  N   UNL     1      -1.040  -2.548  -2.522  0.00  0.00    +0.000 N 
ATOM     53  C   UNL     1       0.087  -2.844  -1.827  0.00  0.00    +0.000 A 
ATOM     54  N   UNL     1       0.255  -1.778  -1.002  0.00  0.00    +0.000 NA
ATOM     55  H   UNL     1      -1.725  -3.170  -2.859  0.00  0.00    +0.000 HD
ENDBRANCH  49  50
ENDBRANCH   1  49
TORSDOF 21
