REMARK  Name = 6323182
REMARK  13 active torsions:
REMARK  status: ('A' for Active; 'I' for Inactive)
REMARK    1  A    between atoms: O_3  and  C_27
REMARK    2  A    between atoms: N_8  and  CA_18
REMARK    3  A    between atoms: N_9  and  C_20
REMARK    4  A    between atoms: N_10  and  C_29
REMARK    5  A    between atoms: C_17  and  CA_18
REMARK    6  A    between atoms: C_17  and  C_21
REMARK    7  A    between atoms: C_17  and  C_28
REMARK    8  A    between atoms: CA_18  and  C_27
REMARK    9  A    between atoms: C_20  and  C_24
REMARK   10  A    between atoms: C_20  and  C_25
REMARK   11  A    between atoms: C_20  and  C_26
REMARK   12  A    between atoms: C_21  and  C_23
REMARK   13  A    between atoms: C_23  and  C_29
REMARK                            x       y       z     vdW  Elec       q    Type
REMARK                         _______ _______ _______ _____ _____    ______ ____
ROOT
ATOM      1  CA  UNL     1      -2.476   2.211  -0.425  0.00  0.00    +0.000 C 
ENDROOT
BRANCH   1   6
ATOM      2  O   UNL     1      -0.417   2.014  -2.353  0.00  0.00    +0.000 OA
ATOM      3  O   UNL     1       4.609  -1.830   1.253  0.00  0.00    +0.000 OA
ATOM      4  N   UNL     1       0.803   0.559  -1.014  0.00  0.00    +0.000 N 
ATOM      5  N   UNL     1       3.347  -0.590  -0.253  0.00  0.00    +0.000 N 
ATOM      6  N   UNL     1      -1.273   1.419  -0.302  0.00  0.00    +0.000 N 
ATOM      7  N   UNL     1       5.684  -0.315  -0.104  0.00  0.00    +0.000 N 
ATOM      8  C   UNL     1       0.951  -0.226   0.219  0.00  0.00    +0.000 C 
ATOM      9  C   UNL     1       1.886   0.442  -1.992  0.00  0.00    +0.000 C 
ATOM     10  C   UNL     1       2.094  -1.232   0.147  0.00  0.00    +0.000 C 
ATOM     11  C   UNL     1       3.251   0.424  -1.312  0.00  0.00    +0.000 C 
ATOM     12  C   UNL     1      -0.305   1.377  -1.301  0.00  0.00    +0.000 C 
ATOM     13  C   UNL     1       4.552  -0.976   0.363  0.00  0.00    +0.000 C 
ATOM     14  H   UNL     1      -1.066   1.014   0.603  0.00  0.00    +0.000 HD
ATOM     15  H   UNL     1       5.590   0.436  -0.778  0.00  0.00    +0.000 HD
BRANCH   7  16
ATOM     16  C   UNL     1       7.004  -0.583   0.419  0.00  0.00    +0.000 C 
ATOM     17  C   UNL     1       7.351  -2.058   0.186  0.00  0.00    +0.000 C 
ATOM     18  C   UNL     1       7.020  -0.277   1.920  0.00  0.00    +0.000 C 
ATOM     19  C   UNL     1       8.025   0.305  -0.302  0.00  0.00    +0.000 C 
ENDBRANCH   7  16
ENDBRANCH   1   6
BRANCH   1  21
ATOM     20  OXT UNL     1      -3.092   4.534  -0.131  0.00  0.00    +0.000 OA
ATOM     21  C   UNL     1      -2.242   3.659  -0.011  0.00  0.00    +0.000 C 
BRANCH  21  22
ATOM     22  O   UNL     1      -1.017   3.906   0.512  0.00  0.00    +0.000 OA
ATOM     23  H   UNL     1      -0.911   4.847   0.768  0.00  0.00    +0.000 HD
ENDBRANCH  21  22
ENDBRANCH   1  21
BRANCH   1  24
ATOM     24  C   UNL     1      -3.665   1.601   0.341  0.00  0.00    +0.000 C 
BRANCH  24  26
ATOM     25  O   UNL     1      -4.039   2.148   2.670  0.00  0.00    +0.000 OA
ATOM     26  C   UNL     1      -3.375   1.544   1.832  0.00  0.00    +0.000 C 
ENDBRANCH  24  26
BRANCH  24  27
ATOM     27  C   UNL     1      -4.055   0.184  -0.120  0.00  0.00    +0.000 C 
BRANCH  27  28
ATOM     28  C   UNL     1      -5.327  -0.397   0.512  0.00  0.00    +0.000 C 
BRANCH  28  29
ATOM     29  C   UNL     1      -5.742  -1.765  -0.020  0.00  0.00    +0.000 C 
BRANCH  29  30
ATOM     30  N   UNL     1      -4.682  -2.743   0.230  0.00  0.00    +0.000 NA
ATOM     31  N   UNL     1      -6.016  -4.445  -0.815  0.00  0.00    +0.000 N 
ATOM     32  N   UNL     1      -3.954  -4.934   0.023  0.00  0.00    +0.000 N 
ATOM     33  C   UNL     1      -4.900  -3.956  -0.174  0.00  0.00    +0.000 C 
ATOM     34  H   UNL     1      -6.078  -5.421  -1.086  0.00  0.00    +0.000 HD
ATOM     35  H   UNL     1      -6.812  -3.859  -1.039  0.00  0.00    +0.000 HD
ATOM     36  H   UNL     1      -4.106  -5.888  -0.284  0.00  0.00    +0.000 HD
ATOM     37  H   UNL     1      -3.075  -4.727   0.484  0.00  0.00    +0.000 HD
ENDBRANCH  29  30
ENDBRANCH  28  29
ENDBRANCH  27  28
ENDBRANCH  24  27
ENDBRANCH   1  24
TORSDOF 10
