REMARK  Name = 
REMARK  19 active torsions:
REMARK  status: ('A' for Active; 'I' for Inactive)
REMARK    1  A    between atoms: C_1  and  C_2
REMARK    2  A    between atoms: N_4  and  C_5
REMARK    3  A    between atoms: C_5  and  C_6
REMARK    4  A    between atoms: C_5  and  C_22
REMARK    5  A    between atoms: C_6  and  C_7
REMARK    6  A    between atoms: C_10  and  O_11
REMARK    7  A    between atoms: O_11  and  C_12
REMARK    8  A    between atoms: C_12  and  C_13
REMARK    9  A    between atoms: C_13  and  O_15
REMARK   10  A    between atoms: C_16  and  P_17
REMARK   11  A    between atoms: P_17  and  O_19
REMARK   12  A    between atoms: P_17  and  O_20
REMARK   13  A    between atoms: N_24  and  C_25
REMARK   14  A    between atoms: C_25  and  C_26
REMARK   15  A    between atoms: C_25  and  C_27
REMARK   16  A    between atoms: C_30  and  O_31
REMARK   17  A    between atoms: O_31  and  C_32
REMARK   18  A    between atoms: C_32  and  C_33
REMARK   19  A    between atoms: C_39  and  C_40
REMARK                            x       y       z     vdW  Elec       q    Type
REMARK                         _______ _______ _______ _____ _____    ______ ____
ROOT
ATOM      1  C   UNL     1      -0.962   0.029  -0.567  0.00  0.00    +0.000 C 
ENDROOT
BRANCH   1   5
ATOM      2  C   UNL     1      -1.607  -2.643  -3.218  0.00  0.00    +0.000 C 
ATOM      3  C   UNL     1      -1.488  -2.015  -2.022  0.00  0.00    +0.000 C 
ATOM      4  O   UNL     1      -2.191  -2.482  -1.078  0.00  0.00    +0.000 OA
ATOM      5  N   UNL     1      -1.224  -0.648  -1.972  0.00  0.00    +0.000 N 
ATOM      6  H   UNL     1      -1.201  -0.113  -2.798  0.00  0.00    +0.000 HD
ENDBRANCH   1   5
BRANCH   1   7
ATOM      7  C   UNL     1       0.061  -1.106  -0.058  0.00  0.00    +0.000 C 
ATOM      8  O   UNL     1       0.755  -1.719  -0.835  0.00  0.00    +0.000 OA
ATOM      9  N   UNL     1       0.401  -0.895   1.276  0.00  0.00    +0.000 N 
ATOM     10  H   UNL     1       0.042  -0.131   1.783  0.00  0.00    +0.000 HD
BRANCH   9  11
ATOM     11  C   UNL     1       1.386  -1.935   1.939  0.00  0.00    +0.000 C 
ATOM     12  C   UNL     1       0.645  -3.237   1.244  0.00  0.00    +0.000 C 
BRANCH  11  13
ATOM     13  C   UNL     1       2.460  -1.812   0.731  0.00  0.00    +0.000 A 
ATOM     14  C   UNL     1       3.365  -2.868   0.713  0.00  0.00    +0.000 A 
ATOM     15  C   UNL     1       4.580  -2.655   0.073  0.00  0.00    +0.000 A 
ATOM     16  C   UNL     1       5.024  -1.357  -0.147  0.00  0.00    +0.000 A 
ATOM     17  C   UNL     1       4.115  -0.314  -0.025  0.00  0.00    +0.000 A 
ATOM     18  C   UNL     1       3.024  -0.543   0.805  0.00  0.00    +0.000 A 
BRANCH  17  19
ATOM     19  C   UNL     1       4.548   1.084  -0.163  0.00  0.00    +0.000 C 
ATOM     20  N   UNL     1       3.924   1.800  -1.240  0.00  0.00    +0.000 N 
ATOM     21  O   UNL     1       4.571   1.743   0.922  0.00  0.00    +0.000 OA
ATOM     22  H   UNL     1       3.851   1.384  -2.130  0.00  0.00    +0.000 HD
ATOM     23  H   UNL     1       3.571   2.706  -1.089  0.00  0.00    +0.000 HD
ENDBRANCH  17  19
BRANCH  16  24
ATOM     24  O   UNL     1       6.401  -1.111  -0.155  0.00  0.00    +0.000 OA
BRANCH  24  25
ATOM     25  C   UNL     1       6.893   0.182  -0.386  0.00  0.00    +0.000 C 
BRANCH  25  26
ATOM     26  C   UNL     1       8.290   0.365   0.170  0.00  0.00    +0.000 C 
ATOM     27  C   UNL     1       9.182   0.961  -0.880  0.00  0.00    +0.000 C 
ATOM     28  C   UNL     1       9.498   2.407  -0.623  0.00  0.00    +0.000 C 
ATOM     29  C   UNL     1       8.271   3.126  -0.128  0.00  0.00    +0.000 C 
ATOM     30  C   UNL     1       7.840   2.602   1.216  0.00  0.00    +0.000 C 
ATOM     31  C   UNL     1       8.258   1.168   1.441  0.00  0.00    +0.000 C 
ENDBRANCH  25  26
ENDBRANCH  24  25
ENDBRANCH  16  24
ENDBRANCH  11  13
ENDBRANCH   9  11
ENDBRANCH   1   7
BRANCH   1  32
ATOM     32  C   UNL     1      -2.230  -0.744   0.157  0.00  0.00    +0.000 C 
BRANCH  32  33
ATOM     33  C   UNL     1      -3.353   0.245   0.134  0.00  0.00    +0.000 A 
ATOM     34  C   UNL     1      -3.814   0.804  -1.052  0.00  0.00    +0.000 A 
ATOM     35  C   UNL     1      -5.180   0.856  -1.314  0.00  0.00    +0.000 A 
ATOM     36  C   UNL     1      -6.106   0.630  -0.303  0.00  0.00    +0.000 A 
ATOM     37  C   UNL     1      -5.660   0.174   0.918  0.00  0.00    +0.000 A 
ATOM     38  C   UNL     1      -4.296   0.204   1.154  0.00  0.00    +0.000 A 
BRANCH  37  39
ATOM     39  P   UNL     1      -6.818  -0.526   2.102  0.00  0.00    +0.000 P 
ATOM     40  O   UNL     1      -7.782   0.526   2.553  0.00  0.00    +0.000 OA
BRANCH  39  41
ATOM     41  O   UNL     1      -5.935  -1.126   3.427  0.00  0.00    +0.000 OA
ATOM     42  H   UNL     1      -5.487  -0.392   3.876  0.00  0.00    +0.000 HD
ENDBRANCH  39  41
BRANCH  39  43
ATOM     43  O   UNL     1      -7.562  -1.849   1.380  0.00  0.00    +0.000 OA
ATOM     44  H   UNL     1      -8.079  -1.551   0.615  0.00  0.00    +0.000 HD
ENDBRANCH  39  43
ENDBRANCH  37  39
BRANCH  36  45
ATOM     45  O   UNL     1      -7.447   0.640  -0.615  0.00  0.00    +0.000 OA
BRANCH  45  46
ATOM     46  C   UNL     1      -8.226   1.807  -0.521  0.00  0.00    +0.000 C 
BRANCH  46  47
ATOM     47  C   UNL     1      -7.379   3.014  -0.486  0.00  0.00    +0.000 C 
ATOM     48  O   UNL     1      -6.496   3.114   0.389  0.00  0.00    +0.000 OA
BRANCH  47  49
ATOM     49  O   UNL     1      -7.739   4.104  -1.261  0.00  0.00    +0.000 OA
ATOM     50  H   UNL     1      -8.404   4.015  -1.915  0.00  0.00    +0.000 HD
ENDBRANCH  47  49
ENDBRANCH  46  47
ENDBRANCH  45  46
ENDBRANCH  36  45
ENDBRANCH  32  33
ENDBRANCH   1  32
TORSDOF 17
