REMARK  Name = 5288651
REMARK  12 active torsions:
REMARK  status: ('A' for Active; 'I' for Inactive)
REMARK    1  A    between atoms: O_3  and  C_15
REMARK    2  A    between atoms: O_5  and  C_18
REMARK    3  A    between atoms: O_8  and  C_24
REMARK    4  A    between atoms: N_9  and  C_13
REMARK    5  A    between atoms: N_10  and  C_11
REMARK    6  A    between atoms: C_11  and  C_12
REMARK    7  A    between atoms: C_11  and  C_14
REMARK    8  A    between atoms: C_12  and  C_16
REMARK    9  A    between atoms: C_13  and  C_15
REMARK   10  A    between atoms: C_13  and  C_18
REMARK   11  A    between atoms: C_15  and  C_17
REMARK   12  A    between atoms: C_21  and  C_25
REMARK                            x       y       z     vdW  Elec       q    Type
REMARK                         _______ _______ _______ _____ _____    ______ ____
ROOT
ATOM      1  C   UNK A   1       0.862  -1.739   0.416  0.00  0.00    +0.000 C 
ENDROOT
BRANCH   1   3
ATOM      2  O   UNK A   0       2.889  -2.516  -1.512  0.00  0.00    +0.000 OA
ATOM      3  N   UNK A   1       1.868  -2.760   0.567  0.00  0.00    +0.000 N 
ATOM      4  C   UNK A   0       2.799  -3.062  -0.415  0.00  0.00    +0.000 C 
ATOM      5  C   UNK A   0       3.749  -4.149   0.011  0.00  0.00    +0.000 C 
ATOM      6  H   UNK A   1       1.937  -3.229   1.466  0.00  0.00    +0.000 HD
ENDBRANCH   1   3
BRANCH   1   9
ATOM      7  O   UNK A   1       2.305  -0.340   1.770  0.00  0.00    +0.000 OA
ATOM      8  N   UNK A   1       1.062   0.643   0.072  0.00  0.00    +0.000 N 
ATOM      9  C   UNK A   1       1.487  -0.420   0.856  0.00  0.00    +0.000 C 
ATOM     10  H   UNK A   1       0.432   0.466  -0.704  0.00  0.00    +0.000 HD
BRANCH   8  11
ATOM     11  C   UNK A   1       1.540   1.997   0.245  0.00  0.00    +0.000 C 
BRANCH  11  13
ATOM     12  O   UNK A   1       3.042   1.582  -1.630  0.00  0.00    +0.000 OA
ATOM     13  C   UNK A   1       2.824   2.123  -0.554  0.00  0.00    +0.000 C 
BRANCH  13  14
ATOM     14  O   UNK A   1       3.749   2.883   0.090  0.00  0.00    +0.000 OA
ATOM     15  H   UNK A   1       4.586   2.948  -0.418  0.00  0.00    +0.000 HD
ENDBRANCH  13  14
ENDBRANCH  11  13
BRANCH  11  16
ATOM     16  C   UNK A   1       0.515   3.051  -0.185  0.00  0.00    +0.000 C 
ATOM     17  C   UNK A   1       1.027   4.476  -0.009  0.00  0.00    +0.000 C 
BRANCH  16  18
ATOM     18  O   UNK A   1       0.145   2.861  -1.550  0.00  0.00    +0.000 OA
ATOM     19  H   UNK A   1      -0.530   3.527  -1.767  0.00  0.00    +0.000 HD
ENDBRANCH  16  18
ENDBRANCH  11  16
ENDBRANCH   8  11
ENDBRANCH   1   9
BRANCH   1  20
ATOM     20  C   UNK A   1      -0.393  -2.036   1.244  0.00  0.00    +0.000 C 
BRANCH  20  23
ATOM     21  I   UNK A   1      -4.748  -2.137  -2.110  0.00  0.00    +0.000 I 
ATOM     22  I   UNK A   1      -3.420   2.542   1.578  0.00  0.00    +0.000 I 
ATOM     23  C   UNK A   1      -1.611  -1.297   0.745  0.00  0.00    +0.000 A 
ATOM     24  C   UNK A   1      -1.897  -0.038   1.251  0.00  0.00    +0.000 A 
ATOM     25  C   UNK A   1      -2.422  -1.890  -0.209  0.00  0.00    +0.000 A 
ATOM     26  C   UNK A   1      -3.548  -1.208  -0.670  0.00  0.00    +0.000 A 
ATOM     27  C   UNK A   1      -3.023   0.644   0.791  0.00  0.00    +0.000 A 
ATOM     28  C   UNK A   1      -3.849   0.060  -0.170  0.00  0.00    +0.000 A 
BRANCH  28  29
ATOM     29  O   UNK A   1      -4.951   0.728  -0.621  0.00  0.00    +0.000 OA
ATOM     30  H   UNK A   1      -5.400   0.172  -1.281  0.00  0.00    +0.000 HD
ENDBRANCH  28  29
ENDBRANCH  20  23
ENDBRANCH   1  20
TORSDOF 10
