REMARK  Name = 
REMARK  20 active torsions:
REMARK  status: ('A' for Active; 'I' for Inactive)
REMARK    1  A    between atoms: C_1  and  C_2
REMARK    2  A    between atoms: C_2  and  C_3
REMARK    3  A    between atoms: C_3  and  C_4
REMARK    4  A    between atoms: C_4  and  C_5
REMARK    5  A    between atoms: C_5  and  C_6
REMARK    6  A    between atoms: C_8  and  O_9
REMARK    7  A    between atoms: C_11  and  S_12
REMARK    8  A    between atoms: S_12  and  C_13
REMARK    9  A    between atoms: C_13  and  C_14
REMARK   10  A    between atoms: C_14  and  N_15
REMARK   11  A    between atoms: C_14  and  C_25
REMARK   12  A    between atoms: C_16  and  C_18
REMARK   13  A    between atoms: C_18  and  C_19
REMARK   14  A    between atoms: C_19  and  C_20
REMARK   15  A    between atoms: C_20  and  N_21
REMARK   16  A    between atoms: C_20  and  C_22
REMARK   17  A    between atoms: C_22  and  O_24
REMARK   18  A    between atoms: N_27  and  CA_28
REMARK   19  A    between atoms: CA_28  and  C_29
REMARK   20  A    between atoms: C_29  and  OXT_31
REMARK                            x       y       z     vdW  Elec       q    Type
REMARK                         _______ _______ _______ _____ _____    ______ ____
ROOT
ATOM      1  C   UNK A   1      -0.896  -1.128  -0.746  0.00  0.00    +0.000 C 
ENDROOT
BRANCH   1   2
ATOM      2  N   UNK A   1      -2.128  -0.396  -0.089  0.00  0.00    +0.000 N 
ATOM      3  C   UNK A   1      -1.974   1.005  -0.313  0.00  0.00    +0.000 C 
ATOM      4  O   UNK A   1      -1.585   1.456  -1.430  0.00  0.00    +0.000 OA
ATOM      5  H   UNK A   1      -2.871  -0.828   0.390  0.00  0.00    +0.000 HD
BRANCH   3   6
ATOM      6  C   UNK A   1      -2.477   2.008   0.688  0.00  0.00    +0.000 C 
BRANCH   6   7
ATOM      7  C   UNK A   1      -3.591   2.723   0.023  0.00  0.00    +0.000 C 
BRANCH   7   8
ATOM      8  C   UNK A   1      -4.557   3.318   1.216  0.00  0.00    +0.000 C 
BRANCH   8   9
ATOM      9  N   UNK A   1      -4.978   1.873   1.698  0.00  0.00    +0.000 NA
ATOM     10  H   UNK A   1      -5.229   1.304   0.890  0.00  0.00    +0.000 HD
ATOM     11  H   UNK A   1      -5.778   1.944   2.326  0.00  0.00    +0.000 HD
ENDBRANCH   8   9
BRANCH   8  12
ATOM     12  C   UNK A   1      -5.826   3.484   0.227  0.00  0.00    +0.000 C 
ATOM     13  O   UNK A   1      -6.144   2.507  -0.433  0.00  0.00    +0.000 OA
BRANCH  12  14
ATOM     14  O   UNK A   1      -5.749   4.680  -0.503  0.00  0.00    +0.000 OA
ATOM     15  H   UNK A   1      -5.511   5.478  -0.072  0.00  0.00    +0.000 HD
ENDBRANCH  12  14
ENDBRANCH   8  12
ENDBRANCH   7   8
ENDBRANCH   6   7
ENDBRANCH   3   6
ENDBRANCH   1   2
BRANCH   1  16
ATOM     16  C   UNK A   1      -1.626  -2.567  -0.696  0.00  0.00    +0.000 C 
ATOM     17  O   UNK A   1      -1.962  -2.784  -1.907  0.00  0.00    +0.000 OA
ATOM     18  N   GLY A   2      -0.968  -3.653  -0.084  0.00  0.00    +0.000 N 
ATOM     19  H   GLY A   2      -0.534  -3.462   0.779  0.00  0.00    +0.000 HD
BRANCH  18  20
ATOM     20  CA  GLY A   2      -0.852  -4.996  -0.557  0.00  0.00    +0.000 C 
BRANCH  20  21
ATOM     21  C   GLY A   2      -2.059  -5.832  -0.398  0.00  0.00    +0.000 C 
ATOM     22  O   GLY A   2      -2.007  -6.966  -0.938  0.00  0.00    +0.000 OA
BRANCH  21  23
ATOM     23  OXT GLY A   2      -3.043  -5.624   0.557  0.00  0.00    +0.000 OA
ATOM     24  HXT GLY A   2      -3.115  -4.792   0.982  0.00  0.00    +0.000 HD
ENDBRANCH  21  23
ENDBRANCH  20  21
ENDBRANCH  18  20
ENDBRANCH   1  16
BRANCH   1  25
ATOM     25  C   UNK A   1      -0.168  -1.317   0.718  0.00  0.00    +0.000 C 
BRANCH  25  26
ATOM     26  S   UNK A   1       1.514  -1.467  -0.037  0.00  0.00    +0.000 S 
BRANCH  26  31
ATOM     27  C   UNK A   1       3.712  -0.185  -0.183  0.00  0.00    +0.000 C 
ATOM     28  O   UNK A   1       4.199  -0.019   1.216  0.00  0.00    +0.000 OA
ATOM     29  C   UNK A   1       3.411   1.093   1.874  0.00  0.00    +0.000 C 
ATOM     30  C   UNK A   1       2.014   0.242   1.604  0.00  0.00    +0.000 C 
ATOM     31  C   UNK A   1       2.138   0.324   0.053  0.00  0.00    +0.000 C 
BRANCH  29  32
ATOM     32  O   UNK A   1       3.103   2.056   0.708  0.00  0.00    +0.000 OA
ATOM     33  H   UNK A   1       2.793   1.548  -0.058  0.00  0.00    +0.000 HD
ENDBRANCH  29  32
BRANCH  27  34
ATOM     34  C   UNK A   1       4.460   1.227  -0.667  0.00  0.00    +0.000 C 
BRANCH  34  35
ATOM     35  C   UNK A   1       5.832   1.113   0.051  0.00  0.00    +0.000 C 
BRANCH  35  36
ATOM     36  C   UNK A   1       6.431   2.502   0.050  0.00  0.00    +0.000 C 
BRANCH  36  38
ATOM     37  C   UNK A   1       8.021   2.680   0.753  0.00  0.00    +0.000 C 
ATOM     38  C   UNK A   1       7.754   2.643   0.646  0.00  0.00    +0.000 C 
ENDBRANCH  36  38
ENDBRANCH  35  36
ENDBRANCH  34  35
ENDBRANCH  27  34
ENDBRANCH  26  31
ENDBRANCH  25  26
ENDBRANCH   1  25
TORSDOF 19
