REMARK  Name = 
REMARK  19 active torsions:
REMARK  status: ('A' for Active; 'I' for Inactive)
REMARK    1  A    between atoms: C_1  and  C_2
REMARK    2  A    between atoms: C_2  and  C_3
REMARK    3  A    between atoms: C_3  and  C_4
REMARK    4  A    between atoms: C_3  and  C_5
REMARK    5  A    between atoms: C_5  and  N_6
REMARK    6  A    between atoms: C_5  and  C_20
REMARK    7  A    between atoms: N_6  and  S_7
REMARK    8  A    between atoms: S_7  and  C_10
REMARK    9  A    between atoms: C_10  and  C_11
REMARK   10  A    between atoms: C_15  and  C_16
REMARK   11  A    between atoms: C_16  and  O_18
REMARK   12  A    between atoms: N_22  and  C_23
REMARK   13  A    between atoms: C_23  and  C_24
REMARK   14  A    between atoms: C_23  and  C_29
REMARK   15  A    between atoms: C_24  and  C_25
REMARK   16  A    between atoms: C_25  and  C_26
REMARK   17  A    between atoms: N_31  and  C_32
REMARK   18  A    between atoms: C_32  and  C_33
REMARK   19  A    between atoms: C_36  and  C_37
REMARK                            x       y       z     vdW  Elec       q    Type
REMARK                         _______ _______ _______ _____ _____    ______ ____
ROOT
ATOM      1  C   UNL     1      -0.706   1.598  -1.163  0.00  0.00    +0.000 C 
ENDROOT
BRANCH   1   4
ATOM      2  C   UNL     1       0.689  -0.389  -0.812  0.00  0.00    +0.000 C 
ATOM      3  O   UNL     1       0.293  -0.769  -1.915  0.00  0.00    +0.000 OA
ATOM      4  N   UNL     1      -0.197   0.521  -0.131  0.00  0.00    +0.000 N 
ATOM      5  H   UNL     1      -0.443   0.477   0.821  0.00  0.00    +0.000 HD
BRANCH   2   6
ATOM      6  C   UNL     1       1.221  -1.468   0.244  0.00  0.00    +0.000 C 
BRANCH   6   7
ATOM      7  C   UNL     1       2.580  -2.033  -0.631  0.00  0.00    +0.000 C 
ATOM      8  C   UNL     1       2.866  -0.700  -1.506  0.00  0.00    +0.000 C 
BRANCH   7  10
ATOM      9  C   UNL     1       1.456  -3.509  -1.725  0.00  0.00    +0.000 C 
ATOM     10  C   UNL     1       1.695  -2.762  -1.774  0.00  0.00    +0.000 C 
ENDBRANCH   7  10
ENDBRANCH   6   7
BRANCH   6  11
ATOM     11  N   UNL     1       2.109  -0.402   0.978  0.00  0.00    +0.000 NA
ATOM     12  H   UNL     1       1.517   0.265   1.473  0.00  0.00    +0.000 HD
BRANCH  11  13
ATOM     13  S   UNL     1       3.097  -1.247   2.091  0.00  0.00    +0.000 S 
ATOM     14  O   UNL     1       2.295  -2.130   3.023  0.00  0.00    +0.000 OA
ATOM     15  O   UNL     1       3.723  -0.202   2.962  0.00  0.00    +0.000 OA
BRANCH  13  16
ATOM     16  C   UNL     1       4.360  -2.217   1.389  0.00  0.00    +0.000 C 
BRANCH  16  17
ATOM     17  C   UNL     1       5.624  -1.523   1.113  0.00  0.00    +0.000 A 
ATOM     18  C   UNL     1       6.584  -2.262   0.431  0.00  0.00    +0.000 A 
ATOM     19  C   UNL     1       7.483  -1.680  -0.449  0.00  0.00    +0.000 A 
ATOM     20  C   UNL     1       7.693  -0.333  -0.308  0.00  0.00    +0.000 A 
ATOM     21  C   UNL     1       6.839   0.427   0.481  0.00  0.00    +0.000 A 
ATOM     22  C   UNL     1       5.865  -0.186   1.253  0.00  0.00    +0.000 A 
BRANCH  21  23
ATOM     23  C   UNL     1       6.940   1.868   0.374  0.00  0.00    +0.000 C 
ATOM     24  O   UNL     1       6.050   2.603   0.869  0.00  0.00    +0.000 OA
BRANCH  23  25
ATOM     25  O   UNL     1       8.044   2.475  -0.173  0.00  0.00    +0.000 OA
ATOM     26  H   UNL     1       8.726   1.955  -0.550  0.00  0.00    +0.000 HD
ENDBRANCH  23  25
ENDBRANCH  21  23
ENDBRANCH  16  17
ENDBRANCH  13  16
ENDBRANCH  11  13
ENDBRANCH   6  11
ENDBRANCH   2   6
ENDBRANCH   1   4
BRANCH   1  27
ATOM     27  C   UNL     1      -1.875   2.113  -0.178  0.00  0.00    +0.000 C 
ATOM     28  O   UNL     1      -1.468   2.577   0.918  0.00  0.00    +0.000 OA
ATOM     29  N   UNL     1      -2.920   2.841  -0.827  0.00  0.00    +0.000 N 
ATOM     30  H   UNL     1      -2.914   2.918  -1.809  0.00  0.00    +0.000 HD
BRANCH  29  31
ATOM     31  C   UNL     1      -3.978   3.464  -0.081  0.00  0.00    +0.000 C 
BRANCH  31  32
ATOM     32  C   UNL     1      -5.173   2.619   0.076  0.00  0.00    +0.000 A 
ATOM     33  C   UNL     1      -6.236   2.736  -0.806  0.00  0.00    +0.000 A 
ATOM     34  C   UNL     1      -7.203   1.744  -0.875  0.00  0.00    +0.000 A 
ATOM     35  C   UNL     1      -7.043   0.565  -0.157  0.00  0.00    +0.000 A 
ATOM     36  C   UNL     1      -5.946   0.477   0.691  0.00  0.00    +0.000 A 
ATOM     37  C   UNL     1      -5.334   1.667   1.073  0.00  0.00    +0.000 A 
BRANCH  35  38
ATOM     38  C   UNL     1      -8.089  -0.439  -0.117  0.00  0.00    +0.000 C 
ATOM     39  N   UNL     1      -7.776  -1.665   0.139  0.00  0.00    +0.000 NA
ATOM     40  N   UNL     1      -9.447  -0.036  -0.205  0.00  0.00    +0.000 N 
ATOM     41  H   UNL     1      -6.829  -1.930   0.197  0.00  0.00    +0.000 HD
ATOM     42  H   UNL     1      -9.671   0.903  -0.401  0.00  0.00    +0.000 HD
ATOM     43  H   UNL     1     -10.166  -0.695  -0.070  0.00  0.00    +0.000 HD
ENDBRANCH  35  38
ENDBRANCH  31  32
ENDBRANCH  29  31
ENDBRANCH   1  27
BRANCH   1  44
ATOM     44  C   UNL     1      -1.654   0.484  -1.923  0.00  0.00    +0.000 C 
BRANCH  44  45
ATOM     45  C   UNL     1      -2.660   0.017  -1.027  0.00  0.00    +0.000 C 
BRANCH  45  46
ATOM     46  C   UNL     1      -3.020  -1.321  -0.724  0.00  0.00    +0.000 C 
ATOM     47  N   UNL     1      -4.220  -1.676  -1.098  0.00  0.00    +0.000 NA
ATOM     48  N   UNL     1      -2.561  -1.848   0.534  0.00  0.00    +0.000 N 
ATOM     49  H   UNL     1      -4.588  -1.346  -1.950  0.00  0.00    +0.000 HD
ATOM     50  H   UNL     1      -1.665  -1.615   0.867  0.00  0.00    +0.000 HD
ATOM     51  H   UNL     1      -3.144  -2.442   1.061  0.00  0.00    +0.000 HD
ENDBRANCH  45  46
ENDBRANCH  44  45
ENDBRANCH   1  44
TORSDOF 17
