REMARK  Name = 
REMARK  25 active torsions:
REMARK  status: ('A' for Active; 'I' for Inactive)
REMARK    1  A    between atoms: C_1  and  C_2
REMARK    2  A    between atoms: C_2  and  O_3
REMARK    3  A    between atoms: O_3  and  C_4
REMARK    4  A    between atoms: C_4  and  C_6
REMARK    5  A    between atoms: C_7  and  C_8
REMARK    6  A    between atoms: C_8  and  C_9
REMARK    7  A    between atoms: C_8  and  N_16
REMARK    8  A    between atoms: C_9  and  C_10
REMARK    9  A    between atoms: C_17  and  C_19
REMARK   10  A    between atoms: C_19  and  C_20
REMARK   11  A    between atoms: C_19  and  N_24
REMARK   12  A    between atoms: C_20  and  C_21
REMARK   13  A    between atoms: C_21  and  C_22
REMARK   14  A    between atoms: C_21  and  C_23
REMARK   15  A    between atoms: C_25  and  C_27
REMARK   16  A    between atoms: C_27  and  N_28
REMARK   17  A    between atoms: C_27  and  C_43
REMARK   18  A    between atoms: C_29  and  C_31
REMARK   19  A    between atoms: C_31  and  N_32
REMARK   20  A    between atoms: C_31  and  C_40
REMARK   21  A    between atoms: C_33  and  C_35
REMARK   22  A    between atoms: C_40  and  C_41
REMARK   23  A    between atoms: C_40  and  C_42
REMARK   24  A    between atoms: C_43  and  C_44
REMARK   25  A    between atoms: C_43  and  C_45
REMARK                            x       y       z     vdW  Elec       q    Type
REMARK                         _______ _______ _______ _____ _____    ______ ____
ROOT
ATOM      1  C   UNL     1      -1.085  -0.222   0.521  0.00  0.00    +0.000 C 
ENDROOT
BRANCH   1   3
ATOM      2  N   UNL     1      -3.616  -0.652   0.330  0.00  0.00    +0.000 N 
ATOM      3  C   UNL     1      -2.339  -0.868  -0.289  0.00  0.00    +0.000 C 
ATOM      4  O   UNL     1      -2.227  -1.927  -0.859  0.00  0.00    +0.000 OA
ATOM      5  H   UNL     1      -3.844  -0.722   1.285  0.00  0.00    +0.000 HD
BRANCH   2   6
ATOM      6  C   UNL     1      -4.580  -0.274  -0.884  0.00  0.00    +0.000 C 
BRANCH   6   8
ATOM      7  C   UNL     1      -4.939   1.709   0.352  0.00  0.00    +0.000 C 
ATOM      8  C   UNL     1      -5.580   0.564   0.105  0.00  0.00    +0.000 C 
BRANCH   7   9
ATOM      9  C   UNL     1      -5.580   2.982   0.593  0.00  0.00    +0.000 C 
ATOM     10  O   UNL     1      -5.284   3.586   1.668  0.00  0.00    +0.000 OA
BRANCH   9  11
ATOM     11  O   UNL     1      -6.782   3.358   0.013  0.00  0.00    +0.000 OA
BRANCH  11  13
ATOM     12  C   UNL     1      -7.103   5.581  -0.571  0.00  0.00    +0.000 C 
ATOM     13  C   UNL     1      -7.422   4.591   0.314  0.00  0.00    +0.000 C 
ENDBRANCH  11  13
ENDBRANCH   9  11
ENDBRANCH   7   9
ENDBRANCH   6   8
BRANCH   6  14
ATOM     14  C   UNL     1      -5.538  -1.631  -0.833  0.00  0.00    +0.000 C 
BRANCH  14  15
ATOM     15  C   UNL     1      -5.195  -2.275   0.638  0.00  0.00    +0.000 C 
ATOM     16  C   UNL     1      -5.228  -3.825   0.066  0.00  0.00    +0.000 C 
ATOM     17  C   UNL     1      -6.513  -3.797  -0.710  0.00  0.00    +0.000 C 
ATOM     18  N   UNL     1      -7.412  -2.965   0.031  0.00  0.00    +0.000 N 
ATOM     19  C   UNL     1      -6.754  -2.342   1.071  0.00  0.00    +0.000 C 
ATOM     20  O   UNL     1      -7.056  -1.660   2.064  0.00  0.00    +0.000 OA
ATOM     21  H   UNL     1      -8.368  -2.853  -0.173  0.00  0.00    +0.000 HD
ENDBRANCH  14  15
ENDBRANCH   6  14
ENDBRANCH   2   6
ENDBRANCH   1   3
BRANCH   1  22
ATOM     22  N   UNL     1       0.019  -1.225  -0.045  0.00  0.00    +0.000 N 
ATOM     23  C   UNL     1       1.002  -1.582   0.959  0.00  0.00    +0.000 C 
ATOM     24  O   UNL     1       0.454  -2.220   1.860  0.00  0.00    +0.000 OA
ATOM     25  H   UNL     1       0.032  -1.563  -0.969  0.00  0.00    +0.000 HD
BRANCH  23  26
ATOM     26  C   UNL     1       2.170  -2.323   0.091  0.00  0.00    +0.000 C 
BRANCH  26  27
ATOM     27  N   UNL     1       3.342  -1.474   0.755  0.00  0.00    +0.000 N 
ATOM     28  C   UNL     1       3.691  -0.256   0.309  0.00  0.00    +0.000 C 
ATOM     29  O   UNL     1       2.783   0.446  -0.237  0.00  0.00    +0.000 OA
ATOM     30  H   UNL     1       3.829  -1.855   1.521  0.00  0.00    +0.000 HD
BRANCH  28  31
ATOM     31  C   UNL     1       5.055   0.019  -0.540  0.00  0.00    +0.000 C 
BRANCH  31  32
ATOM     32  N   UNL     1       5.689   0.908   0.626  0.00  0.00    +0.000 N 
ATOM     33  C   UNL     1       6.146   2.184   0.194  0.00  0.00    +0.000 C 
ATOM     34  O   UNL     1       5.180   2.862  -0.280  0.00  0.00    +0.000 OA
ATOM     35  H   UNL     1       5.758   0.600   1.559  0.00  0.00    +0.000 HD
BRANCH  33  36
ATOM     36  C   UNL     1       7.500   2.678   0.239  0.00  0.00    +0.000 A 
ATOM     37  C   UNL     1       8.692   2.171  -0.267  0.00  0.00    +0.000 A 
ATOM     38  C   UNL     1       9.357   3.212  -0.906  0.00  0.00    +0.000 A 
ATOM     39  O   UNL     1       8.953   4.272  -0.253  0.00  0.00    +0.000 OA
ATOM     40  C   UNL     1       7.800   4.034   0.349  0.00  0.00    +0.000 A 
ENDBRANCH  33  36
ENDBRANCH  31  32
BRANCH  31  41
ATOM     41  C   UNL     1       5.825  -1.373  -0.059  0.00  0.00    +0.000 C 
ATOM     42  C   UNL     1       6.923  -1.076   0.837  0.00  0.00    +0.000 C 
ATOM     43  C   UNL     1       6.442  -1.746  -1.405  0.00  0.00    +0.000 C 
ENDBRANCH  31  41
ENDBRANCH  28  31
ENDBRANCH  26  27
BRANCH  26  44
ATOM     44  C   UNL     1       2.440  -3.572   1.154  0.00  0.00    +0.000 C 
ATOM     45  C   UNL     1       1.489  -4.627   0.882  0.00  0.00    +0.000 C 
ATOM     46  C   UNL     1       2.723  -3.060   2.463  0.00  0.00    +0.000 C 
ENDBRANCH  26  44
ENDBRANCH  23  26
ENDBRANCH   1  22
BRANCH   1  47
ATOM     47  C   UNL     1      -0.765   0.886  -0.681  0.00  0.00    +0.000 C 
BRANCH  47  48
ATOM     48  C   UNL     1      -1.062   0.236  -1.976  0.00  0.00    +0.000 C 
ATOM     49  C   UNL     1      -1.656   1.248  -2.939  0.00  0.00    +0.000 C 
ATOM     50  C   UNL     1       0.042  -0.553  -2.596  0.00  0.00    +0.000 C 
ENDBRANCH  47  48
ENDBRANCH   1  47
TORSDOF 18
