REMARK  Name = 
REMARK  36 active torsions:
REMARK  status: ('A' for Active; 'I' for Inactive)
REMARK    1  A    between atoms: C_1  and  C_2
REMARK    2  A    between atoms: N_4  and  C_5
REMARK    3  A    between atoms: C_11  and  O_12
REMARK    4  A    between atoms: O_12  and  C_13
REMARK    5  A    between atoms: C_15  and  C_16
REMARK    6  A    between atoms: C_16  and  O_17
REMARK    7  A    between atoms: C_18  and  O_19
REMARK    8  A    between atoms: C_20  and  O_21
REMARK    9  A    between atoms: C_22  and  N_23
REMARK   10  A    between atoms: C_24  and  C_25
REMARK   11  A    between atoms: C_27  and  O_28
REMARK   12  A    between atoms: O_28  and  C_29
REMARK   13  A    between atoms: C_29  and  C_30
REMARK   14  A    between atoms: C_29  and  C_31
REMARK   15  A    between atoms: N_33  and  C_34
REMARK   16  A    between atoms: C_34  and  C_35
REMARK   17  A    between atoms: C_34  and  C_36
REMARK   18  A    between atoms: N_38  and  C_39
REMARK   19  A    between atoms: C_39  and  C_40
REMARK   20  A    between atoms: C_39  and  C_62
REMARK   21  A    between atoms: C_40  and  C_41
REMARK   22  A    between atoms: C_41  and  C_42
REMARK   23  A    between atoms: N_44  and  C_45
REMARK   24  A    between atoms: C_45  and  C_46
REMARK   25  A    between atoms: C_45  and  C_54
REMARK   26  A    between atoms: C_46  and  C_47
REMARK   27  A    between atoms: C_47  and  C_48
REMARK   28  A    between atoms: C_48  and  C_49
REMARK   29  A    between atoms: C_49  and  N_50
REMARK   30  A    between atoms: C_49  and  C_51
REMARK   31  A    between atoms: C_51  and  O_53
REMARK   32  A    between atoms: N_56  and  C_57
REMARK   33  A    between atoms: C_57  and  C_58
REMARK   34  A    between atoms: C_57  and  C_59
REMARK   35  A    between atoms: C_59  and  O_61
REMARK   36  A    between atoms: C_62  and  O_64
REMARK                            x       y       z     vdW  Elec       q    Type
REMARK                         _______ _______ _______ _____ _____    ______ ____
ROOT
ATOM      1  C   UNK A   0      -2.110  -0.354  -1.444  0.00  0.00    +0.000 C 
ATOM      2  O   UNK A   0      -2.220   0.737  -2.094  0.00  0.00    +0.000 OA
ATOM      3  N   UNK A   1      -0.956  -0.616  -0.826  0.00  0.00    +0.000 N 
ATOM      4  H   UNK A   1      -0.791  -1.432  -0.301  0.00  0.00    +0.000 HD
ENDROOT
BRANCH   1   5
ATOM      5  C   UNK A   0      -3.052  -1.335  -2.308  0.00  0.00    +0.000 C 
ATOM      6  C   UNK A   0      -1.932  -2.545  -2.311  0.00  0.00    +0.000 C 
BRANCH   5   7
ATOM      7  O   UNK A   0      -3.817  -1.882  -1.107  0.00  0.00    +0.000 OA
BRANCH   7  15
ATOM      8  C   UNK A   0      -4.009  -0.014   0.241  0.00  0.00    +0.000 C 
ATOM      9  C   UNK A   0      -4.108  -0.842   1.722  0.00  0.00    +0.000 C 
ATOM     10  O   UNK A   0      -3.583  -2.175   1.252  0.00  0.00    +0.000 OA
ATOM     11  C   UNK A   0      -4.371  -2.896   0.740  0.00  0.00    +0.000 C 
ATOM     12  C   UNK A   0      -5.850  -2.351   1.069  0.00  0.00    +0.000 C 
ATOM     13  O   UNK A   0      -5.545  -1.052   1.650  0.00  0.00    +0.000 OA
ATOM     14  C   UNK A   0      -6.191  -1.660  -0.450  0.00  0.00    +0.000 C 
ATOM     15  C   UNK A   0      -4.861  -0.777  -0.976  0.00  0.00    +0.000 C 
BRANCH   8  19
ATOM     16  C   UNK A   0      -5.505   3.414  -0.415  0.00  0.00    +0.000 C 
ATOM     17  C   UNK A   0      -5.136   2.031  -0.548  0.00  0.00    +0.000 C 
ATOM     18  O   UNK A   0      -4.959   1.675  -1.761  0.00  0.00    +0.000 OA
ATOM     19  N   UNK A   0      -5.104   1.077   0.540  0.00  0.00    +0.000 N 
ATOM     20  H   UNK A   0      -5.677   1.105   1.340  0.00  0.00    +0.000 HD
ENDBRANCH   8  19
BRANCH  14  21
ATOM     21  O   UNK A   0      -6.865  -0.432   0.116  0.00  0.00    +0.000 OA
BRANCH  21  22
ATOM     22  C   UNK A   0      -8.341  -0.722  -0.108  0.00  0.00    +0.000 C 
ATOM     23  O   UNK A   0      -8.271  -0.110  -1.438  0.00  0.00    +0.000 OA
ATOM     24  C   UNK A   0      -9.033   1.061  -1.855  0.00  0.00    +0.000 C 
ATOM     25  C   UNK A   0     -10.577   0.830  -1.161  0.00  0.00    +0.000 C 
ATOM     26  C   UNK A   0     -10.340   0.278   0.409  0.00  0.00    +0.000 C 
ATOM     27  C   UNK A   0      -8.751   0.756   0.643  0.00  0.00    +0.000 C 
BRANCH  27  28
ATOM     28  N   UNK A   0      -8.712   0.340   2.110  0.00  0.00    +0.000 N 
ATOM     29  C   UNK A   0      -8.946  -0.840   2.700  0.00  0.00    +0.000 C 
ATOM     30  C   UNK A   0      -8.112  -1.017   3.947  0.00  0.00    +0.000 C 
ATOM     31  O   UNK A   0      -9.290  -1.759   1.960  0.00  0.00    +0.000 OA
ATOM     32  H   UNK A   0      -8.474   1.065   2.732  0.00  0.00    +0.000 HD
ENDBRANCH  27  28
BRANCH  25  33
ATOM     33  O   UNK A   0     -10.619  -0.589  -1.679  0.00  0.00    +0.000 OA
ATOM     34  H   UNK A   0      -9.822  -1.062  -1.391  0.00  0.00    +0.000 HD
ENDBRANCH  25  33
BRANCH  26  35
ATOM     35  O   UNK A   0     -10.802   1.591   0.989  0.00  0.00    +0.000 OA
ATOM     36  H   UNK A   0     -10.332   2.320   0.554  0.00  0.00    +0.000 HD
ENDBRANCH  26  35
BRANCH  24  37
ATOM     37  C   UNK A   0      -8.487   2.240  -0.830  0.00  0.00    +0.000 C 
BRANCH  37  38
ATOM     38  O   UNK A   0      -8.278   3.352  -1.593  0.00  0.00    +0.000 OA
ATOM     39  H   UNK A   0      -7.635   3.150  -2.290  0.00  0.00    +0.000 HD
ENDBRANCH  37  38
ENDBRANCH  24  37
ENDBRANCH  21  22
ENDBRANCH  14  21
ENDBRANCH   7  15
ENDBRANCH   5   7
ENDBRANCH   1   5
BRANCH   3  40
ATOM     40  C   UNK A   1       0.122   0.533  -1.030  0.00  0.00    +0.000 C 
ATOM     41  C   UNK A   1      -0.659   1.607  -0.055  0.00  0.00    +0.000 C 
BRANCH  40  42
ATOM     42  C   UNK A   1       1.104  -0.027   0.120  0.00  0.00    +0.000 C 
ATOM     43  O   UNK A   1       1.438   0.704   1.093  0.00  0.00    +0.000 OA
ATOM     44  N   UNK A   2       2.293   0.122  -0.697  0.00  0.00    +0.000 N 
ATOM     45  H   UNK A   2       2.327   0.744  -1.459  0.00  0.00    +0.000 HD
BRANCH  44  46
ATOM     46  C   UNK A   2       3.521  -0.765  -0.293  0.00  0.00    +0.000 C 
BRANCH  46  47
ATOM     47  C   UNK A   2       4.479   0.147  -1.232  0.00  0.00    +0.000 C 
ATOM     48  O   UNK A   2       4.413   1.357  -0.994  0.00  0.00    +0.000 OA
BRANCH  47  49
ATOM     49  O   UNK A   2       4.137  -0.089  -2.578  0.00  0.00    +0.000 OA
ATOM     50  H   UNK A   2       4.140  -0.963  -2.915  0.00  0.00    +0.000 HD
ENDBRANCH  47  49
ENDBRANCH  46  47
BRANCH  46  51
ATOM     51  C   UNK A   2       3.922   0.011   1.108  0.00  0.00    +0.000 C 
BRANCH  51  52
ATOM     52  C   UNK A   2       4.729  -0.979   1.924  0.00  0.00    +0.000 C 
BRANCH  52  53
ATOM     53  C   UNK A   2       5.764  -1.693   1.113  0.00  0.00    +0.000 C 
ATOM     54  O   UNK A   2       5.394  -2.469   0.160  0.00  0.00    +0.000 OA
ATOM     55  N   UNK A   2       7.009  -1.970   1.646  0.00  0.00    +0.000 N 
ATOM     56  H   UNK A   2       7.138  -1.930   2.621  0.00  0.00    +0.000 HD
BRANCH  55  57
ATOM     57  C   UNK A   1       8.223  -2.350   0.717  0.00  0.00    +0.000 C 
BRANCH  57  58
ATOM     58  C   UNK A   1       9.142  -1.178   1.358  0.00  0.00    +0.000 C 
ATOM     59  O   UNK A   1       9.453  -1.690   2.490  0.00  0.00    +0.000 OA
ATOM     60  N   UNK A   2       8.526   0.071   1.558  0.00  0.00    +0.000 N 
ATOM     61  H   UNK A   2       7.656   0.338   1.182  0.00  0.00    +0.000 HD
BRANCH  60  62
ATOM     62  C   UNK A   2       9.430   0.979   2.469  0.00  0.00    +0.000 C 
ATOM     63  C   UNK A   2       8.667   2.350   1.981  0.00  0.00    +0.000 C 
BRANCH  62  64
ATOM     64  C   UNK A   2      10.600   1.159   1.375  0.00  0.00    +0.000 C 
ATOM     65  O   UNK A   2      11.349   2.094   1.792  0.00  0.00    +0.000 OA
BRANCH  64  66
ATOM     66  O   UNK A   2      10.225   1.253   0.067  0.00  0.00    +0.000 OA
ATOM     67  H   UNK A   2       9.673   0.598  -0.311  0.00  0.00    +0.000 HD
ENDBRANCH  64  66
ENDBRANCH  62  64
ENDBRANCH  60  62
ENDBRANCH  57  58
BRANCH  57  68
ATOM     68  C   UNK A   1       7.673  -1.553  -0.595  0.00  0.00    +0.000 C 
BRANCH  68  69
ATOM     69  C   UNK A   1       8.281  -0.366  -0.932  0.00  0.00    +0.000 C 
BRANCH  69  70
ATOM     70  C   UNK A   1       8.540   0.101  -2.258  0.00  0.00    +0.000 C 
BRANCH  70  71
ATOM     71  C   UNK A   1       9.046   1.658  -2.279  0.00  0.00    +0.000 C 
BRANCH  71  72
ATOM     72  N   UNK A   1       8.901   1.910  -0.729  0.00  0.00    +0.000 NA
ATOM     73  H   UNK A   1       9.336   1.143  -0.218  0.00  0.00    +0.000 HD
ATOM     74  H   UNK A   1       7.912   1.964  -0.485  0.00  0.00    +0.000 HD
ENDBRANCH  71  72
BRANCH  71  75
ATOM     75  C   UNK A   1      10.609   1.311  -2.120  0.00  0.00    +0.000 C 
ATOM     76  O   UNK A   1      11.318   2.262  -1.704  0.00  0.00    +0.000 OA
BRANCH  75  77
ATOM     77  O   UNK A   1      11.085   0.083  -2.245  0.00  0.00    +0.000 OA
ATOM     78  H   UNK A   1      10.531  -0.605  -2.558  0.00  0.00    +0.000 HD
ENDBRANCH  75  77
ENDBRANCH  71  75
ENDBRANCH  70  71
ENDBRANCH  69  70
ENDBRANCH  68  69
ENDBRANCH  57  68
ENDBRANCH  55  57
ENDBRANCH  52  53
ENDBRANCH  51  52
ENDBRANCH  46  51
ENDBRANCH  44  46
ENDBRANCH  40  42
ENDBRANCH   3  40
TORSDOF 31
