REMARK  Name = 
REMARK  20 active torsions:
REMARK  status: ('A' for Active; 'I' for Inactive)
REMARK    1  A    between atoms: C_1  and  C_2
REMARK    2  A    between atoms: C_2  and  O_3
REMARK    3  A    between atoms: O_3  and  C_4
REMARK    4  A    between atoms: C_4  and  C_6
REMARK    5  A    between atoms: C_7  and  C_8
REMARK    6  A    between atoms: C_8  and  C_9
REMARK    7  A    between atoms: C_8  and  N_16
REMARK    8  A    between atoms: C_9  and  C_10
REMARK    9  A    between atoms: C_17  and  C_19
REMARK   10  A    between atoms: C_19  and  C_20
REMARK   11  A    between atoms: C_19  and  C_36
REMARK   12  A    between atoms: C_20  and  C_21
REMARK   13  A    between atoms: C_21  and  C_23
REMARK   14  A    between atoms: C_23  and  N_24
REMARK   15  A    between atoms: C_23  and  C_33
REMARK   16  A    between atoms: C_25  and  C_27
REMARK   17  A    between atoms: C_29  and  C_30
REMARK   18  A    between atoms: C_33  and  C_34
REMARK   19  A    between atoms: C_33  and  C_35
REMARK   20  A    between atoms: C_36  and  C_37
REMARK                            x       y       z     vdW  Elec       q    Type
REMARK                         _______ _______ _______ _____ _____    ______ ____
ROOT
ATOM      1  C   UNL     1       0.051  -1.369   0.637  0.00  0.00    +0.000 C 
ENDROOT
BRANCH   1   3
ATOM      2  N   UNL     1      -2.370  -1.433   1.303  0.00  0.00    +0.000 N 
ATOM      3  C   UNL     1      -1.140  -0.960   1.663  0.00  0.00    +0.000 C 
ATOM      4  O   UNL     1      -1.048   0.194   2.125  0.00  0.00    +0.000 OA
ATOM      5  H   UNL     1      -2.453  -2.380   1.049  0.00  0.00    +0.000 HD
BRANCH   2   6
ATOM      6  C   UNL     1      -3.673  -0.522   1.273  0.00  0.00    +0.000 C 
BRANCH   6   8
ATOM      7  C   UNL     1      -4.361  -1.495  -0.801  0.00  0.00    +0.000 C 
ATOM      8  C   UNL     1      -3.651  -0.504  -0.364  0.00  0.00    +0.000 C 
BRANCH   7   9
ATOM      9  C   UNL     1      -5.443  -1.417  -1.779  0.00  0.00    +0.000 C 
ATOM     10  O   UNL     1      -6.185  -2.445  -1.804  0.00  0.00    +0.000 OA
BRANCH   9  11
ATOM     11  O   UNL     1      -6.035  -0.242  -2.197  0.00  0.00    +0.000 OA
BRANCH  11  13
ATOM     12  C   UNL     1      -7.764   0.740  -1.031  0.00  0.00    +0.000 C 
ATOM     13  C   UNL     1      -7.444  -0.058  -2.058  0.00  0.00    +0.000 C 
ENDBRANCH  11  13
ENDBRANCH   9  11
ENDBRANCH   7   9
ENDBRANCH   6   8
BRANCH   6  14
ATOM     14  C   UNL     1      -2.892   0.940   1.405  0.00  0.00    +0.000 C 
BRANCH  14  15
ATOM     15  C   UNL     1      -3.605   1.769   0.169  0.00  0.00    +0.000 C 
ATOM     16  C   UNL     1      -2.987   3.204   0.692  0.00  0.00    +0.000 C 
ATOM     17  C   UNL     1      -3.289   3.134   2.151  0.00  0.00    +0.000 C 
ATOM     18  N   UNL     1      -4.607   2.579   2.188  0.00  0.00    +0.000 N 
ATOM     19  C   UNL     1      -4.984   1.983   0.990  0.00  0.00    +0.000 C 
ATOM     20  O   UNL     1      -5.992   2.147   0.235  0.00  0.00    +0.000 OA
ATOM     21  H   UNL     1      -5.189   2.616   2.981  0.00  0.00    +0.000 HD
ENDBRANCH  14  15
ENDBRANCH   6  14
ENDBRANCH   2   6
ENDBRANCH   1   3
BRANCH   1  22
ATOM     22  C   UNL     1       1.230  -1.226   1.780  0.00  0.00    +0.000 C 
BRANCH  22  23
ATOM     23  C   UNL     1       2.344  -0.809   0.854  0.00  0.00    +0.000 C 
ATOM     24  O   UNL     1       2.991  -1.711   0.336  0.00  0.00    +0.000 OA
BRANCH  23  25
ATOM     25  C   UNL     1       3.396   0.232   1.547  0.00  0.00    +0.000 C 
BRANCH  25  26
ATOM     26  N   UNL     1       4.034   0.640   0.145  0.00  0.00    +0.000 N 
ATOM     27  C   UNL     1       5.410   0.368   0.006  0.00  0.00    +0.000 C 
ATOM     28  O   UNL     1       5.802  -0.769   0.397  0.00  0.00    +0.000 OA
ATOM     29  H   UNL     1       3.504   1.054  -0.574  0.00  0.00    +0.000 HD
BRANCH  27  30
ATOM     30  C   UNL     1       6.463   1.388  -0.099  0.00  0.00    +0.000 A 
ATOM     31  C   UNL     1       6.458   2.574  -0.808  0.00  0.00    +0.000 A 
ATOM     32  C   UNL     1       7.183   3.471  -0.031  0.00  0.00    +0.000 A 
ATOM     33  C   UNL     1       7.149   4.940  -0.290  0.00  0.00    +0.000 C 
ATOM     34  O   UNL     1       7.621   2.848   1.021  0.00  0.00    +0.000 OA
ATOM     35  N   UNL     1       7.406   1.583   0.857  0.00  0.00    +0.000 NA
ENDBRANCH  27  30
ENDBRANCH  25  26
BRANCH  25  36
ATOM     36  C   UNL     1       2.292   1.472   1.458  0.00  0.00    +0.000 C 
ATOM     37  C   UNL     1       1.787   1.557   2.893  0.00  0.00    +0.000 C 
ATOM     38  C   UNL     1       3.148   2.704   1.234  0.00  0.00    +0.000 C 
ENDBRANCH  25  36
ENDBRANCH  23  25
ENDBRANCH  22  23
ENDBRANCH   1  22
BRANCH   1  39
ATOM     39  C   UNL     1      -0.166  -2.982   0.911  0.00  0.00    +0.000 C 
BRANCH  39  40
ATOM     40  C   UNL     1      -0.202  -3.594  -0.460  0.00  0.00    +0.000 A 
ATOM     41  C   UNL     1       0.894  -4.270  -0.995  0.00  0.00    +0.000 A 
ATOM     42  C   UNL     1       1.460  -3.860  -2.201  0.00  0.00    +0.000 A 
ATOM     43  C   UNL     1       0.818  -2.913  -2.997  0.00  0.00    +0.000 A 
ATOM     44  F   UNL     1       1.489  -1.890  -3.599  0.00  0.00    +0.000 F 
ATOM     45  C   UNL     1      -0.554  -2.884  -2.762  0.00  0.00    +0.000 A 
ATOM     46  C   UNL     1      -1.034  -3.115  -1.469  0.00  0.00    +0.000 A 
ENDBRANCH  39  40
ENDBRANCH   1  39
TORSDOF 16
