REMARK  Name = 
REMARK  20 active torsions:
REMARK  status: ('A' for Active; 'I' for Inactive)
REMARK    1  A    between atoms: C_1  and  C_2
REMARK    2  A    between atoms: C_2  and  O_3
REMARK    3  A    between atoms: O_3  and  C_4
REMARK    4  A    between atoms: C_4  and  C_6
REMARK    5  A    between atoms: C_6  and  N_7
REMARK    6  A    between atoms: C_6  and  C_32
REMARK    7  A    between atoms: C_8  and  C_10
REMARK    8  A    between atoms: C_10  and  C_11
REMARK    9  A    between atoms: C_10  and  N_20
REMARK   10  A    between atoms: C_11  and  S_12
REMARK   11  A    between atoms: S_12  and  C_13
REMARK   12  A    between atoms: C_13  and  C_14
REMARK   13  A    between atoms: C_21  and  C_23
REMARK   14  A    between atoms: C_23  and  C_24
REMARK   15  A    between atoms: C_24  and  C_25
REMARK   16  A    between atoms: C_25  and  N_26
REMARK   17  A    between atoms: C_25  and  C_27
REMARK   18  A    between atoms: C_27  and  O_29
REMARK   19  A    between atoms: O_29  and  C_30
REMARK   20  A    between atoms: C_30  and  C_31
REMARK                            x       y       z     vdW  Elec       q    Type
REMARK                         _______ _______ _______ _____ _____    ______ ____
ROOT
ATOM      1  C   UNL     1       0.031  -0.490   0.555  0.00  0.00    +0.000 C 
ENDROOT
BRANCH   1   3
ATOM      2  N   UNL     1      -2.208  -0.599  -0.702  0.00  0.00    +0.000 N 
ATOM      3  C   UNL     1      -1.397   0.225   0.157  0.00  0.00    +0.000 C 
ATOM      4  O   UNL     1      -1.891   0.491   1.304  0.00  0.00    +0.000 OA
ATOM      5  H   UNL     1      -1.883  -1.274  -1.341  0.00  0.00    +0.000 HD
BRANCH   2   6
ATOM      6  C   UNL     1      -3.751  -0.208  -0.421  0.00  0.00    +0.000 C 
BRANCH   6   7
ATOM      7  C   UNL     1      -4.154  -1.679   0.206  0.00  0.00    +0.000 A 
ATOM      8  C   UNL     1      -5.280  -1.431   0.993  0.00  0.00    +0.000 A 
ATOM      9  C   UNL     1      -5.714  -2.409   1.871  0.00  0.00    +0.000 A 
ATOM     10  C   UNL     1      -4.895  -3.518   2.036  0.00  0.00    +0.000 A 
ATOM     11  C   UNL     1      -3.591  -3.471   1.563  0.00  0.00    +0.000 A 
ATOM     12  C   UNL     1      -3.169  -2.361   0.844  0.00  0.00    +0.000 A 
ENDBRANCH   6   7
BRANCH   6  13
ATOM     13  C   UNL     1      -4.243  -0.643  -1.934  0.00  0.00    +0.000 C 
ATOM     14  O   UNL     1      -5.510  -0.530  -1.947  0.00  0.00    +0.000 OA
BRANCH  13  15
ATOM     15  O   UNL     1      -3.735  -1.816  -2.406  0.00  0.00    +0.000 OA
BRANCH  15  17
ATOM     16  C   UNL     1      -4.962  -2.884  -3.341  0.00  0.00    +0.000 C 
ATOM     17  C   UNL     1      -4.331  -2.384  -3.569  0.00  0.00    +0.000 C 
ENDBRANCH  15  17
ENDBRANCH  13  15
ENDBRANCH   6  13
ENDBRANCH   2   6
ENDBRANCH   1   3
BRANCH   1  18
ATOM     18  N   UNL     1       0.513  -0.538  -0.977  0.00  0.00    +0.000 N 
ATOM     19  C   UNL     1       1.942  -0.466  -1.092  0.00  0.00    +0.000 C 
ATOM     20  O   UNL     1       2.390   0.602  -0.570  0.00  0.00    +0.000 OA
ATOM     21  H   UNL     1      -0.098  -0.608  -1.745  0.00  0.00    +0.000 HD
BRANCH  19  22
ATOM     22  C   UNL     1       2.693  -1.094  -2.181  0.00  0.00    +0.000 C 
BRANCH  22  23
ATOM     23  C   UNL     1       4.155  -1.181  -1.996  0.00  0.00    +0.000 C 
BRANCH  23  24
ATOM     24  C   UNL     1       4.432  -1.167  -0.345  0.00  0.00    +0.000 C 
BRANCH  24  25
ATOM     25  N   UNL     1       5.269   0.202  -0.465  0.00  0.00    +0.000 NA
ATOM     26  H   UNL     1       5.938   0.125  -1.231  0.00  0.00    +0.000 HD
ATOM     27  H   UNL     1       5.768   0.373   0.407  0.00  0.00    +0.000 HD
ENDBRANCH  24  25
BRANCH  24  28
ATOM     28  C   UNL     1       5.815  -2.042  -0.434  0.00  0.00    +0.000 C 
ATOM     29  O   UNL     1       6.550  -1.846   0.558  0.00  0.00    +0.000 OA
BRANCH  28  30
ATOM     30  O   UNL     1       5.878  -3.070  -1.310  0.00  0.00    +0.000 OA
BRANCH  30  31
ATOM     31  C   UNL     1       7.204  -3.559  -1.540  0.00  0.00    +0.000 C 
ATOM     32  C   UNL     1       7.298  -5.034  -1.612  0.00  0.00    +0.000 C 
ENDBRANCH  30  31
ENDBRANCH  28  30
ENDBRANCH  24  28
ENDBRANCH  23  24
ENDBRANCH  22  23
ENDBRANCH  19  22
ENDBRANCH   1  18
BRANCH   1  33
ATOM     33  C   UNL     1       0.838   0.951   0.811  0.00  0.00    +0.000 C 
BRANCH  33  34
ATOM     34  S   UNL     1      -0.215   2.319   0.844  0.00  0.00    +0.000 S 
BRANCH  34  35
ATOM     35  C   UNL     1       0.122   3.296   2.339  0.00  0.00    +0.000 C 
BRANCH  35  36
ATOM     36  C   UNL     1       0.358   4.725   2.033  0.00  0.00    +0.000 A 
ATOM     37  C   UNL     1       1.472   5.199   1.386  0.00  0.00    +0.000 A 
ATOM     38  C   UNL     1       1.875   6.487   1.716  0.00  0.00    +0.000 A 
ATOM     39  C   UNL     1       1.030   7.348   2.407  0.00  0.00    +0.000 A 
ATOM     40  C   UNL     1      -0.215   6.912   2.847  0.00  0.00    +0.000 A 
ATOM     41  C   UNL     1      -0.604   5.664   2.371  0.00  0.00    +0.000 A 
ENDBRANCH  35  36
ENDBRANCH  34  35
ENDBRANCH  33  34
ENDBRANCH   1  33
TORSDOF 18
