REMARK  Name = 
REMARK  29 active torsions:
REMARK  status: ('A' for Active; 'I' for Inactive)
REMARK    1  A    between atoms: CD1_1  and  CG_2
REMARK    2  A    between atoms: CG_2  and  CD2_3
REMARK    3  A    between atoms: CG_2  and  CB_4
REMARK    4  A    between atoms: CB_4  and  CA_5
REMARK    5  A    between atoms: CA_5  and  N_6
REMARK    6  A    between atoms: CA_5  and  C_22
REMARK    7  A    between atoms: C_7  and  CA_9
REMARK    8  A    between atoms: CA_9  and  N_10
REMARK    9  A    between atoms: CA_9  and  CB_19
REMARK   10  A    between atoms: C_11  and  CA_13
REMARK   11  A    between atoms: CA_13  and  N_14
REMARK   12  A    between atoms: C_15  and  CA_17
REMARK   13  A    between atoms: CA_17  and  N_18
REMARK   14  A    between atoms: CB_19  and  CG1_20
REMARK   15  A    between atoms: CB_19  and  CG2_21
REMARK   16  A    between atoms: N_24  and  CA_25
REMARK   17  A    between atoms: CA_25  and  C_26
REMARK   18  A    between atoms: CA_25  and  CB_49
REMARK   19  A    between atoms: N_28  and  CA_29
REMARK   20  A    between atoms: CA_29  and  CB_30
REMARK   21  A    between atoms: CA_29  and  C_35
REMARK   22  A    between atoms: CB_30  and  CG_31
REMARK   23  A    between atoms: CG_31  and  CD_32
REMARK   24  A    between atoms: CA_41  and  C_42
REMARK   25  A    between atoms: N_44  and  CA_45
REMARK   26  A    between atoms: CA_45  and  C_46
REMARK   27  A    between atoms: C_46  and  OXT_48
REMARK   28  A    between atoms: CB_49  and  CG1_50
REMARK   29  A    between atoms: CB_49  and  CG2_51
REMARK                            x       y       z     vdW  Elec       q    Type
REMARK                         _______ _______ _______ _____ _____    ______ ____
ROOT
ATOM      1  CA  VAL A   5      -0.615  -2.189  -0.753  0.00  0.00    +0.000 C 
ENDROOT
BRANCH   1   4
ATOM      2  C   LEU A   4       1.346  -0.793  -0.883  0.00  0.00    +0.000 C 
ATOM      3  O   LEU A   4       2.012  -1.800  -1.052  0.00  0.00    +0.000 OA
ATOM      4  N   VAL A   5       0.001  -0.765  -0.438  0.00  0.00    +0.000 N 
ATOM      5  H   VAL A   5      -0.461  -0.006  -0.014  0.00  0.00    +0.000 HD
BRANCH   2   6
ATOM      6  CA  LEU A   4       2.074   0.645  -0.938  0.00  0.00    +0.000 C 
BRANCH   6   7
ATOM      7  N   LEU A   4       3.118   0.234   0.173  0.00  0.00    +0.000 N 
ATOM      8  C   VAL A   3       4.481   0.217  -0.246  0.00  0.00    +0.000 C 
ATOM      9  O   VAL A   3       4.527  -0.562  -1.203  0.00  0.00    +0.000 OA
ATOM     10  H   LEU A   4       2.847   0.005   1.092  0.00  0.00    +0.000 HD
BRANCH   8  11
ATOM     11  CA  VAL A   3       5.473  -0.079   0.984  0.00  0.00    +0.000 C 
BRANCH  11  12
ATOM     12  N   VAL A   3       6.781   0.297   0.197  0.00  0.00    +0.000 N 
ATOM     13  C   GLY A   2       7.448  -0.721  -0.476  0.00  0.00    +0.000 C 
ATOM     14  O   GLY A   2       6.781  -1.435  -1.249  0.00  0.00    +0.000 OA
ATOM     15  H   VAL A   3       7.117   1.222   0.182  0.00  0.00    +0.000 HD
BRANCH  13  16
ATOM     16  CA  GLY A   2       8.677  -0.406  -1.276  0.00  0.00    +0.000 C 
BRANCH  16  17
ATOM     17  N   GLY A   2       9.783  -0.036  -0.469  0.00  0.00    +0.000 N 
ATOM     18  C   GLY A   1      10.084   1.291  -0.107  0.00  0.00    +0.000 C 
ATOM     19  O   GLY A   1       9.101   2.088  -0.027  0.00  0.00    +0.000 OA
ATOM     20  H   GLY A   2      10.377  -0.750  -0.143  0.00  0.00    +0.000 HD
BRANCH  18  21
ATOM     21  CA  GLY A   1      11.418   1.918  -0.382  0.00  0.00    +0.000 C 
BRANCH  21  22
ATOM     22  N   GLY A   1      11.344   3.346  -0.109  0.00  0.00    +0.000 NA
ATOM     23  H1  GLY A   1      10.635   3.771  -0.708  0.00  0.00    +0.000 HD
ATOM     24  H2  GLY A   1      12.249   3.776  -0.297  0.00  0.00    +0.000 HD
ENDBRANCH  21  22
ENDBRANCH  18  21
ENDBRANCH  16  17
ENDBRANCH  13  16
ENDBRANCH  11  12
BRANCH  11  25
ATOM     25  CB  VAL A   3       5.249   1.462   1.537  0.00  0.00    +0.000 C 
ATOM     26  CG1 VAL A   3       5.619   2.387   0.436  0.00  0.00    +0.000 C 
ATOM     27  CG2 VAL A   3       6.058   1.628   2.758  0.00  0.00    +0.000 C 
ENDBRANCH  11  25
ENDBRANCH   8  11
ENDBRANCH   6   7
BRANCH   6  28
ATOM     28  CB  LEU A   4       2.981   0.185  -2.240  0.00  0.00    +0.000 C 
BRANCH  28  30
ATOM     29  CD1 LEU A   4       2.645   1.208  -3.032  0.00  0.00    +0.000 C 
ATOM     30  CG  LEU A   4       2.768   1.316  -3.147  0.00  0.00    +0.000 C 
ATOM     31  CD2 LEU A   4       2.741   2.688  -2.545  0.00  0.00    +0.000 C 
ENDBRANCH  28  30
ENDBRANCH   6  28
ENDBRANCH   2   6
ENDBRANCH   1   4
BRANCH   1  32
ATOM     32  C   VAL A   5      -2.056  -1.755  -0.203  0.00  0.00    +0.000 C 
ATOM     33  O   VAL A   5      -2.695  -1.073  -1.027  0.00  0.00    +0.000 OA
ATOM     34  N   GLN A   6      -2.284  -1.368   1.066  0.00  0.00    +0.000 N 
ATOM     35  H   GLN A   6      -1.546  -1.042   1.630  0.00  0.00    +0.000 HD
BRANCH  34  36
ATOM     36  CA  GLN A   6      -3.755  -1.444   1.636  0.00  0.00    +0.000 C 
BRANCH  36  37
ATOM     37  C   GLN A   6      -4.456  -2.033   0.303  0.00  0.00    +0.000 C 
ATOM     38  O   GLN A   6      -4.102  -3.257   0.360  0.00  0.00    +0.000 OA
ATOM     39  N   PRO A   7      -5.850  -1.853   0.142  0.00  0.00    +0.000 N 
ATOM     40  CD  PRO A   7      -6.434  -2.621  -0.962  0.00  0.00    +0.000 C 
ATOM     41  CG  PRO A   7      -6.050  -1.693  -2.079  0.00  0.00    +0.000 C 
ATOM     42  CB  PRO A   7      -6.098  -0.305  -1.634  0.00  0.00    +0.000 C 
ATOM     43  CA  PRO A   7      -6.481  -0.415  -0.034  0.00  0.00    +0.000 C 
BRANCH  43  44
ATOM     44  C   PRO A   7      -8.000  -0.919  -0.276  0.00  0.00    +0.000 C 
ATOM     45  O   PRO A   7      -8.373  -1.321  -1.357  0.00  0.00    +0.000 OA
ATOM     46  N   GLY A   8      -8.992  -0.006   0.252  0.00  0.00    +0.000 N 
ATOM     47  H   GLY A   8      -8.987   0.216   1.211  0.00  0.00    +0.000 HD
BRANCH  46  48
ATOM     48  CA  GLY A   8     -10.004   0.592  -0.625  0.00  0.00    +0.000 C 
BRANCH  48  49
ATOM     49  C   GLY A   8      -9.792   2.066  -0.653  0.00  0.00    +0.000 C 
ATOM     50  O   GLY A   8     -10.222   2.649   0.389  0.00  0.00    +0.000 OA
BRANCH  49  51
ATOM     51  OXT GLY A   8      -8.631   2.505  -1.290  0.00  0.00    +0.000 OA
ATOM     52  HXT GLY A   8      -8.324   2.066  -2.059  0.00  0.00    +0.000 HD
ENDBRANCH  49  51
ENDBRANCH  48  49
ENDBRANCH  46  48
ENDBRANCH  43  44
ENDBRANCH  36  37
BRANCH  36  53
ATOM     53  CB  GLN A   6      -4.098   0.114   1.227  0.00  0.00    +0.000 C 
BRANCH  53  54
ATOM     54  CG  GLN A   6      -3.278   0.868   2.272  0.00  0.00    +0.000 C 
BRANCH  54  55
ATOM     55  CD  GLN A   6      -3.251   2.287   1.810  0.00  0.00    +0.000 C 
ATOM     56  NE2 GLN A   6      -3.890   3.269   2.598  0.00  0.00    +0.000 N 
ATOM     57  OE1 GLN A   6      -2.721   2.593   0.718  0.00  0.00    +0.000 OA
ATOM     58 HE21 GLN A   6      -4.304   3.018   3.455  0.00  0.00    +0.000 HD
ATOM     59 HE22 GLN A   6      -3.922   4.203   2.291  0.00  0.00    +0.000 HD
ENDBRANCH  54  55
ENDBRANCH  53  54
ENDBRANCH  36  53
ENDBRANCH  34  36
ENDBRANCH   1  32
BRANCH   1  60
ATOM     60  CB  VAL A   5      -0.101  -2.848   0.654  0.00  0.00    +0.000 C 
ATOM     61  CG1 VAL A   5       0.278  -1.954   1.646  0.00  0.00    +0.000 C 
ATOM     62  CG2 VAL A   5      -0.558  -4.197   0.790  0.00  0.00    +0.000 C 
ENDBRANCH   1  60
TORSDOF 23
