REMARK  Name = 
REMARK  18 active torsions:
REMARK  status: ('A' for Active; 'I' for Inactive)
REMARK    1  A    between atoms: C_1  and  C_2
REMARK    2  A    between atoms: C_7  and  O_8
REMARK    3  A    between atoms: O_8  and  C_9
REMARK    4  A    between atoms: C_9  and  C_10
REMARK    5  A    between atoms: N_12  and  CA_13
REMARK    6  A    between atoms: CA_13  and  CB_14
REMARK    7  A    between atoms: CA_13  and  C_18
REMARK    8  A    between atoms: CB_14  and  CG_15
REMARK    9  A    between atoms: CG_15  and  CD1_16
REMARK   10  A    between atoms: CG_15  and  CD2_17
REMARK   11  A    between atoms: N_20  and  C_21
REMARK   12  A    between atoms: C_21  and  C_22
REMARK   13  A    between atoms: C_21  and  C_41
REMARK   14  A    between atoms: C_22  and  C_23
REMARK   15  A    between atoms: C_26  and  O_27
REMARK   16  A    between atoms: O_27  and  C_28
REMARK   17  A    between atoms: C_33  and  C_34
REMARK   18  A    between atoms: C_41  and  O_43
REMARK                            x       y       z     vdW  Elec       q    Type
REMARK                         _______ _______ _______ _____ _____    ______ ____
ROOT
ATOM      1  C   UNK A   2      -0.182   1.487   0.751  0.00  0.00    +0.000 C 
ENDROOT
BRANCH   1   4
ATOM      2  C   LEU A   1      -2.451   0.790  -0.145  0.00  0.00    +0.000 C 
ATOM      3  O   LEU A   1      -2.153   1.186  -1.298  0.00  0.00    +0.000 OA
ATOM      4  N   UNK A   2      -1.771   1.711   0.730  0.00  0.00    +0.000 N 
ATOM      5  H   UNK A   2      -2.232   2.403   1.257  0.00  0.00    +0.000 HD
BRANCH   2   6
ATOM      6  CA  LEU A   1      -4.040   0.875   0.246  0.00  0.00    +0.000 C 
BRANCH   6   9
ATOM      7  C   UNK A   0      -5.585  -0.455  -1.258  0.00  0.00    +0.000 C 
ATOM      8  O   UNK A   0      -5.156  -1.557  -0.791  0.00  0.00    +0.000 OA
ATOM      9  N   LEU A   1      -4.518   0.480  -1.236  0.00  0.00    +0.000 N 
ATOM     10  H   LEU A   1      -4.110   0.852  -2.051  0.00  0.00    +0.000 HD
BRANCH   7  11
ATOM     11  C   UNK A   0      -6.565  -0.533  -2.374  0.00  0.00    +0.000 C 
BRANCH  11  12
ATOM     12  O   UNK A   0      -7.684  -1.243  -1.855  0.00  0.00    +0.000 OA
BRANCH  12  19
ATOM     13  C   UNK A   0      -8.335  -2.246   0.708  0.00  0.00    +0.000 C 
ATOM     14  C   UNK A   0      -8.533  -0.899   0.352  0.00  0.00    +0.000 A 
ATOM     15  C   UNK A   0      -8.630   0.112   1.306  0.00  0.00    +0.000 A 
ATOM     16  C   UNK A   0      -8.933   1.408   0.916  0.00  0.00    +0.000 A 
ATOM     17  C   UNK A   0      -9.428   1.591  -0.348  0.00  0.00    +0.000 A 
ATOM     18  C   UNK A   0      -9.073   0.681  -1.323  0.00  0.00    +0.000 A 
ATOM     19  C   UNK A   0      -8.551  -0.562  -0.995  0.00  0.00    +0.000 A 
ENDBRANCH  12  19
ENDBRANCH  11  12
ENDBRANCH   7  11
ENDBRANCH   6   9
BRANCH   6  20
ATOM     20  CB  LEU A   1      -4.028  -0.714   0.785  0.00  0.00    +0.000 C 
BRANCH  20  21
ATOM     21  CG  LEU A   1      -2.895  -0.768   1.768  0.00  0.00    +0.000 C 
ATOM     22  CD1 LEU A   1      -3.432  -1.155   3.139  0.00  0.00    +0.000 C 
ATOM     23  CD2 LEU A   1      -1.997  -1.915   1.313  0.00  0.00    +0.000 C 
ENDBRANCH  20  21
ENDBRANCH   6  20
ENDBRANCH   2   6
ENDBRANCH   1   4
BRANCH   1  24
ATOM     24  C   UNK A   2       0.103   3.068   0.414  0.00  0.00    +0.000 C 
ATOM     25  O   UNK A   2       0.580   3.705   1.374  0.00  0.00    +0.000 OA
BRANCH  24  26
ATOM     26  O   UNK A   2      -0.224   3.533  -0.807  0.00  0.00    +0.000 OA
ATOM     27  H   UNK A   2      -0.578   2.951  -1.451  0.00  0.00    +0.000 HD
ENDBRANCH  24  26
ENDBRANCH   1  24
BRANCH   1  28
ATOM     28  C   UNK A   2      -0.066   1.014  -0.859  0.00  0.00    +0.000 C 
BRANCH  28  29
ATOM     29  C   UNK A   2       1.190   0.203  -0.881  0.00  0.00    +0.000 A 
ATOM     30  C   UNK A   2       1.604  -0.549   0.190  0.00  0.00    +0.000 A 
ATOM     31  C   UNK A   2       2.903  -1.034   0.254  0.00  0.00    +0.000 A 
ATOM     32  C   UNK A   2       3.777  -0.541  -0.703  0.00  0.00    +0.000 A 
ATOM     33  C   UNK A   2       3.310  -0.014  -1.902  0.00  0.00    +0.000 A 
ATOM     34  C   UNK A   2       1.962   0.293  -2.031  0.00  0.00    +0.000 A 
BRANCH  32  35
ATOM     35  O   UNK A   2       5.149  -0.624  -0.443  0.00  0.00    +0.000 OA
BRANCH  35  36
ATOM     36  C   UNK A   2       5.780   0.270   0.411  0.00  0.00    +0.000 C 
ATOM     37  O   UNK A   2       5.122   1.290   0.757  0.00  0.00    +0.000 OA
ATOM     38  N   UNK A   2       7.070   0.021   0.975  0.00  0.00    +0.000 N 
ATOM     39  C   UNK A   2       8.158   0.976   0.794  0.00  0.00    +0.000 C 
ATOM     40  C   UNK A   2       9.448   0.174   0.852  0.00  0.00    +0.000 C 
ATOM     41  C   UNK A   2       9.359  -0.955  -0.167  0.00  0.00    +0.000 C 
ATOM     42  C   UNK A   2       8.276  -1.912   0.256  0.00  0.00    +0.000 C 
ATOM     43  C   UNK A   2       7.446  -1.331   1.378  0.00  0.00    +0.000 C 
BRANCH  41  44
ATOM     44  C   UNK A   2      10.642  -1.677  -0.204  0.00  0.00    +0.000 C 
ATOM     45  N   UNK A   2      10.664  -3.042  -0.530  0.00  0.00    +0.000 N 
ATOM     46  O   UNK A   2      11.689  -1.140   0.200  0.00  0.00    +0.000 OA
ATOM     47  H   UNK A   2       9.846  -3.485  -0.851  0.00  0.00    +0.000 HD
ATOM     48  H   UNK A   2      11.499  -3.556  -0.438  0.00  0.00    +0.000 HD
ENDBRANCH  41  44
ENDBRANCH  35  36
ENDBRANCH  32  35
ENDBRANCH  28  29
ENDBRANCH   1  28
TORSDOF 15
