REMARK  Name = 
REMARK  37 active torsions:
REMARK  status: ('A' for Active; 'I' for Inactive)
REMARK    1  A    between atoms: CG_1  and  CB_41
REMARK    2  A    between atoms: CA_8  and  C_33
REMARK    3  A    between atoms: C_15  and  C_18
REMARK    4  A    between atoms: C_18  and  C_19
REMARK    5  A    between atoms: C_19  and  N_20
REMARK    6  A    between atoms: C_19  and  C_42
REMARK    7  A    between atoms: C_21  and  C_22
REMARK    8  A    between atoms: C_22  and  N_23
REMARK    9  A    between atoms: C_22  and  C_40
REMARK   10  A    between atoms: C_24  and  C_25
REMARK   11  A    between atoms: C_25  and  N_26
REMARK   12  A    between atoms: C_25  and  C_43
REMARK   13  A    between atoms: C_27  and  CA_28
REMARK   14  A    between atoms: CA_28  and  N_29
REMARK   15  A    between atoms: CA_28  and  CB_41
REMARK   16  A    between atoms: C_30  and  CA_31
REMARK   17  A    between atoms: CA_31  and  N_32
REMARK   18  A    between atoms: CA_31  and  CB_44
REMARK   19  A    between atoms: C_40  and  C_55
REMARK   20  A    between atoms: C_43  and  O_88
REMARK   21  A    between atoms: CB_44  and  CG_90
REMARK   22  A    between atoms: N_46  and  C_47
REMARK   23  A    between atoms: C_47  and  C_48
REMARK   24  A    between atoms: C_47  and  C_52
REMARK   25  A    between atoms: C_48  and  C_49
REMARK   26  A    between atoms: C_49  and  C_50
REMARK   27  A    between atoms: C_49  and  C_51
REMARK   28  A    between atoms: N_54  and  C_73
REMARK   29  A    between atoms: C_58  and  O_61
REMARK   30  A    between atoms: C_71  and  C_78
REMARK   31  A    between atoms: C_73  and  C_74
REMARK   32  A    between atoms: C_73  and  C_76
REMARK   33  A    between atoms: C_76  and  C_77
REMARK   34  A    between atoms: C_77  and  C_83
REMARK   35  A    between atoms: N_80  and  C_81
REMARK   36  A    between atoms: C_81  and  C_82
REMARK   37  A    between atoms: C_83  and  N_84
REMARK                            x       y       z     vdW  Elec       q    Type
REMARK                         _______ _______ _______ _____ _____    ______ ____
ROOT
ATOM      1  C   UNK A   4      -2.077  -2.534   0.000  0.00  0.00    +0.000 C 
ENDROOT
BRANCH   1   3
ATOM      2  N   UNK A   4      -3.497  -2.539   0.000  0.00  0.00    +0.000 N 
ATOM      3  C   UNK A   4      -2.785  -2.128   0.000  0.00  0.00    +0.000 C 
ATOM      4  O   UNK A   4      -2.785  -1.307   0.000  0.00  0.00    +0.000 OA
ATOM      5  H   UNK A   4      -3.496  -3.523   0.000  0.00  0.00    +0.000 HD
BRANCH   2   6
ATOM      6  C   UNK A   4      -4.205  -2.132   0.000  0.00  0.00    +0.000 C 
BRANCH   6   7
ATOM      7  C   UNK A   4      -4.205  -1.311   0.000  0.00  0.00    +0.000 C 
ATOM      8  O   UNK A   4      -4.921  -0.901   0.000  0.00  0.00    +0.000 OA
ATOM      9  N   UNK A   4      -3.501  -0.896   0.000  0.00  0.00    +0.000 N 
ATOM     10  H   UNK A   4      -2.647  -1.385   0.000  0.00  0.00    +0.000 HD
BRANCH   9  11
ATOM     11  C   UNK A   4      -3.501   0.352   0.000  0.00  0.00    +0.000 C 
BRANCH  11  12
ATOM     12  C   UNK A   4      -1.780   0.792   0.000  0.00  0.00    +0.000 C 
ATOM     13  O   UNK A   4      -0.837   0.411   0.000  0.00  0.00    +0.000 OA
ATOM     14  N   UNK A   4      -1.780   2.078   0.000  0.00  0.00    +0.000 N 
ATOM     15  H   UNK A   4      -2.647   2.543   0.000  0.00  0.00    +0.000 HD
BRANCH  14  16
ATOM     16  C   UNK A   4      -0.871   2.681   0.000  0.00  0.00    +0.000 C 
BRANCH  16  22
ATOM     17  C   UNK A   4       1.649   3.475   0.000  0.00  0.00    +0.000 C 
ATOM     18  C   UNK A   4       0.819   3.475   0.000  0.00  0.00    +0.000 C 
ATOM     19  N   UNK A   4       0.562   2.685   0.000  0.00  0.00    +0.000 N 
ATOM     20  C   UNK A   4       1.236   2.197   0.000  0.00  0.00    +0.000 C 
ATOM     21  C   UNK A   4       1.904   2.687   0.000  0.00  0.00    +0.000 C 
ATOM     22  C   UNK A   4      -0.154   2.266   0.000  0.00  0.00    +0.000 C 
ATOM     23  O   UNK A   4      -0.154   1.437   0.000  0.00  0.00    +0.000 OA
BRANCH  20  24
ATOM     24  C   UNK A   4       1.236   1.370   0.000  0.00  0.00    +0.000 C 
ATOM     25  O   UNK A   4       0.508   0.959   0.000  0.00  0.00    +0.000 OA
ATOM     26  N   UNK A   4       1.944   0.955   0.000  0.00  0.00    +0.000 N 
ATOM     27  H   UNK A   4       1.944  -0.029   0.000  0.00  0.00    +0.000 HD
BRANCH  26  28
ATOM     28  C   UNK A   4       2.661   1.374   0.000  0.00  0.00    +0.000 C 
ATOM     29  C   UNK A   4       3.377   0.959   0.000  0.00  0.00    +0.000 C 
ENDBRANCH  26  28
ENDBRANCH  20  24
ENDBRANCH  16  22
BRANCH  16  30
ATOM     30  C   UNK A   4      -0.871   3.510   0.000  0.00  0.00    +0.000 C 
BRANCH  30  31
ATOM     31  C   UNK A   4      -1.595   3.925   0.000  0.00  0.00    +0.000 C 
BRANCH  31  32
ATOM     32  C   UNK A   4      -2.316   3.515   0.000  0.00  0.00    +0.000 C 
BRANCH  32  33
ATOM     33  N   UNK A   4      -3.041   3.929   0.000  0.00  0.00    +0.000 N 
ATOM     34  C   UNK A   4      -3.041   4.759   0.000  0.00  0.00    +0.000 C 
ATOM     35  N   UNK A   4      -3.761   5.174   0.000  0.00  0.00    +0.000 N 
ATOM     36  N   UNK A   4      -2.324   5.178   0.000  0.00  0.00    +0.000 NA
ATOM     37  H   UNK A   4      -3.892   3.436   0.000  0.00  0.00    +0.000 HD
ATOM     38  H   UNK A   4      -3.762   6.158   0.000  0.00  0.00    +0.000 HD
ATOM     39  H   UNK A   4      -4.613   4.680   0.000  0.00  0.00    +0.000 HD
ATOM     40  H   UNK A   4      -1.469   4.690   0.000  0.00  0.00    +0.000 HD
ENDBRANCH  32  33
ENDBRANCH  31  32
ENDBRANCH  30  31
ENDBRANCH  16  30
ENDBRANCH  14  16
ENDBRANCH  11  12
BRANCH  11  41
ATOM     41  C   UNK A   4      -4.218   0.762   0.000  0.00  0.00    +0.000 C 
BRANCH  41  42
ATOM     42  C   UNK A   4      -4.218   1.583   0.000  0.00  0.00    +0.000 C 
ATOM     43  C   UNK A   4      -4.930   1.994   0.000  0.00  0.00    +0.000 C 
ATOM     44  C   UNK A   4      -3.510   1.998   0.000  0.00  0.00    +0.000 C 
ENDBRANCH  41  42
ENDBRANCH  11  41
ENDBRANCH   9  11
ENDBRANCH   6   7
BRANCH   6  45
ATOM     45  C   UNK A   4      -4.913  -2.543   0.000  0.00  0.00    +0.000 C 
BRANCH  45  52
ATOM     46  C   UNK A   4      -8.471  -1.324   0.000  0.00  0.00    +0.000 A 
ATOM     47  C   UNK A   4      -8.471  -2.147   0.000  0.00  0.00    +0.000 A 
ATOM     48  C   UNK A   4      -7.758  -2.558   0.000  0.00  0.00    +0.000 A 
ATOM     49  C   UNK A   4      -7.760  -0.913   0.000  0.00  0.00    +0.000 A 
ATOM     50  C   UNK A   4      -7.049  -1.320   0.000  0.00  0.00    +0.000 A 
ATOM     51  C   UNK A   4      -7.049  -2.145   0.000  0.00  0.00    +0.000 A 
ATOM     52  C   UNK A   4      -5.620  -2.145   0.000  0.00  0.00    +0.000 A 
ATOM     53  C   UNK A   4      -5.620  -1.314   0.000  0.00  0.00    +0.000 A 
ATOM     54  N   UNK A   4      -6.342  -0.900   0.000  0.00  0.00    +0.000 N 
ATOM     55  H   UNK A   4      -6.350   0.084   0.000  0.00  0.00    +0.000 HD
ENDBRANCH  45  52
ENDBRANCH   6  45
ENDBRANCH   2   6
ENDBRANCH   1   3
BRANCH   1  56
ATOM     56  N   UNK A   4      -1.369  -2.124   0.000  0.00  0.00    +0.000 N 
ATOM     57  C   UNK A   4      -0.657  -2.530   0.000  0.00  0.00    +0.000 C 
ATOM     58  O   UNK A   4      -0.657  -3.351   0.000  0.00  0.00    +0.000 OA
ATOM     59  H   UNK A   4      -1.373  -1.139   0.000  0.00  0.00    +0.000 HD
BRANCH  57  60
ATOM     60  C   UNK A   4       0.051  -2.120   0.000  0.00  0.00    +0.000 C 
BRANCH  60  61
ATOM     61  N   UNK A   4       0.759  -2.526   0.000  0.00  0.00    +0.000 N 
ATOM     62  C   TRP A   3       1.467  -2.116   0.000  0.00  0.00    +0.000 C 
ATOM     63  O   TRP A   3       1.467  -1.294   0.000  0.00  0.00    +0.000 OA
ATOM     64  H   UNK A   4       0.761  -3.511   0.000  0.00  0.00    +0.000 HD
BRANCH  62  65
ATOM     65  CA  TRP A   3       2.179  -2.522   0.000  0.00  0.00    +0.000 C 
BRANCH  65  66
ATOM     66  N   TRP A   3       2.887  -2.111   0.000  0.00  0.00    +0.000 N 
ATOM     67  C   HIS A   2       3.595  -2.518   0.000  0.00  0.00    +0.000 C 
ATOM     68  O   HIS A   2       3.595  -3.339   0.000  0.00  0.00    +0.000 OA
ATOM     69  H   TRP A   3       2.885  -1.127   0.000  0.00  0.00    +0.000 HD
BRANCH  67  70
ATOM     70  CA  HIS A   2       4.307  -2.107   0.000  0.00  0.00    +0.000 C 
BRANCH  70  71
ATOM     71  N   HIS A   2       5.015  -2.514   0.000  0.00  0.00    +0.000 N 
ATOM     72  C   GLN A   1       5.723  -2.103   0.000  0.00  0.00    +0.000 C 
ATOM     73  O   GLN A   1       5.723  -1.282   0.000  0.00  0.00    +0.000 OA
ATOM     74  H   HIS A   2       5.017  -3.498   0.000  0.00  0.00    +0.000 HD
BRANCH  72  79
ATOM     75  CB  GLN A   1       6.685  -3.289   0.000  0.00  0.00    +0.000 C 
ATOM     76  CG  GLN A   1       7.506  -3.289   0.000  0.00  0.00    +0.000 C 
ATOM     77  CD  GLN A   1       7.760  -2.509   0.000  0.00  0.00    +0.000 C 
ATOM     78  N   GLN A   1       7.096  -2.024   0.000  0.00  0.00    +0.000 N 
ATOM     79  CA  GLN A   1       6.431  -2.509   0.000  0.00  0.00    +0.000 C 
ATOM     80  OE1 GLN A   1       8.471  -2.095   0.000  0.00  0.00    +0.000 OA
ATOM     81  H   GLN A   1       7.095  -1.040   0.000  0.00  0.00    +0.000 HD
ENDBRANCH  72  79
ENDBRANCH  70  71
BRANCH  70  82
ATOM     82  CB  HIS A   2       4.307  -1.286   0.000  0.00  0.00    +0.000 C 
BRANCH  82  83
ATOM     83  CG  HIS A   2       4.723  -0.566   0.000  0.00  0.00    +0.000 A 
ATOM     84  ND1 HIS A   2       5.543  -0.696   0.000  0.00  0.00    +0.000 NA
ATOM     85  CE1 HIS A   2       5.921   0.044   0.000  0.00  0.00    +0.000 A 
ATOM     86  NE2 HIS A   2       5.333   0.631   0.000  0.00  0.00    +0.000 N 
ATOM     87  CD2 HIS A   2       4.593   0.254   0.000  0.00  0.00    +0.000 A 
ATOM     88  HE2 HIS A   2       5.487   1.604   0.000  0.00  0.00    +0.000 HD
ENDBRANCH  82  83
ENDBRANCH  70  82
ENDBRANCH  67  70
ENDBRANCH  65  66
BRANCH  65  89
ATOM     89  CB  TRP A   3       2.179  -3.343   0.000  0.00  0.00    +0.000 C 
BRANCH  89  90
ATOM     90  CG  TRP A   3       2.760  -3.931   0.000  0.00  0.00    +0.000 A 
ATOM     91  CD1 TRP A   3       2.760  -4.757   0.000  0.00  0.00    +0.000 A 
ATOM     92  NE1 TRP A   3       3.476  -5.178   0.000  0.00  0.00    +0.000 N 
ATOM     93  CD2 TRP A   3       4.192  -3.931   0.000  0.00  0.00    +0.000 A 
ATOM     94  CE2 TRP A   3       4.192  -4.757   0.000  0.00  0.00    +0.000 A 
ATOM     95  CZ2 TRP A   3       4.899  -5.172   0.000  0.00  0.00    +0.000 A 
ATOM     96  CH2 TRP A   3       5.615  -4.762   0.000  0.00  0.00    +0.000 A 
ATOM     97  CZ3 TRP A   3       5.615  -3.933   0.000  0.00  0.00    +0.000 A 
ATOM     98  CE3 TRP A   3       4.904  -3.522   0.000  0.00  0.00    +0.000 A 
ATOM     99  HE1 TRP A   3       3.476  -6.162   0.000  0.00  0.00    +0.000 HD
ENDBRANCH  89  90
ENDBRANCH  65  89
ENDBRANCH  62  65
ENDBRANCH  60  61
BRANCH  60 100
ATOM    100  C   UNK A   4       0.051  -1.299   0.000  0.00  0.00    +0.000 C 
BRANCH 100 101
ATOM    101  O   UNK A   4       0.763  -0.880   0.000  0.00  0.00    +0.000 OA
ATOM    102  H   UNK A   4       1.607  -1.358   0.000  0.00  0.00    +0.000 HD
ENDBRANCH 100 101
ENDBRANCH  60 100
ENDBRANCH  57  60
ENDBRANCH   1  56
BRANCH   1 103
ATOM    103  C   UNK A   4      -2.077  -3.356   0.000  0.00  0.00    +0.000 C 
BRANCH 103 104
ATOM    104  C   UNK A   4      -2.802  -3.766   0.000  0.00  0.00    +0.000 A 
ATOM    105  C   UNK A   4      -3.517  -3.344   0.000  0.00  0.00    +0.000 A 
ATOM    106  C   UNK A   4      -4.242  -3.754   0.000  0.00  0.00    +0.000 A 
ATOM    107  C   UNK A   4      -4.242  -4.584   0.000  0.00  0.00    +0.000 A 
ATOM    108  C   UNK A   4      -3.522  -5.003   0.000  0.00  0.00    +0.000 A 
ATOM    109  C   UNK A   4      -2.802  -4.591   0.000  0.00  0.00    +0.000 A 
BRANCH 107 110
ATOM    110  O   UNK A   4      -4.963  -4.994   0.000  0.00  0.00    +0.000 OA
ATOM    111  H   UNK A   4      -5.771  -4.519   0.000  0.00  0.00    +0.000 HD
ENDBRANCH 107 110
ENDBRANCH 103 104
ENDBRANCH   1 103
TORSDOF 34
