REMARK  Name = 
REMARK  20 active torsions:
REMARK  status: ('A' for Active; 'I' for Inactive)
REMARK    1  A    between atoms: C_1  and  C_2
REMARK    2  A    between atoms: C_1  and  C_3
REMARK    3  A    between atoms: C_16  and  C_19
REMARK    4  A    between atoms: C_17  and  C_73
REMARK    5  A    between atoms: C_19  and  C_22
REMARK    6  A    between atoms: C_22  and  C_27
REMARK    7  A    between atoms: O_24  and  C_73
REMARK    8  A    between atoms: C_27  and  N_31
REMARK    9  A    between atoms: C_29  and  C_32
REMARK   10  A    between atoms: C_32  and  C_36
REMARK   11  A    between atoms: C_44  and  C_48
REMARK   12  A    between atoms: C_48  and  C_53
REMARK   13  A    between atoms: C_55  and  N_59
REMARK   14  A    between atoms: C_62  and  C_63
REMARK   15  A    between atoms: C_63  and  C_65
REMARK   16  A    between atoms: C_63  and  N_66
REMARK   17  A    between atoms: C_65  and  C_67
REMARK   18  A    between atoms: C_67  and  C_69
REMARK   19  A    between atoms: C_68  and  C_70
REMARK   20  A    between atoms: C_69  and  C_72
REMARK                            x       y       z     vdW  Elec       q    Type
REMARK                         _______ _______ _______ _____ _____    ______ ____
ROOT
ATOM      1  C   UNK A   1      -2.518   0.000   0.000  0.00  0.00    +0.000 C 
ATOM      2  N   UNK A   1      -2.105  -0.714   0.000  0.00  0.00    +0.000 N 
ATOM      3  C   UNK A   1      -2.105   0.715   0.000  0.00  0.00    +0.000 C 
ATOM      4  O   UNK A   1      -1.280   0.715   0.000  0.00  0.00    +0.000 OA
ATOM      5  N   UNK A   2      -2.518   1.429   0.000  0.00  0.00    +0.000 N 
ATOM      6  O   UNK A   1      -0.868   0.000   0.000  0.00  0.00    +0.000 OA
ATOM      7  C   UNK A   1      -0.868  -1.429   0.000  0.00  0.00    +0.000 C 
ATOM      8  C   UNK A   2      -2.105   2.143   0.000  0.00  0.00    +0.000 C 
ATOM      9  N   UNK A   1      -0.043  -1.429   0.000  0.00  0.00    +0.000 N 
ATOM     10  C   UNK A   2      -2.223   2.965   0.000  0.00  0.00    +0.000 C 
ATOM     11  C   UNK A   1       0.370  -2.143   0.000  0.00  0.00    +0.000 C 
ATOM     12  C   UNK A   2      -1.509   3.377   0.000  0.00  0.00    +0.000 C 
ATOM     13  O   UNK A   1      -0.043  -2.858   0.000  0.00  0.00    +0.000 OA
ATOM     14  C   UNK A   1       1.195  -2.143   0.000  0.00  0.00    +0.000 C 
ATOM     15  C   UNK A   2      -0.868   2.858   0.000  0.00  0.00    +0.000 C 
ATOM     16  N   UNK A   1       1.607  -1.429   0.000  0.00  0.00    +0.000 N 
ATOM     17  C   UNK A   2      -0.043   2.858   0.000  0.00  0.00    +0.000 C 
ATOM     18  C   UNK A   1       2.432  -1.429   0.000  0.00  0.00    +0.000 C 
ATOM     19  N   UNK A   2       0.370   2.143   0.000  0.00  0.00    +0.000 N 
ATOM     20  O   UNK A   1       2.845  -2.143   0.000  0.00  0.00    +0.000 OA
ATOM     21  C   UNK A   1       2.845  -0.714   0.000  0.00  0.00    +0.000 C 
ATOM     22  C   UNK A   2       1.195   2.143   0.000  0.00  0.00    +0.000 C 
ATOM     23  N   UNK A   1       2.432   0.000   0.000  0.00  0.00    +0.000 N 
ATOM     24  O   UNK A   2       1.607   2.858   0.000  0.00  0.00    +0.000 OA
ATOM     25  C   UNK A   2       1.607   1.429   0.000  0.00  0.00    +0.000 C 
ATOM     26  C   UNK A   2       2.845   0.715   0.000  0.00  0.00    +0.000 C 
ATOM     27  C   UNK A   2       2.432   1.429   0.000  0.00  0.00    +0.000 C 
ATOM     28  O   UNK A   1       3.670   0.715   0.000  0.00  0.00    +0.000 OA
ATOM     29  C   UNK A   1      -1.280  -0.714   0.000  0.00  0.00    +0.000 C 
ATOM     30  H   UNK A   1      -2.597  -1.567   0.000  0.00  0.00    +0.000 HD
ATOM     31  H   UNK A   2      -3.502   1.429   0.000  0.00  0.00    +0.000 HD
ATOM     32  H   UNK A   1       0.450  -0.576   0.000  0.00  0.00    +0.000 HD
ATOM     33  H   UNK A   1       1.115  -0.576   0.000  0.00  0.00    +0.000 HD
ATOM     34  H   UNK A   2      -0.122   1.291   0.000  0.00  0.00    +0.000 HD
ATOM     35  H   UNK A   1       1.448  -0.000   0.000  0.00  0.00    +0.000 HD
ENDROOT
BRANCH  27  36
ATOM     36  N   UNK A   2       2.845   2.143   0.000  0.00  0.00    +0.000 N 
ATOM     37  C   UNK A   1       3.670   2.143   0.000  0.00  0.00    +0.000 C 
ATOM     38  O   UNK A   1       4.082   1.429   0.000  0.00  0.00    +0.000 OA
ATOM     39  H   UNK A   1       2.353   2.996   0.000  0.00  0.00    +0.000 HD
BRANCH  37  40
ATOM     40  C   UNK A   1       4.082   2.858   0.000  0.00  0.00    +0.000 C 
BRANCH  40  41
ATOM     41  N   UNK A   1       4.907   2.858   0.000  0.00  0.00    +0.000 N 
ATOM     42  C   UNK A   0       5.320   2.143   0.000  0.00  0.00    +0.000 C 
ATOM     43  C   UNK A   0       4.907   1.429   0.000  0.00  0.00    +0.000 C 
ATOM     44  O   UNK A   0       6.145   2.143   0.000  0.00  0.00    +0.000 OA
ATOM     45  H   UNK A   1       5.400   3.710   0.000  0.00  0.00    +0.000 HD
ENDBRANCH  40  41
BRANCH  40  46
ATOM     46  C   UNK A   1       3.670   3.572   0.000  0.00  0.00    +0.000 C 
BRANCH  46  47
ATOM     47  C   UNK A   1       4.082   4.287   0.000  0.00  0.00    +0.000 C 
BRANCH  47  48
ATOM     48  C   UNK A   1       4.907   4.287   0.000  0.00  0.00    +0.000 C 
ATOM     49  C   UNK A   1       5.320   5.001   0.000  0.00  0.00    +0.000 C 
ENDBRANCH  47  48
ENDBRANCH  46  47
ENDBRANCH  40  46
ENDBRANCH  37  40
ENDBRANCH  27  36
BRANCH   8  51
ATOM     50  O   UNK A   2      -0.414   2.473   0.000  0.00  0.00    +0.000 OA
ATOM     51  C   UNK A   2      -1.050   1.948   0.000  0.00  0.00    +0.000 C 
BRANCH  51  52
ATOM     52  O   UNK A   2      -0.844   1.149   0.000  0.00  0.00    +0.000 OA
ATOM     53  H   UNK A   2      -1.512   0.492   0.000  0.00  0.00    +0.000 HD
ENDBRANCH  51  52
ENDBRANCH   8  51
BRANCH   1  54
ATOM     54  C   UNK A   1      -3.342   0.000   0.000  0.00  0.00    +0.000 C 
BRANCH  54  55
ATOM     55  C   UNK A   1      -3.755   0.715   0.000  0.00  0.00    +0.000 A 
ATOM     56  C   UNK A   1      -4.575   0.801   0.000  0.00  0.00    +0.000 A 
ATOM     57  C   UNK A   1      -3.420   1.468   0.000  0.00  0.00    +0.000 A 
ATOM     58  C   UNK A   1      -4.747   1.608   0.000  0.00  0.00    +0.000 A 
ATOM     59  C   UNK A   1      -5.189   0.249   0.000  0.00  0.00    +0.000 A 
ATOM     60  N   UNK A   1      -4.033   2.020   0.000  0.00  0.00    +0.000 N 
ATOM     61  C   UNK A   1      -5.532   1.863   0.000  0.00  0.00    +0.000 A 
ATOM     62  C   UNK A   1      -5.973   0.503   0.000  0.00  0.00    +0.000 A 
ATOM     63  C   UNK A   1      -6.145   1.310   0.000  0.00  0.00    +0.000 A 
ATOM     64  H   UNK A   1      -3.930   2.999   0.000  0.00  0.00    +0.000 HD
ENDBRANCH  54  55
ENDBRANCH   1  54
BRANCH   7  65
ATOM     65  C   UNK A   1      -1.280  -2.143   0.000  0.00  0.00    +0.000 C 
BRANCH  65  66
ATOM     66  C   UNK A   1      -2.105  -2.143   0.000  0.00  0.00    +0.000 C 
BRANCH  66  67
ATOM     67  C   UNK A   1      -2.518  -1.429   0.000  0.00  0.00    +0.000 C 
BRANCH  67  68
ATOM     68  N   UNK A   1      -3.342  -1.429   0.000  0.00  0.00    +0.000 N 
ATOM     69  C   UNK A   1      -3.755  -2.143   0.000  0.00  0.00    +0.000 C 
ATOM     70  N   UNK A   1      -3.342  -2.858   0.000  0.00  0.00    +0.000 NA
ATOM     71  N   UNK A   1      -4.580  -2.143   0.000  0.00  0.00    +0.000 N 
ATOM     72  H   UNK A   1      -3.835  -0.576   0.000  0.00  0.00    +0.000 HD
ATOM     73  H   UNK A   1      -3.835  -3.710   0.000  0.00  0.00    +0.000 HD
ATOM     74  H   UNK A   1      -5.072  -1.291   0.000  0.00  0.00    +0.000 HD
ATOM     75  H   UNK A   1      -5.072  -2.996   0.000  0.00  0.00    +0.000 HD
ENDBRANCH  67  68
ENDBRANCH  66  67
ENDBRANCH  65  66
ENDBRANCH   7  65
BRANCH  14  76
ATOM     76  C   UNK A   1       1.607  -2.858   0.000  0.00  0.00    +0.000 C 
BRANCH  76  77
ATOM     77  C   UNK A   1       1.195  -3.572   0.000  0.00  0.00    +0.000 A 
ATOM     78  C   UNK A   1       1.607  -4.287   0.000  0.00  0.00    +0.000 A 
ATOM     79  C   UNK A   1       0.370  -3.572   0.000  0.00  0.00    +0.000 A 
ATOM     80  C   UNK A   1       1.195  -5.001   0.000  0.00  0.00    +0.000 A 
ATOM     81  C   UNK A   1      -0.043  -4.287   0.000  0.00  0.00    +0.000 A 
ATOM     82  C   UNK A   1       0.370  -5.001   0.000  0.00  0.00    +0.000 A 
ENDBRANCH  76  77
ENDBRANCH  14  76
BRANCH  21  83
ATOM     83  C   UNK A   1       3.670  -0.714   0.000  0.00  0.00    +0.000 C 
BRANCH  83  84
ATOM     84  C   UNK A   1       4.082  -1.429   0.000  0.00  0.00    +0.000 A 
ATOM     85  C   UNK A   1       4.903  -1.515   0.000  0.00  0.00    +0.000 A 
ATOM     86  N   UNK A   1       3.747  -2.183   0.000  0.00  0.00    +0.000 N 
ATOM     87  N   UNK A   1       5.074  -2.322   0.000  0.00  0.00    +0.000 NA
ATOM     88  C   UNK A   1       4.360  -2.735   0.000  0.00  0.00    +0.000 A 
ATOM     89  H   UNK A   1       2.784  -2.387   0.000  0.00  0.00    +0.000 HD
ENDBRANCH  83  84
ENDBRANCH  21  83
TORSDOF 18
