REMARK  Name = 14539800
REMARK  12 active torsions:
REMARK  status: ('A' for Active; 'I' for Inactive)
REMARK    1  A    between atoms: O_4  and  C_24
REMARK    2  A    between atoms: O_5  and  C_26
REMARK    3  A    between atoms: N_9  and  C_25
REMARK    4  A    between atoms: N_10  and  C_23
REMARK    5  A    between atoms: C_12  and  C_18
REMARK    6  A    between atoms: C_13  and  C_21
REMARK    7  A    between atoms: C_22  and  C_23
REMARK    8  A    between atoms: C_23  and  C_24
REMARK    9  A    between atoms: C_24  and  C_27
REMARK   10  A    between atoms: C_25  and  C_26
REMARK   11  A    between atoms: C_25  and  C_28
REMARK   12  A    between atoms: C_26  and  C_29
REMARK                            x       y       z     vdW  Elec       q    Type
REMARK                         _______ _______ _______ _____ _____    ______ ____
ROOT
ATOM      1  O   UNL     1       0.671  -0.454  -0.476  0.00  0.00    +0.000 OA
ATOM      2  N   UNL     1      -0.195   1.483   0.451  0.00  0.00    +0.000 N 
ATOM      3  C   UNL     1      -1.342   0.859   1.097  0.00  0.00    +0.000 C 
ATOM      4  C   UNL     1      -1.851   1.908   2.079  0.00  0.00    +0.000 C 
ATOM      5  C   UNL     1      -0.125   2.908   0.762  0.00  0.00    +0.000 C 
ATOM      6  C   UNL     1       0.765   0.750  -0.230  0.00  0.00    +0.000 C 
ATOM      7  C   UNL     1      -1.457   3.229   1.422  0.00  0.00    +0.000 C 
ENDROOT
BRANCH   6  10
ATOM      8  O   UNL     1       3.425   0.523   1.579  0.00  0.00    +0.000 OA
ATOM      9  N   UNL     1       3.090   0.596  -0.709  0.00  0.00    +0.000 N 
ATOM     10  C   UNL     1       1.966   1.524  -0.683  0.00  0.00    +0.000 C 
ATOM     11  C   UNL     1       1.823   2.000  -2.124  0.00  0.00    +0.000 C 
ATOM     12  C   UNL     1       2.343   0.819  -2.941  0.00  0.00    +0.000 C 
ATOM     13  C   UNL     1       3.470   0.268  -2.081  0.00  0.00    +0.000 C 
ATOM     14  C   UNL     1       3.777   0.227   0.436  0.00  0.00    +0.000 C 
BRANCH  14  15
ATOM     15  C   UNL     1       5.019  -0.598   0.211  0.00  0.00    +0.000 C 
BRANCH  15  16
ATOM     16  N   UNL     1       5.928  -0.167   1.234  0.00  0.00    +0.000 NA
ATOM     17  H   UNL     1       5.594  -0.440   2.158  0.00  0.00    +0.000 HD
ATOM     18  H   UNL     1       6.837  -0.613   1.120  0.00  0.00    +0.000 HD
ENDBRANCH  15  16
BRANCH  15  19
ATOM     19  C   UNL     1       4.710  -2.091   0.249  0.00  0.00    +0.000 C 
ATOM     20  C   UNL     1       5.965  -2.934   0.048  0.00  0.00    +0.000 C 
BRANCH  19  21
ATOM     21  O   UNL     1       4.117  -2.439   1.499  0.00  0.00    +0.000 OA
ATOM     22  H   UNL     1       4.787  -2.330   2.194  0.00  0.00    +0.000 HD
ENDBRANCH  19  21
ENDBRANCH  15  19
ENDBRANCH  14  15
ENDBRANCH   6  10
BRANCH   3  25
ATOM     23  O   UNL     1      -2.438   1.256  -0.986  0.00  0.00    +0.000 OA
ATOM     24  N   UNL     1      -3.139  -0.528   0.335  0.00  0.00    +0.000 N 
ATOM     25  C   UNL     1      -2.348   0.565   0.025  0.00  0.00    +0.000 C 
ATOM     26  H   UNL     1      -3.029  -0.966   1.244  0.00  0.00    +0.000 HD
BRANCH  24  27
ATOM     27  C   UNL     1      -4.200  -1.004  -0.524  0.00  0.00    +0.000 C 
BRANCH  27  30
ATOM     28  O   UNL     1      -5.743   0.168   0.945  0.00  0.00    +0.000 OA
ATOM     29  N   UNL     1      -6.266   0.000  -1.285  0.00  0.00    +0.000 N 
ATOM     30  C   UNL     1      -5.457  -0.211  -0.189  0.00  0.00    +0.000 C 
ATOM     31  H   UNL     1      -7.141   0.506  -1.197  0.00  0.00    +0.000 HD
ATOM     32  H   UNL     1      -6.027  -0.336  -2.212  0.00  0.00    +0.000 HD
ENDBRANCH  27  30
BRANCH  27  33
ATOM     33  C   UNL     1      -4.439  -2.514  -0.390  0.00  0.00    +0.000 C 
ATOM     34  C   UNL     1      -3.188  -3.331  -0.690  0.00  0.00    +0.000 C 
BRANCH  33  35
ATOM     35  O   UNL     1      -4.883  -2.811   0.934  0.00  0.00    +0.000 OA
ATOM     36  H   UNL     1      -4.149  -2.637   1.546  0.00  0.00    +0.000 HD
ENDBRANCH  33  35
ENDBRANCH  27  33
ENDBRANCH  24  27
ENDBRANCH   3  25
TORSDOF 10
