REMARK  Name = 
REMARK  16 active torsions:
REMARK  status: ('A' for Active; 'I' for Inactive)
REMARK    1  A    between atoms: C_1  and  C_2
REMARK    2  A    between atoms: N_4  and  C_5
REMARK    3  A    between atoms: C_5  and  C_6
REMARK    4  A    between atoms: C_5  and  C_14
REMARK    5  A    between atoms: C_6  and  C_7
REMARK    6  A    between atoms: C_10  and  O_11
REMARK    7  A    between atoms: C_20  and  C_21
REMARK    8  A    between atoms: C_25  and  O_26
REMARK    9  A    between atoms: C_28  and  C_29
REMARK   10  A    between atoms: N_31  and  C_32
REMARK   11  A    between atoms: C_32  and  C_33
REMARK   12  A    between atoms: N_35  and  C_36
REMARK   13  A    between atoms: C_36  and  C_37
REMARK   14  A    between atoms: C_36  and  C_38
REMARK   15  A    between atoms: N_40  and  C_41
REMARK   16  A    between atoms: C_41  and  C_42
REMARK                            x       y       z     vdW  Elec       q    Type
REMARK                         _______ _______ _______ _____ _____    ______ ____
ROOT
ATOM      1  C   UNL     1      -1.255   0.148  -0.708  0.00  0.00    +0.000 C 
ATOM      2  O   UNL     1      -1.079  -0.448  -1.819  0.00  0.00    +0.000 OA
ATOM      3  N   UNL     1      -0.284   0.921  -0.090  0.00  0.00    +0.000 N 
ATOM      4  C   UNL     1      -0.371   1.922   0.801  0.00  0.00    +0.000 C 
ATOM      5  C   UNL     1       1.136   2.178   1.404  0.00  0.00    +0.000 C 
ATOM      6  C   UNL     1       1.548   0.580   1.321  0.00  0.00    +0.000 C 
ATOM      7  C   UNL     1       1.207   0.452  -0.298  0.00  0.00    +0.000 C 
ENDROOT
BRANCH   1  14
ATOM      8  C   UNL     1      -4.216   0.927   0.665  0.00  0.00    +0.000 C 
ATOM      9  O   UNL     1      -5.058   1.156   1.536  0.00  0.00    +0.000 OA
ATOM     10  N   UNL     1      -2.867   0.516   0.942  0.00  0.00    +0.000 N 
ATOM     11  C   UNL     1      -2.610   0.240   2.355  0.00  0.00    +0.000 C 
ATOM     12  C   UNL     1      -2.108  -1.142   2.483  0.00  0.00    +0.000 C 
ATOM     13  C   UNL     1      -1.155  -1.090   1.337  0.00  0.00    +0.000 C 
ATOM     14  C   UNL     1      -2.271  -0.737   0.181  0.00  0.00    +0.000 C 
BRANCH   8  15
ATOM     15  C   UNL     1      -4.833   0.359  -0.727  0.00  0.00    +0.000 C 
BRANCH  15  19
ATOM     16  C   UNL     1      -6.133   4.013  -0.770  0.00  0.00    +0.000 C 
ATOM     17  C   UNL     1      -5.301   2.867  -0.555  0.00  0.00    +0.000 C 
ATOM     18  O   UNL     1      -4.131   3.077  -0.107  0.00  0.00    +0.000 OA
ATOM     19  N   UNL     1      -5.390   1.722  -1.303  0.00  0.00    +0.000 N 
ATOM     20  H   UNL     1      -5.800   1.748  -2.198  0.00  0.00    +0.000 HD
ENDBRANCH  15  19
BRANCH  15  21
ATOM     21  C   UNL     1      -6.316  -0.020  -0.109  0.00  0.00    +0.000 C 
BRANCH  21  22
ATOM     22  C   UNL     1      -6.486  -1.468  -0.260  0.00  0.00    +0.000 A 
ATOM     23  C   UNL     1      -7.794  -1.897  -0.486  0.00  0.00    +0.000 A 
ATOM     24  C   UNL     1      -8.135  -3.222  -0.370  0.00  0.00    +0.000 A 
ATOM     25  C   UNL     1      -7.111  -4.098  -0.029  0.00  0.00    +0.000 A 
ATOM     26  C   UNL     1      -5.868  -3.637   0.388  0.00  0.00    +0.000 A 
ATOM     27  C   UNL     1      -5.835  -2.275   0.670  0.00  0.00    +0.000 A 
BRANCH  25  28
ATOM     28  O   UNL     1      -7.490  -5.411   0.130  0.00  0.00    +0.000 OA
ATOM     29  H   UNL     1      -8.335  -5.693  -0.161  0.00  0.00    +0.000 HD
ENDBRANCH  25  28
ENDBRANCH  21  22
ENDBRANCH  15  21
ENDBRANCH   8  15
ENDBRANCH   1  14
BRANCH   7  30
ATOM     30  C   UNL     1       1.810   1.910  -0.679  0.00  0.00    +0.000 C 
ATOM     31  O   UNL     1       1.161   2.602  -1.466  0.00  0.00    +0.000 OA
ATOM     32  N   UNL     1       3.048   1.632  -1.353  0.00  0.00    +0.000 N 
ATOM     33  H   UNL     1       3.207   0.869  -1.956  0.00  0.00    +0.000 HD
BRANCH  32  34
ATOM     34  C   UNL     1       4.033   2.651  -1.007  0.00  0.00    +0.000 C 
BRANCH  34  35
ATOM     35  C   UNL     1       5.133   1.706  -0.583  0.00  0.00    +0.000 C 
ATOM     36  O   UNL     1       5.128   1.166   0.558  0.00  0.00    +0.000 OA
ATOM     37  N   UNL     1       5.860   1.087  -1.567  0.00  0.00    +0.000 N 
ATOM     38  H   UNL     1       6.068   1.580  -2.394  0.00  0.00    +0.000 HD
BRANCH  37  39
ATOM     39  C   UNL     1       6.371  -0.391  -1.406  0.00  0.00    +0.000 C 
ATOM     40  C   UNL     1       5.055  -0.930  -0.573  0.00  0.00    +0.000 C 
BRANCH  39  41
ATOM     41  C   UNL     1       7.171  -0.077  -0.036  0.00  0.00    +0.000 C 
ATOM     42  O   UNL     1       8.125   0.743  -0.186  0.00  0.00    +0.000 OA
ATOM     43  N   UNL     1       7.522  -1.336   0.560  0.00  0.00    +0.000 N 
ATOM     44  H   UNL     1       6.819  -2.019   0.654  0.00  0.00    +0.000 HD
BRANCH  43  45
ATOM     45  C   UNL     1       8.856  -1.656   1.032  0.00  0.00    +0.000 C 
BRANCH  45  46
ATOM     46  C   UNL     1       9.725  -2.150  -0.054  0.00  0.00    +0.000 C 
ATOM     47  N   UNL     1      10.778  -1.294  -0.443  0.00  0.00    +0.000 N 
ATOM     48  O   UNL     1       9.786  -3.366  -0.383  0.00  0.00    +0.000 OA
ATOM     49  H   UNL     1      10.753  -0.340  -0.198  0.00  0.00    +0.000 HD
ATOM     50  H   UNL     1      11.537  -1.650  -0.959  0.00  0.00    +0.000 HD
ENDBRANCH  45  46
ENDBRANCH  43  45
ENDBRANCH  39  41
ENDBRANCH  37  39
ENDBRANCH  34  35
ENDBRANCH  32  34
ENDBRANCH   7  30
BRANCH   5  51
ATOM     51  O   UNL     1       0.646   2.069   2.836  0.00  0.00    +0.000 OA
ATOM     52  H   UNL     1       0.074   1.290   2.924  0.00  0.00    +0.000 HD
ENDBRANCH   5  51
TORSDOF 14
