REMARK  Name = 
REMARK  36 active torsions:
REMARK  status: ('A' for Active; 'I' for Inactive)
REMARK    1  A    between atoms: CG_4  and  CB_6
REMARK    2  A    between atoms: CB_6  and  CA_7
REMARK    3  A    between atoms: CA_11  and  CB_12
REMARK    4  A    between atoms: CB_12  and  CG_13
REMARK    5  A    between atoms: CG_13  and  CD_14
REMARK    6  A    between atoms: CD_14  and  CE_15
REMARK    7  A    between atoms: CE_15  and  NZ_16
REMARK    8  A    between atoms: CA_20  and  CB_21
REMARK    9  A    between atoms: CB_21  and  CG2_22
REMARK   10  A    between atoms: CB_21  and  OG1_23
REMARK   11  A    between atoms: CA_27  and  C_28
REMARK   12  A    between atoms: N_30  and  CA_31
REMARK   13  A    between atoms: CA_31  and  C_32
REMARK   14  A    between atoms: CA_31  and  CB_35
REMARK   15  A    between atoms: C_32  and  OXT_34
REMARK   16  A    between atoms: CB_35  and  CG2_36
REMARK   17  A    between atoms: CB_35  and  OG1_37
REMARK   18  A    between atoms: CA_42  and  N_43
REMARK   19  A    between atoms: C_44  and  CA_46
REMARK   20  A    between atoms: CA_46  and  CB_47
REMARK   21  A    between atoms: CA_46  and  N_54
REMARK   22  A    between atoms: CB_47  and  CG_48
REMARK   23  A    between atoms: C_55  and  C_56
REMARK   24  A    between atoms: C_56  and  N_57
REMARK   25  A    between atoms: N_60  and  C_61
REMARK   26  A    between atoms: C_61  and  C_62
REMARK   27  A    between atoms: C_62  and  O_64
REMARK   28  A    between atoms: N_67  and  C_68
REMARK   29  A    between atoms: C_68  and  C_69
REMARK   30  A    between atoms: C_69  and  O_71
REMARK   31  A    between atoms: N_74  and  C_75
REMARK   32  A    between atoms: C_75  and  C_76
REMARK   33  A    between atoms: C_76  and  O_78
REMARK   34  A    between atoms: CA_85  and  CB_86
REMARK   35  A    between atoms: CB_86  and  CG_87
REMARK   36  A    between atoms: CZ_90  and  OH_93
REMARK                            x       y       z     vdW  Elec       q    Type
REMARK                         _______ _______ _______ _____ _____    ______ ____
ROOT
ATOM      1  CA  CYS A   3       3.417   0.782   0.000  0.00  0.00    +0.000 C 
ATOM      2  C   CYS A   3       4.203   0.531   0.000  0.00  0.00    +0.000 C 
ATOM      3  O   CYS A   3       4.378  -0.275   0.000  0.00  0.00    +0.000 OA
ATOM      4  N   PHE A   1       4.814   1.086   0.000  0.00  0.00    +0.000 N 
ATOM      5  CA  PHE A   1       5.600   0.835   0.000  0.00  0.00    +0.000 C 
ATOM      6  C   PHE A   1       5.775   0.028   0.000  0.00  0.00    +0.000 C 
ATOM      7  O   PHE A   1       5.164  -0.526   0.000  0.00  0.00    +0.000 OA
ATOM      8  N   TYR A   2       6.561  -0.223   0.000  0.00  0.00    +0.000 N 
ATOM      9  CA  TYR A   2       6.736  -1.029   0.000  0.00  0.00    +0.000 C 
ATOM     10  C   TYR A   2       6.125  -1.584   0.000  0.00  0.00    +0.000 C 
ATOM     11  O   TYR A   2       5.340  -1.333   0.000  0.00  0.00    +0.000 OA
ATOM     12  N   CYS A   3       6.301  -2.390   0.000  0.00  0.00    +0.000 N 
ATOM     13  CA  CYS A   3       5.690  -2.945   0.000  0.00  0.00    +0.000 C 
ATOM     14  CB  CYS A   3       4.904  -2.694   0.000  0.00  0.00    +0.000 C 
ATOM     15  SG  CYS A   3       4.294  -3.248   0.000  0.00  0.00    +0.000 S 
ATOM     16  SG  PHE A   1       0.795  -4.521   0.000  0.00  0.00    +0.000 S 
ATOM     17  CB  PHE A   1       2.014  -0.302   0.000  0.00  0.00    +0.000 C 
ATOM     18  CA  PHE A   1       0.086   1.812   0.000  0.00  0.00    +0.000 C 
ATOM     19  C   PHE A   1       0.911   1.844   0.000  0.00  0.00    +0.000 C 
ATOM     20  O   PHE A   1       1.351   1.146   0.000  0.00  0.00    +0.000 OA
ATOM     21  N   TYR A   2       1.295   2.574   0.000  0.00  0.00    +0.000 N 
ATOM     22  CA  TYR A   2       2.112   2.463   0.000  0.00  0.00    +0.000 C 
ATOM     23  C   TYR A   2       2.425   1.700   0.000  0.00  0.00    +0.000 C 
ATOM     24  O   TYR A   2       1.920   1.047   0.000  0.00  0.00    +0.000 OA
ATOM     25  N   CYS A   3       3.242   1.589   0.000  0.00  0.00    +0.000 N 
ATOM     26  H   PHE A   1       4.605   2.048   0.000  0.00  0.00    +0.000 HD
ATOM     27  H   TYR A   2       7.289   0.439   0.000  0.00  0.00    +0.000 HD
ATOM     28  H   CYS A   3       7.238  -2.690   0.000  0.00  0.00    +0.000 HD
ATOM     29  H   TYR A   2       0.844   3.449   0.000  0.00  0.00    +0.000 HD
ATOM     30  H   CYS A   3       3.910   2.312   0.000  0.00  0.00    +0.000 HD
ENDROOT
BRANCH  18  31
ATOM     31  N   PHE A   1      -0.609   2.001   0.000  0.00  0.00    +0.000 N 
ATOM     32  C   PHE A   1      -1.031   1.253   0.000  0.00  0.00    +0.000 C 
ATOM     33  O   PHE A   1      -1.667   2.022   0.000  0.00  0.00    +0.000 OA
ATOM     34  H   PHE A   1      -0.987   2.910   0.000  0.00  0.00    +0.000 HD
BRANCH  32  35
ATOM     35  CA  PHE A   1      -1.506   0.319   0.000  0.00  0.00    +0.000 C 
BRANCH  35  36
ATOM     36  N   PHE A   1      -2.330   0.286   0.000  0.00  0.00    +0.000 N 
ATOM     37  C   UNK A   0      -2.714  -0.444   0.000  0.00  0.00    +0.000 C 
ATOM     38  O   UNK A   0      -2.274  -1.142   0.000  0.00  0.00    +0.000 OA
ATOM     39  H   PHE A   1      -2.856   1.119   0.000  0.00  0.00    +0.000 HD
BRANCH  37  40
ATOM     40  C   UNK A   0      -3.539  -0.476   0.000  0.00  0.00    +0.000 C 
BRANCH  40  41
ATOM     41  N   UNK A   0      -3.979   0.221   0.000  0.00  0.00    +0.000 NA
ATOM     42  C   UNK A   0      -4.803   0.188   0.000  0.00  0.00    +0.000 C 
ATOM     43  C   UNK A   0      -5.331  -0.446   0.000  0.00  0.00    +0.000 C 
ATOM     44  N   UNK A   0      -6.097  -0.140   0.000  0.00  0.00    +0.000 NA
ATOM     45  C   UNK A   0      -6.043   0.683   0.000  0.00  0.00    +0.000 C 
ATOM     46  C   UNK A   0      -5.244   0.886   0.000  0.00  0.00    +0.000 C 
ATOM     47  N   UNK A   0      -4.860   1.616   0.000  0.00  0.00    +0.000 NA
ATOM     48  C   UNK A   0      -4.035   1.649   0.000  0.00  0.00    +0.000 C 
ATOM     49  C   UNK A   0      -3.508   2.283   0.000  0.00  0.00    +0.000 C 
ATOM     50  N   UNK A   0      -2.741   1.978   0.000  0.00  0.00    +0.000 NA
ATOM     51  C   UNK A   0      -2.795   1.154   0.000  0.00  0.00    +0.000 C 
ATOM     52  C   UNK A   0      -3.595   0.951   0.000  0.00  0.00    +0.000 C 
BRANCH  47  53
ATOM     53  C   UNK A   0      -5.300   2.314   0.000  0.00  0.00    +0.000 C 
BRANCH  53  54
ATOM     54  C   UNK A   0      -6.124   2.281   0.000  0.00  0.00    +0.000 C 
ATOM     55  O   UNK A   0      -6.565   2.979   0.000  0.00  0.00    +0.000 OA
BRANCH  54  56
ATOM     56  O   UNK A   0      -6.508   1.551   0.000  0.00  0.00    +0.000 OA
ATOM     57  H   UNK A   0      -7.445   1.514   0.000  0.00  0.00    +0.000 HD
ENDBRANCH  54  56
ENDBRANCH  53  54
ENDBRANCH  47  53
BRANCH  50  58
ATOM     58  C   UNK A   0      -2.044   2.418   0.000  0.00  0.00    +0.000 C 
BRANCH  58  59
ATOM     59  C   UNK A   0      -2.076   3.242   0.000  0.00  0.00    +0.000 C 
ATOM     60  O   UNK A   0      -1.379   3.683   0.000  0.00  0.00    +0.000 OA
BRANCH  59  61
ATOM     61  O   UNK A   0      -2.807   3.626   0.000  0.00  0.00    +0.000 OA
ATOM     62  H   UNK A   0      -2.844   4.563   0.000  0.00  0.00    +0.000 HD
ENDBRANCH  59  61
ENDBRANCH  58  59
ENDBRANCH  50  58
BRANCH  44  63
ATOM     63  C   UNK A   0      -6.795  -0.581   0.000  0.00  0.00    +0.000 C 
BRANCH  63  64
ATOM     64  C   UNK A   0      -7.525  -0.197   0.000  0.00  0.00    +0.000 C 
ATOM     65  O   UNK A   0      -8.223  -0.637   0.000  0.00  0.00    +0.000 OA
BRANCH  64  66
ATOM     66  O   UNK A   0      -7.558   0.627   0.000  0.00  0.00    +0.000 OA
ATOM     67  H   UNK A   0      -6.765   1.128   0.000  0.00  0.00    +0.000 HD
ENDBRANCH  64  66
ENDBRANCH  63  64
ENDBRANCH  44  63
ENDBRANCH  40  41
ENDBRANCH  37  40
ENDBRANCH  35  36
BRANCH  35  68
ATOM     68  CB  PHE A   1      -1.065  -0.379   0.000  0.00  0.00    +0.000 C 
BRANCH  68  69
ATOM     69  CG  PHE A   1      -1.022  -0.984   0.000  0.00  0.00    +0.000 A 
ATOM     70  CD1 PHE A   1       0.002  -1.327   0.000  0.00  0.00    +0.000 A 
ATOM     71  CE1 PHE A   1       0.048  -2.094   0.000  0.00  0.00    +0.000 A 
ATOM     72  CZ  PHE A   1      -0.597  -2.601   0.000  0.00  0.00    +0.000 A 
ATOM     73  CE2 PHE A   1      -1.572  -2.373   0.000  0.00  0.00    +0.000 A 
ATOM     74  CD2 PHE A   1      -1.827  -1.505   0.000  0.00  0.00    +0.000 A 
ENDBRANCH  68  69
ENDBRANCH  35  68
ENDBRANCH  32  35
ENDBRANCH  18  31
BRANCH  13  75
ATOM     75  C   CYS A   3       5.865  -3.751   0.000  0.00  0.00    +0.000 C 
ATOM     76  O   CYS A   3       5.255  -4.306   0.000  0.00  0.00    +0.000 OA
ATOM     77  N   THR A   4       6.651  -4.003   0.000  0.00  0.00    +0.000 N 
ATOM     78  H   THR A   4       7.380  -3.341   0.000  0.00  0.00    +0.000 HD
BRANCH  77  79
ATOM     79  CA  THR A   4       6.826  -4.809   0.000  0.00  0.00    +0.000 C 
BRANCH  79  80
ATOM     80  C   THR A   4       6.216  -5.364   0.000  0.00  0.00    +0.000 C 
ATOM     81  O   THR A   4       5.430  -5.112   0.000  0.00  0.00    +0.000 OA
BRANCH  80  82
ATOM     82  OXT THR A   4       6.391  -6.170   0.000  0.00  0.00    +0.000 OA
ATOM     83  HXT THR A   4       5.697  -6.800   0.000  0.00  0.00    +0.000 HD
ENDBRANCH  80  82
ENDBRANCH  79  80
BRANCH  79  84
ATOM     84  CB  THR A   4       7.612  -5.060   0.000  0.00  0.00    +0.000 C 
ATOM     85  CG2 THR A   4       7.787  -5.866   0.000  0.00  0.00    +0.000 C 
BRANCH  84  86
ATOM     86  OG1 THR A   4       8.223  -4.505   0.000  0.00  0.00    +0.000 OA
ATOM     87  HG1 THR A   4       9.146  -4.801   0.000  0.00  0.00    +0.000 HD
ENDBRANCH  84  86
ENDBRANCH  79  84
ENDBRANCH  77  79
ENDBRANCH  13  75
BRANCH   9  88
ATOM     88  CB  TYR A   2       7.522  -1.280   0.000  0.00  0.00    +0.000 C 
ATOM     89  CG2 TYR A   2       7.697  -2.087   0.000  0.00  0.00    +0.000 C 
BRANCH  88  90
ATOM     90  OG1 TYR A   2       8.132  -0.726   0.000  0.00  0.00    +0.000 OA
ATOM     91  HG1 TYR A   2       9.056  -1.021   0.000  0.00  0.00    +0.000 HD
ENDBRANCH  88  90
ENDBRANCH   9  88
BRANCH   1  92
ATOM     92  CB  CYS A   3       3.209   0.160   0.000  0.00  0.00    +0.000 C 
BRANCH  92  96
ATOM     93  NE1 CYS A   3       4.200  -1.710   0.000  0.00  0.00    +0.000 N 
ATOM     94  CE2 CYS A   3       3.394  -1.885   0.000  0.00  0.00    +0.000 A 
ATOM     95  CD2 CYS A   3       2.978  -1.173   0.000  0.00  0.00    +0.000 A 
ATOM     96  CG  CYS A   3       3.527  -0.557   0.000  0.00  0.00    +0.000 A 
ATOM     97  CD1 CYS A   3       4.283  -0.889   0.000  0.00  0.00    +0.000 A 
ATOM     98  CE3 CYS A   3       2.153  -1.176   0.000  0.00  0.00    +0.000 A 
ATOM     99  CZ3 CYS A   3       1.744  -1.893   0.000  0.00  0.00    +0.000 A 
ATOM    100  CH2 CYS A   3       2.160  -2.605   0.000  0.00  0.00    +0.000 A 
ATOM    101  CZ2 CYS A   3       2.985  -2.602   0.000  0.00  0.00    +0.000 A 
ATOM    102  HE1 CYS A   3       4.935  -2.365   0.000  0.00  0.00    +0.000 HD
ENDBRANCH  92  96
ENDBRANCH   1  92
BRANCH   5 103
ATOM    103  CB  PHE A   1       6.210   1.389   0.000  0.00  0.00    +0.000 C 
BRANCH 103 104
ATOM    104  CG  PHE A   1       5.898   2.153   0.000  0.00  0.00    +0.000 C 
BRANCH 104 105
ATOM    105  CD  PHE A   1       5.080   2.264   0.000  0.00  0.00    +0.000 C 
BRANCH 105 106
ATOM    106  CE  PHE A   1       4.768   3.027   0.000  0.00  0.00    +0.000 C 
BRANCH 106 107
ATOM    107  NZ  PHE A   1       3.950   3.139   0.000  0.00  0.00    +0.000 NA
ATOM    108  HZ1 PHE A   1       3.564   4.082   0.000  0.00  0.00    +0.000 HD
ATOM    109  HZ2 PHE A   1       3.326   2.332   0.000  0.00  0.00    +0.000 HD
ENDBRANCH 106 107
ENDBRANCH 105 106
ENDBRANCH 104 105
ENDBRANCH 103 104
ENDBRANCH   5 103
BRANCH  22 110
ATOM    110  CB  TYR A   2       2.617   3.116   0.000  0.00  0.00    +0.000 C 
BRANCH 110 111
ATOM    111  CG  TYR A   2       2.305   3.879   0.000  0.00  0.00    +0.000 A 
ATOM    112  CD1 TYR A   2       2.810   4.532   0.000  0.00  0.00    +0.000 A 
ATOM    113  CE1 TYR A   2       2.497   5.295   0.000  0.00  0.00    +0.000 A 
ATOM    114  CZ  TYR A   2       1.680   5.406   0.000  0.00  0.00    +0.000 A 
ATOM    115  CE2 TYR A   2       1.175   4.754   0.000  0.00  0.00    +0.000 A 
ATOM    116  CD2 TYR A   2       1.487   3.990   0.000  0.00  0.00    +0.000 A 
BRANCH 114 117
ATOM    117  OH  TYR A   2       1.367   6.170   0.000  0.00  0.00    +0.000 OA
ATOM    118  HH  TYR A   2       1.941   6.911   0.000  0.00  0.00    +0.000 HD
ENDBRANCH 114 117
ENDBRANCH 110 111
ENDBRANCH  22 110
TORSDOF 34
