REMARK  Name = 
REMARK  30 active torsions:
REMARK  status: ('A' for Active; 'I' for Inactive)
REMARK    1  A    between atoms: C_2  and  O_3
REMARK    2  A    between atoms: C_2  and  C_4
REMARK    3  A    between atoms: C_4  and  C_5
REMARK    4  A    between atoms: C_5  and  C_6
REMARK    5  A    between atoms: C_6  and  N_7
REMARK    6  A    between atoms: C_6  and  C_46
REMARK    7  A    between atoms: N_7  and  P_8
REMARK    8  A    between atoms: P_8  and  O_10
REMARK    9  A    between atoms: P_8  and  O_11
REMARK   10  A    between atoms: O_11  and  C_12
REMARK   11  A    between atoms: C_12  and  C_13
REMARK   12  A    between atoms: C_13  and  C_14
REMARK   13  A    between atoms: C_14  and  C_15
REMARK   14  A    between atoms: C_15  and  N_16
REMARK   15  A    between atoms: C_15  and  C_43
REMARK   16  A    between atoms: C_17  and  C_19
REMARK   17  A    between atoms: C_19  and  C_20
REMARK   18  A    between atoms: C_20  and  C_21
REMARK   19  A    between atoms: C_21  and  N_22
REMARK   20  A    between atoms: C_21  and  C_40
REMARK   21  A    between atoms: C_23  and  C_25
REMARK   22  A    between atoms: C_25  and  C_26
REMARK   23  A    between atoms: C_26  and  C_27
REMARK   24  A    between atoms: C_27  and  C_28
REMARK   25  A    between atoms: C_28  and  C_29
REMARK   26  A    between atoms: C_29  and  N_30
REMARK   27  A    between atoms: C_31  and  C_33
REMARK   28  A    between atoms: C_40  and  O_42
REMARK   29  A    between atoms: C_43  and  O_45
REMARK   30  A    between atoms: C_46  and  O_48
REMARK                            x       y       z     vdW  Elec       q    Type
REMARK                         _______ _______ _______ _____ _____    ______ ____
ROOT
ATOM      1  N   UNK A   1      -2.366  -2.495   0.200  0.00  0.00    +0.000 N 
ATOM      2  C   UNK A   1      -1.171  -2.017   0.821  0.00  0.00    +0.000 C 
ATOM      3  O   UNK A   1      -0.654  -2.630   1.805  0.00  0.00    +0.000 OA
ATOM      4  H   UNK A   1      -3.008  -1.912  -0.264  0.00  0.00    +0.000 HD
ENDROOT
BRANCH   1   5
ATOM      5  C   UNK A   1      -2.548  -4.056   0.335  0.00  0.00    +0.000 C 
BRANCH   5   6
ATOM      6  C   UNK A   1      -3.008  -4.253  -1.196  0.00  0.00    +0.000 C 
ATOM      7  O   UNK A   1      -3.803  -5.205  -1.383  0.00  0.00    +0.000 OA
BRANCH   6   8
ATOM      8  O   UNK A   1      -2.426  -3.524  -2.169  0.00  0.00    +0.000 OA
ATOM      9  H   UNK A   1      -1.842  -2.827  -1.946  0.00  0.00    +0.000 HD
ENDBRANCH   6   8
ENDBRANCH   5   6
BRANCH   5  10
ATOM     10  C   UNK A   1      -4.094  -3.877   0.871  0.00  0.00    +0.000 C 
BRANCH  10  11
ATOM     11  C   UNK A   1      -4.821  -3.040  -0.109  0.00  0.00    +0.000 C 
BRANCH  11  12
ATOM     12  C   UNK A   1      -5.185  -1.685   0.237  0.00  0.00    +0.000 C 
BRANCH  12  13
ATOM     13  O   UNK A   1      -6.246  -1.448   1.080  0.00  0.00    +0.000 OA
BRANCH  13  14
ATOM     14  P   UNK A   1      -6.856  -0.002   0.394  0.00  0.00    +0.000 P 
ATOM     15  O   UNK A   1      -7.301  -0.455  -0.965  0.00  0.00    +0.000 OA
BRANCH  14  16
ATOM     16  N   UNK A   1      -7.971   0.698   1.421  0.00  0.00    +0.000 NA
ATOM     17  H   UNK A   1      -8.385  -0.033   2.000  0.00  0.00    +0.000 HD
BRANCH  16  18
ATOM     18  C   UNK A   1      -9.120   1.439   0.646  0.00  0.00    +0.000 C 
BRANCH  18  19
ATOM     19  C   UNK A   1      -9.592   0.080  -0.088  0.00  0.00    +0.000 C 
ATOM     20  O   UNK A   1     -10.368  -0.514   0.726  0.00  0.00    +0.000 OA
BRANCH  19  21
ATOM     21  O   UNK A   1     -10.139   0.302  -1.343  0.00  0.00    +0.000 OA
ATOM     22  H   UNK A   1      -9.634   0.734  -2.004  0.00  0.00    +0.000 HD
ENDBRANCH  19  21
ENDBRANCH  18  19
BRANCH  18  23
ATOM     23  C   UNK A   1      -8.136   1.887  -0.594  0.00  0.00    +0.000 C 
BRANCH  23  24
ATOM     24  C   UNK A   1      -8.399   3.349  -0.827  0.00  0.00    +0.000 C 
BRANCH  24  26
ATOM     25  O   UNK A   1      -7.586   3.965   0.980  0.00  0.00    +0.000 OA
ATOM     26  C   UNK A   1      -7.525   4.090   0.140  0.00  0.00    +0.000 C 
BRANCH  26  27
ATOM     27  O   UNK A   1      -6.643   5.018  -0.430  0.00  0.00    +0.000 OA
ATOM     28  H   UNK A   1      -6.609   5.122  -1.360  0.00  0.00    +0.000 HD
ENDBRANCH  26  27
ENDBRANCH  24  26
ENDBRANCH  23  24
ENDBRANCH  18  23
ENDBRANCH  16  18
ENDBRANCH  14  16
BRANCH  14  29
ATOM     29  O   UNK A   1      -5.500   1.027   0.272  0.00  0.00    +0.000 OA
ATOM     30  H   UNK A   1      -5.772   1.875  -0.113  0.00  0.00    +0.000 HD
ENDBRANCH  14  29
ENDBRANCH  13  14
ENDBRANCH  12  13
ENDBRANCH  11  12
ENDBRANCH  10  11
ENDBRANCH   5  10
ENDBRANCH   1   5
BRANCH   2  31
ATOM     31  C   UNK A   1      -0.272  -1.053   0.111  0.00  0.00    +0.000 C 
BRANCH  31  32
ATOM     32  C   UNK A   1       0.473  -1.763  -0.917  0.00  0.00    +0.000 C 
BRANCH  32  33
ATOM     33  C   UNK A   1       2.056  -1.334  -0.910  0.00  0.00    +0.000 C 
BRANCH  33  34
ATOM     34  N   UNK A   1       2.052  -0.797   0.576  0.00  0.00    +0.000 N 
ATOM     35  C   UNK A   0       3.060   0.147   0.863  0.00  0.00    +0.000 C 
ATOM     36  O   UNK A   0       3.063   1.149   0.097  0.00  0.00    +0.000 OA
ATOM     37  H   UNK A   1       1.399  -1.098   1.248  0.00  0.00    +0.000 HD
BRANCH  35  38
ATOM     38  C   UNK A   0       4.043   0.072   1.956  0.00  0.00    +0.000 C 
BRANCH  38  39
ATOM     39  C   UNK A   0       5.201   1.014   1.641  0.00  0.00    +0.000 C 
BRANCH  39  40
ATOM     40  C   UNK A   0       5.589   0.813   0.178  0.00  0.00    +0.000 C 
BRANCH  40  41
ATOM     41  C   UNK A   0       5.554  -0.658  -0.074  0.00  0.00    +0.000 C 
BRANCH  41  42
ATOM     42  C   UNK A   0       6.878  -1.339  -0.046  0.00  0.00    +0.000 C 
BRANCH  42  43
ATOM     43  N   UNK A   0       7.809  -0.279  -0.433  0.00  0.00    +0.000 N 
ATOM     44  C   UNK A   0       9.082  -0.329   0.193  0.00  0.00    +0.000 C 
ATOM     45  O   UNK A   0       9.689  -1.430   0.038  0.00  0.00    +0.000 OA
ATOM     46  H   UNK A   0       7.569   0.420  -1.083  0.00  0.00    +0.000 HD
BRANCH  44  47
ATOM     47  C   UNK A   0       9.792   0.949   0.293  0.00  0.00    +0.000 A 
ATOM     48  C   UNK A   0       9.186   2.036   0.869  0.00  0.00    +0.000 A 
ATOM     49  C   UNK A   0       9.524   3.334   0.587  0.00  0.00    +0.000 A 
ATOM     50  C   UNK A   0      10.604   3.536  -0.260  0.00  0.00    +0.000 A 
ATOM     51  F   UNK A   0      10.764   4.720  -0.914  0.00  0.00    +0.000 F 
ATOM     52  C   UNK A   0      11.363   2.445  -0.654  0.00  0.00    +0.000 A 
ATOM     53  C   UNK A   0      10.878   1.167  -0.510  0.00  0.00    +0.000 A 
ENDBRANCH  44  47
ENDBRANCH  42  43
ENDBRANCH  41  42
ENDBRANCH  40  41
ENDBRANCH  39  40
ENDBRANCH  38  39
ENDBRANCH  35  38
ENDBRANCH  33  34
BRANCH  33  54
ATOM     54  C   UNK A   1       1.822   0.131  -1.541  0.00  0.00    +0.000 C 
ATOM     55  O   UNK A   1       0.740   0.666  -1.484  0.00  0.00    +0.000 OA
BRANCH  54  56
ATOM     56  O   UNK A   1       2.506   0.153  -2.765  0.00  0.00    +0.000 OA
ATOM     57  H   UNK A   1       3.347  -0.254  -2.839  0.00  0.00    +0.000 HD
ENDBRANCH  54  56
ENDBRANCH  33  54
ENDBRANCH  32  33
ENDBRANCH  31  32
ENDBRANCH   2  31
TORSDOF 30
