REMARK  Name = 
REMARK  22 active torsions:
REMARK  status: ('A' for Active; 'I' for Inactive)
REMARK    1  A    between atoms: CG1_1  and  CB_2
REMARK    2  A    between atoms: CB_2  and  CG2_3
REMARK    3  A    between atoms: CB_2  and  CA_4
REMARK    4  A    between atoms: CA_4  and  N_5
REMARK    5  A    between atoms: CA_4  and  C_31
REMARK    6  A    between atoms: C_6  and  CA_8
REMARK    7  A    between atoms: CA_8  and  CB_9
REMARK    8  A    between atoms: CA_8  and  N_16
REMARK    9  A    between atoms: CB_9  and  CG_10
REMARK   10  A    between atoms: CG_10  and  CD_11
REMARK   11  A    between atoms: CD_11  and  NE_12
REMARK   12  A    between atoms: N_19  and  CA_20
REMARK   13  A    between atoms: CA_20  and  CB_21
REMARK   14  A    between atoms: CA_20  and  C_28
REMARK   15  A    between atoms: CB_21  and  CG_22
REMARK   16  A    between atoms: C_28  and  OXT_30
REMARK   17  A    between atoms: N_33  and  CA_34
REMARK   18  A    between atoms: CA_34  and  C_35
REMARK   19  A    between atoms: CA_34  and  CB_37
REMARK   20  A    between atoms: CB_37  and  CG_38
REMARK   21  A    between atoms: CG_38  and  CD_39
REMARK   22  A    between atoms: CD_39  and  NE_40
REMARK                            x       y       z     vdW  Elec       q    Type
REMARK                         _______ _______ _______ _____ _____    ______ ____
ROOT
ATOM      1  CA  PHE A   1      -1.006   0.457  -1.047  0.00  0.00    +0.000 C 
ENDROOT
BRANCH   1   2
ATOM      2  N   PHE A   1      -2.019  -0.130  -2.135  0.00  0.00    +0.000 N 
ATOM      3  C   UNK A   0      -3.337  -0.298  -1.669  0.00  0.00    +0.000 C 
ATOM      4  O   UNK A   0      -3.372  -1.145  -0.756  0.00  0.00    +0.000 OA
ATOM      5  N   PHE A   1      -4.500   0.437  -1.954  0.00  0.00    +0.000 N 
ATOM      6  H   PHE A   1      -1.745  -0.354  -3.053  0.00  0.00    +0.000 HD
ATOM      7  H   PHE A   1      -4.605   1.411  -1.859  0.00  0.00    +0.000 HD
BRANCH   5   8
ATOM      8  CA  PHE A   1      -5.619  -0.581  -2.459  0.00  0.00    +0.000 C 
BRANCH   8   9
ATOM      9  C   PHE A   1      -6.119   0.478  -3.603  0.00  0.00    +0.000 C 
ATOM     10  O   PHE A   1      -7.322   0.307  -3.921  0.00  0.00    +0.000 OA
BRANCH   9  11
ATOM     11  OXT PHE A   1      -5.130   0.828  -4.504  0.00  0.00    +0.000 OA
ATOM     12  HXT PHE A   1      -4.248   0.942  -4.210  0.00  0.00    +0.000 HD
ENDBRANCH   9  11
ENDBRANCH   8   9
BRANCH   8  13
ATOM     13  CB  PHE A   1      -6.745   0.014  -1.389  0.00  0.00    +0.000 C 
BRANCH  13  14
ATOM     14  CG  PHE A   1      -6.203  -0.245  -0.045  0.00  0.00    +0.000 A 
ATOM     15  CD1 PHE A   1      -6.671  -1.329   0.690  0.00  0.00    +0.000 A 
ATOM     16  CE1 PHE A   1      -6.372  -1.424   2.037  0.00  0.00    +0.000 A 
ATOM     17  CZ  PHE A   1      -6.351  -0.235   2.756  0.00  0.00    +0.000 A 
ATOM     18  CE2 PHE A   1      -6.280   0.952   2.067  0.00  0.00    +0.000 A 
ATOM     19  CD2 PHE A   1      -5.917   0.879   0.727  0.00  0.00    +0.000 A 
ENDBRANCH  13  14
ENDBRANCH   8  13
ENDBRANCH   5   8
ENDBRANCH   1   2
BRANCH   1  21
ATOM     20  N   PHE A   1       1.446   0.095  -1.213  0.00  0.00    +0.000 N 
ATOM     21  C   PHE A   1       0.210  -0.502  -1.561  0.00  0.00    +0.000 C 
ATOM     22  O   PHE A   1      -0.020  -1.708  -1.625  0.00  0.00    +0.000 OA
ATOM     23  H   PHE A   1       1.641   1.048  -1.365  0.00  0.00    +0.000 HD
BRANCH  20  24
ATOM     24  CA  PHE A   1       2.494  -0.913  -0.555  0.00  0.00    +0.000 C 
BRANCH  24  25
ATOM     25  C   PHE A   1       3.622   0.265  -0.454  0.00  0.00    +0.000 C 
ATOM     26  O   PHE A   1       3.294   1.136   0.402  0.00  0.00    +0.000 OA
ATOM     27  N   ARG A   2       4.960  -0.206  -0.374  0.00  0.00    +0.000 N 
ATOM     28  H   ARG A   2       5.256  -1.112  -0.128  0.00  0.00    +0.000 HD
BRANCH  27  29
ATOM     29  CA  ARG A   2       5.884   1.036  -0.768  0.00  0.00    +0.000 C 
BRANCH  29  30
ATOM     30  C   ARG A   2       7.251   0.199  -0.430  0.00  0.00    +0.000 C 
ATOM     31  O   ARG A   2       7.563  -0.348  -1.488  0.00  0.00    +0.000 OA
ENDBRANCH  29  30
BRANCH  29  32
ATOM     32  CB  ARG A   2       5.798   1.670   0.767  0.00  0.00    +0.000 C 
BRANCH  32  33
ATOM     33  CG  ARG A   2       6.056   0.545   1.705  0.00  0.00    +0.000 C 
BRANCH  33  34
ATOM     34  CD  ARG A   2       6.746   1.114   2.926  0.00  0.00    +0.000 C 
BRANCH  34  35
ATOM     35  NE  ARG A   2       8.163   1.284   2.726  0.00  0.00    +0.000 NA
ATOM     36  CZ  ARG A   2       8.932   0.379   3.220  0.00  0.00    +0.000 C 
ATOM     37  NH1 ARG A   2       9.866  -0.213   2.316  0.00  0.00    +0.000 N 
ATOM     38  NH2 ARG A   2       8.826  -0.171   4.504  0.00  0.00    +0.000 N 
ATOM     39 HH11 ARG A   2       9.966   0.148   1.406  0.00  0.00    +0.000 HD
ATOM     40 HH12 ARG A   2      10.409  -0.983   2.604  0.00  0.00    +0.000 HD
ATOM     41 HH21 ARG A   2       8.192   0.213   5.153  0.00  0.00    +0.000 HD
ATOM     42 HH22 ARG A   2       9.385  -0.941   4.758  0.00  0.00    +0.000 HD
ENDBRANCH  34  35
ENDBRANCH  33  34
ENDBRANCH  32  33
ENDBRANCH  29  32
ENDBRANCH  27  29
ENDBRANCH  24  25
BRANCH  24  44
ATOM     43  CG1 PHE A   1       3.027  -2.231  -2.112  0.00  0.00    +0.000 C 
ATOM     44  CB  PHE A   1       3.033  -1.422  -2.046  0.00  0.00    +0.000 C 
ATOM     45  CG2 PHE A   1       3.248  -0.191  -2.854  0.00  0.00    +0.000 C 
ENDBRANCH  24  44
ENDBRANCH  20  24
ENDBRANCH   1  21
BRANCH   1  46
ATOM     46  CB  PHE A   1      -1.461  -0.612   0.151  0.00  0.00    +0.000 C 
BRANCH  46  47
ATOM     47  CG  PHE A   1      -1.368   0.218   1.404  0.00  0.00    +0.000 C 
BRANCH  47  48
ATOM     48  CD  PHE A   1      -1.340   1.707   1.121  0.00  0.00    +0.000 C 
BRANCH  48  49
ATOM     49  NE  PHE A   1      -2.500   2.389   1.644  0.00  0.00    +0.000 NA
ATOM     50  CZ  PHE A   1      -3.358   1.847   2.437  0.00  0.00    +0.000 C 
ATOM     51  NH1 PHE A   1      -4.529   1.343   1.783  0.00  0.00    +0.000 N 
ATOM     52  NH2 PHE A   1      -2.878   1.170   3.576  0.00  0.00    +0.000 N 
ATOM     53 HH11 PHE A   1      -4.883   1.799   0.986  0.00  0.00    +0.000 HD
ATOM     54 HH12 PHE A   1      -4.980   0.540   2.131  0.00  0.00    +0.000 HD
ATOM     55 HH21 PHE A   1      -2.075   1.499   4.042  0.00  0.00    +0.000 HD
ATOM     56 HH22 PHE A   1      -3.345   0.369   3.907  0.00  0.00    +0.000 HD
ENDBRANCH  48  49
ENDBRANCH  47  48
ENDBRANCH  46  47
ENDBRANCH   1  46
TORSDOF 20
