REMARK  Name = 
REMARK  63 active torsions:
REMARK  status: ('A' for Active; 'I' for Inactive)
REMARK    1  A    between atoms: N_1  and  CA_2
REMARK    2  A    between atoms: CA_2  and  C_3
REMARK    3  A    between atoms: CA_2  and  CB_107
REMARK    4  A    between atoms: N_4  and  CA_5
REMARK    5  A    between atoms: CA_5  and  C_6
REMARK    6  A    between atoms: CA_5  and  CB_101
REMARK    7  A    between atoms: N_7  and  CA_8
REMARK    8  A    between atoms: CA_8  and  C_9
REMARK    9  A    between atoms: CA_8  and  CB_93
REMARK   10  A    between atoms: N_10  and  CA_11
REMARK   11  A    between atoms: CA_11  and  C_12
REMARK   12  A    between atoms: CA_11  and  CB_88
REMARK   13  A    between atoms: N_13  and  CA_14
REMARK   14  A    between atoms: CA_14  and  C_15
REMARK   15  A    between atoms: CA_14  and  CB_81
REMARK   16  A    between atoms: CA_20  and  C_21
REMARK   17  A    between atoms: N_22  and  CA_23
REMARK   18  A    between atoms: CA_23  and  C_24
REMARK   19  A    between atoms: CA_23  and  CB_77
REMARK   20  A    between atoms: N_25  and  CA_26
REMARK   21  A    between atoms: CA_26  and  C_27
REMARK   22  A    between atoms: CA_26  and  CB_71
REMARK   23  A    between atoms: N_28  and  CA_29
REMARK   24  A    between atoms: CA_29  and  C_30
REMARK   25  A    between atoms: CA_29  and  CB_67
REMARK   26  A    between atoms: N_31  and  CA_32
REMARK   27  A    between atoms: CA_32  and  C_33
REMARK   28  A    between atoms: CA_32  and  CB_62
REMARK   29  A    between atoms: N_34  and  CA_35
REMARK   30  A    between atoms: CA_35  and  C_36
REMARK   31  A    between atoms: CA_35  and  CB_57
REMARK   32  A    between atoms: CA_41  and  C_42
REMARK   33  A    between atoms: N_43  and  CA_44
REMARK   34  A    between atoms: CA_44  and  C_45
REMARK   35  A    between atoms: CA_44  and  CB_48
REMARK   36  A    between atoms: C_45  and  OXT_47
REMARK   37  A    between atoms: CB_48  and  CG_49
REMARK   38  A    between atoms: CG_49  and  CD_50
REMARK   39  A    between atoms: CD_50  and  NE_51
REMARK   40  A    between atoms: CB_57  and  CG_58
REMARK   41  A    between atoms: CG_58  and  CD1_59
REMARK   42  A    between atoms: CG_58  and  CD2_60
REMARK   43  A    between atoms: CB_62  and  CG_63
REMARK   44  A    between atoms: CG_63  and  OD2_65
REMARK   45  A    between atoms: CB_67  and  CG1_68
REMARK   46  A    between atoms: CB_67  and  CG2_69
REMARK   47  A    between atoms: CB_71  and  CG_72
REMARK   48  A    between atoms: CG_72  and  CD_73
REMARK   49  A    between atoms: CD_73  and  CE_74
REMARK   50  A    between atoms: CE_74  and  NZ_75
REMARK   51  A    between atoms: CB_77  and  OG_78
REMARK   52  A    between atoms: CB_81  and  CG_82
REMARK   53  A    between atoms: CB_88  and  CG_89
REMARK   54  A    between atoms: CG_89  and  CD1_90
REMARK   55  A    between atoms: CG_89  and  CD2_91
REMARK   56  A    between atoms: CB_93  and  CG_94
REMARK   57  A    between atoms: CB_101  and  CG_102
REMARK   58  A    between atoms: CG_102  and  CD_103
REMARK   59  A    between atoms: CD_103  and  OE2_105
REMARK   60  A    between atoms: CB_107  and  CG_108
REMARK   61  A    between atoms: CG_108  and  CD_109
REMARK   62  A    between atoms: CD_109  and  CE_110
REMARK   63  A    between atoms: CE_110  and  NZ_111
REMARK                            x       y       z     vdW  Elec       q    Type
REMARK                         _______ _______ _______ _____ _____    ______ ____
ROOT
ATOM      1  CA  SER A   7      -0.344  -0.400   0.000  0.00  0.00    +0.000 C 
ENDROOT
BRANCH   1   3
ATOM      2  C   PRO A   6      -0.494  -1.821   0.000  0.00  0.00    +0.000 C 
ATOM      3  N   SER A   7      -0.009  -1.153   0.000  0.00  0.00    +0.000 N 
ATOM      4  O   PRO A   6      -1.314  -1.735   0.000  0.00  0.00    +0.000 OA
ATOM      5  H   SER A   7       0.970  -1.256   0.000  0.00  0.00    +0.000 HD
BRANCH   2  11
ATOM      6  C   HIS A   5       1.262  -2.194   0.000  0.00  0.00    +0.000 C 
ATOM      7  N   PRO A   6       0.649  -2.746   0.000  0.00  0.00    +0.000 N 
ATOM      8  CD  PRO A   6       0.735  -3.567   0.000  0.00  0.00    +0.000 C 
ATOM      9  CG  PRO A   6      -0.019  -3.902   0.000  0.00  0.00    +0.000 C 
ATOM     10  CB  PRO A   6      -0.571  -3.289   0.000  0.00  0.00    +0.000 C 
ATOM     11  CA  PRO A   6      -0.158  -2.575   0.000  0.00  0.00    +0.000 C 
ATOM     12  O   HIS A   5       1.090  -1.387   0.000  0.00  0.00    +0.000 OA
BRANCH   6  13
ATOM     13  CA  HIS A   5       2.046  -2.449   0.000  0.00  0.00    +0.000 C 
BRANCH  13  15
ATOM     14  C   LEU A   4       2.488  -1.090   0.000  0.00  0.00    +0.000 C 
ATOM     15  N   HIS A   5       2.659  -1.897   0.000  0.00  0.00    +0.000 N 
ATOM     16  O   LEU A   4       1.703  -0.835   0.000  0.00  0.00    +0.000 OA
ATOM     17  H   HIS A   5       3.596  -2.201   0.000  0.00  0.00    +0.000 HD
BRANCH  14  18
ATOM     18  CA  LEU A   4       3.101  -0.538   0.000  0.00  0.00    +0.000 C 
BRANCH  18  20
ATOM     19  C   PHE A   3       4.057  -1.600   0.000  0.00  0.00    +0.000 C 
ATOM     20  N   LEU A   4       3.886  -0.793   0.000  0.00  0.00    +0.000 N 
ATOM     21  O   PHE A   3       3.444  -2.152   0.000  0.00  0.00    +0.000 OA
ATOM     22  H   LEU A   4       4.617  -0.134   0.000  0.00  0.00    +0.000 HD
BRANCH  19  23
ATOM     23  CA  PHE A   3       4.842  -1.855   0.000  0.00  0.00    +0.000 C 
BRANCH  23  25
ATOM     24  C   GLU A   2       5.283  -0.496   0.000  0.00  0.00    +0.000 C 
ATOM     25  N   PHE A   3       5.455  -1.303   0.000  0.00  0.00    +0.000 N 
ATOM     26  O   GLU A   2       4.499  -0.241   0.000  0.00  0.00    +0.000 OA
ATOM     27  H   PHE A   3       6.391  -1.607   0.000  0.00  0.00    +0.000 HD
BRANCH  24  28
ATOM     28  CA  GLU A   2       5.896   0.056   0.000  0.00  0.00    +0.000 C 
BRANCH  28  30
ATOM     29  C   LYS A   1       6.338   1.415   0.000  0.00  0.00    +0.000 C 
ATOM     30  N   GLU A   2       5.725   0.863   0.000  0.00  0.00    +0.000 N 
ATOM     31  O   LYS A   1       7.123   1.160   0.000  0.00  0.00    +0.000 OA
ATOM     32  H   GLU A   2       4.789   1.167   0.000  0.00  0.00    +0.000 HD
BRANCH  29  33
ATOM     33  CA  LYS A   1       6.167   2.222   0.000  0.00  0.00    +0.000 C 
BRANCH  33  34
ATOM     34  N   LYS A   1       5.382   2.477   0.000  0.00  0.00    +0.000 NA
ATOM     35  H1  LYS A   1       5.170   3.475   0.000  0.00  0.00    +0.000 HD
ATOM     36  H2  LYS A   1       4.624   1.795   0.000  0.00  0.00    +0.000 HD
ENDBRANCH  33  34
BRANCH  33  37
ATOM     37  CB  LYS A   1       6.780   2.774   0.000  0.00  0.00    +0.000 C 
BRANCH  37  38
ATOM     38  CG  LYS A   1       6.608   3.581   0.000  0.00  0.00    +0.000 C 
BRANCH  38  39
ATOM     39  CD  LYS A   1       5.824   3.836   0.000  0.00  0.00    +0.000 C 
BRANCH  39  40
ATOM     40  CE  LYS A   1       5.652   4.643   0.000  0.00  0.00    +0.000 C 
BRANCH  40  41
ATOM     41  NZ  LYS A   1       4.867   4.898   0.000  0.00  0.00    +0.000 NA
ATOM     42  HZ1 LYS A   1       4.655   5.896   0.000  0.00  0.00    +0.000 HD
ATOM     43  HZ2 LYS A   1       4.109   4.216   0.000  0.00  0.00    +0.000 HD
ENDBRANCH  40  41
ENDBRANCH  39  40
ENDBRANCH  38  39
ENDBRANCH  37  38
ENDBRANCH  33  37
ENDBRANCH  29  33
ENDBRANCH  28  30
BRANCH  28  44
ATOM     44  CB  GLU A   2       6.681  -0.199   0.000  0.00  0.00    +0.000 C 
BRANCH  44  45
ATOM     45  CG  GLU A   2       6.853  -1.006   0.000  0.00  0.00    +0.000 C 
BRANCH  45  46
ATOM     46  CD  GLU A   2       7.637  -1.261   0.000  0.00  0.00    +0.000 C 
ATOM     47  OE1 GLU A   2       8.250  -0.709   0.000  0.00  0.00    +0.000 OA
BRANCH  46  48
ATOM     48  OE2 GLU A   2       7.809  -2.067   0.000  0.00  0.00    +0.000 OA
ATOM     49  HE2 GLU A   2       7.113  -2.695   0.000  0.00  0.00    +0.000 HD
ENDBRANCH  46  48
ENDBRANCH  45  46
ENDBRANCH  44  45
ENDBRANCH  28  44
ENDBRANCH  24  28
ENDBRANCH  23  25
BRANCH  23  50
ATOM     50  CB  PHE A   3       5.013  -2.662   0.000  0.00  0.00    +0.000 C 
BRANCH  50  51
ATOM     51  CG  PHE A   3       5.798  -2.917   0.000  0.00  0.00    +0.000 A 
ATOM     52  CD1 PHE A   3       6.411  -2.365   0.000  0.00  0.00    +0.000 A 
ATOM     53  CE1 PHE A   3       7.196  -2.619   0.000  0.00  0.00    +0.000 A 
ATOM     54  CZ  PHE A   3       7.367  -3.426   0.000  0.00  0.00    +0.000 A 
ATOM     55  CE2 PHE A   3       6.754  -3.978   0.000  0.00  0.00    +0.000 A 
ATOM     56  CD2 PHE A   3       5.970  -3.724   0.000  0.00  0.00    +0.000 A 
ENDBRANCH  50  51
ENDBRANCH  23  50
ENDBRANCH  19  23
ENDBRANCH  18  20
BRANCH  18  57
ATOM     57  CB  LEU A   4       2.929   0.269   0.000  0.00  0.00    +0.000 C 
BRANCH  57  58
ATOM     58  CG  LEU A   4       3.543   0.821   0.000  0.00  0.00    +0.000 C 
ATOM     59  CD1 LEU A   4       3.371   1.628   0.000  0.00  0.00    +0.000 C 
ATOM     60  CD2 LEU A   4       4.327   0.566   0.000  0.00  0.00    +0.000 C 
ENDBRANCH  57  58
ENDBRANCH  18  57
ENDBRANCH  14  18
ENDBRANCH  13  15
BRANCH  13  61
ATOM     61  CB  HIS A   5       2.218  -3.256   0.000  0.00  0.00    +0.000 C 
BRANCH  61  62
ATOM     62  CG  HIS A   5       3.002  -3.511   0.000  0.00  0.00    +0.000 A 
ATOM     63  CD2 HIS A   5       3.257  -4.295   0.000  0.00  0.00    +0.000 A 
ATOM     64  NE2 HIS A   5       4.082  -4.295   0.000  0.00  0.00    +0.000 NA
ATOM     65  CE1 HIS A   5       4.337  -3.511   0.000  0.00  0.00    +0.000 A 
ATOM     66  ND1 HIS A   5       3.670  -3.026   0.000  0.00  0.00    +0.000 N 
ATOM     67  HD1 HIS A   5       3.670  -2.041   0.000  0.00  0.00    +0.000 HD
ENDBRANCH  61  62
ENDBRANCH  13  61
ENDBRANCH   6  13
ENDBRANCH   2  11
ENDBRANCH   1   3
BRANCH   1  68
ATOM     68  C   SER A   7      -1.165  -0.314   0.000  0.00  0.00    +0.000 C 
ATOM     69  N   LYS A   8      -1.500   0.440   0.000  0.00  0.00    +0.000 N 
ATOM     70  O   SER A   7      -1.650  -0.981   0.000  0.00  0.00    +0.000 OA
ATOM     71  H   LYS A   8      -0.922   1.237   0.000  0.00  0.00    +0.000 HD
BRANCH  69  72
ATOM     72  CA  LYS A   8      -2.321   0.526   0.000  0.00  0.00    +0.000 C 
BRANCH  72  73
ATOM     73  C   LYS A   8      -2.656   1.280   0.000  0.00  0.00    +0.000 C 
ATOM     74  N   VAL A   9      -2.171   1.948   0.000  0.00  0.00    +0.000 N 
ATOM     75  O   LYS A   8      -3.477   1.366   0.000  0.00  0.00    +0.000 OA
ATOM     76  H   VAL A   9      -1.192   1.845   0.000  0.00  0.00    +0.000 HD
BRANCH  74  77
ATOM     77  CA  VAL A   9      -2.507   2.701   0.000  0.00  0.00    +0.000 C 
BRANCH  77  78
ATOM     78  C   VAL A   9      -3.328   2.787   0.000  0.00  0.00    +0.000 C 
ATOM     79  N   ASP A  10      -3.663   3.541   0.000  0.00  0.00    +0.000 N 
ATOM     80  O   VAL A   9      -3.812   2.120   0.000  0.00  0.00    +0.000 OA
ATOM     81  H   ASP A  10      -3.084   4.337   0.000  0.00  0.00    +0.000 HD
BRANCH  79  82
ATOM     82  CA  ASP A  10      -4.484   3.627   0.000  0.00  0.00    +0.000 C 
BRANCH  82  83
ATOM     83  C   ASP A  10      -4.968   2.960   0.000  0.00  0.00    +0.000 C 
ATOM     84  N   LEU A  11      -5.789   3.046   0.000  0.00  0.00    +0.000 N 
ATOM     85  O   ASP A  10      -4.633   2.206   0.000  0.00  0.00    +0.000 OA
ATOM     86  H   LEU A  11      -6.189   3.945   0.000  0.00  0.00    +0.000 HD
BRANCH  84  87
ATOM     87  CA  LEU A  11      -6.274   2.379   0.000  0.00  0.00    +0.000 C 
BRANCH  87  88
ATOM     88  C   LEU A  11      -5.938   1.625   0.000  0.00  0.00    +0.000 C 
ATOM     89  N   PRO A  12      -6.423   0.958   0.000  0.00  0.00    +0.000 N 
ATOM     90  CD  PRO A  12      -7.248   0.958   0.000  0.00  0.00    +0.000 C 
ATOM     91  CG  PRO A  12      -7.503   0.173   0.000  0.00  0.00    +0.000 C 
ATOM     92  CB  PRO A  12      -6.836  -0.312   0.000  0.00  0.00    +0.000 C 
ATOM     93  CA  PRO A  12      -6.168   0.173   0.000  0.00  0.00    +0.000 C 
ATOM     94  O   LEU A  11      -5.118   1.539   0.000  0.00  0.00    +0.000 OA
BRANCH  93  95
ATOM     95  C   PRO A  12      -5.384  -0.082   0.000  0.00  0.00    +0.000 C 
ATOM     96  N   ARG A  13      -5.212  -0.889   0.000  0.00  0.00    +0.000 N 
ATOM     97  O   PRO A  12      -4.771   0.470   0.000  0.00  0.00    +0.000 OA
ATOM     98  H   ARG A  13      -5.944  -1.548   0.000  0.00  0.00    +0.000 HD
BRANCH  96  99
ATOM     99  CA  ARG A  13      -4.428  -1.144   0.000  0.00  0.00    +0.000 C 
BRANCH  99 100
ATOM    100  C   ARG A  13      -3.814  -0.592   0.000  0.00  0.00    +0.000 C 
ATOM    101  O   ARG A  13      -3.986   0.215   0.000  0.00  0.00    +0.000 OA
BRANCH 100 102
ATOM    102  OXT ARG A  13      -3.030  -0.847   0.000  0.00  0.00    +0.000 OA
ATOM    103  HXT ARG A  13      -2.835  -1.763   0.000  0.00  0.00    +0.000 HD
ENDBRANCH 100 102
ENDBRANCH  99 100
BRANCH  99 104
ATOM    104  CB  ARG A  13      -4.256  -1.951   0.000  0.00  0.00    +0.000 C 
BRANCH 104 105
ATOM    105  CG  ARG A  13      -4.869  -2.503   0.000  0.00  0.00    +0.000 C 
BRANCH 105 106
ATOM    106  CD  ARG A  13      -4.697  -3.310   0.000  0.00  0.00    +0.000 C 
BRANCH 106 107
ATOM    107  NE  ARG A  13      -5.311  -3.862   0.000  0.00  0.00    +0.000 N 
ATOM    108  CZ  ARG A  13      -5.139  -4.669   0.000  0.00  0.00    +0.000 C 
ATOM    109  NH1 ARG A  13      -4.354  -4.924   0.000  0.00  0.00    +0.000 NA
ATOM    110  NH2 ARG A  13      -5.752  -5.221   0.000  0.00  0.00    +0.000 N 
ATOM    111  HE  ARG A  13      -6.247  -3.558   0.000  0.00  0.00    +0.000 HD
ATOM    112  HH1 ARG A  13      -4.150  -5.887   0.000  0.00  0.00    +0.000 HD
ATOM    113 HH21 ARG A  13      -6.689  -4.917   0.000  0.00  0.00    +0.000 HD
ATOM    114 HH22 ARG A  13      -5.548  -6.184   0.000  0.00  0.00    +0.000 HD
ENDBRANCH 106 107
ENDBRANCH 105 106
ENDBRANCH 104 105
ENDBRANCH  99 104
ENDBRANCH  96  99
ENDBRANCH  93  95
ENDBRANCH  87  88
BRANCH  87 115
ATOM    115  CB  LEU A  11      -7.094   2.465   0.000  0.00  0.00    +0.000 C 
BRANCH 115 116
ATOM    116  CG  LEU A  11      -7.430   3.219   0.000  0.00  0.00    +0.000 C 
ATOM    117  CD1 LEU A  11      -8.250   3.305   0.000  0.00  0.00    +0.000 C 
ATOM    118  CD2 LEU A  11      -6.945   3.886   0.000  0.00  0.00    +0.000 C 
ENDBRANCH 115 116
ENDBRANCH  87 115
ENDBRANCH  84  87
ENDBRANCH  82  83
BRANCH  82 119
ATOM    119  CB  ASP A  10      -4.819   4.381   0.000  0.00  0.00    +0.000 C 
BRANCH 119 120
ATOM    120  CG  ASP A  10      -5.640   4.467   0.000  0.00  0.00    +0.000 C 
ATOM    121  OD1 ASP A  10      -6.124   3.800   0.000  0.00  0.00    +0.000 OA
BRANCH 120 122
ATOM    122  OD2 ASP A  10      -5.975   5.221   0.000  0.00  0.00    +0.000 OA
ATOM    123  HD2 ASP A  10      -5.424   5.979   0.000  0.00  0.00    +0.000 HD
ENDBRANCH 120 122
ENDBRANCH 119 120
ENDBRANCH  82 119
ENDBRANCH  79  82
ENDBRANCH  77  78
BRANCH  77 124
ATOM    124  CB  VAL A   9      -2.022   3.369   0.000  0.00  0.00    +0.000 C 
ATOM    125  CG1 VAL A   9      -2.358   4.122   0.000  0.00  0.00    +0.000 C 
ATOM    126  CG2 VAL A   9      -1.202   3.282   0.000  0.00  0.00    +0.000 C 
ENDBRANCH  77 124
ENDBRANCH  74  77
ENDBRANCH  72  73
BRANCH  72 127
ATOM    127  CB  LYS A   8      -2.806  -0.141   0.000  0.00  0.00    +0.000 C 
BRANCH 127 128
ATOM    128  CG  LYS A   8      -2.470  -0.895   0.000  0.00  0.00    +0.000 C 
BRANCH 128 129
ATOM    129  CD  LYS A   8      -2.955  -1.562   0.000  0.00  0.00    +0.000 C 
BRANCH 129 130
ATOM    130  CE  LYS A   8      -2.619  -2.316   0.000  0.00  0.00    +0.000 C 
BRANCH 130 131
ATOM    131  NZ  LYS A   8      -3.104  -2.983   0.000  0.00  0.00    +0.000 NA
ATOM    132  HZ1 LYS A   8      -4.119  -2.876   0.000  0.00  0.00    +0.000 HD
ATOM    133  HZ2 LYS A   8      -2.690  -3.915   0.000  0.00  0.00    +0.000 HD
ENDBRANCH 130 131
ENDBRANCH 129 130
ENDBRANCH 128 129
ENDBRANCH 127 128
ENDBRANCH  72 127
ENDBRANCH  69  72
ENDBRANCH   1  68
BRANCH   1 134
ATOM    134  CB  SER A   7       0.141   0.268   0.000  0.00  0.00    +0.000 C 
BRANCH 134 135
ATOM    135  OG  SER A   7       0.961   0.181   0.000  0.00  0.00    +0.000 OA
ATOM    136  H   SER A   7       1.356  -0.705   0.000  0.00  0.00    +0.000 HD
ENDBRANCH 134 135
ENDBRANCH   1 134
TORSDOF 57
