REMARK  Name = 
REMARK  36 active torsions:
REMARK  status: ('A' for Active; 'I' for Inactive)
REMARK    1  A    between atoms: CB_1  and  CA_2
REMARK    2  A    between atoms: CA_2  and  N_3
REMARK    3  A    between atoms: CA_2  and  C_4
REMARK    4  A    between atoms: N_6  and  C_7
REMARK    5  A    between atoms: C_7  and  C_8
REMARK    6  A    between atoms: C_7  and  C_10
REMARK    7  A    between atoms: C_8  and  O_9
REMARK    8  A    between atoms: N_12  and  C_13
REMARK    9  A    between atoms: C_13  and  C_14
REMARK   10  A    between atoms: C_13  and  C_58
REMARK   11  A    between atoms: N_16  and  C_17
REMARK   12  A    between atoms: C_17  and  C_18
REMARK   13  A    between atoms: C_17  and  C_55
REMARK   14  A    between atoms: N_20  and  C_21
REMARK   15  A    between atoms: C_21  and  C_22
REMARK   16  A    between atoms: C_21  and  C_52
REMARK   17  A    between atoms: N_24  and  C_25
REMARK   18  A    between atoms: C_25  and  C_26
REMARK   19  A    between atoms: C_25  and  C_30
REMARK   20  A    between atoms: C_26  and  C_27
REMARK   21  A    between atoms: N_32  and  C_33
REMARK   22  A    between atoms: C_33  and  C_34
REMARK   23  A    between atoms: C_33  and  C_42
REMARK   24  A    between atoms: C_34  and  C_35
REMARK   25  A    between atoms: C_38  and  O_39
REMARK   26  A    between atoms: N_44  and  C_45
REMARK   27  A    between atoms: C_45  and  C_46
REMARK   28  A    between atoms: C_45  and  C_49
REMARK   29  A    between atoms: C_49  and  C_50
REMARK   30  A    between atoms: C_49  and  O_51
REMARK   31  A    between atoms: C_52  and  C_53
REMARK   32  A    between atoms: C_52  and  O_54
REMARK   33  A    between atoms: C_55  and  C_56
REMARK   34  A    between atoms: C_55  and  O_57
REMARK   35  A    between atoms: C_58  and  C_59
REMARK   36  A    between atoms: C_58  and  O_60
REMARK                            x       y       z     vdW  Elec       q    Type
REMARK                         _______ _______ _______ _____ _____    ______ ____
ROOT
ATOM      1  C   UNK A   2       1.688   1.658  -1.236  0.00  0.00    +0.000 C 
ENDROOT
BRANCH   1   4
ATOM      2  C   UNK A   2       2.352  -0.123   0.363  0.00  0.00    +0.000 C 
ATOM      3  O   UNK A   2       1.146  -0.430   0.674  0.00  0.00    +0.000 OA
ATOM      4  N   UNK A   2       2.171   0.194  -0.988  0.00  0.00    +0.000 N 
ATOM      5  H   UNK A   2       2.332  -0.449  -1.716  0.00  0.00    +0.000 HD
BRANCH   2   6
ATOM      6  C   UNK A   2       3.002  -1.533   0.762  0.00  0.00    +0.000 C 
BRANCH   6   9
ATOM      7  C   UNK A   2       4.720  -1.475  -0.931  0.00  0.00    +0.000 C 
ATOM      8  O   UNK A   2       4.620  -0.364  -1.418  0.00  0.00    +0.000 OA
ATOM      9  N   UNK A   2       4.501  -1.309   0.382  0.00  0.00    +0.000 N 
ATOM     10  H   UNK A   2       5.203  -1.073   1.031  0.00  0.00    +0.000 HD
BRANCH   7  11
ATOM     11  C   UNK A   2       5.910  -2.204  -1.696  0.00  0.00    +0.000 C 
BRANCH  11  14
ATOM     12  C   UNK A   2       7.812  -1.056  -0.425  0.00  0.00    +0.000 C 
ATOM     13  O   UNK A   2       7.426  -1.493   0.634  0.00  0.00    +0.000 OA
ATOM     14  N   UNK A   2       6.960  -1.057  -1.493  0.00  0.00    +0.000 N 
ATOM     15  H   UNK A   2       7.006  -0.323  -2.148  0.00  0.00    +0.000 HD
BRANCH  12  16
ATOM     16  C   UNK A   2       9.304  -0.511  -0.652  0.00  0.00    +0.000 C 
BRANCH  16  19
ATOM     17  C   ALA A   1      10.070   1.701   0.018  0.00  0.00    +0.000 C 
ATOM     18  O   ALA A   1      11.016   1.586  -0.801  0.00  0.00    +0.000 OA
ATOM     19  N   UNK A   2       8.966   0.862   0.047  0.00  0.00    +0.000 N 
ATOM     20  H   UNK A   2       8.096   1.090   0.446  0.00  0.00    +0.000 HD
BRANCH  17  22
ATOM     21  CB  ALA A   1       8.619   3.411  -0.726  0.00  0.00    +0.000 C 
ATOM     22  CA  ALA A   1       9.873   3.268   0.331  0.00  0.00    +0.000 C 
BRANCH  22  23
ATOM     23  N   ALA A   1       8.904   2.994   1.546  0.00  0.00    +0.000 NA
ATOM     24  H1  ALA A   1       8.205   2.303   1.275  0.00  0.00    +0.000 HD
ATOM     25  H2  ALA A   1       8.439   3.862   1.811  0.00  0.00    +0.000 HD
ENDBRANCH  22  23
ENDBRANCH  17  22
ENDBRANCH  16  19
BRANCH  16  26
ATOM     26  C   UNK A   2       9.890  -1.147   0.751  0.00  0.00    +0.000 C 
BRANCH  26  27
ATOM     27  O   UNK A   2       9.932  -2.494   0.372  0.00  0.00    +0.000 OA
ATOM     28  H   UNK A   2       9.052  -2.774   0.078  0.00  0.00    +0.000 HD
ENDBRANCH  26  27
ENDBRANCH  16  26
ENDBRANCH  12  16
ENDBRANCH  11  14
BRANCH  11  29
ATOM     29  C   UNK A   2       6.322  -3.100  -0.283  0.00  0.00    +0.000 C 
ATOM     30  C   UNK A   2       5.135  -4.182  -0.617  0.00  0.00    +0.000 C 
BRANCH  29  31
ATOM     31  O   UNK A   2       7.339  -3.876  -1.078  0.00  0.00    +0.000 OA
ATOM     32  H   UNK A   2       6.950  -4.145  -1.925  0.00  0.00    +0.000 HD
ENDBRANCH  29  31
ENDBRANCH  11  29
ENDBRANCH   7  11
ENDBRANCH   6   9
BRANCH   6  33
ATOM     33  C   UNK A   2       3.399  -1.118   2.401  0.00  0.00    +0.000 C 
ATOM     34  C   UNK A   2       3.971   0.386   2.081  0.00  0.00    +0.000 C 
BRANCH  33  35
ATOM     35  O   UNK A   2       2.030  -0.601   2.753  0.00  0.00    +0.000 OA
ATOM     36  H   UNK A   2       1.728   0.013   2.065  0.00  0.00    +0.000 HD
ENDBRANCH  33  35
ENDBRANCH   6  33
ENDBRANCH   2   6
ENDBRANCH   1   4
BRANCH   1  37
ATOM     37  C   UNK A   2       0.234   1.384  -0.664  0.00  0.00    +0.000 C 
ATOM     38  O   UNK A   2       0.222   2.121   0.390  0.00  0.00    +0.000 OA
ATOM     39  N   UNK A   2      -0.979   1.438  -1.297  0.00  0.00    +0.000 N 
ATOM     40  H   UNK A   2      -1.206   1.914  -2.129  0.00  0.00    +0.000 HD
BRANCH  39  41
ATOM     41  C   UNK A   2      -1.932   0.566  -0.390  0.00  0.00    +0.000 C 
BRANCH  41  42
ATOM     42  C   UNK A   2      -3.195   0.650  -1.394  0.00  0.00    +0.000 C 
ATOM     43  O   UNK A   2      -3.046  -0.093  -2.415  0.00  0.00    +0.000 OA
ATOM     44  N   UNK A   2      -4.486   0.471  -0.848  0.00  0.00    +0.000 N 
ATOM     45  H   UNK A   2      -5.080   1.238  -0.684  0.00  0.00    +0.000 HD
BRANCH  44  46
ATOM     46  C   UNK A   2      -4.942  -1.001  -0.511  0.00  0.00    +0.000 C 
BRANCH  46  47
ATOM     47  C   UNK A   2      -6.497  -0.880  -0.981  0.00  0.00    +0.000 C 
ATOM     48  O   UNK A   2      -6.648  -0.988  -2.239  0.00  0.00    +0.000 OA
ATOM     49  N   UNK A   2      -6.892  -2.180  -0.549  0.00  0.00    +0.000 N 
ATOM     50  H   UNK A   2      -6.201  -2.822  -0.267  0.00  0.00    +0.000 HD
BRANCH  49  51
ATOM     51  C   UNK A   2      -8.381  -2.607  -0.514  0.00  0.00    +0.000 C 
BRANCH  51  52
ATOM     52  C   UNK A   2      -8.998  -1.179  -0.123  0.00  0.00    +0.000 C 
ATOM     53  N   UNK A   2     -10.375  -1.199   0.306  0.00  0.00    +0.000 N 
ATOM     54  O   UNK A   2      -9.022  -0.391  -1.121  0.00  0.00    +0.000 OA
ATOM     55  H   UNK A   2     -10.642  -1.746   1.080  0.00  0.00    +0.000 HD
ATOM     56  H   UNK A   2     -11.048  -0.666  -0.176  0.00  0.00    +0.000 HD
ENDBRANCH  51  52
BRANCH  51  57
ATOM     57  C   UNK A   2      -8.091  -3.021   1.141  0.00  0.00    +0.000 C 
ATOM     58  C   UNK A   2      -9.655  -3.332   1.496  0.00  0.00    +0.000 C 
BRANCH  57  59
ATOM     59  O   UNK A   2      -7.848  -4.461   0.765  0.00  0.00    +0.000 OA
ATOM     60  H   UNK A   2      -8.556  -4.765   0.175  0.00  0.00    +0.000 HD
ENDBRANCH  57  59
ENDBRANCH  51  57
ENDBRANCH  49  51
ENDBRANCH  46  47
BRANCH  46  61
ATOM     61  C   UNK A   2      -5.319  -0.629   1.037  0.00  0.00    +0.000 C 
BRANCH  61  62
ATOM     62  C   UNK A   2      -5.924   0.653   1.177  0.00  0.00    +0.000 A 
ATOM     63  C   UNK A   2      -6.411   1.562   0.281  0.00  0.00    +0.000 A 
ATOM     64  C   UNK A   2      -7.652   2.136   0.376  0.00  0.00    +0.000 A 
ATOM     65  C   UNK A   2      -8.153   2.308   1.659  0.00  0.00    +0.000 A 
ATOM     66  C   UNK A   2      -7.466   1.754   2.716  0.00  0.00    +0.000 A 
ATOM     67  C   UNK A   2      -6.492   0.820   2.442  0.00  0.00    +0.000 A 
BRANCH  65  68
ATOM     68  O   UNK A   2      -9.496   2.658   1.755  0.00  0.00    +0.000 OA
ATOM     69  H   UNK A   2      -9.936   3.034   1.018  0.00  0.00    +0.000 HD
ENDBRANCH  65  68
ENDBRANCH  61  62
ENDBRANCH  46  61
ENDBRANCH  44  46
ENDBRANCH  41  42
BRANCH  41  70
ATOM     70  C   UNK A   2      -2.353   1.876   0.502  0.00  0.00    +0.000 C 
BRANCH  70  71
ATOM     71  C   UNK A   2      -3.051   2.845  -0.327  0.00  0.00    +0.000 C 
ATOM     72  N   UNK A   2      -4.111   3.545   0.351  0.00  0.00    +0.000 N 
ATOM     73  O   UNK A   2      -2.369   3.603  -1.085  0.00  0.00    +0.000 OA
ATOM     74  H   UNK A   2      -4.707   3.060   0.967  0.00  0.00    +0.000 HD
ATOM     75  H   UNK A   2      -4.240   4.509   0.200  0.00  0.00    +0.000 HD
ENDBRANCH  70  71
ENDBRANCH  41  70
ENDBRANCH  39  41
ENDBRANCH   1  37
BRANCH   1  76
ATOM     76  C   UNK A   2       1.447   1.311  -2.912  0.00  0.00    +0.000 C 
ATOM     77  C   UNK A   2       0.500  -0.011  -2.717  0.00  0.00    +0.000 C 
BRANCH  76  78
ATOM     78  O   UNK A   2       0.302   2.282  -3.031  0.00  0.00    +0.000 OA
ATOM     79  H   UNK A   2      -0.325   2.133  -2.307  0.00  0.00    +0.000 HD
ENDBRANCH  76  78
ENDBRANCH   1  76
TORSDOF 31
