MODEL 1
REMARK VINA RESULT:    -8.727      0.000      0.000
REMARK INTER + INTRA:         -10.356
REMARK INTER:                  -9.622
REMARK INTRA:                  -0.733
REMARK CONF_INDEPENDENT:        0.895
REMARK UNBOUND:                 0.733
REMARK  Name = 9926791
REMARK  5 active torsions:
REMARK  status: ('A' for Active; 'I' for Inactive)
REMARK    1  A    between atoms: N_3  and  C_8
REMARK    2  A    between atoms: N_3  and  C_16
REMARK    3  A    between atoms: C_9  and  C_13
REMARK    4  A    between atoms: C_15  and  C_18
REMARK    5  A    between atoms: C_18  and  C_23
REMARK                            x       y       z     vdW  Elec       q    Type
REMARK                         _______ _______ _______ _____ _____    ______ ____
ROOT
ATOM      1  N   UNL     1      -0.155  -2.037  -1.626  0.00  0.00    +0.000 N 
ATOM      2  N   UNL     1      -1.277  -3.747  -2.858  0.00  0.00    +0.000 NA
ATOM      3  N   UNL     1       2.297  -5.015  -4.250  0.00  0.00    +0.000 N 
ATOM      4  N   UNL     1      -0.091  -5.349  -4.255  0.00  0.00    +0.000 NA
ATOM      5  C   UNL     1      -0.123  -3.131  -2.495  0.00  0.00    +0.000 A 
ATOM      6  C   UNL     1       0.961  -1.776  -0.721  0.00  0.00    +0.000 C 
ATOM      7  C   UNL     1       1.087  -3.611  -3.006  0.00  0.00    +0.000 A 
ATOM      8  C   UNL     1       1.021  -4.703  -3.863  0.00  0.00    +0.000 A 
ATOM      9  C   UNL     1       2.458  -3.265  -2.882  0.00  0.00    +0.000 A 
ATOM     10  C   UNL     1      -1.191  -4.800  -3.701  0.00  0.00    +0.000 A 
ATOM     11  C   UNL     1       3.179  -4.146  -3.658  0.00  0.00    +0.000 A 
ATOM     12  H   UNL     1       2.549  -5.767  -4.876  0.00  0.00    +0.000 HD
ENDROOT
BRANCH   1  15
ATOM     13  O   UNL     1      -2.494   0.971  -4.782  0.00  0.00    +0.000 OA
ATOM     14  N   UNL     1      -3.167  -0.247  -2.921  0.00  0.00    +0.000 N 
ATOM     15  C   UNL     1      -1.293  -1.145  -1.588  0.00  0.00    +0.000 C 
ATOM     16  C   UNL     1      -2.259  -1.525  -0.445  0.00  0.00    +0.000 C 
ATOM     17  C   UNL     1      -3.481  -0.590  -0.489  0.00  0.00    +0.000 C 
ATOM     18  C   UNL     1      -1.989  -1.119  -2.951  0.00  0.00    +0.000 C 
ATOM     19  C   UNL     1      -4.144  -0.553  -1.868  0.00  0.00    +0.000 C 
ATOM     20  C   UNL     1      -2.695  -2.996  -0.467  0.00  0.00    +0.000 C 
ATOM     21  C   UNL     1      -3.327   0.729  -3.905  0.00  0.00    +0.000 C 
BRANCH  21  22
ATOM     22  C   UNL     1      -4.606   1.527  -3.865  0.00  0.00    +0.000 C 
BRANCH  22  24
ATOM     23  N   UNL     1      -4.816   2.979  -6.033  0.00  0.00    +0.000 NA
ATOM     24  C   UNL     1      -4.715   2.331  -5.075  0.00  0.00    +0.000 C 
ENDBRANCH  22  24
ENDBRANCH  21  22
ENDBRANCH   1  15
TORSDOF 3
ENDMDL
MODEL 2
REMARK VINA RESULT:    -8.685      2.279      7.105
REMARK INTER + INTRA:         -10.251
REMARK INTER:                  -9.580
REMARK INTRA:                  -0.671
REMARK CONF_INDEPENDENT:        0.895
REMARK UNBOUND:                 0.671
REMARK  Name = 9926791
REMARK  5 active torsions:
REMARK  status: ('A' for Active; 'I' for Inactive)
REMARK    1  A    between atoms: N_3  and  C_8
REMARK    2  A    between atoms: N_3  and  C_16
REMARK    3  A    between atoms: C_9  and  C_13
REMARK    4  A    between atoms: C_15  and  C_18
REMARK    5  A    between atoms: C_18  and  C_23
REMARK                            x       y       z     vdW  Elec       q    Type
REMARK                         _______ _______ _______ _____ _____    ______ ____
ROOT
ATOM      1  N   UNL     1      -1.684  -3.337  -4.118  0.00  0.00    +0.000 N 
ATOM      2  N   UNL     1      -1.457  -2.953  -1.773  0.00  0.00    +0.000 NA
ATOM      3  N   UNL     1      -3.042   0.729  -2.278  0.00  0.00    +0.000 N 
ATOM      4  N   UNL     1      -2.134  -0.867  -0.715  0.00  0.00    +0.000 NA
ATOM      5  C   UNL     1      -1.837  -2.514  -2.999  0.00  0.00    +0.000 A 
ATOM      6  C   UNL     1      -2.609  -3.239  -5.244  0.00  0.00    +0.000 C 
ATOM      7  C   UNL     1      -2.381  -1.230  -3.118  0.00  0.00    +0.000 A 
ATOM      8  C   UNL     1      -2.495  -0.483  -1.952  0.00  0.00    +0.000 A 
ATOM      9  C   UNL     1      -2.882  -0.426  -4.175  0.00  0.00    +0.000 A 
ATOM     10  C   UNL     1      -1.626  -2.116  -0.724  0.00  0.00    +0.000 A 
ATOM     11  C   UNL     1      -3.282   0.774  -3.628  0.00  0.00    +0.000 A 
ATOM     12  H   UNL     1      -3.237   1.475  -1.625  0.00  0.00    +0.000 HD
ENDROOT
BRANCH   1  15
ATOM     13  O   UNL     1       3.240  -3.357  -3.642  0.00  0.00    +0.000 OA
ATOM     14  N   UNL     1       1.579  -4.936  -3.254  0.00  0.00    +0.000 N 
ATOM     15  C   UNL     1      -0.621  -4.316  -4.187  0.00  0.00    +0.000 C 
ATOM     16  C   UNL     1      -1.158  -5.739  -3.926  0.00  0.00    +0.000 C 
ATOM     17  C   UNL     1       0.020  -6.730  -3.945  0.00  0.00    +0.000 C 
ATOM     18  C   UNL     1       0.507  -3.937  -3.224  0.00  0.00    +0.000 C 
ATOM     19  C   UNL     1       1.151  -6.318  -3.001  0.00  0.00    +0.000 C 
ATOM     20  C   UNL     1      -1.962  -5.869  -2.626  0.00  0.00    +0.000 C 
ATOM     21  C   UNL     1       2.900  -4.525  -3.430  0.00  0.00    +0.000 C 
BRANCH  21  22
ATOM     22  C   UNL     1       3.958  -5.597  -3.357  0.00  0.00    +0.000 C 
BRANCH  22  24
ATOM     23  N   UNL     1       6.269  -4.521  -2.760  0.00  0.00    +0.000 NA
ATOM     24  C   UNL     1       5.240  -4.992  -3.018  0.00  0.00    +0.000 C 
ENDBRANCH  22  24
ENDBRANCH  21  22
ENDBRANCH   1  15
TORSDOF 3
ENDMDL
MODEL 3
REMARK VINA RESULT:    -8.559      2.796      6.665
REMARK INTER + INTRA:         -10.444
REMARK INTER:                  -9.454
REMARK INTRA:                  -0.990
REMARK CONF_INDEPENDENT:        0.895
REMARK UNBOUND:                 0.990
REMARK  Name = 9926791
REMARK  5 active torsions:
REMARK  status: ('A' for Active; 'I' for Inactive)
REMARK    1  A    between atoms: N_3  and  C_8
REMARK    2  A    between atoms: N_3  and  C_16
REMARK    3  A    between atoms: C_9  and  C_13
REMARK    4  A    between atoms: C_15  and  C_18
REMARK    5  A    between atoms: C_18  and  C_23
REMARK                            x       y       z     vdW  Elec       q    Type
REMARK                         _______ _______ _______ _____ _____    ______ ____
ROOT
ATOM      1  N   UNL     1      -1.718  -1.464  -1.384  0.00  0.00    +0.000 N 
ATOM      2  N   UNL     1      -2.379   0.484  -2.596  0.00  0.00    +0.000 NA
ATOM      3  N   UNL     1      -5.819  -1.378  -3.607  0.00  0.00    +0.000 N 
ATOM      4  N   UNL     1      -4.496   0.631  -3.788  0.00  0.00    +0.000 NA
ATOM      5  C   UNL     1      -2.643  -0.780  -2.178  0.00  0.00    +0.000 A 
ATOM      6  C   UNL     1      -2.167  -2.454  -0.408  0.00  0.00    +0.000 C 
ATOM      7  C   UNL     1      -3.849  -1.378  -2.557  0.00  0.00    +0.000 A 
ATOM      8  C   UNL     1      -4.707  -0.622  -3.347  0.00  0.00    +0.000 A 
ATOM      9  C   UNL     1      -4.482  -2.630  -2.342  0.00  0.00    +0.000 A 
ATOM     10  C   UNL     1      -3.306   1.101  -3.362  0.00  0.00    +0.000 A 
ATOM     11  C   UNL     1      -5.692  -2.601  -3.000  0.00  0.00    +0.000 A 
ATOM     12  H   UNL     1      -6.609  -1.080  -4.162  0.00  0.00    +0.000 HD
ENDROOT
BRANCH   1  15
ATOM     13  O   UNL     1       1.962  -0.157   1.654  0.00  0.00    +0.000 OA
ATOM     14  N   UNL     1       1.859  -1.394  -0.312  0.00  0.00    +0.000 N 
ATOM     15  C   UNL     1      -0.299  -1.204  -1.495  0.00  0.00    +0.000 C 
ATOM     16  C   UNL     1       0.296  -1.897  -2.739  0.00  0.00    +0.000 C 
ATOM     17  C   UNL     1       1.815  -1.646  -2.774  0.00  0.00    +0.000 C 
ATOM     18  C   UNL     1       0.414  -1.617  -0.205  0.00  0.00    +0.000 C 
ATOM     19  C   UNL     1       2.506  -2.033  -1.465  0.00  0.00    +0.000 C 
ATOM     20  C   UNL     1      -0.011  -3.398  -2.820  0.00  0.00    +0.000 C 
ATOM     21  C   UNL     1       2.523  -0.688   0.691  0.00  0.00    +0.000 C 
BRANCH  21  22
ATOM     22  C   UNL     1       4.022  -0.577   0.562  0.00  0.00    +0.000 C 
BRANCH  22  24
ATOM     23  N   UNL     1       4.624   1.100  -1.356  0.00  0.00    +0.000 NA
ATOM     24  C   UNL     1       4.349   0.353  -0.511  0.00  0.00    +0.000 C 
ENDBRANCH  22  24
ENDBRANCH  21  22
ENDBRANCH   1  15
TORSDOF 3
ENDMDL
MODEL 4
REMARK VINA RESULT:    -8.048      1.656      2.472
REMARK INTER + INTRA:          -9.655
REMARK INTER:                  -8.943
REMARK INTRA:                  -0.712
REMARK CONF_INDEPENDENT:        0.895
REMARK UNBOUND:                 0.712
REMARK  Name = 9926791
REMARK  5 active torsions:
REMARK  status: ('A' for Active; 'I' for Inactive)
REMARK    1  A    between atoms: N_3  and  C_8
REMARK    2  A    between atoms: N_3  and  C_16
REMARK    3  A    between atoms: C_9  and  C_13
REMARK    4  A    between atoms: C_15  and  C_18
REMARK    5  A    between atoms: C_18  and  C_23
REMARK                            x       y       z     vdW  Elec       q    Type
REMARK                         _______ _______ _______ _____ _____    ______ ____
ROOT
ATOM      1  N   UNL     1      -1.075  -1.584  -0.833  0.00  0.00    +0.000 N 
ATOM      2  N   UNL     1      -0.156  -2.455  -2.858  0.00  0.00    +0.000 NA
ATOM      3  N   UNL     1       3.505  -1.246  -1.652  0.00  0.00    +0.000 N 
ATOM      4  N   UNL     1       2.218  -2.329  -3.380  0.00  0.00    +0.000 NA
ATOM      5  C   UNL     1       0.020  -1.826  -1.668  0.00  0.00    +0.000 A 
ATOM      6  C   UNL     1      -0.910  -1.550   0.617  0.00  0.00    +0.000 C 
ATOM      7  C   UNL     1       1.309  -1.429  -1.299  0.00  0.00    +0.000 A 
ATOM      8  C   UNL     1       2.336  -1.711  -2.192  0.00  0.00    +0.000 A 
ATOM      9  C   UNL     1       1.897  -0.771  -0.187  0.00  0.00    +0.000 A 
ATOM     10  C   UNL     1       0.935  -2.664  -3.627  0.00  0.00    +0.000 A 
ATOM     11  C   UNL     1       3.250  -0.673  -0.432  0.00  0.00    +0.000 A 
ATOM     12  H   UNL     1       4.415  -1.314  -2.086  0.00  0.00    +0.000 HD
ENDROOT
BRANCH   1  15
ATOM     13  O   UNL     1      -3.205   1.487  -4.076  0.00  0.00    +0.000 OA
ATOM     14  N   UNL     1      -3.636  -0.695  -3.403  0.00  0.00    +0.000 N 
ATOM     15  C   UNL     1      -2.399  -1.376  -1.378  0.00  0.00    +0.000 C 
ATOM     16  C   UNL     1      -3.257  -2.653  -1.256  0.00  0.00    +0.000 C 
ATOM     17  C   UNL     1      -4.629  -2.400  -1.907  0.00  0.00    +0.000 C 
ATOM     18  C   UNL     1      -2.303  -0.878  -2.822  0.00  0.00    +0.000 C 
ATOM     19  C   UNL     1      -4.513  -1.872  -3.338  0.00  0.00    +0.000 C 
ATOM     20  C   UNL     1      -2.594  -3.904  -1.847  0.00  0.00    +0.000 C 
ATOM     21  C   UNL     1      -3.955   0.509  -4.032  0.00  0.00    +0.000 C 
BRANCH  21  22
ATOM     22  C   UNL     1      -5.311   0.592  -4.687  0.00  0.00    +0.000 C 
BRANCH  22  24
ATOM     23  N   UNL     1      -5.666   3.012  -5.619  0.00  0.00    +0.000 NA
ATOM     24  C   UNL     1      -5.515   1.936  -5.213  0.00  0.00    +0.000 C 
ENDBRANCH  22  24
ENDBRANCH  21  22
ENDBRANCH   1  15
TORSDOF 3
ENDMDL
MODEL 5
REMARK VINA RESULT:    -7.918      1.454      2.436
REMARK INTER + INTRA:          -9.709
REMARK INTER:                  -8.813
REMARK INTRA:                  -0.896
REMARK CONF_INDEPENDENT:        0.895
REMARK UNBOUND:                 0.896
REMARK  Name = 9926791
REMARK  5 active torsions:
REMARK  status: ('A' for Active; 'I' for Inactive)
REMARK    1  A    between atoms: N_3  and  C_8
REMARK    2  A    between atoms: N_3  and  C_16
REMARK    3  A    between atoms: C_9  and  C_13
REMARK    4  A    between atoms: C_15  and  C_18
REMARK    5  A    between atoms: C_18  and  C_23
REMARK                            x       y       z     vdW  Elec       q    Type
REMARK                         _______ _______ _______ _____ _____    ______ ____
ROOT
ATOM      1  N   UNL     1       0.032  -2.690  -3.675  0.00  0.00    +0.000 N 
ATOM      2  N   UNL     1       1.992  -1.710  -2.729  0.00  0.00    +0.000 NA
ATOM      3  N   UNL     1       3.786  -5.328  -2.834  0.00  0.00    +0.000 N 
ATOM      4  N   UNL     1       4.002  -2.998  -2.251  0.00  0.00    +0.000 NA
ATOM      5  C   UNL     1       1.344  -2.802  -3.207  0.00  0.00    +0.000 A 
ATOM      6  C   UNL     1      -0.453  -3.562  -4.743  0.00  0.00    +0.000 C 
ATOM      7  C   UNL     1       2.011  -4.031  -3.221  0.00  0.00    +0.000 A 
ATOM      8  C   UNL     1       3.314  -4.047  -2.736  0.00  0.00    +0.000 A 
ATOM      9  C   UNL     1       1.704  -5.357  -3.622  0.00  0.00    +0.000 A 
ATOM     10  C   UNL     1       3.259  -1.873  -2.288  0.00  0.00    +0.000 A 
ATOM     11  C   UNL     1       2.815  -6.134  -3.371  0.00  0.00    +0.000 A 
ATOM     12  H   UNL     1       4.707  -5.633  -2.551  0.00  0.00    +0.000 HD
ENDROOT
BRANCH   1  15
ATOM     13  O   UNL     1      -2.731   1.028  -5.415  0.00  0.00    +0.000 OA
ATOM     14  N   UNL     1      -2.925  -0.409  -3.598  0.00  0.00    +0.000 N 
ATOM     15  C   UNL     1      -0.876  -1.704  -3.130  0.00  0.00    +0.000 C 
ATOM     16  C   UNL     1      -1.452  -2.169  -1.776  0.00  0.00    +0.000 C 
ATOM     17  C   UNL     1      -2.459  -1.119  -1.272  0.00  0.00    +0.000 C 
ATOM     18  C   UNL     1      -1.974  -1.380  -4.146  0.00  0.00    +0.000 C 
ATOM     19  C   UNL     1      -3.530  -0.784  -2.313  0.00  0.00    +0.000 C 
ATOM     20  C   UNL     1      -2.092  -3.563  -1.820  0.00  0.00    +0.000 C 
ATOM     21  C   UNL     1      -3.251   0.729  -4.336  0.00  0.00    +0.000 C 
BRANCH  21  22
ATOM     22  C   UNL     1      -4.304   1.636  -3.751  0.00  0.00    +0.000 C 
BRANCH  22  24
ATOM     23  N   UNL     1      -5.058   3.363  -5.569  0.00  0.00    +0.000 NA
ATOM     24  C   UNL     1      -4.733   2.596  -4.761  0.00  0.00    +0.000 C 
ENDBRANCH  22  24
ENDBRANCH  21  22
ENDBRANCH   1  15
TORSDOF 3
ENDMDL
MODEL 6
REMARK VINA RESULT:    -7.907      3.145      4.460
REMARK INTER + INTRA:          -9.864
REMARK INTER:                  -8.802
REMARK INTRA:                  -1.062
REMARK CONF_INDEPENDENT:        0.895
REMARK UNBOUND:                 1.062
REMARK  Name = 9926791
REMARK  5 active torsions:
REMARK  status: ('A' for Active; 'I' for Inactive)
REMARK    1  A    between atoms: N_3  and  C_8
REMARK    2  A    between atoms: N_3  and  C_16
REMARK    3  A    between atoms: C_9  and  C_13
REMARK    4  A    between atoms: C_15  and  C_18
REMARK    5  A    between atoms: C_18  and  C_23
REMARK                            x       y       z     vdW  Elec       q    Type
REMARK                         _______ _______ _______ _____ _____    ______ ____
ROOT
ATOM      1  N   UNL     1      -0.928  -2.031  -0.868  0.00  0.00    +0.000 N 
ATOM      2  N   UNL     1      -0.020  -2.958  -2.871  0.00  0.00    +0.000 NA
ATOM      3  N   UNL     1       3.289  -0.699  -2.352  0.00  0.00    +0.000 N 
ATOM      4  N   UNL     1       2.170  -2.331  -3.730  0.00  0.00    +0.000 NA
ATOM      5  C   UNL     1       0.101  -2.123  -1.808  0.00  0.00    +0.000 A 
ATOM      6  C   UNL     1      -0.632  -1.725   0.529  0.00  0.00    +0.000 C 
ATOM      7  C   UNL     1       1.268  -1.364  -1.676  0.00  0.00    +0.000 A 
ATOM      8  C   UNL     1       2.238  -1.521  -2.659  0.00  0.00    +0.000 A 
ATOM      9  C   UNL     1       1.769  -0.411  -0.751  0.00  0.00    +0.000 A 
ATOM     10  C   UNL     1       1.005  -3.010  -3.752  0.00  0.00    +0.000 A 
ATOM     11  C   UNL     1       3.015  -0.020  -1.192  0.00  0.00    +0.000 A 
ATOM     12  H   UNL     1       4.136  -0.607  -2.896  0.00  0.00    +0.000 HD
ENDROOT
BRANCH   1  15
ATOM     13  O   UNL     1      -4.912  -4.201   1.107  0.00  0.00    +0.000 OA
ATOM     14  N   UNL     1      -4.608  -2.429  -0.366  0.00  0.00    +0.000 N 
ATOM     15  C   UNL     1      -2.308  -2.248  -1.245  0.00  0.00    +0.000 C 
ATOM     16  C   UNL     1      -2.766  -1.214  -2.295  0.00  0.00    +0.000 C 
ATOM     17  C   UNL     1      -4.255  -1.446  -2.611  0.00  0.00    +0.000 C 
ATOM     18  C   UNL     1      -3.201  -2.246  -0.001  0.00  0.00    +0.000 C 
ATOM     19  C   UNL     1      -5.127  -1.473  -1.354  0.00  0.00    +0.000 C 
ATOM     20  C   UNL     1      -2.516   0.242  -1.881  0.00  0.00    +0.000 C 
ATOM     21  C   UNL     1      -5.366  -3.406   0.279  0.00  0.00    +0.000 C 
BRANCH  21  22
ATOM     22  C   UNL     1      -6.829  -3.476  -0.082  0.00  0.00    +0.000 C 
BRANCH  22  24
ATOM     23  N   UNL     1      -7.133  -4.896  -2.260  0.00  0.00    +0.000 NA
ATOM     24  C   UNL     1      -6.994  -4.274  -1.291  0.00  0.00    +0.000 C 
ENDBRANCH  22  24
ENDBRANCH  21  22
ENDBRANCH   1  15
TORSDOF 3
ENDMDL
MODEL 7
REMARK VINA RESULT:    -7.905      1.927      3.232
REMARK INTER + INTRA:          -9.665
REMARK INTER:                  -8.800
REMARK INTRA:                  -0.865
REMARK CONF_INDEPENDENT:        0.895
REMARK UNBOUND:                 0.865
REMARK  Name = 9926791
REMARK  5 active torsions:
REMARK  status: ('A' for Active; 'I' for Inactive)
REMARK    1  A    between atoms: N_3  and  C_8
REMARK    2  A    between atoms: N_3  and  C_16
REMARK    3  A    between atoms: C_9  and  C_13
REMARK    4  A    between atoms: C_15  and  C_18
REMARK    5  A    between atoms: C_18  and  C_23
REMARK                            x       y       z     vdW  Elec       q    Type
REMARK                         _______ _______ _______ _____ _____    ______ ____
ROOT
ATOM      1  N   UNL     1       1.267  -3.779  -2.518  0.00  0.00    +0.000 N 
ATOM      2  N   UNL     1       1.049  -6.076  -3.131  0.00  0.00    +0.000 NA
ATOM      3  N   UNL     1       4.966  -6.126  -4.122  0.00  0.00    +0.000 N 
ATOM      4  N   UNL     1       2.916  -7.389  -3.978  0.00  0.00    +0.000 NA
ATOM      5  C   UNL     1       1.821  -4.967  -3.001  0.00  0.00    +0.000 A 
ATOM      6  C   UNL     1       2.083  -2.833  -1.761  0.00  0.00    +0.000 C 
ATOM      7  C   UNL     1       3.172  -5.039  -3.358  0.00  0.00    +0.000 A 
ATOM      8  C   UNL     1       3.635  -6.262  -3.829  0.00  0.00    +0.000 A 
ATOM      9  C   UNL     1       4.274  -4.146  -3.374  0.00  0.00    +0.000 A 
ATOM     10  C   UNL     1       1.634  -7.199  -3.603  0.00  0.00    +0.000 A 
ATOM     11  C   UNL     1       5.365  -4.843  -3.849  0.00  0.00    +0.000 A 
ATOM     12  H   UNL     1       5.560  -6.858  -4.485  0.00  0.00    +0.000 HD
ENDROOT
BRANCH   1  15
ATOM     13  O   UNL     1      -1.981  -0.440  -0.849  0.00  0.00    +0.000 OA
ATOM     14  N   UNL     1      -1.751  -1.602  -2.849  0.00  0.00    +0.000 N 
ATOM     15  C   UNL     1      -0.126  -3.458  -2.740  0.00  0.00    +0.000 C 
ATOM     16  C   UNL     1      -0.607  -3.989  -4.107  0.00  0.00    +0.000 C 
ATOM     17  C   UNL     1      -2.071  -3.566  -4.322  0.00  0.00    +0.000 C 
ATOM     18  C   UNL     1      -0.351  -1.951  -2.592  0.00  0.00    +0.000 C 
ATOM     19  C   UNL     1      -2.282  -2.061  -4.139  0.00  0.00    +0.000 C 
ATOM     20  C   UNL     1       0.269  -3.547  -5.286  0.00  0.00    +0.000 C 
ATOM     21  C   UNL     1      -2.445  -0.816  -1.929  0.00  0.00    +0.000 C 
BRANCH  21  22
ATOM     22  C   UNL     1      -3.852  -0.420  -2.303  0.00  0.00    +0.000 C 
BRANCH  22  24
ATOM     23  N   UNL     1      -3.761   1.483  -4.099  0.00  0.00    +0.000 NA
ATOM     24  C   UNL     1      -3.808   0.644  -3.298  0.00  0.00    +0.000 C 
ENDBRANCH  22  24
ENDBRANCH  21  22
ENDBRANCH   1  15
TORSDOF 3
ENDMDL
MODEL 8
REMARK VINA RESULT:    -7.668      2.853      4.744
REMARK INTER + INTRA:          -9.293
REMARK INTER:                  -8.563
REMARK INTRA:                  -0.730
REMARK CONF_INDEPENDENT:        0.895
REMARK UNBOUND:                 0.730
REMARK  Name = 9926791
REMARK  5 active torsions:
REMARK  status: ('A' for Active; 'I' for Inactive)
REMARK    1  A    between atoms: N_3  and  C_8
REMARK    2  A    between atoms: N_3  and  C_16
REMARK    3  A    between atoms: C_9  and  C_13
REMARK    4  A    between atoms: C_15  and  C_18
REMARK    5  A    between atoms: C_18  and  C_23
REMARK                            x       y       z     vdW  Elec       q    Type
REMARK                         _______ _______ _______ _____ _____    ______ ____
ROOT
ATOM      1  N   UNL     1      -1.337  -2.913  -3.475  0.00  0.00    +0.000 N 
ATOM      2  N   UNL     1      -0.223  -1.620  -1.804  0.00  0.00    +0.000 NA
ATOM      3  N   UNL     1       3.190  -3.630  -2.601  0.00  0.00    +0.000 N 
ATOM      4  N   UNL     1       2.134  -1.917  -1.272  0.00  0.00    +0.000 NA
ATOM      5  C   UNL     1      -0.184  -2.591  -2.752  0.00  0.00    +0.000 A 
ATOM      6  C   UNL     1      -1.240  -3.396  -4.850  0.00  0.00    +0.000 C 
ATOM      7  C   UNL     1       1.024  -3.255  -2.988  0.00  0.00    +0.000 A 
ATOM      8  C   UNL     1       2.116  -2.868  -2.222  0.00  0.00    +0.000 A 
ATOM      9  C   UNL     1       1.471  -4.287  -3.855  0.00  0.00    +0.000 A 
ATOM     10  C   UNL     1       0.918  -1.348  -1.134  0.00  0.00    +0.000 A 
ATOM     11  C   UNL     1       2.808  -4.496  -3.593  0.00  0.00    +0.000 A 
ATOM     12  H   UNL     1       4.118  -3.565  -2.207  0.00  0.00    +0.000 HD
ENDROOT
BRANCH   1  15
ATOM     13  O   UNL     1      -3.856  -4.886   0.299  0.00  0.00    +0.000 OA
ATOM     14  N   UNL     1      -3.905  -2.820  -0.765  0.00  0.00    +0.000 N 
ATOM     15  C   UNL     1      -2.652  -2.764  -2.891  0.00  0.00    +0.000 C 
ATOM     16  C   UNL     1      -3.263  -1.391  -3.242  0.00  0.00    +0.000 C 
ATOM     17  C   UNL     1      -4.629  -1.258  -2.544  0.00  0.00    +0.000 C 
ATOM     18  C   UNL     1      -2.587  -3.001  -1.380  0.00  0.00    +0.000 C 
ATOM     19  C   UNL     1      -4.551  -1.529  -1.040  0.00  0.00    +0.000 C 
ATOM     20  C   UNL     1      -2.355  -0.203  -2.898  0.00  0.00    +0.000 C 
ATOM     21  C   UNL     1      -4.414  -3.807   0.080  0.00  0.00    +0.000 C 
BRANCH  21  22
ATOM     22  C   UNL     1      -5.733  -3.512   0.749  0.00  0.00    +0.000 C 
BRANCH  22  24
ATOM     23  N   UNL     1      -7.201  -5.679   0.740  0.00  0.00    +0.000 NA
ATOM     24  C   UNL     1      -6.558  -4.713   0.748  0.00  0.00    +0.000 C 
ENDBRANCH  22  24
ENDBRANCH  21  22
ENDBRANCH   1  15
TORSDOF 3
ENDMDL
MODEL 9
REMARK VINA RESULT:    -7.416      2.775      3.818
REMARK INTER + INTRA:          -9.371
REMARK INTER:                  -8.310
REMARK INTRA:                  -1.061
REMARK CONF_INDEPENDENT:        0.895
REMARK UNBOUND:                 1.061
REMARK  Name = 9926791
REMARK  5 active torsions:
REMARK  status: ('A' for Active; 'I' for Inactive)
REMARK    1  A    between atoms: N_3  and  C_8
REMARK    2  A    between atoms: N_3  and  C_16
REMARK    3  A    between atoms: C_9  and  C_13
REMARK    4  A    between atoms: C_15  and  C_18
REMARK    5  A    between atoms: C_18  and  C_23
REMARK                            x       y       z     vdW  Elec       q    Type
REMARK                         _______ _______ _______ _____ _____    ______ ____
ROOT
ATOM      1  N   UNL     1       0.674  -3.807  -2.490  0.00  0.00    +0.000 N 
ATOM      2  N   UNL     1       0.641  -6.194  -2.507  0.00  0.00    +0.000 NA
ATOM      3  N   UNL     1       4.030  -6.171  -4.706  0.00  0.00    +0.000 N 
ATOM      4  N   UNL     1       2.343  -7.521  -3.634  0.00  0.00    +0.000 NA
ATOM      5  C   UNL     1       1.233  -5.029  -2.873  0.00  0.00    +0.000 A 
ATOM      6  C   UNL     1       1.523  -2.642  -2.259  0.00  0.00    +0.000 C 
ATOM      7  C   UNL     1       2.406  -5.078  -3.634  0.00  0.00    +0.000 A 
ATOM      8  C   UNL     1       2.888  -6.338  -3.968  0.00  0.00    +0.000 A 
ATOM      9  C   UNL     1       3.299  -4.130  -4.198  0.00  0.00    +0.000 A 
ATOM     10  C   UNL     1       1.222  -7.348  -2.904  0.00  0.00    +0.000 A 
ATOM     11  C   UNL     1       4.288  -4.832  -4.853  0.00  0.00    +0.000 A 
ATOM     12  H   UNL     1       4.592  -6.920  -5.087  0.00  0.00    +0.000 HD
ENDROOT
BRANCH   1  15
ATOM     13  O   UNL     1      -2.342  -0.957   0.206  0.00  0.00    +0.000 OA
ATOM     14  N   UNL     1      -2.548  -2.032  -1.845  0.00  0.00    +0.000 N 
ATOM     15  C   UNL     1      -0.753  -3.664  -2.299  0.00  0.00    +0.000 C 
ATOM     16  C   UNL     1      -1.534  -4.220  -3.509  0.00  0.00    +0.000 C 
ATOM     17  C   UNL     1      -3.038  -3.984  -3.286  0.00  0.00    +0.000 C 
ATOM     18  C   UNL     1      -1.102  -2.203  -2.006  0.00  0.00    +0.000 C 
ATOM     19  C   UNL     1      -3.364  -2.525  -2.963  0.00  0.00    +0.000 C 
ATOM     20  C   UNL     1      -1.083  -3.640  -4.856  0.00  0.00    +0.000 C 
ATOM     21  C   UNL     1      -3.043  -1.364  -0.724  0.00  0.00    +0.000 C 
BRANCH  21  22
ATOM     22  C   UNL     1      -4.535  -1.144  -0.671  0.00  0.00    +0.000 C 
BRANCH  22  24
ATOM     23  N   UNL     1      -5.681  -3.285   0.309  0.00  0.00    +0.000 NA
ATOM     24  C   UNL     1      -5.181  -2.331  -0.124  0.00  0.00    +0.000 C 
ENDBRANCH  22  24
ENDBRANCH  21  22
ENDBRANCH   1  15
TORSDOF 3
ENDMDL
