REMARK  Name = 
REMARK  8 active torsions:
REMARK  status: ('A' for Active; 'I' for Inactive)
REMARK    1  A    between atoms: C_1  and  AS_6
REMARK    2  A    between atoms: C_2  and  AS_6
REMARK    3  A    between atoms: C_3  and  C_4
REMARK    4  A    between atoms: C_3  and  S_10
REMARK    5  A    between atoms: C_4  and  C_5
REMARK    6  A    between atoms: C_4  and  N_7
REMARK    7  A    between atoms: C_5  and  O_9
REMARK    8  A    between atoms: AS_6  and  S_10
REMARK                            x       y       z     vdW  Elec       q    Type
REMARK                         _______ _______ _______ _____ _____    ______ ____
ROOT
ATOM      1  C   UNK     1      -0.935   1.016   0.000  0.00  0.00    +0.000 C 
ENDROOT
BRANCH   1   2
ATOM      2  N   UNK     1      -0.935   0.191   0.000  0.00  0.00    +0.000 NA
ATOM      3  H   UNK     1      -1.819  -0.319   0.000  0.00  0.00    +0.000 HD
ATOM      4  H   UNK     1      -0.052  -0.319   0.000  0.00  0.00    +0.000 HD
ENDBRANCH   1   2
BRANCH   1   5
ATOM      5  C   UNK     1      -1.650   1.429   0.000  0.00  0.00    +0.000 C 
ATOM      6  O   UNK     1      -2.365   1.016   0.000  0.00  0.00    +0.000 OA
BRANCH   5   7
ATOM      7  O   UNK     1      -1.650   2.254   0.000  0.00  0.00    +0.000 OA
ATOM      8  H   UNK     1      -0.839   2.722   0.000  0.00  0.00    +0.000 HD
ENDBRANCH   5   7
ENDBRANCH   1   5
BRANCH   1   9
ATOM      9  C   UNK     1      -0.221   1.429   0.000  0.00  0.00    +0.000 C 
BRANCH   9  10
ATOM     10  S   UNK     1       0.493   1.016   0.000  0.00  0.00    +0.000 S 
BRANCH  10  13
ATOM     11  C   UNK     1       1.922   1.016   0.000  0.00  0.00    +0.000 C 
ATOM     12  C   UNK     1       1.208   2.254   0.000  0.00  0.00    +0.000 C 
ATOM     13 AS   UNK     1       1.208   1.429   0.000  0.00  0.00    +0.000 As
ENDBRANCH  10  13
ENDBRANCH   9  10
ENDBRANCH   1   9
TORSDOF 6
