REMARK  Name = 175496
REMARK  4 active torsions:
REMARK  status: ('A' for Active; 'I' for Inactive)
REMARK    1  A    between atoms: O_1  and  C_5
REMARK    2  A    between atoms: N_3  and  CA_4
REMARK    3  A    between atoms: CA_4  and  C_5
REMARK    4  A    between atoms: CA_4  and  C_6
REMARK                            x       y       z     vdW  Elec       q    Type
REMARK                         _______ _______ _______ _____ _____    ______ ____
ROOT
ATOM      1  CA  UNL     1       0.171   0.466  -0.544  0.00  0.00    +0.000 C 
ENDROOT
BRANCH   1   2
ATOM      2  N   UNL     1       0.076   1.869  -0.144  0.00  0.00    +0.000 NA
ATOM      3  H1  UNL     1      -0.768   2.281  -0.541  0.00  0.00    +0.000 HD
ATOM      4  H2  UNL     1       0.855   2.392  -0.544  0.00  0.00    +0.000 HD
ENDBRANCH   1   2
BRANCH   1   6
ATOM      5  OXT UNL     1      -1.927   0.244   0.685  0.00  0.00    +0.000 OA
ATOM      6  C   UNL     1      -1.050  -0.256  -0.009  0.00  0.00    +0.000 C 
BRANCH   6   7
ATOM      7  O   UNL     1      -1.078  -1.561  -0.393  0.00  0.00    +0.000 OA
ATOM      8  H   UNL     1      -1.869  -2.026  -0.047  0.00  0.00    +0.000 HD
ENDBRANCH   6   7
ENDBRANCH   1   6
BRANCH   1   9
ATOM      9  C   UNL     1       1.400  -0.136  -0.012  0.00  0.00    +0.000 C 
ATOM     10  C   UNL     1       2.408  -0.628   0.418  0.00  0.00    +0.000 C 
ENDBRANCH   1   9
TORSDOF 4
