REMARK  Name = 12035
REMARK  6 active torsions:
REMARK  status: ('A' for Active; 'I' for Inactive)
REMARK    1  A    between atoms: SG_1  and  CB_7
REMARK    2  A    between atoms: O_2  and  C_8
REMARK    3  A    between atoms: N_5  and  CA_6
REMARK    4  A    between atoms: CA_6  and  CB_7
REMARK    5  A    between atoms: CA_6  and  C_8
REMARK    6  A    between atoms: C_9  and  C_10
REMARK                            x       y       z     vdW  Elec       q    Type
REMARK                         _______ _______ _______ _____ _____    ______ ____
ROOT
ATOM      1  CA  CYS A   1      -0.411   0.070   0.503  0.00  0.00    +0.000 C 
ENDROOT
BRANCH   1   3
ATOM      2  O   UNK A   0       2.390   0.147   1.262  0.00  0.00    +0.000 OA
ATOM      3  N   CYS A   1       0.732  -0.177  -0.341  0.00  0.00    +0.000 N 
ATOM      4  C   UNK A   0       2.040  -0.116   0.114  0.00  0.00    +0.000 C 
ATOM      5  C   UNK A   0       3.037  -0.441  -0.966  0.00  0.00    +0.000 C 
ATOM      6  H   CYS A   1       0.562  -0.393  -1.319  0.00  0.00    +0.000 HD
ENDBRANCH   1   3
BRANCH   1   8
ATOM      7  OXT CYS A   1      -2.636  -0.856   0.769  0.00  0.00    +0.000 OA
ATOM      8  C   CYS A   1      -1.591  -0.813   0.132  0.00  0.00    +0.000 C 
BRANCH   8   9
ATOM      9  O   CYS A   1      -1.370  -1.565  -0.973  0.00  0.00    +0.000 OA
ATOM     10  H   CYS A   1      -2.141  -2.131  -1.191  0.00  0.00    +0.000 HD
ENDBRANCH   8   9
ENDBRANCH   1   8
BRANCH   1  11
ATOM     11  CB  CYS A   1      -0.783   1.554   0.544  0.00  0.00    +0.000 C 
BRANCH  11  12
ATOM     12  SG  CYS A   1      -1.408   2.198  -1.044  0.00  0.00    +0.000 S 
ATOM     13  HG  CYS A   1      -2.526   1.460  -1.088  0.00  0.00    +0.000 HD
ENDBRANCH  11  12
ENDBRANCH   1  11
TORSDOF 5
