REMARK  Name = 5287976
REMARK  12 active torsions:
REMARK  status: ('A' for Active; 'I' for Inactive)
REMARK    1  A    between atoms: O_1  and  C_13
REMARK    2  A    between atoms: O_2  and  C_17
REMARK    3  A    between atoms: N_4  and  C_9
REMARK    4  A    between atoms: C_5  and  C_6
REMARK    5  A    between atoms: C_6  and  C_9
REMARK    6  A    between atoms: C_9  and  C_13
REMARK    7  A    between atoms: C_13  and  C_14
REMARK    8  A    between atoms: C_14  and  C_15
REMARK    9  A    between atoms: C_15  and  C_16
REMARK   10  A    between atoms: C_15  and  C_17
REMARK   11  A    between atoms: C_16  and  C_18
REMARK   12  A    between atoms: C_16  and  C_19
REMARK                            x       y       z     vdW  Elec       q    Type
REMARK                         _______ _______ _______ _____ _____    ______ ____
ROOT
ATOM      1  C   UNL     1       0.367  -1.264   0.693  0.00  0.00    +0.000 C 
ENDROOT
BRANCH   1   2
ATOM      2  O   UNL     1       0.040  -2.361   1.548  0.00  0.00    +0.000 OA
ATOM      3  H   UNL     1       0.459  -2.199   2.409  0.00  0.00    +0.000 HD
ENDBRANCH   1   2
BRANCH   1   4
ATOM      4  C   UNL     1      -0.364  -1.434  -0.662  0.00  0.00    +0.000 C 
BRANCH   4   5
ATOM      5  N   UNL     1       0.184  -2.590  -1.383  0.00  0.00    +0.000 NA
ATOM      6  H   UNL     1      -0.003  -3.442  -0.856  0.00  0.00    +0.000 HD
ATOM      7  H   UNL     1      -0.290  -2.698  -2.278  0.00  0.00    +0.000 HD
ENDBRANCH   4   5
BRANCH   4   8
ATOM      8  C   UNL     1      -1.895  -1.604  -0.595  0.00  0.00    +0.000 C 
BRANCH   8   9
ATOM      9  C   UNL     1      -2.636  -0.419   0.022  0.00  0.00    +0.000 C 
ATOM     10  C   UNL     1      -2.367   0.864  -0.775  0.00  0.00    +0.000 C 
ATOM     11  C   UNL     1      -4.142  -0.706   0.105  0.00  0.00    +0.000 C 
ATOM     12  C   UNL     1      -3.140   2.053  -0.208  0.00  0.00    +0.000 C 
ATOM     13  C   UNL     1      -4.912   0.486   0.671  0.00  0.00    +0.000 C 
ATOM     14  C   UNL     1      -4.635   1.761  -0.119  0.00  0.00    +0.000 C 
ENDBRANCH   8   9
ENDBRANCH   4   8
ENDBRANCH   1   4
BRANCH   1  15
ATOM     15  C   UNL     1       1.902  -1.158   0.591  0.00  0.00    +0.000 C 
BRANCH  15  16
ATOM     16  C   UNL     1       2.372   0.076  -0.217  0.00  0.00    +0.000 C 
BRANCH  16  17
ATOM     17  C   UNL     1       1.838   1.428   0.328  0.00  0.00    +0.000 C 
ATOM     18  C   UNL     1       2.318   1.751   1.746  0.00  0.00    +0.000 C 
ATOM     19  C   UNL     1       2.184   2.586  -0.614  0.00  0.00    +0.000 C 
ENDBRANCH  16  17
BRANCH  16  21
ATOM     20  O   UNL     1       4.649  -0.248   0.605  0.00  0.00    +0.000 OA
ATOM     21  C   UNL     1       3.895   0.133  -0.280  0.00  0.00    +0.000 C 
BRANCH  21  22
ATOM     22  O   UNL     1       4.342   0.647  -1.456  0.00  0.00    +0.000 OA
ATOM     23  H   UNL     1       5.321   0.677  -1.493  0.00  0.00    +0.000 HD
ENDBRANCH  21  22
ENDBRANCH  16  21
ENDBRANCH  15  16
ENDBRANCH   1  15
TORSDOF 10
