REMARK  Name = 6852189
REMARK  10 active torsions:
REMARK  status: ('A' for Active; 'I' for Inactive)
REMARK    1  A    between atoms: O_1  and  C_12
REMARK    2  A    between atoms: O_4  and  C_15
REMARK    3  A    between atoms: N_6  and  CA_7
REMARK    4  A    between atoms: CA_7  and  C_8
REMARK    5  A    between atoms: CA_7  and  C_12
REMARK    6  A    between atoms: C_8  and  C_9
REMARK    7  A    between atoms: C_9  and  C_13
REMARK    8  A    between atoms: C_10  and  C_11
REMARK    9  A    between atoms: C_11  and  C_14
REMARK   10  A    between atoms: C_14  and  C_15
REMARK                            x       y       z     vdW  Elec       q    Type
REMARK                         _______ _______ _______ _____ _____    ______ ____
ROOT
ATOM      1  O   UNL     1      -0.661   0.076   1.907  0.00  0.00    +0.000 OA
ATOM      2  N   UNL     1       0.589   0.344  -0.035  0.00  0.00    +0.000 N 
ATOM      3  C   UNL     1      -0.588   0.179   0.685  0.00  0.00    +0.000 C 
ATOM      4  H   UNL     1       0.537   0.408  -1.048  0.00  0.00    +0.000 HD
ENDROOT
BRANCH   2   5
ATOM      5  CA  UNL     1       1.889   0.415   0.582  0.00  0.00    +0.000 C 
BRANCH   5   7
ATOM      6  OXT UNL     1       3.943   1.634   0.195  0.00  0.00    +0.000 OA
ATOM      7  C   UNL     1       2.810   1.355  -0.182  0.00  0.00    +0.000 C 
BRANCH   7   8
ATOM      8  O   UNL     1       2.284   1.861  -1.324  0.00  0.00    +0.000 OA
ATOM      9  H   UNL     1       2.913   2.457  -1.785  0.00  0.00    +0.000 HD
ENDBRANCH   7   8
ENDBRANCH   5   7
BRANCH   5  10
ATOM     10  C   UNL     1       2.527  -0.974   0.692  0.00  0.00    +0.000 C 
BRANCH  10  11
ATOM     11  C   UNL     1       2.773  -1.617  -0.676  0.00  0.00    +0.000 C 
ATOM     12  C   UNL     1       3.369  -3.009  -0.537  0.00  0.00    +0.000 C 
ENDBRANCH  10  11
ENDBRANCH   5  10
ENDBRANCH   2   5
BRANCH   3  13
ATOM     13  C   UNL     1      -1.802   0.136  -0.225  0.00  0.00    +0.000 C 
BRANCH  13  14
ATOM     14  C   UNL     1      -3.105  -0.045   0.548  0.00  0.00    +0.000 C 
BRANCH  14  16
ATOM     15  O   UNL     1      -4.271   0.018  -1.587  0.00  0.00    +0.000 OA
ATOM     16  C   UNL     1      -4.304  -0.093  -0.370  0.00  0.00    +0.000 C 
BRANCH  16  17
ATOM     17  O   UNL     1      -5.455  -0.281   0.328  0.00  0.00    +0.000 OA
ATOM     18  H   UNL     1      -6.238  -0.314  -0.262  0.00  0.00    +0.000 HD
ENDBRANCH  16  17
ENDBRANCH  14  16
ENDBRANCH  13  14
ENDBRANCH   3  13
TORSDOF 9
