REMARK  Name = 9862773
REMARK  13 active torsions:
REMARK  status: ('A' for Active; 'I' for Inactive)
REMARK    1  A    between atoms: N_5  and  CA_12
REMARK    2  A    between atoms: N_6  and  CA_14
REMARK    3  A    between atoms: NZ_7  and  CE_18
REMARK    4  A    between atoms: N_10  and  CA_23
REMARK    5  A    between atoms: CB_11  and  CA_12
REMARK    6  A    between atoms: CB_11  and  CG_13
REMARK    7  A    between atoms: CA_12  and  C_20
REMARK    8  A    between atoms: CG_13  and  CD_15
REMARK    9  A    between atoms: CA_14  and  CB_16
REMARK   10  A    between atoms: CA_14  and  C_17
REMARK   11  A    between atoms: CD_15  and  CE_18
REMARK   12  A    between atoms: CB_16  and  CG_19
REMARK   13  A    between atoms: C_21  and  CA_23
REMARK                            x       y       z     vdW  Elec       q    Type
REMARK                         _______ _______ _______ _____ _____    ______ ____
ROOT
ATOM      1  CA  HIS A   2      -0.758  -1.690   0.133  0.00  0.00    +0.000 C 
ENDROOT
BRANCH   1   4
ATOM      2  O   HIS A   2       0.002  -0.966   2.318  0.00  0.00    +0.000 OA
ATOM      3  N   LYS A   3      -0.222   0.613   0.630  0.00  0.00    +0.000 N 
ATOM      4  C   HIS A   2      -0.300  -0.665   1.165  0.00  0.00    +0.000 C 
ATOM      5  H   LYS A   3      -0.468   0.757  -0.344  0.00  0.00    +0.000 HD
BRANCH   3   6
ATOM      6  CA  LYS A   3       0.232   1.760   1.383  0.00  0.00    +0.000 C 
BRANCH   6   9
ATOM      7  O   LYS A   3      -1.667   2.786   0.427  0.00  0.00    +0.000 OA
ATOM      8  OXT LYS A   3       0.051   4.124   1.111  0.00  0.00    +0.000 OA
ATOM      9  C   LYS A   3      -0.532   3.019   0.934  0.00  0.00    +0.000 C 
ENDBRANCH   6   9
BRANCH   6  10
ATOM     10  CB  LYS A   3       1.756   1.914   1.291  0.00  0.00    +0.000 C 
BRANCH  10  11
ATOM     11  CG  LYS A   3       2.236   2.159  -0.146  0.00  0.00    +0.000 C 
BRANCH  11  12
ATOM     12  CD  LYS A   3       3.764   2.246  -0.210  0.00  0.00    +0.000 C 
BRANCH  12  13
ATOM     13  CE  LYS A   3       4.298   2.500  -1.614  0.00  0.00    +0.000 C 
BRANCH  13  14
ATOM     14  NZ  LYS A   3       3.900   1.406  -2.532  0.00  0.00    +0.000 N 
ATOM     15  HZ1 LYS A   3       4.171   0.484  -2.165  0.00  0.00    +0.000 HD
ATOM     16  HZ2 LYS A   3       4.355   1.514  -3.448  0.00  0.00    +0.000 HD
ATOM     17  HZ3 LYS A   3       2.886   1.392  -2.702  0.00  0.00    +0.000 HD
ENDBRANCH  13  14
ENDBRANCH  12  13
ENDBRANCH  11  12
ENDBRANCH  10  11
ENDBRANCH   6  10
ENDBRANCH   3   6
ENDBRANCH   1   4
BRANCH   1  19
ATOM     18  O   GLY A   1       1.850  -2.413  -0.889  0.00  0.00    +0.000 OA
ATOM     19  N   HIS A   2      -0.030  -2.909   0.382  0.00  0.00    +0.000 N 
ATOM     20  C   GLY A   1       1.225  -3.173  -0.154  0.00  0.00    +0.000 C 
ATOM     21  H   HIS A   2      -0.442  -3.581   1.023  0.00  0.00    +0.000 HD
BRANCH  20  22
ATOM     22  CA  GLY A   1       1.738  -4.541   0.249  0.00  0.00    +0.000 C 
BRANCH  22  23
ATOM     23  N   GLY A   1       3.192  -4.498   0.303  0.00  0.00    +0.000 NA
ATOM     24  H1  GLY A   1       3.546  -5.417   0.563  0.00  0.00    +0.000 HD
ATOM     25  H2  GLY A   1       3.564  -4.306  -0.626  0.00  0.00    +0.000 HD
ENDBRANCH  22  23
ENDBRANCH  20  22
ENDBRANCH   1  19
BRANCH   1  26
ATOM     26  CB  HIS A   2      -2.275  -1.897   0.224  0.00  0.00    +0.000 C 
BRANCH  26  29
ATOM     27  ND1 HIS A   2      -3.984  -0.040   0.116  0.00  0.00    +0.000 N 
ATOM     28  NE2 HIS A   2      -3.921   0.641  -1.996  0.00  0.00    +0.000 NA
ATOM     29  CG  HIS A   2      -3.046  -0.820  -0.501  0.00  0.00    +0.000 A 
ATOM     30  CD2 HIS A   2      -3.026  -0.381  -1.804  0.00  0.00    +0.000 A 
ATOM     31  CE1 HIS A   2      -4.482   0.821  -0.821  0.00  0.00    +0.000 A 
ATOM     32  HD1 HIS A   2      -4.261  -0.089   1.088  0.00  0.00    +0.000 HD
ENDBRANCH  26  29
ENDBRANCH   1  26
TORSDOF 13
