REMARK  Name = 656604
REMARK  9 active torsions:
REMARK  status: ('A' for Active; 'I' for Inactive)
REMARK    1  A    between atoms: S_1  and  C_7
REMARK    2  A    between atoms: SG_2  and  CB_12
REMARK    3  A    between atoms: O_4  and  C_13
REMARK    4  A    between atoms: N_6  and  CA_8
REMARK    5  A    between atoms: C_7  and  C_9
REMARK    6  A    between atoms: C_7  and  C_10
REMARK    7  A    between atoms: C_7  and  C_11
REMARK    8  A    between atoms: CA_8  and  CB_12
REMARK    9  A    between atoms: CA_8  and  C_13
REMARK                            x       y       z     vdW  Elec       q    Type
REMARK                         _______ _______ _______ _____ _____    ______ ____
ROOT
ATOM      1  O   UNL     1      -1.208   0.674  -1.748  0.00  0.00    +0.000 OA
ATOM      2  N   UNL     1       0.054  -0.046   0.046  0.00  0.00    +0.000 N 
ATOM      3  C   ACE A   0      -1.141   0.226  -0.604  0.00  0.00    +0.000 C 
ATOM      4  H   UNL     1       0.038  -0.408   0.994  0.00  0.00    +0.000 HD
ENDROOT
BRANCH   3   5
ATOM      5  C   UNL     1      -2.398  -0.082   0.229  0.00  0.00    +0.000 C 
ATOM      6  C   UNL     1      -3.664   0.251  -0.573  0.00  0.00    +0.000 C 
ATOM      7  C   UNL     1      -2.409   0.700   1.547  0.00  0.00    +0.000 C 
BRANCH   5   8
ATOM      8  S   UNL     1      -2.415  -1.884   0.578  0.00  0.00    +0.000 S 
ATOM      9  H   UNL     1      -1.342  -1.911   1.382  0.00  0.00    +0.000 HD
ENDBRANCH   5   8
ENDBRANCH   3   5
BRANCH   2  10
ATOM     10  CA  UNL     1       1.343   0.174  -0.567  0.00  0.00    +0.000 C 
BRANCH  10  12
ATOM     11  OXT UNL     1       3.486  -0.958  -0.619  0.00  0.00    +0.000 OA
ATOM     12  C   UNL     1       2.357  -0.878  -0.150  0.00  0.00    +0.000 C 
BRANCH  12  13
ATOM     13  O   UNL     1       1.886  -1.735   0.786  0.00  0.00    +0.000 OA
ATOM     14  H   UNL     1       2.553  -2.409   1.036  0.00  0.00    +0.000 HD
ENDBRANCH  12  13
ENDBRANCH  10  12
BRANCH  10  15
ATOM     15  CB  UNL     1       1.852   1.599  -0.334  0.00  0.00    +0.000 C 
BRANCH  15  16
ATOM     16  SG  UNL     1       2.256   1.959   1.408  0.00  0.00    +0.000 S 
ATOM     17  HG  UNL     1       1.025   1.749   1.896  0.00  0.00    +0.000 HD
ENDBRANCH  15  16
ENDBRANCH  10  15
ENDBRANCH   2  10
TORSDOF 7
