REMARK  Name = 68888
REMARK  9 active torsions:
REMARK  status: ('A' for Active; 'I' for Inactive)
REMARK    1  A    between atoms: O_2  and  C_13
REMARK    2  A    between atoms: N_4  and  C_10
REMARK    3  A    between atoms: C_5  and  C_6
REMARK    4  A    between atoms: C_5  and  C_7
REMARK    5  A    between atoms: C_5  and  C_8
REMARK    6  A    between atoms: C_5  and  C_9
REMARK    7  A    between atoms: C_10  and  C_11
REMARK    8  A    between atoms: C_11  and  C_12
REMARK    9  A    between atoms: C_12  and  C_13
REMARK                            x       y       z     vdW  Elec       q    Type
REMARK                         _______ _______ _______ _____ _____    ______ ____
ROOT
ATOM      1  O   UNL     1      -1.728  -1.420  -1.071  0.00  0.00    +0.000 OA
ATOM      2  N   UNL     1      -0.690  -0.581   0.813  0.00  0.00    +0.000 N 
ATOM      3  C   UNL     1      -1.665  -0.579  -0.174  0.00  0.00    +0.000 C 
ATOM      4  H   UNL     1      -0.689   0.141   1.526  0.00  0.00    +0.000 HD
ENDROOT
BRANCH   3   5
ATOM      5  C   UNL     1      -2.683   0.574  -0.055  0.00  0.00    +0.000 C 
ATOM      6  C   UNL     1      -1.961   1.927  -0.145  0.00  0.00    +0.000 C 
ATOM      7  C   UNL     1      -3.697   0.481  -1.210  0.00  0.00    +0.000 C 
ATOM      8  C   UNL     1      -3.445   0.469   1.275  0.00  0.00    +0.000 C 
ENDBRANCH   3   5
BRANCH   2   9
ATOM      9  C   UNL     1       0.349  -1.582   0.873  0.00  0.00    +0.000 C 
BRANCH   9  10
ATOM     10  C   UNL     1       1.599  -1.187   0.086  0.00  0.00    +0.000 C 
BRANCH  10  11
ATOM     11  C   UNL     1       2.283   0.084   0.596  0.00  0.00    +0.000 C 
BRANCH  11  13
ATOM     12  O   UNL     1       4.035  -0.234  -1.067  0.00  0.00    +0.000 OA
ATOM     13  C   UNL     1       3.541   0.433  -0.169  0.00  0.00    +0.000 C 
BRANCH  13  14
ATOM     14  O   UNL     1       4.063   1.616   0.248  0.00  0.00    +0.000 OA
ATOM     15  H   UNL     1       4.873   1.854  -0.251  0.00  0.00    +0.000 HD
ENDBRANCH  13  14
ENDBRANCH  11  13
ENDBRANCH  10  11
ENDBRANCH   9  10
ENDBRANCH   2   9
TORSDOF 6
