REMARK  Name = 5231552
REMARK  8 active torsions:
REMARK  status: ('A' for Active; 'I' for Inactive)
REMARK    1  A    between atoms: N_4  and  CA_6
REMARK    2  A    between atoms: N_4  and  C_11
REMARK    3  A    between atoms: CB_5  and  CA_6
REMARK    4  A    between atoms: CB_5  and  CG_7
REMARK    5  A    between atoms: CA_6  and  C_10
REMARK    6  A    between atoms: CG_7  and  CD1_8
REMARK    7  A    between atoms: CG_7  and  CD2_9
REMARK    8  A    between atoms: C_11  and  C_12
REMARK                            x       y       z     vdW  Elec       q    Type
REMARK                         _______ _______ _______ _____ _____    ______ ____
ROOT
ATOM      1  CA  LEU A   1       0.022  -0.368   0.121  0.00  0.00    +0.000 C 
ENDROOT
BRANCH   1   4
ATOM      2  O   LEU A   1       0.163   1.913   0.710  0.00  0.00    +0.000 OA
ATOM      3  OXT LEU A   1       0.075   1.361  -1.507  0.00  0.00    +0.000 OA
ATOM      4  C   LEU A   1       0.088   1.115  -0.268  0.00  0.00    +0.000 C 
ENDBRANCH   1   4
BRANCH   1   5
ATOM      5  N   LEU A   1      -1.244  -0.681   0.861  0.00  0.00    +0.000 NA
ATOM      6  H1  LEU A   1      -1.274  -1.677   1.120  0.00  0.00    +0.000 HD
ATOM      7  H2  LEU A   1      -1.281  -0.151   1.743  0.00  0.00    +0.000 HD
BRANCH   5   9
ATOM      8  O   UNK A   0      -2.922   0.752   0.248  0.00  0.00    +0.000 OA
ATOM      9  C   UNK A   0      -2.452  -0.368   0.103  0.00  0.00    +0.000 C 
ATOM     10  C   UNK A   0      -3.073  -1.444  -0.735  0.00  0.00    +0.000 C 
ENDBRANCH   5   9
ENDBRANCH   1   5
BRANCH   1  11
ATOM     11  CB  LEU A   1       1.190  -0.820   1.008  0.00  0.00    +0.000 C 
BRANCH  11  12
ATOM     12  CG  LEU A   1       2.580  -0.701   0.349  0.00  0.00    +0.000 C 
ATOM     13  CD1 LEU A   1       2.606  -1.509  -0.952  0.00  0.00    +0.000 C 
ATOM     14  CD2 LEU A   1       2.969   0.750   0.063  0.00  0.00    +0.000 C 
ENDBRANCH  11  12
ENDBRANCH   1  11
TORSDOF 5
