REMARK  Name = 123913
REMARK  8 active torsions:
REMARK  status: ('A' for Active; 'I' for Inactive)
REMARK    1  A    between atoms: O_1  and  C_11
REMARK    2  A    between atoms: N_5  and  CA_8
REMARK    3  A    between atoms: N_7  and  CA_14
REMARK    4  A    between atoms: CA_8  and  CB_9
REMARK    5  A    between atoms: CA_8  and  C_11
REMARK    6  A    between atoms: CB_9  and  CG_10
REMARK    7  A    between atoms: CG_10  and  CD_13
REMARK    8  A    between atoms: C_12  and  CA_14
REMARK                            x       y       z     vdW  Elec       q    Type
REMARK                         _______ _______ _______ _____ _____    ______ ____
ROOT
ATOM      1  CA  GLN A   2      -0.234   0.827   0.552  0.00  0.00    +0.000 C 
ENDROOT
BRANCH   1   3
ATOM      2  O   GLY A   1      -2.431  -0.859   1.388  0.00  0.00    +0.000 OA
ATOM      3  N   GLN A   2      -1.222   0.201  -0.289  0.00  0.00    +0.000 N 
ATOM      4  C   GLY A   1      -2.249  -0.598   0.201  0.00  0.00    +0.000 C 
ATOM      5  H   GLN A   2      -1.139   0.335  -1.292  0.00  0.00    +0.000 HD
BRANCH   4   6
ATOM      6  CA  GLY A   1      -3.119  -1.149  -0.909  0.00  0.00    +0.000 C 
BRANCH   6   7
ATOM      7  N   GLY A   1      -4.463  -1.359  -0.390  0.00  0.00    +0.000 NA
ATOM      8  H1  GLY A   1      -4.842  -0.479  -0.042  0.00  0.00    +0.000 HD
ATOM      9  H2  GLY A   1      -4.433  -1.996   0.405  0.00  0.00    +0.000 HD
ENDBRANCH   6   7
ENDBRANCH   4   6
ENDBRANCH   1   3
BRANCH   1  11
ATOM     10  OXT GLN A   2       0.984   2.913   0.633  0.00  0.00    +0.000 OA
ATOM     11  C   GLN A   2       0.213   2.180   0.023  0.00  0.00    +0.000 C 
BRANCH  11  12
ATOM     12  O   GLN A   2      -0.345   2.538  -1.158  0.00  0.00    +0.000 OA
ATOM     13  H   GLN A   2      -0.046   3.425  -1.452  0.00  0.00    +0.000 HD
ENDBRANCH  11  12
ENDBRANCH   1  11
BRANCH   1  14
ATOM     14  CB  GLN A   2       0.969  -0.095   0.785  0.00  0.00    +0.000 C 
BRANCH  14  15
ATOM     15  CG  GLN A   2       1.824  -0.326  -0.464  0.00  0.00    +0.000 C 
BRANCH  15  18
ATOM     16  OE1 GLN A   2       3.222  -1.639   0.989  0.00  0.00    +0.000 OA
ATOM     17  NE2 GLN A   2       3.831  -1.441  -1.222  0.00  0.00    +0.000 N 
ATOM     18  CD  GLN A   2       3.020  -1.194  -0.139  0.00  0.00    +0.000 C 
ATOM     19 HE21 GLN A   2       4.663  -2.014  -1.132  0.00  0.00    +0.000 HD
ATOM     20 HE22 GLN A   2       3.634  -1.062  -2.143  0.00  0.00    +0.000 HD
ENDBRANCH  15  18
ENDBRANCH  14  15
ENDBRANCH   1  14
TORSDOF 8
