REMARK  Name = 
REMARK  5 active torsions:
REMARK  status: ('A' for Active; 'I' for Inactive)
REMARK    1  A    between atoms: CB_1  and  CG_3
REMARK    2  A    between atoms: CB_1  and  CA_4
REMARK    3  A    between atoms: C_2  and  CA_4
REMARK    4  A    between atoms: C_2  and  OXT_9
REMARK    5  A    between atoms: CA_4  and  N_8
REMARK                            x       y       z     vdW  Elec       q    Type
REMARK                         _______ _______ _______ _____ _____    ______ ____
ROOT
ATOM      1  CA  ASP A   1      -1.096  -0.206   0.000  0.00  0.00    +0.000 C 
ENDROOT
BRANCH   1   2
ATOM      2  N   ASP A   1      -1.096  -1.031   0.000  0.00  0.00    +0.000 NA
ATOM      3  H1  ASP A   1      -1.979  -1.541   0.000  0.00  0.00    +0.000 HD
ATOM      4  H2  ASP A   1      -0.212  -1.541   0.000  0.00  0.00    +0.000 HD
ENDBRANCH   1   2
BRANCH   1   5
ATOM      5  C   ASP A   1      -1.812   0.206   0.000  0.00  0.00    +0.000 C 
ATOM      6  O   ASP A   1      -1.812   1.031   0.000  0.00  0.00    +0.000 OA
BRANCH   5   7
ATOM      7  OXT ASP A   1      -2.525  -0.206   0.000  0.00  0.00    +0.000 OA
ATOM      8  HXT ASP A   1      -3.337   0.261   0.000  0.00  0.00    +0.000 HD
ENDBRANCH   5   7
ENDBRANCH   1   5
BRANCH   1   9
ATOM      9  CB  ASP A   1      -0.383   0.206   0.000  0.00  0.00    +0.000 C 
BRANCH   9  10
ATOM     10  CG  ASP A   1       0.333  -0.206   0.000  0.00  0.00    +0.000 C 
ATOM     11  OD1 ASP A   1       1.046   0.206   0.000  0.00  0.00    +0.000 OA
ATOM     12  OD2 ASP A   1       0.333  -1.031   0.000  0.00  0.00    +0.000 OA
ENDBRANCH   9  10
ENDBRANCH   1   9
TORSDOF 5
REMARK  Name = 
REMARK  5 active torsions:
REMARK  status: ('A' for Active; 'I' for Inactive)
REMARK    1  A    between atoms: CB_1  and  CG_3
REMARK    2  A    between atoms: CB_1  and  CA_4
REMARK    3  A    between atoms: C_2  and  CA_4
REMARK    4  A    between atoms: C_2  and  OXT_9
REMARK    5  A    between atoms: CA_4  and  N_8
REMARK                            x       y       z     vdW  Elec       q    Type
REMARK                         _______ _______ _______ _____ _____    ______ ____
ROOT
ATOM      1  K   UNL     1       2.525   0.802   0.000  0.00  0.00    +0.000 K 
ENDROOT
TORSDOF 0
