REMARK  Name = 
REMARK  9 active torsions:
REMARK  status: ('A' for Active; 'I' for Inactive)
REMARK    1  A    between atoms: C_1  and  CA_3
REMARK    2  A    between atoms: C_1  and  OXT_12
REMARK    3  A    between atoms: N_2  and  CA_3
REMARK    4  A    between atoms: CA_3  and  CB_4
REMARK    5  A    between atoms: CB_4  and  CG_5
REMARK    6  A    between atoms: CG_5  and  CD_6
REMARK    7  A    between atoms: CD_6  and  NE_7
REMARK    8  A    between atoms: C_13  and  CA_15
REMARK    9  A    between atoms: C_13  and  OXT_20
REMARK                            x       y       z     vdW  Elec       q    Type
REMARK                         _______ _______ _______ _____ _____    ______ ____
ROOT
ATOM      1  CG  ARG A   1       2.010  -0.578   0.000  0.00  0.00    +0.000 C 
ENDROOT
BRANCH   1   2
ATOM      2  CB  ARG A   1       2.725  -0.991   0.000  0.00  0.00    +0.000 C 
BRANCH   2   3
ATOM      3  CA  ARG A   1       3.439  -0.578   0.000  0.00  0.00    +0.000 C 
BRANCH   3   4
ATOM      4  N   ARG A   1       3.439   0.247   0.000  0.00  0.00    +0.000 NA
ATOM      5  H1  ARG A   1       4.323   0.757   0.000  0.00  0.00    +0.000 HD
ATOM      6  H2  ARG A   1       2.556   0.757   0.000  0.00  0.00    +0.000 HD
ENDBRANCH   3   4
BRANCH   3   7
ATOM      7  C   ARG A   1       4.154  -0.991   0.000  0.00  0.00    +0.000 C 
ATOM      8  O   ARG A   1       4.154  -1.816   0.000  0.00  0.00    +0.000 OA
BRANCH   7   9
ATOM      9  OXT ARG A   1       4.868  -0.578   0.000  0.00  0.00    +0.000 OA
ATOM     10  HXT ARG A   1       5.680  -1.047   0.000  0.00  0.00    +0.000 HD
ENDBRANCH   7   9
ENDBRANCH   3   7
ENDBRANCH   2   3
ENDBRANCH   1   2
BRANCH   1  11
ATOM     11  CD  ARG A   1       1.296  -0.991   0.000  0.00  0.00    +0.000 C 
BRANCH  11  12
ATOM     12  NE  ARG A   1       0.582  -0.578   0.000  0.00  0.00    +0.000 N 
ATOM     13  CZ  ARG A   1      -0.133  -0.991   0.000  0.00  0.00    +0.000 C 
ATOM     14  NH1 ARG A   1      -0.133  -1.816   0.000  0.00  0.00    +0.000 NA
ATOM     15  NH2 ARG A   1      -0.847  -0.578   0.000  0.00  0.00    +0.000 N 
ATOM     16  HE  ARG A   1       0.581   0.406   0.000  0.00  0.00    +0.000 HD
ATOM     17  HH1 ARG A   1      -0.986  -2.308   0.000  0.00  0.00    +0.000 HD
ATOM     18 HH21 ARG A   1      -0.847   0.406   0.000  0.00  0.00    +0.000 HD
ATOM     19 HH22 ARG A   1      -1.700  -1.071   0.000  0.00  0.00    +0.000 HD
ENDBRANCH  11  12
ENDBRANCH   1  11
TORSDOF 7
REMARK  Name = 
REMARK  9 active torsions:
REMARK  status: ('A' for Active; 'I' for Inactive)
REMARK    1  A    between atoms: C_1  and  CA_3
REMARK    2  A    between atoms: C_1  and  OXT_12
REMARK    3  A    between atoms: N_2  and  CA_3
REMARK    4  A    between atoms: CA_3  and  CB_4
REMARK    5  A    between atoms: CB_4  and  CG_5
REMARK    6  A    between atoms: CG_5  and  CD_6
REMARK    7  A    between atoms: CD_6  and  NE_7
REMARK    8  A    between atoms: C_13  and  CA_15
REMARK    9  A    between atoms: C_13  and  OXT_20
REMARK                            x       y       z     vdW  Elec       q    Type
REMARK                         _______ _______ _______ _____ _____    ______ ____
ROOT
ATOM      1  N   GLN A   1      -3.416   1.586   0.000  0.00  0.00    +0.000 N 
ATOM      2  CA  GLN A   1      -2.931   0.918   0.000  0.00  0.00    +0.000 C 
ATOM      3  CB  GLN A   1      -3.416   0.251   0.000  0.00  0.00    +0.000 C 
ATOM      4  CG  GLN A   1      -4.201   0.506   0.000  0.00  0.00    +0.000 C 
ATOM      5  CD  GLN A   1      -4.201   1.331   0.000  0.00  0.00    +0.000 C 
ATOM      6  OE1 GLN A   1      -4.868   1.816   0.000  0.00  0.00    +0.000 OA
ATOM      7  H   GLN A   1      -3.112   2.522   0.000  0.00  0.00    +0.000 HD
ENDROOT
BRANCH   2   8
ATOM      8  C   GLN A   1      -2.106   0.918   0.000  0.00  0.00    +0.000 C 
ATOM      9  O   GLN A   1      -1.694   0.204   0.000  0.00  0.00    +0.000 OA
BRANCH   8  10
ATOM     10  OXT GLN A   1      -1.694   1.633   0.000  0.00  0.00    +0.000 OA
ATOM     11  HXT GLN A   1      -0.757   1.633   0.000  0.00  0.00    +0.000 HD
ENDBRANCH   8  10
ENDBRANCH   2   8
TORSDOF 2
