REMARK  Name = 44272391
REMARK  6 active torsions:
REMARK  status: ('A' for Active; 'I' for Inactive)
REMARK    1  A    between atoms: OE1_3  and  CD_10
REMARK    2  A    between atoms: N_5  and  CA_6
REMARK    3  A    between atoms: CA_6  and  CB_7
REMARK    4  A    between atoms: CA_6  and  C_9
REMARK    5  A    between atoms: CB_7  and  CG_8
REMARK    6  A    between atoms: CG_8  and  CD_10
REMARK                            x       y       z     vdW  Elec       q    Type
REMARK                         _______ _______ _______ _____ _____    ______ ____
ROOT
ATOM      1  CA  GLU A   1      -0.982   0.643  -0.360  0.00  0.00    +0.000 C 
ENDROOT
BRANCH   1   2
ATOM      2  N   GLU A   1      -2.062   1.668  -0.525  0.00  0.00    +0.000 N 
ATOM      3  H1  GLU A   1      -2.645   1.745   0.319  0.00  0.00    +0.000 HD
ATOM      4  H2  GLU A   1      -2.684   1.427  -1.308  0.00  0.00    +0.000 HD
ATOM      5  H3  GLU A   1      -1.673   2.600  -0.721  0.00  0.00    +0.000 HD
ENDBRANCH   1   2
BRANCH   1   8
ATOM      6  O   GLU A   1      -2.205  -0.903   0.957  0.00  0.00    +0.000 OA
ATOM      7  OXT GLU A   1      -1.282  -1.606  -1.013  0.00  0.00    +0.000 OA
ATOM      8  C   GLU A   1      -1.549  -0.760  -0.113  0.00  0.00    +0.000 C 
ENDBRANCH   1   8
BRANCH   1   9
ATOM      9  CB  GLU A   1      -0.083   1.122   0.787  0.00  0.00    +0.000 C 
BRANCH   9  10
ATOM     10  CG  GLU A   1       1.063   0.155   1.104  0.00  0.00    +0.000 C 
BRANCH  10  12
ATOM     11  OE2 GLU A   1       2.310   0.855  -0.866  0.00  0.00    +0.000 OA
ATOM     12  CD  GLU A   1       2.067   0.007  -0.018  0.00  0.00    +0.000 C 
BRANCH  12  13
ATOM     13  OE1 GLU A   1       2.722  -1.181   0.046  0.00  0.00    +0.000 OA
ATOM     14  HE1 GLU A   1       3.388  -1.271  -0.668  0.00  0.00    +0.000 HD
ENDBRANCH  12  13
ENDBRANCH  10  12
ENDBRANCH   9  10
ENDBRANCH   1   9
TORSDOF 6
