REMARK  Name = 6267
REMARK  5 active torsions:
REMARK  status: ('A' for Active; 'I' for Inactive)
REMARK    1  A    between atoms: O_1  and  C_8
REMARK    2  A    between atoms: N_4  and  CA_6
REMARK    3  A    between atoms: CA_6  and  CB_7
REMARK    4  A    between atoms: CA_6  and  C_8
REMARK    5  A    between atoms: CB_7  and  CG_9
REMARK                            x       y       z     vdW  Elec       q    Type
REMARK                         _______ _______ _______ _____ _____    ______ ____
ROOT
ATOM      1  CA  ASN A   1       0.699   0.744   0.391  0.00  0.00    +0.000 C 
ENDROOT
BRANCH   1   2
ATOM      2  N   ASN A   1       1.780   1.683   0.085  0.00  0.00    +0.000 NA
ATOM      3  H1  ASN A   1       2.036   1.619  -0.899  0.00  0.00    +0.000 HD
ATOM      4  H2  ASN A   1       2.614   1.440   0.620  0.00  0.00    +0.000 HD
ENDBRANCH   1   2
BRANCH   1   6
ATOM      5  OXT ASN A   1       2.019  -0.917  -0.820  0.00  0.00    +0.000 OA
ATOM      6  C   ASN A   1       1.228  -0.646   0.074  0.00  0.00    +0.000 C 
BRANCH   6   7
ATOM      7  O   ASN A   1       0.700  -1.591   0.896  0.00  0.00    +0.000 OA
ATOM      8  H   ASN A   1       1.034  -2.488   0.682  0.00  0.00    +0.000 HD
ENDBRANCH   6   7
ENDBRANCH   1   6
BRANCH   1   9
ATOM      9  CB  ASN A   1      -0.517   1.067  -0.480  0.00  0.00    +0.000 C 
BRANCH   9  12
ATOM     10  OD1 ASN A   1      -2.145  -0.610  -1.060  0.00  0.00    +0.000 OA
ATOM     11  ND2 ASN A   1      -2.103   0.157   1.108  0.00  0.00    +0.000 N 
ATOM     12  CG  ASN A   1      -1.660   0.113  -0.193  0.00  0.00    +0.000 C 
ATOM     13 HD21 ASN A   1      -1.716   0.790   1.799  0.00  0.00    +0.000 HD
ATOM     14 HD22 ASN A   1      -2.866  -0.437   1.417  0.00  0.00    +0.000 HD
ENDBRANCH   9  12
ENDBRANCH   1   9
TORSDOF 5
