REMARK  Name = 17754078
REMARK  11 active torsions:
REMARK  status: ('A' for Active; 'I' for Inactive)
REMARK    1  A    between atoms: P_1  and  O_2
REMARK    2  A    between atoms: P_1  and  O_3
REMARK    3  A    between atoms: P_1  and  O_4
REMARK    4  A    between atoms: O_2  and  C_9
REMARK    5  A    between atoms: O_3  and  C_11
REMARK    6  A    between atoms: O_6  and  C_14
REMARK    7  A    between atoms: N_8  and  C_10
REMARK    8  A    between atoms: C_9  and  C_12
REMARK    9  A    between atoms: C_9  and  C_13
REMARK   10  A    between atoms: C_10  and  C_11
REMARK   11  A    between atoms: C_10  and  C_14
REMARK                            x       y       z     vdW  Elec       q    Type
REMARK                         _______ _______ _______ _____ _____    ______ ____
ROOT
ATOM      1  O   UNK     1      -0.001  -1.013   0.532  0.00  0.00    +0.000 OA
ENDROOT
BRANCH   1   2
ATOM      2  P   UNK     1       1.571  -1.194   0.205  0.00  0.00    +0.000 P 
ATOM      3  O   UNK     1       2.449  -1.326   1.417  0.00  0.00    +0.000 OA
BRANCH   2   4
ATOM      4  O   UNK     1       1.628  -2.467  -0.793  0.00  0.00    +0.000 OA
ATOM      5  H   UNK     1       2.500  -2.857  -1.014  0.00  0.00    +0.000 HD
ENDBRANCH   2   4
BRANCH   2   6
ATOM      6  O   UNK     1       1.944   0.049  -0.765  0.00  0.00    +0.000 OA
BRANCH   6   7
ATOM      7  C   UNK     1       1.893   1.360  -0.231  0.00  0.00    +0.000 C 
ATOM      8  C   UNK     1       3.161   1.626   0.566  0.00  0.00    +0.000 C 
ATOM      9  C   UNK     1       1.717   2.357  -1.366  0.00  0.00    +0.000 C 
ENDBRANCH   6   7
ENDBRANCH   2   6
ENDBRANCH   1   2
BRANCH   1  10
ATOM     10  C   UNK     1      -0.936  -0.877  -0.533  0.00  0.00    +0.000 C 
BRANCH  10  11
ATOM     11  C   UNK     1      -2.341  -0.721   0.043  0.00  0.00    +0.000 C 
BRANCH  11  12
ATOM     12  N   UNK     1      -3.333  -1.058  -0.977  0.00  0.00    +0.000 NA
ATOM     13  H   UNK     1      -4.268  -1.013  -0.572  0.00  0.00    +0.000 HD
ATOM     14  H   UNK     1      -3.203  -2.024  -1.276  0.00  0.00    +0.000 HD
ENDBRANCH  11  12
BRANCH  11  16
ATOM     15  O   UNK     1      -3.436   1.467  -0.002  0.00  0.00    +0.000 OA
ATOM     16  C   UNK     1      -2.590   0.715   0.461  0.00  0.00    +0.000 C 
BRANCH  16  17
ATOM     17  O   UNK     1      -1.725   1.081   1.443  0.00  0.00    +0.000 OA
ATOM     18  H   UNK     1      -1.865   2.010   1.725  0.00  0.00    +0.000 HD
ENDBRANCH  16  17
ENDBRANCH  11  16
ENDBRANCH  10  11
ENDBRANCH   1  10
TORSDOF 9
