REMARK  Name = 93485622
REMARK  9 active torsions:
REMARK  status: ('A' for Active; 'I' for Inactive)
REMARK    1  A    between atoms: O_2  and  C_12
REMARK    2  A    between atoms: N_4  and  CA_10
REMARK    3  A    between atoms: N_5  and  C_11
REMARK    4  A    between atoms: C_7  and  C_8
REMARK    5  A    between atoms: C_7  and  C_9
REMARK    6  A    between atoms: C_8  and  CA_10
REMARK    7  A    between atoms: C_9  and  C_11
REMARK    8  A    between atoms: CA_10  and  C_12
REMARK    9  A    between atoms: C_13  and  C_14
REMARK                            x       y       z     vdW  Elec       q    Type
REMARK                         _______ _______ _______ _____ _____    ______ ____
ROOT
ATOM      1  F   UNL     1       0.112  -1.175  -1.322  0.00  0.00    +0.000 F 
ATOM      2  C   UNL     1       0.273  -0.784  -0.029  0.00  0.00    +0.000 C 
ENDROOT
BRANCH   2   3
ATOM      3  C   UNL     1       1.715  -1.076   0.403  0.00  0.00    +0.000 C 
BRANCH   3   4
ATOM      4  CA  UNL     1       2.808  -0.357  -0.400  0.00  0.00    +0.000 C 
BRANCH   4   5
ATOM      5  N   UNL     1       4.099  -1.001  -0.133  0.00  0.00    +0.000 NA
ATOM      6  H1  UNL     1       4.819  -0.574  -0.715  0.00  0.00    +0.000 HD
ATOM      7  H2  UNL     1       4.057  -1.981  -0.411  0.00  0.00    +0.000 HD
ENDBRANCH   4   5
BRANCH   4   9
ATOM      8  OXT UNL     1       3.627   1.490   0.960  0.00  0.00    +0.000 OA
ATOM      9  C   UNL     1       2.946   1.096   0.020  0.00  0.00    +0.000 C 
BRANCH   9  10
ATOM     10  O   UNL     1       2.206   1.933  -0.751  0.00  0.00    +0.000 OA
ATOM     11  H   UNL     1       2.292   2.867  -0.464  0.00  0.00    +0.000 HD
ENDBRANCH   9  10
ENDBRANCH   4   9
ENDBRANCH   3   4
ENDBRANCH   2   3
BRANCH   2  12
ATOM     12  C   UNL     1      -0.787  -1.463   0.841  0.00  0.00    +0.000 C 
BRANCH  12  13
ATOM     13  C   UNL     1      -2.209  -1.161   0.376  0.00  0.00    +0.000 C 
BRANCH  13  14
ATOM     14  N   UNL     1      -2.453   0.281   0.407  0.00  0.00    +0.000 NA
ATOM     15  N   UNL     1      -4.127   1.955  -0.025  0.00  0.00    +0.000 N 
ATOM     16  C   UNL     1      -3.623   0.677   0.035  0.00  0.00    +0.000 C 
ATOM     17  C   UNL     1      -4.587  -0.414  -0.384  0.00  0.00    +0.000 C 
ATOM     18  H   UNL     1      -5.074   2.151  -0.332  0.00  0.00    +0.000 HD
ATOM     19  H   UNL     1      -3.557   2.750   0.242  0.00  0.00    +0.000 HD
ENDBRANCH  13  14
ENDBRANCH  12  13
ENDBRANCH   2  12
TORSDOF 8
