REMARK  Name = 30819
REMARK  9 active torsions:
REMARK  status: ('A' for Active; 'I' for Inactive)
REMARK    1  A    between atoms: P_1  and  O_2
REMARK    2  A    between atoms: P_1  and  O_5
REMARK    3  A    between atoms: P_1  and  O_6
REMARK    4  A    between atoms: O_2  and  C_14
REMARK    5  A    between atoms: O_3  and  C_17
REMARK    6  A    between atoms: N_8  and  CA_10
REMARK    7  A    between atoms: C_9  and  CA_10
REMARK    8  A    between atoms: C_9  and  C_11
REMARK    9  A    between atoms: CA_10  and  C_17
REMARK                            x       y       z     vdW  Elec       q    Type
REMARK                         _______ _______ _______ _____ _____    ______ ____
ROOT
ATOM      1  C   UNL     1      -1.031   0.498   0.639  0.00  0.00    +0.000 A 
ATOM      2  C   UNL     1      -0.713  -0.785   1.050  0.00  0.00    +0.000 A 
ATOM      3  C   UNL     1      -0.076   1.339   0.093  0.00  0.00    +0.000 A 
ATOM      4  C   UNL     1       1.572  -0.407   0.362  0.00  0.00    +0.000 A 
ATOM      5  C   UNL     1       0.598  -1.241   0.911  0.00  0.00    +0.000 A 
ATOM      6  C   UNL     1       1.235   0.884  -0.047  0.00  0.00    +0.000 A 
ENDROOT
BRANCH   4   7
ATOM      7  O   UNL     1       2.851  -0.852   0.227  0.00  0.00    +0.000 OA
BRANCH   7   8
ATOM      8  P   UNL     1       4.077   0.006  -0.391  0.00  0.00    +0.000 P 
ATOM      9  O   UNL     1       3.889   0.463  -1.808  0.00  0.00    +0.000 OA
BRANCH   8  10
ATOM     10  O   UNL     1       4.327   1.177   0.697  0.00  0.00    +0.000 OA
ATOM     11  H   UNL     1       4.995   1.869   0.503  0.00  0.00    +0.000 HD
ENDBRANCH   8  10
BRANCH   8  12
ATOM     12  O   UNL     1       5.346  -0.973  -0.166  0.00  0.00    +0.000 OA
ATOM     13  H   UNL     1       6.213  -0.721  -0.552  0.00  0.00    +0.000 HD
ENDBRANCH   8  12
ENDBRANCH   7   8
ENDBRANCH   4   7
BRANCH   1  14
ATOM     14  C   UNL     1      -2.452   0.992   0.790  0.00  0.00    +0.000 C 
BRANCH  14  15
ATOM     15  CA  UNL     1      -3.321   0.697  -0.442  0.00  0.00    +0.000 C 
BRANCH  15  16
ATOM     16  N   UNL     1      -4.483   1.582  -0.451  0.00  0.00    +0.000 NA
ATOM     17  H1  UNL     1      -4.173   2.552  -0.501  0.00  0.00    +0.000 HD
ATOM     18  H2  UNL     1      -4.988   1.499   0.431  0.00  0.00    +0.000 HD
ENDBRANCH  15  16
BRANCH  15  20
ATOM     19  OXT UNL     1      -4.904  -1.075   0.092  0.00  0.00    +0.000 OA
ATOM     20  C   UNL     1      -3.857  -0.724  -0.436  0.00  0.00    +0.000 C 
BRANCH  20  21
ATOM     21  O   UNL     1      -3.056  -1.581  -1.121  0.00  0.00    +0.000 OA
ATOM     22  H   UNL     1      -3.415  -2.494  -1.124  0.00  0.00    +0.000 HD
ENDBRANCH  20  21
ENDBRANCH  15  20
ENDBRANCH  14  15
ENDBRANCH   1  14
TORSDOF 9
