REMARK  Name = 17753929
REMARK  9 active torsions:
REMARK  status: ('A' for Active; 'I' for Inactive)
REMARK    1  A    between atoms: S_1  and  C_7
REMARK    2  A    between atoms: S_1  and  C_10
REMARK    3  A    between atoms: O_3  and  C_12
REMARK    4  A    between atoms: N_5  and  C_6
REMARK    5  A    between atoms: C_6  and  C_7
REMARK    6  A    between atoms: C_6  and  C_12
REMARK    7  A    between atoms: C_8  and  C_9
REMARK    8  A    between atoms: C_8  and  C_10
REMARK    9  A    between atoms: C_9  and  C_11
REMARK                            x       y       z     vdW  Elec       q    Type
REMARK                         _______ _______ _______ _____ _____    ______ ____
ROOT
ATOM      1  C   UNK     1       2.418  -0.443  -0.597  0.00  0.00    +0.000 C 
ENDROOT
BRANCH   1   2
ATOM      2  N   UNK     1       3.309  -1.599  -0.475  0.00  0.00    +0.000 NA
ATOM      3  H   UNK     1       4.224  -1.368  -0.861  0.00  0.00    +0.000 HD
ATOM      4  H   UNK     1       2.951  -2.368  -1.040  0.00  0.00    +0.000 HD
ENDBRANCH   1   2
BRANCH   1   6
ATOM      5  O   UNK     1       3.630   0.497   1.274  0.00  0.00    +0.000 OA
ATOM      6  C   UNK     1       3.013   0.681   0.231  0.00  0.00    +0.000 C 
BRANCH   6   7
ATOM      7  O   UNK     1       2.769   1.919  -0.270  0.00  0.00    +0.000 OA
ATOM      8  H   UNK     1       3.151   2.624   0.295  0.00  0.00    +0.000 HD
ENDBRANCH   6   7
ENDBRANCH   1   6
BRANCH   1   9
ATOM      9  C   UNK     1       1.008  -0.818  -0.137  0.00  0.00    +0.000 C 
BRANCH   9  10
ATOM     10  S   UNK     1      -0.234   0.339  -0.755  0.00  0.00    +0.000 S 
BRANCH  10  12
ATOM     11  O   UNK     1      -1.669  -1.297   0.735  0.00  0.00    +0.000 OA
ATOM     12  C   UNK     1      -1.689  -0.312   0.007  0.00  0.00    +0.000 C 
BRANCH  12  13
ATOM     13  C   UNK     1      -2.941   0.472  -0.333  0.00  0.00    +0.000 C 
BRANCH  13  14
ATOM     14  C   UNK     1      -4.186  -0.126   0.320  0.00  0.00    +0.000 C 
ATOM     15  C   UNK     1      -5.429   0.688  -0.000  0.00  0.00    +0.000 C 
ENDBRANCH  13  14
ENDBRANCH  12  13
ENDBRANCH  10  12
ENDBRANCH   9  10
ENDBRANCH   1   9
TORSDOF 8
