REMARK  Name = 3080775
REMARK  7 active torsions:
REMARK  status: ('A' for Active; 'I' for Inactive)
REMARK    1  A    between atoms: S_1  and  S_2
REMARK    2  A    between atoms: S_1  and  C_7
REMARK    3  A    between atoms: S_2  and  C_9
REMARK    4  A    between atoms: O_3  and  C_8
REMARK    5  A    between atoms: N_5  and  C_6
REMARK    6  A    between atoms: C_6  and  C_7
REMARK    7  A    between atoms: C_6  and  C_8
REMARK                            x       y       z     vdW  Elec       q    Type
REMARK                         _______ _______ _______ _____ _____    ______ ____
ROOT
ATOM      1  C   UNK     1      -0.679   0.658  -0.388  0.00  0.00    +0.000 C 
ENDROOT
BRANCH   1   2
ATOM      2  N   UNK     1      -1.513   1.819  -0.707  0.00  0.00    +0.000 NA
ATOM      3  H   UNK     1      -2.068   1.623  -1.539  0.00  0.00    +0.000 HD
ATOM      4  H   UNK     1      -0.918   2.613  -0.943  0.00  0.00    +0.000 HD
ENDBRANCH   1   2
BRANCH   1   6
ATOM      5  O   UNK     1      -2.370  -0.492   0.903  0.00  0.00    +0.000 OA
ATOM      6  C   UNK     1      -1.608  -0.495  -0.057  0.00  0.00    +0.000 C 
BRANCH   6   7
ATOM      7  O   UNK     1      -1.494  -1.550  -0.902  0.00  0.00    +0.000 OA
ATOM      8  H   UNK     1      -2.095  -2.285  -0.653  0.00  0.00    +0.000 HD
ENDBRANCH   6   7
ENDBRANCH   1   6
BRANCH   1   9
ATOM      9  C   UNK     1       0.264   0.993   0.769  0.00  0.00    +0.000 C 
BRANCH   9  10
ATOM     10  S   UNK     1       1.307  -0.427   1.230  0.00  0.00    +0.000 S 
BRANCH  10  11
ATOM     11  S   UNK     1       2.316  -0.777  -0.525  0.00  0.00    +0.000 S 
ATOM     12  C   UNK     1       3.778   0.269  -0.325  0.00  0.00    +0.000 C 
ENDBRANCH  10  11
ENDBRANCH   9  10
ENDBRANCH   1   9
TORSDOF 6
