REMARK  Name = 446124
REMARK  7 active torsions:
REMARK  status: ('A' for Active; 'I' for Inactive)
REMARK    1  A    between atoms: O_1  and  C_11
REMARK    2  A    between atoms: O_3  and  N_6
REMARK    3  A    between atoms: N_4  and  CA_9
REMARK    4  A    between atoms: N_5  and  C_10
REMARK    5  A    between atoms: C_8  and  CA_9
REMARK    6  A    between atoms: C_8  and  C_10
REMARK    7  A    between atoms: CA_9  and  C_11
REMARK                            x       y       z     vdW  Elec       q    Type
REMARK                         _______ _______ _______ _____ _____    ______ ____
ROOT
ATOM      1  C   UNL     1       0.511  -1.056  -0.738  0.00  0.00    +0.000 C 
ENDROOT
BRANCH   1   2
ATOM      2  N   UNL     1       1.361   0.029  -0.246  0.00  0.00    +0.000 NA
ATOM      3  N   UNL     1       3.505   0.692   0.431  0.00  0.00    +0.000 N 
ATOM      4  N   UNL     1       3.233  -1.466  -0.222  0.00  0.00    +0.000 N 
ATOM      5  C   UNL     1       2.611  -0.248  -0.036  0.00  0.00    +0.000 C 
ATOM      6  H   UNL     1       4.503   0.527   0.499  0.00  0.00    +0.000 HD
ATOM      7  H   UNL     1       4.221  -1.582  -0.024  0.00  0.00    +0.000 HD
ATOM      8  H   UNL     1       2.737  -2.282  -0.560  0.00  0.00    +0.000 HD
BRANCH   3   9
ATOM      9  O   UNL     1       3.085   2.005   0.421  0.00  0.00    +0.000 OA
ATOM     10  H   UNL     1       3.579   2.377   1.171  0.00  0.00    +0.000 HD
ENDBRANCH   3   9
ENDBRANCH   1   2
BRANCH   1  11
ATOM     11  C   UNL     1      -0.916  -0.550  -0.938  0.00  0.00    +0.000 C 
BRANCH  11  12
ATOM     12  CA  UNL     1      -1.600  -0.031   0.337  0.00  0.00    +0.000 C 
BRANCH  12  13
ATOM     13  N   UNL     1      -1.671  -1.064   1.371  0.00  0.00    +0.000 NA
ATOM     14  H1  UNL     1      -0.733  -1.296   1.693  0.00  0.00    +0.000 HD
ATOM     15  H2  UNL     1      -2.055  -1.922   0.977  0.00  0.00    +0.000 HD
ENDBRANCH  12  13
BRANCH  12  17
ATOM     16  OXT UNL     1      -4.037  -0.101   0.497  0.00  0.00    +0.000 OA
ATOM     17  C   UNL     1      -3.024   0.391   0.017  0.00  0.00    +0.000 C 
BRANCH  17  18
ATOM     18  O   UNL     1      -3.060   1.399  -0.896  0.00  0.00    +0.000 OA
ATOM     19  H   UNL     1      -3.980   1.667  -1.106  0.00  0.00    +0.000 HD
ENDBRANCH  17  18
ENDBRANCH  12  17
ENDBRANCH  11  12
ENDBRANCH   1  11
TORSDOF 7
