REMARK  Name = 17754062
REMARK  9 active torsions:
REMARK  status: ('A' for Active; 'I' for Inactive)
REMARK    1  A    between atoms: O_1  and  C_11
REMARK    2  A    between atoms: O_2  and  C_12
REMARK    3  A    between atoms: N_4  and  C_8
REMARK    4  A    between atoms: N_5  and  C_10
REMARK    5  A    between atoms: C_6  and  C_7
REMARK    6  A    between atoms: C_6  and  C_8
REMARK    7  A    between atoms: C_7  and  C_9
REMARK    8  A    between atoms: C_8  and  C_11
REMARK    9  A    between atoms: C_9  and  C_10
REMARK                            x       y       z     vdW  Elec       q    Type
REMARK                         _______ _______ _______ _____ _____    ______ ____
ROOT
ATOM      1  C   UNK     1      -0.437  -0.378  -0.546  0.00  0.00    +0.000 C 
ENDROOT
BRANCH   1   2
ATOM      2  C   UNK     1      -1.768  -0.442   0.215  0.00  0.00    +0.000 C 
BRANCH   2   3
ATOM      3  C   UNK     1      -2.831   0.538  -0.319  0.00  0.00    +0.000 C 
BRANCH   3   4
ATOM      4  N   UNK     1      -2.367   1.923  -0.236  0.00  0.00    +0.000 NA
ATOM      5  H   UNK     1      -3.105   2.552  -0.551  0.00  0.00    +0.000 HD
ATOM      6  H   UNK     1      -1.587   2.068  -0.875  0.00  0.00    +0.000 HD
ENDBRANCH   3   4
BRANCH   3   7
ATOM      7  C   UNK     1      -4.142   0.414   0.466  0.00  0.00    +0.000 C 
BRANCH   7   8
ATOM      8  O   UNK     1      -4.674  -0.901   0.357  0.00  0.00    +0.000 OA
ATOM      9  H   UNK     1      -5.499  -0.919   0.871  0.00  0.00    +0.000 HD
ENDBRANCH   7   8
ENDBRANCH   3   7
ENDBRANCH   2   3
ENDBRANCH   1   2
BRANCH   1  10
ATOM     10  C   UNK     1       0.588  -1.349   0.052  0.00  0.00    +0.000 C 
BRANCH  10  11
ATOM     11  C   UNK     1       1.905  -1.357  -0.717  0.00  0.00    +0.000 C 
BRANCH  11  13
ATOM     12  O   UNK     1       3.832  -0.309   1.213  0.00  0.00    +0.000 OA
ATOM     13  N   UNK     1       2.548  -0.072  -0.717  0.00  0.00    +0.000 N 
ATOM     14  C   UNK     1       3.451   0.337   0.244  0.00  0.00    +0.000 C 
ATOM     15  H   UNK     1       2.324   0.577  -1.466  0.00  0.00    +0.000 HD
BRANCH  14  16
ATOM     16  O   UNK     1       3.894   1.596  -0.013  0.00  0.00    +0.000 OA
ATOM     17  H   UNK     1       4.537   1.902   0.662  0.00  0.00    +0.000 HD
ENDBRANCH  14  16
ENDBRANCH  11  13
ENDBRANCH  10  11
ENDBRANCH   1  10
TORSDOF 9
