REMARK  Name = 131704210
REMARK  16 active torsions:
REMARK  status: ('A' for Active; 'I' for Inactive)
REMARK    1  A    between atoms: SG_1  and  CB_18
REMARK    2  A    between atoms: O_4  and  C_20
REMARK    3  A    between atoms: O_6  and  C_22
REMARK    4  A    between atoms: N_8  and  CA_14
REMARK    5  A    between atoms: N_9  and  CA_19
REMARK    6  A    between atoms: N_10  and  CA_15
REMARK    7  A    between atoms: C_11  and  C_12
REMARK    8  A    between atoms: C_11  and  C_13
REMARK    9  A    between atoms: C_12  and  CA_15
REMARK   10  A    between atoms: C_13  and  C_16
REMARK   11  A    between atoms: CA_14  and  C_17
REMARK   12  A    between atoms: CA_14  and  CB_18
REMARK   13  A    between atoms: CA_15  and  C_20
REMARK   14  A    between atoms: CA_19  and  CB_21
REMARK   15  A    between atoms: CA_19  and  C_22
REMARK   16  A    between atoms: CB_21  and  CG1_23
REMARK                            x       y       z     vdW  Elec       q    Type
REMARK                         _______ _______ _______ _____ _____    ______ ____
ROOT
ATOM      1  CA  UNL     1      -1.012   0.891  -0.307  0.00  0.00    +0.000 C 
ENDROOT
BRANCH   1   3
ATOM      2  O   UNL     1       1.605   0.555  -1.425  0.00  0.00    +0.000 OA
ATOM      3  N   UNL     1       0.226   0.786   0.427  0.00  0.00    +0.000 N 
ATOM      4  C   UNL     1       1.448   0.624  -0.208  0.00  0.00    +0.000 C 
ATOM      5  H   UNL     1       0.196   0.854   1.441  0.00  0.00    +0.000 HD
BRANCH   4   6
ATOM      6  C   UNL     1       2.591   0.540   0.787  0.00  0.00    +0.000 C 
BRANCH   6   7
ATOM      7  C   UNL     1       3.947   0.361   0.106  0.00  0.00    +0.000 C 
BRANCH   7   8
ATOM      8  C   UNL     1       5.074   0.236   1.140  0.00  0.00    +0.000 C 
BRANCH   8   9
ATOM      9  CA  UNL     1       6.467   0.000   0.539  0.00  0.00    +0.000 C 
BRANCH   9  10
ATOM     10  N   UNL     1       6.899   1.136  -0.274  0.00  0.00    +0.000 NA
ATOM     11  H1  UNL     1       7.868   1.001  -0.562  0.00  0.00    +0.000 HD
ATOM     12  H2  UNL     1       6.886   1.985   0.290  0.00  0.00    +0.000 HD
ENDBRANCH   9  10
BRANCH   9  14
ATOM     13  OXT UNL     1       6.793  -1.294  -1.512  0.00  0.00    +0.000 OA
ATOM     14  C   UNL     1       6.515  -1.246  -0.322  0.00  0.00    +0.000 C 
BRANCH  14  15
ATOM     15  O   UNL     1       6.217  -2.346   0.417  0.00  0.00    +0.000 OA
ATOM     16  H   UNL     1       6.247  -3.167  -0.120  0.00  0.00    +0.000 HD
ENDBRANCH  14  15
ENDBRANCH   9  14
ENDBRANCH   8   9
ENDBRANCH   7   8
ENDBRANCH   6   7
ENDBRANCH   4   6
ENDBRANCH   1   3
BRANCH   1  19
ATOM     17  O   UNL     1      -1.960  -0.215   1.634  0.00  0.00    +0.000 OA
ATOM     18  N   UNL     1      -3.313   0.143  -0.216  0.00  0.00    +0.000 N 
ATOM     19  C   ACE A   1      -2.125   0.220   0.496  0.00  0.00    +0.000 C 
ATOM     20  H   UNL     1      -3.333   0.472  -1.177  0.00  0.00    +0.000 HD
BRANCH  18  21
ATOM     21  CA  UNL     1      -4.505  -0.471   0.321  0.00  0.00    +0.000 C 
BRANCH  21  22
ATOM     22  CB  UNL     1      -4.612  -1.937  -0.022  0.00  0.00    +0.000 C 
ATOM     23  CG1 UNL     1      -5.313  -2.787   1.004  0.00  0.00    +0.000 C 
ATOM     24  CG2 UNL     1      -4.142  -2.497  -1.151  0.00  0.00    +0.000 C 
ENDBRANCH  21  22
BRANCH  21  26
ATOM     25  OXT UNL     1      -6.853   0.097   0.036  0.00  0.00    +0.000 OA
ATOM     26  C   UNL     1      -5.681   0.278  -0.271  0.00  0.00    +0.000 C 
BRANCH  26  27
ATOM     27  O   UNL     1      -5.300   1.160  -1.232  0.00  0.00    +0.000 OA
ATOM     28  H   UNL     1      -6.069   1.626  -1.625  0.00  0.00    +0.000 HD
ENDBRANCH  26  27
ENDBRANCH  21  26
ENDBRANCH  18  21
ENDBRANCH   1  19
BRANCH   1  29
ATOM     29  CB  UNL     1      -1.329   2.337  -0.697  0.00  0.00    +0.000 C 
BRANCH  29  30
ATOM     30  SG  UNL     1      -1.638   3.431   0.728  0.00  0.00    +0.000 S 
ATOM     31  HG  UNL     1      -0.436   3.274   1.303  0.00  0.00    +0.000 HD
ENDBRANCH  29  30
ENDBRANCH   1  29
TORSDOF 15
