REMARK  Name = 42555571
REMARK  4 active torsions:
REMARK  status: ('A' for Active; 'I' for Inactive)
REMARK    1  A    between atoms: N_3  and  CA_11
REMARK    2  A    between atoms: CG_4  and  CB_7
REMARK    3  A    between atoms: CB_7  and  CA_11
REMARK    4  A    between atoms: CA_11  and  C_12
REMARK                            x       y       z     vdW  Elec       q    Type
REMARK                         _______ _______ _______ _____ _____    ______ ____
ROOT
ATOM      1  CA  PHE A   1      -1.798   0.297  -0.645  0.00  0.00    +0.000 C 
ENDROOT
BRANCH   1   2
ATOM      2  N   PHE A   1      -2.840   1.212  -1.208  0.00  0.00    +0.000 N 
ATOM      3  H1  PHE A   1      -2.487   1.740  -2.018  0.00  0.00    +0.000 HD
ATOM      4  H2  PHE A   1      -3.161   1.893  -0.507  0.00  0.00    +0.000 HD
ATOM      5  H3  PHE A   1      -3.664   0.685  -1.524  0.00  0.00    +0.000 HD
ENDBRANCH   1   2
BRANCH   1   8
ATOM      6  O   PHE A   1      -2.695  -0.039   1.532  0.00  0.00    +0.000 OA
ATOM      7  OXT PHE A   1      -2.294  -1.856   0.213  0.00  0.00    +0.000 OA
ATOM      8  C   PHE A   1      -2.304  -0.621   0.481  0.00  0.00    +0.000 C 
ENDBRANCH   1   8
BRANCH   1   9
ATOM      9  CB  PHE A   1      -0.572   1.151  -0.301  0.00  0.00    +0.000 C 
BRANCH   9  10
ATOM     10  CG  PHE A   1       0.654   0.350   0.131  0.00  0.00    +0.000 C 
ATOM     11  CD1 PHE A   1       1.135  -0.561  -1.006  0.00  0.00    +0.000 C 
ATOM     12  CD2 PHE A   1       1.779   1.287   0.592  0.00  0.00    +0.000 C 
ATOM     13  CE1 PHE A   1       2.393  -1.334  -0.617  0.00  0.00    +0.000 C 
ATOM     14  CE2 PHE A   1       3.036   0.512   0.979  0.00  0.00    +0.000 C 
ATOM     15  CZ  PHE A   1       3.505  -0.400  -0.151  0.00  0.00    +0.000 C 
ENDBRANCH   9  10
ENDBRANCH   1   9
TORSDOF 4
