REMARK  Name = 17753872
REMARK  6 active torsions:
REMARK  status: ('A' for Active; 'I' for Inactive)
REMARK    1  A    between atoms: O_1  and  C_7
REMARK    2  A    between atoms: O_2  and  C_8
REMARK    3  A    between atoms: N_4  and  C_6
REMARK    4  A    between atoms: C_5  and  C_6
REMARK    5  A    between atoms: C_5  and  C_7
REMARK    6  A    between atoms: C_5  and  C_8
REMARK                            x       y       z     vdW  Elec       q    Type
REMARK                         _______ _______ _______ _____ _____    ______ ____
ROOT
ATOM      1  C   UNL     1      -0.101   0.257   0.488  0.00  0.00    +0.000 C 
ENDROOT
BRANCH   1   3
ATOM      2  O   UNL     1       1.722  -0.863  -0.688  0.00  0.00    +0.000 OA
ATOM      3  C   UNL     1       1.323   0.085  -0.025  0.00  0.00    +0.000 C 
BRANCH   3   4
ATOM      4  O   UNL     1       2.130   1.112   0.349  0.00  0.00    +0.000 OA
ATOM      5  H   UNL     1       3.047   0.994   0.021  0.00  0.00    +0.000 HD
ENDBRANCH   3   4
ENDBRANCH   1   3
BRANCH   1   6
ATOM      6  C   UNL     1      -0.914   1.042  -0.552  0.00  0.00    +0.000 C 
BRANCH   6   7
ATOM      7  N   UNL     1      -2.287   1.260  -0.114  0.00  0.00    +0.000 NA
ATOM      8  H   UNL     1      -2.773   0.367  -0.042  0.00  0.00    +0.000 HD
ATOM      9  H   UNL     1      -2.786   1.794  -0.824  0.00  0.00    +0.000 HD
ENDBRANCH   6   7
ENDBRANCH   1   6
BRANCH   1  10
ATOM     10  C   UNL     1      -0.709  -1.106   0.852  0.00  0.00    +0.000 C 
BRANCH  10  11
ATOM     11  O   UNL     1      -1.163  -1.788  -0.310  0.00  0.00    +0.000 OA
ATOM     12  H   UNL     1      -1.542  -2.634  -0.016  0.00  0.00    +0.000 HD
ENDBRANCH  10  11
ENDBRANCH   1  10
TORSDOF 6
