REMARK  Name = 445883
REMARK  6 active torsions:
REMARK  status: ('A' for Active; 'I' for Inactive)
REMARK    1  A    between atoms: O_2  and  C_10
REMARK    2  A    between atoms: N_4  and  C_7
REMARK    3  A    between atoms: C_6  and  C_7
REMARK    4  A    between atoms: C_6  and  C_8
REMARK    5  A    between atoms: C_7  and  C_9
REMARK    6  A    between atoms: C_8  and  C_10
REMARK                            x       y       z     vdW  Elec       q    Type
REMARK                         _______ _______ _______ _____ _____    ______ ____
ROOT
ATOM      1  C   UNL     1      -1.308  -0.617   0.543  0.00  0.00    +0.000 C 
ENDROOT
BRANCH   1   4
ATOM      2  O   UNL     1      -2.033   0.574  -1.419  0.00  0.00    +0.000 OA
ATOM      3  N   UNL     1      -2.409   1.568   0.614  0.00  0.00    +0.000 N 
ATOM      4  C   UNL     1      -1.945   0.553  -0.192  0.00  0.00    +0.000 C 
ATOM      5  H   UNL     1      -2.850   2.390   0.214  0.00  0.00    +0.000 HD
ATOM      6  H   UNL     1      -2.331   1.542   1.625  0.00  0.00    +0.000 HD
ENDBRANCH   1   4
BRANCH   1   7
ATOM      7  N   UNL     1      -2.135  -1.794   0.276  0.00  0.00    +0.000 NA
ATOM      8  H   UNL     1      -1.759  -2.595   0.781  0.00  0.00    +0.000 HD
ATOM      9  H   UNL     1      -2.077  -2.038  -0.712  0.00  0.00    +0.000 HD
ENDBRANCH   1   7
BRANCH   1  10
ATOM     10  C   UNL     1       0.147  -0.879   0.135  0.00  0.00    +0.000 C 
BRANCH  10  11
ATOM     11  C   UNL     1       1.048   0.332   0.393  0.00  0.00    +0.000 C 
BRANCH  11  13
ATOM     12  O   UNL     1       2.889  -0.957  -0.544  0.00  0.00    +0.000 OA
ATOM     13  C   UNL     1       2.476   0.074  -0.031  0.00  0.00    +0.000 C 
BRANCH  13  14
ATOM     14  O   UNL     1       3.271   1.146   0.226  0.00  0.00    +0.000 OA
ATOM     15  H   UNL     1       4.199   0.986  -0.048  0.00  0.00    +0.000 HD
ENDBRANCH  13  14
ENDBRANCH  11  13
ENDBRANCH  10  11
ENDBRANCH   1  10
TORSDOF 6
