REMARK  Name = 17753810
REMARK  3 active torsions:
REMARK  status: ('A' for Active; 'I' for Inactive)
REMARK    1  A    between atoms: N_3  and  CA_4
REMARK    2  A    between atoms: CA_4  and  C_5
REMARK    3  A    between atoms: CA_4  and  C_6
REMARK                            x       y       z     vdW  Elec       q    Type
REMARK                         _______ _______ _______ _____ _____    ______ ____
ROOT
ATOM      1  CA  UNL     1       0.242   0.427  -0.393  0.00  0.00    +0.000 C 
ENDROOT
BRANCH   1   2
ATOM      2  N   UNL     1       0.225   1.912  -0.221  0.00  0.00    +0.000 N 
ATOM      3  H1  UNL     1      -0.517   2.343  -0.788  0.00  0.00    +0.000 HD
ATOM      4  H2  UNL     1       1.117   2.335  -0.511  0.00  0.00    +0.000 HD
ATOM      5  H3  UNL     1       0.059   2.179   0.759  0.00  0.00    +0.000 HD
ENDBRANCH   1   2
BRANCH   1   8
ATOM      6  O   UNL     1      -1.390  -0.151   1.230  0.00  0.00    +0.000 OA
ATOM      7  OXT UNL     1      -1.685  -0.825  -0.934  0.00  0.00    +0.000 OA
ATOM      8  C   UNL     1      -1.074  -0.247   0.011  0.00  0.00    +0.000 C 
ENDBRANCH   1   8
BRANCH   1   9
ATOM      9  C   UNL     1       1.328  -0.220   0.419  0.00  0.00    +0.000 C 
ATOM     10  C   UNL     1       2.353  -0.896  -0.112  0.00  0.00    +0.000 C 
ENDBRANCH   1   9
TORSDOF 3
