REMARK  Name = 57449
REMARK  8 active torsions:
REMARK  status: ('A' for Active; 'I' for Inactive)
REMARK    1  A    between atoms: O_1  and  C_10
REMARK    2  A    between atoms: N_3  and  CA_8
REMARK    3  A    between atoms: NZ_4  and  CE_9
REMARK    4  A    between atoms: CG_5  and  CB_6
REMARK    5  A    between atoms: CG_5  and  CD_7
REMARK    6  A    between atoms: CB_6  and  CA_8
REMARK    7  A    between atoms: CD_7  and  CE_9
REMARK    8  A    between atoms: CA_8  and  C_10
REMARK                            x       y       z     vdW  Elec       q    Type
REMARK                         _______ _______ _______ _____ _____    ______ ____
ROOT
ATOM      1  CA  LYS A   1      -1.694  -0.721  -0.494  0.00  0.00    +0.000 C 
ENDROOT
BRANCH   1   2
ATOM      2  N   LYS A   1      -1.856  -1.760   0.524  0.00  0.00    +0.000 NA
ATOM      3  H1  LYS A   1      -1.291  -1.545   1.344  0.00  0.00    +0.000 HD
ATOM      4  H2  LYS A   1      -1.505  -2.647   0.165  0.00  0.00    +0.000 HD
ENDBRANCH   1   2
BRANCH   1   6
ATOM      5  OXT LYS A   1      -2.538   0.697   1.268  0.00  0.00    +0.000 OA
ATOM      6  C   LYS A   1      -2.182   0.584   0.101  0.00  0.00    +0.000 C 
BRANCH   6   7
ATOM      7  O   LYS A   1      -2.208   1.619  -0.776  0.00  0.00    +0.000 OA
ATOM      8  H   LYS A   1      -2.534   2.444  -0.359  0.00  0.00    +0.000 HD
ENDBRANCH   6   7
ENDBRANCH   1   6
BRANCH   1   9
ATOM      9  CB  LYS A   1      -0.246  -0.647  -0.994  0.00  0.00    +0.000 C 
BRANCH   9  10
ATOM     10  CG  LYS A   1       0.784  -0.259   0.075  0.00  0.00    +0.000 C 
BRANCH  10  11
ATOM     11  CD  LYS A   1       2.209  -0.124  -0.467  0.00  0.00    +0.000 C 
BRANCH  11  12
ATOM     12  CE  LYS A   1       3.189   0.239   0.649  0.00  0.00    +0.000 C 
BRANCH  12  13
ATOM     13  NZ  LYS A   1       4.539   0.371   0.114  0.00  0.00    +0.000 NA
ATOM     14  HZ1 LYS A   1       4.834  -0.513  -0.298  0.00  0.00    +0.000 HD
ATOM     15  HZ2 LYS A   1       5.188   0.561   0.877  0.00  0.00    +0.000 HD
ENDBRANCH  12  13
ENDBRANCH  11  12
ENDBRANCH  10  11
ENDBRANCH   9  10
ENDBRANCH   1   9
TORSDOF 8
