REMARK  Name = 6540253
REMARK  4 active torsions:
REMARK  status: ('A' for Active; 'I' for Inactive)
REMARK    1  A    between atoms: S_1  and  C_6
REMARK    2  A    between atoms: N_3  and  C_5
REMARK    3  A    between atoms: C_5  and  C_6
REMARK    4  A    between atoms: C_5  and  C_7
REMARK                            x       y       z     vdW  Elec       q    Type
REMARK                         _______ _______ _______ _____ _____    ______ ____
ROOT
ATOM      1  C   UNL     1       0.084   0.707  -0.336  0.00  0.00    +0.000 C 
ENDROOT
BRANCH   1   4
ATOM      2  O   UNL     1      -0.655  -1.132   1.067  0.00  0.00    +0.000 OA
ATOM      3  N   UNL     1      -1.873  -0.642  -0.818  0.00  0.00    +0.000 N 
ATOM      4  C   UNL     1      -0.825  -0.453   0.057  0.00  0.00    +0.000 C 
ATOM      5  H   UNL     1      -2.007  -0.062  -1.640  0.00  0.00    +0.000 HD
ATOM      6  H   UNL     1      -2.554  -1.378  -0.663  0.00  0.00    +0.000 HD
ENDBRANCH   1   4
BRANCH   1   7
ATOM      7  N   UNL     1      -0.546   1.904   0.228  0.00  0.00    +0.000 NA
ATOM      8  H   UNL     1       0.003   2.725  -0.025  0.00  0.00    +0.000 HD
ATOM      9  H   UNL     1      -0.523   1.860   1.247  0.00  0.00    +0.000 HD
ENDBRANCH   1   7
BRANCH   1  10
ATOM     10  C   UNL     1       1.505   0.562   0.215  0.00  0.00    +0.000 C 
BRANCH  10  11
ATOM     11  S   UNL     1       2.310  -0.945  -0.414  0.00  0.00    +0.000 S 
ATOM     12  H   UNL     1       3.477  -0.771   0.224  0.00  0.00    +0.000 HD
ENDBRANCH  10  11
ENDBRANCH   1  10
TORSDOF 4
