REMARK  Name = 107984
REMARK  8 active torsions:
REMARK  status: ('A' for Active; 'I' for Inactive)
REMARK    1  A    between atoms: O_1  and  C_10
REMARK    2  A    between atoms: N_3  and  CA_8
REMARK    3  A    between atoms: N_4  and  C_9
REMARK    4  A    between atoms: C_6  and  C_7
REMARK    5  A    between atoms: C_6  and  CA_8
REMARK    6  A    between atoms: C_7  and  C_9
REMARK    7  A    between atoms: CA_8  and  C_10
REMARK    8  A    between atoms: C_11  and  C_12
REMARK                            x       y       z     vdW  Elec       q    Type
REMARK                         _______ _______ _______ _____ _____    ______ ____
ROOT
ATOM      1  C   UNL     1       0.765  -0.466  -0.880  0.00  0.00    +0.000 C 
ENDROOT
BRANCH   1   2
ATOM      2  C   UNL     1       0.154  -0.848   0.476  0.00  0.00    +0.000 C 
BRANCH   2   3
ATOM      3  C   UNL     1      -1.364  -0.982   0.413  0.00  0.00    +0.000 C 
BRANCH   3   4
ATOM      4  N   UNL     1      -1.962   0.299   0.032  0.00  0.00    +0.000 NA
ATOM      5  N   UNL     1      -4.070   1.402  -0.329  0.00  0.00    +0.000 N 
ATOM      6  C   UNL     1      -3.250   0.343  -0.016  0.00  0.00    +0.000 C 
ATOM      7  C   UNL     1      -3.967  -0.945   0.330  0.00  0.00    +0.000 C 
ATOM      8  H   UNL     1      -5.081   1.323  -0.330  0.00  0.00    +0.000 HD
ATOM      9  H   UNL     1      -3.679   2.306  -0.569  0.00  0.00    +0.000 HD
ENDBRANCH   3   4
ENDBRANCH   2   3
ENDBRANCH   1   2
BRANCH   1  10
ATOM     10  CA  UNL     1       2.296  -0.353  -0.816  0.00  0.00    +0.000 C 
BRANCH  10  11
ATOM     11  N   UNL     1       2.866  -1.612  -0.343  0.00  0.00    +0.000 NA
ATOM     12  H1  UNL     1       3.884  -1.567  -0.391  0.00  0.00    +0.000 HD
ATOM     13  H2  UNL     1       2.587  -2.370  -0.965  0.00  0.00    +0.000 HD
ENDBRANCH  10  11
BRANCH  10  15
ATOM     14  OXT UNL     1       3.445   0.502   1.156  0.00  0.00    +0.000 OA
ATOM     15  C   UNL     1       2.755   0.709   0.166  0.00  0.00    +0.000 C 
BRANCH  15  16
ATOM     16  O   UNL     1       2.333   1.951  -0.190  0.00  0.00    +0.000 OA
ATOM     17  H   UNL     1       2.640   2.636   0.442  0.00  0.00    +0.000 HD
ENDBRANCH  15  16
ENDBRANCH  10  15
ENDBRANCH   1  10
TORSDOF 7
