REMARK  Name = 17753999
REMARK  18 active torsions:
REMARK  status: ('A' for Active; 'I' for Inactive)
REMARK    1  A    between atoms: SG_2  and  CB_18
REMARK    2  A    between atoms: SG_2  and  C_22
REMARK    3  A    between atoms: O_5  and  C_22
REMARK    4  A    between atoms: O_6  and  C_23
REMARK    5  A    between atoms: O_7  and  N_14
REMARK    6  A    between atoms: O_9  and  C_28
REMARK    7  A    between atoms: N_11  and  CA_15
REMARK    8  A    between atoms: N_12  and  CA_24
REMARK    9  A    between atoms: N_13  and  CA_19
REMARK   10  A    between atoms: N_14  and  C_22
REMARK   11  A    between atoms: N_14  and  C_25
REMARK   12  A    between atoms: CA_15  and  CB_18
REMARK   13  A    between atoms: CA_15  and  C_21
REMARK   14  A    between atoms: C_16  and  C_17
REMARK   15  A    between atoms: C_16  and  CA_19
REMARK   16  A    between atoms: C_17  and  C_20
REMARK   17  A    between atoms: CA_19  and  C_23
REMARK   18  A    between atoms: CA_24  and  C_28
REMARK                            x       y       z     vdW  Elec       q    Type
REMARK                         _______ _______ _______ _____ _____    ______ ____
ROOT
ATOM      1  CA  UNL     1      -1.102  -1.615  -0.896  0.00  0.00    +0.000 C 
ENDROOT
BRANCH   1   3
ATOM      2  O   UNL     1      -3.667  -0.967  -2.049  0.00  0.00    +0.000 OA
ATOM      3  N   UNL     1      -2.277  -1.151  -0.196  0.00  0.00    +0.000 N 
ATOM      4  C   UNL     1      -3.472  -0.863  -0.840  0.00  0.00    +0.000 C 
ATOM      5  H   UNL     1      -2.212  -1.009   0.808  0.00  0.00    +0.000 HD
BRANCH   4   6
ATOM      6  C   UNL     1      -4.533  -0.387   0.137  0.00  0.00    +0.000 C 
BRANCH   6   7
ATOM      7  C   UNL     1      -5.860  -0.065  -0.553  0.00  0.00    +0.000 C 
BRANCH   7   8
ATOM      8  CA  UNL     1      -6.959   0.347   0.433  0.00  0.00    +0.000 C 
BRANCH   8   9
ATOM      9  N   UNL     1      -8.192   0.638  -0.303  0.00  0.00    +0.000 NA
ATOM     10  H1  UNL     1      -8.945   0.832   0.356  0.00  0.00    +0.000 HD
ATOM     11  H2  UNL     1      -8.480  -0.187  -0.826  0.00  0.00    +0.000 HD
ENDBRANCH   8   9
BRANCH   8  13
ATOM     12  OXT UNL     1      -6.791   2.755   0.773  0.00  0.00    +0.000 OA
ATOM     13  C   UNL     1      -6.586   1.617   1.176  0.00  0.00    +0.000 C 
BRANCH  13  14
ATOM     14  O   UNL     1      -5.960   1.358   2.354  0.00  0.00    +0.000 OA
ATOM     15  H   UNL     1      -5.709   2.182   2.824  0.00  0.00    +0.000 HD
ENDBRANCH  13  14
ENDBRANCH   8  13
ENDBRANCH   7   8
ENDBRANCH   6   7
ENDBRANCH   4   6
ENDBRANCH   1   3
BRANCH   1  18
ATOM     16  O   UNL     1      -0.673  -2.827   1.161  0.00  0.00    +0.000 OA
ATOM     17  N   UNL     1       0.735  -3.173  -0.650  0.00  0.00    +0.000 N 
ATOM     18  C   ACE A   1      -0.350  -2.599  -0.003  0.00  0.00    +0.000 C 
ATOM     19  H   UNL     1       0.921  -2.944  -1.621  0.00  0.00    +0.000 HD
BRANCH  17  20
ATOM     20  CA  UNL     1       1.616  -4.118  -0.005  0.00  0.00    +0.000 C 
BRANCH  20  22
ATOM     21  OXT UNL     1       3.649  -4.083   1.283  0.00  0.00    +0.000 OA
ATOM     22  C   UNL     1       2.781  -3.458   0.685  0.00  0.00    +0.000 C 
BRANCH  22  23
ATOM     23  O   UNL     1       2.777  -2.109   0.582  0.00  0.00    +0.000 OA
ATOM     24  H   UNL     1       3.544  -1.703   1.040  0.00  0.00    +0.000 HD
ENDBRANCH  22  23
ENDBRANCH  20  22
ENDBRANCH  17  20
ENDBRANCH   1  18
BRANCH   1  25
ATOM     25  CB  UNL     1      -0.229  -0.461  -1.397  0.00  0.00    +0.000 C 
BRANCH  25  26
ATOM     26  SG  UNL     1       0.459   0.572  -0.062  0.00  0.00    +0.000 S 
BRANCH  26  27
ATOM     27  C   UNL     1       1.390   1.766  -1.091  0.00  0.00    +0.000 C 
BRANCH  27  28
ATOM     28  O   UNL     1       0.506   2.704  -1.710  0.00  0.00    +0.000 OA
ATOM     29  H   UNL     1       1.067   3.401  -2.091  0.00  0.00    +0.000 HD
ENDBRANCH  27  28
BRANCH  27  30
ATOM     30  N   UNL     1       2.393   2.457  -0.282  0.00  0.00    +0.000 N 
BRANCH  30  32
ATOM     31  I   UNL     1       8.302   0.536   0.527  0.00  0.00    +0.000 I 
ATOM     32  C   UNL     1       3.712   2.029  -0.102  0.00  0.00    +0.000 A 
ATOM     33  C   UNL     1       4.155   0.858  -0.718  0.00  0.00    +0.000 A 
ATOM     34  C   UNL     1       4.584   2.772   0.694  0.00  0.00    +0.000 A 
ATOM     35  C   UNL     1       5.471   0.430  -0.538  0.00  0.00    +0.000 A 
ATOM     36  C   UNL     1       5.899   2.344   0.874  0.00  0.00    +0.000 A 
ATOM     37  C   UNL     1       6.343   1.173   0.258  0.00  0.00    +0.000 A 
ENDBRANCH  30  32
BRANCH  30  38
ATOM     38  O   UNL     1       1.878   3.519   0.457  0.00  0.00    +0.000 OA
ATOM     39  H   UNL     1       1.523   3.064   1.240  0.00  0.00    +0.000 HD
ENDBRANCH  30  38
ENDBRANCH  27  30
ENDBRANCH  26  27
ENDBRANCH  25  26
ENDBRANCH   1  25
TORSDOF 18
