REMARK  Name = 
REMARK  5 active torsions:
REMARK  status: ('A' for Active; 'I' for Inactive)
REMARK    1  A    between atoms: C_1  and  C_2
REMARK    2  A    between atoms: C_1  and  O_4
REMARK    3  A    between atoms: C_2  and  C_3
REMARK    4  A    between atoms: C_2  and  N_6
REMARK    5  A    between atoms: C_3  and  S_7
REMARK                            x       y       z     vdW  Elec       q    Type
REMARK                         _______ _______ _______ _____ _____    ______ ____
ROOT
ATOM      1  C   UNK     1      11.211  -6.041   0.000  0.00  0.00    +0.000 C 
ENDROOT
BRANCH   1   2
ATOM      2  N   UNK     1      11.211  -6.866   0.000  0.00  0.00    +0.000 NA
ATOM      3  H   UNK     1      10.328  -7.376   0.000  0.00  0.00    +0.000 HD
ATOM      4  H   UNK     1      12.094  -7.376   0.000  0.00  0.00    +0.000 HD
ENDBRANCH   1   2
BRANCH   1   5
ATOM      5  C   UNK     1      11.926  -5.628   0.000  0.00  0.00    +0.000 C 
ATOM      6  O   UNK     1      11.926  -4.803   0.000  0.00  0.00    +0.000 OA
BRANCH   5   7
ATOM      7  O   UNK     1      12.640  -6.041   0.000  0.00  0.00    +0.000 OA
ATOM      8  H   UNK     1      12.640  -6.978   0.000  0.00  0.00    +0.000 HD
ENDBRANCH   5   7
ENDBRANCH   1   5
BRANCH   1   9
ATOM      9  C   UNK     1      10.497  -5.628   0.000  0.00  0.00    +0.000 C 
BRANCH   9  10
ATOM     10  S   UNK     1       9.782  -6.041   0.000  0.00  0.00    +0.000 S 
ATOM     11  O   UNK     1       9.068  -5.628   0.000  0.00  0.00    +0.000 OA
ATOM     12  H   UNK     1       9.782  -6.866   0.000  0.00  0.00    +0.000 HD
ENDBRANCH   9  10
ENDBRANCH   1   9
TORSDOF 5
