REMARK  Name = 3082729
REMARK  8 active torsions:
REMARK  status: ('A' for Active; 'I' for Inactive)
REMARK    1  A    between atoms: S_1  and  P_2
REMARK    2  A    between atoms: S_1  and  C_10
REMARK    3  A    between atoms: P_2  and  O_3
REMARK    4  A    between atoms: P_2  and  O_4
REMARK    5  A    between atoms: O_5  and  C_11
REMARK    6  A    between atoms: N_8  and  C_9
REMARK    7  A    between atoms: C_9  and  C_10
REMARK    8  A    between atoms: C_9  and  C_11
REMARK                            x       y       z     vdW  Elec       q    Type
REMARK                         _______ _______ _______ _____ _____    ______ ____
ROOT
ATOM      1  C   UNK     1      -1.821  -0.713   0.445  0.00  0.00    +0.000 C 
ENDROOT
BRANCH   1   2
ATOM      2  N   UNK     1      -2.608  -1.836  -0.069  0.00  0.00    +0.000 NA
ATOM      3  H   UNK     1      -3.556  -1.786   0.303  0.00  0.00    +0.000 HD
ATOM      4  H   UNK     1      -2.216  -2.712   0.272  0.00  0.00    +0.000 HD
ENDBRANCH   1   2
BRANCH   1   6
ATOM      5  O   UNK     1      -2.493   0.846  -1.277  0.00  0.00    +0.000 OA
ATOM      6  C   UNK     1      -2.445   0.564  -0.085  0.00  0.00    +0.000 C 
BRANCH   6   7
ATOM      7  O   UNK     1      -2.918   1.387   0.885  0.00  0.00    +0.000 OA
ATOM      8  H   UNK     1      -3.300   2.209   0.513  0.00  0.00    +0.000 HD
ENDBRANCH   6   7
ENDBRANCH   1   6
BRANCH   1   9
ATOM      9  C   UNK     1      -0.358  -0.862   0.022  0.00  0.00    +0.000 C 
BRANCH   9  10
ATOM     10  S   UNK     1       0.665   0.526   0.609  0.00  0.00    +0.000 S 
BRANCH  10  11
ATOM     11  P   UNK     1       2.594   0.101  -0.084  0.00  0.00    +0.000 P 
ATOM     12  O   UNK     1       2.631   0.006  -1.586  0.00  0.00    +0.000 OA
BRANCH  11  13
ATOM     13  O   UNK     1       3.143  -1.241   0.643  0.00  0.00    +0.000 OA
ATOM     14  H   UNK     1       3.991  -1.629   0.339  0.00  0.00    +0.000 HD
ENDBRANCH  11  13
BRANCH  11  15
ATOM     15  O   UNK     1       3.611   1.223   0.497  0.00  0.00    +0.000 OA
ATOM     16  H   UNK     1       4.536   1.236   0.170  0.00  0.00    +0.000 HD
ENDBRANCH  11  15
ENDBRANCH  10  11
ENDBRANCH   9  10
ENDBRANCH   1   9
TORSDOF 8
