REMARK  Name = 1102
REMARK  9 active torsions:
REMARK  status: ('A' for Active; 'I' for Inactive)
REMARK    1  A    between atoms: N_1  and  C_5
REMARK    2  A    between atoms: N_1  and  C_7
REMARK    3  A    between atoms: N_2  and  C_9
REMARK    4  A    between atoms: N_3  and  C_10
REMARK    5  A    between atoms: C_4  and  C_5
REMARK    6  A    between atoms: C_4  and  C_6
REMARK    7  A    between atoms: C_6  and  C_9
REMARK    8  A    between atoms: C_7  and  C_8
REMARK    9  A    between atoms: C_8  and  C_10
REMARK                            x       y       z     vdW  Elec       q    Type
REMARK                         _______ _______ _______ _____ _____    ______ ____
ROOT
ATOM      1  N   UNL     1      -0.632  -0.384  -0.018  0.00  0.00    +0.000 NA
ATOM      2  H   UNL     1      -0.648  -0.984  -0.843  0.00  0.00    +0.000 HD
ENDROOT
BRANCH   1   3
ATOM      3  C   UNL     1       0.585   0.419  -0.015  0.00  0.00    +0.000 C 
BRANCH   3   4
ATOM      4  C   UNL     1       1.818  -0.484  -0.021  0.00  0.00    +0.000 C 
BRANCH   4   5
ATOM      5  C   UNL     1       3.107   0.344  -0.008  0.00  0.00    +0.000 C 
BRANCH   5   6
ATOM      6  C   UNL     1       4.379  -0.505   0.014  0.00  0.00    +0.000 C 
BRANCH   6   7
ATOM      7  N   UNL     1       5.589   0.309   0.024  0.00  0.00    +0.000 NA
ATOM      8  H   UNL     1       5.575   0.929   0.832  0.00  0.00    +0.000 HD
ATOM      9  H   UNL     1       5.596   0.918  -0.794  0.00  0.00    +0.000 HD
ENDBRANCH   6   7
ENDBRANCH   5   6
ENDBRANCH   4   5
ENDBRANCH   3   4
ENDBRANCH   1   3
BRANCH   1  10
ATOM     10  C   UNL     1      -1.815   0.464  -0.002  0.00  0.00    +0.000 C 
BRANCH  10  11
ATOM     11  C   UNL     1      -3.107  -0.355   0.003  0.00  0.00    +0.000 C 
BRANCH  11  12
ATOM     12  C   UNL     1      -4.366   0.516   0.001  0.00  0.00    +0.000 C 
BRANCH  12  13
ATOM     13  N   UNL     1      -5.558  -0.324   0.022  0.00  0.00    +0.000 NA
ATOM     14  H   UNL     1      -5.576  -0.916  -0.807  0.00  0.00    +0.000 HD
ATOM     15  H   UNL     1      -6.388   0.266  -0.030  0.00  0.00    +0.000 HD
ENDBRANCH  12  13
ENDBRANCH  11  12
ENDBRANCH  10  11
ENDBRANCH   1  10
TORSDOF 9
