REMARK  Name = 17754054
REMARK  9 active torsions:
REMARK  status: ('A' for Active; 'I' for Inactive)
REMARK    1  A    between atoms: O_1  and  C_12
REMARK    2  A    between atoms: O_3  and  C_13
REMARK    3  A    between atoms: N_5  and  C_10
REMARK    4  A    between atoms: N_6  and  C_11
REMARK    5  A    between atoms: C_7  and  C_8
REMARK    6  A    between atoms: C_7  and  C_9
REMARK    7  A    between atoms: C_8  and  C_10
REMARK    8  A    between atoms: C_9  and  C_11
REMARK    9  A    between atoms: C_10  and  C_12
REMARK                            x       y       z     vdW  Elec       q    Type
REMARK                         _______ _______ _______ _____ _____    ______ ____
ROOT
ATOM      1  C   UNK     1       0.338  -0.879  -0.403  0.00  0.00    +0.000 C 
ENDROOT
BRANCH   1   2
ATOM      2  C   UNK     1       1.627  -1.233   0.345  0.00  0.00    +0.000 C 
BRANCH   2   3
ATOM      3  C   UNK     1       2.855  -0.500  -0.211  0.00  0.00    +0.000 C 
BRANCH   3   4
ATOM      4  N   UNK     1       4.042  -0.897   0.550  0.00  0.00    +0.000 NA
ATOM      5  H   UNK     1       4.872  -0.478   0.132  0.00  0.00    +0.000 HD
ATOM      6  H   UNK     1       4.170  -1.906   0.481  0.00  0.00    +0.000 HD
ENDBRANCH   3   4
BRANCH   3   8
ATOM      7  O   UNK     1       3.021   1.652   0.921  0.00  0.00    +0.000 OA
ATOM      8  C   UNK     1       2.713   1.006  -0.072  0.00  0.00    +0.000 C 
BRANCH   8   9
ATOM      9  O   UNK     1       2.173   1.577  -1.180  0.00  0.00    +0.000 OA
ATOM     10  H   UNK     1       2.072   2.547  -1.079  0.00  0.00    +0.000 HD
ENDBRANCH   8   9
ENDBRANCH   3   8
ENDBRANCH   2   3
ENDBRANCH   1   2
BRANCH   1  11
ATOM     11  C   UNK     1      -0.905  -1.629   0.095  0.00  0.00    +0.000 C 
BRANCH  11  12
ATOM     12  C   UNK     1      -2.172  -1.384  -0.719  0.00  0.00    +0.000 C 
BRANCH  12  14
ATOM     13  O   UNK     1      -3.977  -0.069   1.164  0.00  0.00    +0.000 OA
ATOM     14  N   UNK     1      -2.591  -0.012  -0.708  0.00  0.00    +0.000 N 
ATOM     15  C   UNK     1      -3.454   0.524   0.229  0.00  0.00    +0.000 C 
ATOM     16  H   UNK     1      -2.229   0.606  -1.428  0.00  0.00    +0.000 HD
BRANCH  15  17
ATOM     17  O   UNK     1      -3.670   1.845  -0.010  0.00  0.00    +0.000 OA
ATOM     18  H   UNK     1      -4.281   2.239   0.648  0.00  0.00    +0.000 HD
ENDBRANCH  15  17
ENDBRANCH  12  14
ENDBRANCH  11  12
ENDBRANCH   1  11
TORSDOF 9
