REMARK  Name = 447827
REMARK  7 active torsions:
REMARK  status: ('A' for Active; 'I' for Inactive)
REMARK    1  A    between atoms: S_1  and  C_9
REMARK    2  A    between atoms: S_1  and  C_11
REMARK    3  A    between atoms: O_4  and  C_10
REMARK    4  A    between atoms: N_6  and  C_8
REMARK    5  A    between atoms: C_7  and  C_8
REMARK    6  A    between atoms: C_7  and  C_9
REMARK    7  A    between atoms: C_8  and  C_10
REMARK                            x       y       z     vdW  Elec       q    Type
REMARK                         _______ _______ _______ _____ _____    ______ ____
ROOT
ATOM      1  C   UNK     1      -1.747  -0.627   0.420  0.00  0.00    +0.000 C 
ENDROOT
BRANCH   1   2
ATOM      2  N   UNK     1      -3.050  -1.296   0.360  0.00  0.00    +0.000 NA
ATOM      3  H   UNK     1      -3.684  -0.870   1.035  0.00  0.00    +0.000 HD
ATOM      4  H   UNK     1      -2.946  -2.270   0.645  0.00  0.00    +0.000 HD
ENDBRANCH   1   2
BRANCH   1   6
ATOM      5  O   UNK     1      -2.791   1.157  -0.870  0.00  0.00    +0.000 OA
ATOM      6  C   UNK     1      -1.976   0.806  -0.026  0.00  0.00    +0.000 C 
BRANCH   6   7
ATOM      7  O   UNK     1      -1.187   1.687   0.641  0.00  0.00    +0.000 OA
ATOM      8  H   UNK     1      -1.348   2.612   0.355  0.00  0.00    +0.000 HD
ENDBRANCH   6   7
ENDBRANCH   1   6
BRANCH   1   9
ATOM      9  C   UNK     1      -0.765  -1.347  -0.515  0.00  0.00    +0.000 C 
BRANCH   9  10
ATOM     10  C   UNK     1       0.625  -0.714  -0.628  0.00  0.00    +0.000 C 
BRANCH  10  11
ATOM     11  S   UNK     1       1.490  -0.598   0.966  0.00  0.00    +0.000 S 
BRANCH  11  14
ATOM     12  F   UNK     1       3.629  -0.605  -0.535  0.00  0.00    +0.000 F 
ATOM     13  F   UNK     1       2.758   1.365  -0.204  0.00  0.00    +0.000 F 
ATOM     14  C   UNK     1       3.013   0.172   0.391  0.00  0.00    +0.000 C 
ENDBRANCH  11  14
ENDBRANCH  10  11
ENDBRANCH   9  10
ENDBRANCH   1   9
TORSDOF 7
