REMARK  Name = 134490
REMARK  6 active torsions:
REMARK  status: ('A' for Active; 'I' for Inactive)
REMARK    1  A    between atoms: O_1  and  C_8
REMARK    2  A    between atoms: N_3  and  CA_6
REMARK    3  A    between atoms: N_4  and  C_7
REMARK    4  A    between atoms: C_5  and  CA_6
REMARK    5  A    between atoms: C_5  and  C_7
REMARK    6  A    between atoms: CA_6  and  C_8
REMARK                            x       y       z     vdW  Elec       q    Type
REMARK                         _______ _______ _______ _____ _____    ______ ____
ROOT
ATOM      1  CA  UNL     1       0.486  -0.679  -0.516  0.00  0.00    +0.000 C 
ENDROOT
BRANCH   1   2
ATOM      2  N   UNL     1       1.289  -1.847  -0.146  0.00  0.00    +0.000 NA
ATOM      3  H1  UNL     1       2.198  -1.796  -0.606  0.00  0.00    +0.000 HD
ATOM      4  H2  UNL     1       0.842  -2.693  -0.498  0.00  0.00    +0.000 HD
ENDBRANCH   1   2
BRANCH   1   6
ATOM      5  OXT UNL     1       1.845   0.551   1.091  0.00  0.00    +0.000 OA
ATOM      6  C   UNL     1       1.202   0.536   0.049  0.00  0.00    +0.000 C 
BRANCH   6   7
ATOM      7  O   UNL     1       1.031   1.640  -0.724  0.00  0.00    +0.000 OA
ATOM      8  H   UNL     1       1.484   2.424  -0.347  0.00  0.00    +0.000 HD
ENDBRANCH   6   7
ENDBRANCH   1   6
BRANCH   1   9
ATOM      9  C   UNL     1      -0.923  -0.819   0.072  0.00  0.00    +0.000 C 
BRANCH   9  10
ATOM     10  C   UNL     1      -1.803   0.404  -0.204  0.00  0.00    +0.000 C 
BRANCH  10  11
ATOM     11  N   UNL     1      -3.127   0.214   0.379  0.00  0.00    +0.000 NA
ATOM     12  H   UNL     1      -3.571  -0.604  -0.037  0.00  0.00    +0.000 HD
ATOM     13  H   UNL     1      -3.717   1.010   0.142  0.00  0.00    +0.000 HD
ENDBRANCH  10  11
ENDBRANCH   9  10
ENDBRANCH   1   9
TORSDOF 6
