REMARK  Name = 104625
REMARK  9 active torsions:
REMARK  status: ('A' for Active; 'I' for Inactive)
REMARK    1  A    between atoms: O_1  and  C_11
REMARK    2  A    between atoms: O_2  and  C_12
REMARK    3  A    between atoms: O_3  and  C_13
REMARK    4  A    between atoms: N_7  and  CA_10
REMARK    5  A    between atoms: C_8  and  C_9
REMARK    6  A    between atoms: C_8  and  CA_10
REMARK    7  A    between atoms: C_9  and  C_11
REMARK    8  A    between atoms: C_9  and  C_12
REMARK    9  A    between atoms: CA_10  and  C_13
REMARK                            x       y       z     vdW  Elec       q    Type
REMARK                         _______ _______ _______ _____ _____    ______ ____
ROOT
ATOM      1  C   UNL     1       0.298  -0.505   0.199  0.00  0.00    +0.000 C 
ENDROOT
BRANCH   1   2
ATOM      2  C   UNL     1      -1.067  -0.101  -0.389  0.00  0.00    +0.000 C 
BRANCH   2   4
ATOM      3  O   UNL     1      -1.574   1.645   1.248  0.00  0.00    +0.000 OA
ATOM      4  C   UNL     1      -1.433   1.295   0.085  0.00  0.00    +0.000 C 
BRANCH   4   5
ATOM      5  O   UNL     1      -1.608   2.131  -0.972  0.00  0.00    +0.000 OA
ATOM      6  H   UNL     1      -1.852   3.037  -0.685  0.00  0.00    +0.000 HD
ENDBRANCH   4   5
ENDBRANCH   2   4
BRANCH   2   8
ATOM      7  O   UNL     1      -3.111  -0.922   0.661  0.00  0.00    +0.000 OA
ATOM      8  C   UNL     1      -2.112  -1.135  -0.011  0.00  0.00    +0.000 C 
BRANCH   8   9
ATOM      9  O   UNL     1      -1.782  -2.358  -0.497  0.00  0.00    +0.000 OA
ATOM     10  H   UNL     1      -2.442  -3.040  -0.250  0.00  0.00    +0.000 HD
ENDBRANCH   8   9
ENDBRANCH   2   8
ENDBRANCH   1   2
BRANCH   1  11
ATOM     11  CA  UNL     1       1.471   0.381  -0.249  0.00  0.00    +0.000 C 
BRANCH  11  12
ATOM     12  N   UNL     1       1.594   0.322  -1.709  0.00  0.00    +0.000 NA
ATOM     13  H1  UNL     1       1.759  -0.638  -2.009  0.00  0.00    +0.000 HD
ATOM     14  H2  UNL     1       2.401   0.867  -2.011  0.00  0.00    +0.000 HD
ENDBRANCH  11  12
BRANCH  11  16
ATOM     15  OXT UNL     1       3.716  -0.559  -0.353  0.00  0.00    +0.000 OA
ATOM     16  C   UNL     1       2.786  -0.125   0.316  0.00  0.00    +0.000 C 
BRANCH  16  17
ATOM     17  O   UNL     1       2.821  -0.071   1.672  0.00  0.00    +0.000 OA
ATOM     18  H   UNL     1       3.668  -0.410   2.030  0.00  0.00    +0.000 HD
ENDBRANCH  16  17
ENDBRANCH  11  16
ENDBRANCH   1  11
TORSDOF 9
