MODEL 1
REMARK VINA RESULT:   486.182      0.000      0.000
REMARK INTER + INTRA:         484.600
REMARK INTER:                 485.287
REMARK INTRA:                  -0.688
REMARK CONF_INDEPENDENT:        0.895
REMARK UNBOUND:                 0.688
REMARK  Name = 
REMARK  3 active torsions:
REMARK  status: ('A' for Active; 'I' for Inactive)
REMARK    1  A    between atoms: C_5  and  C_6
REMARK    2  A    between atoms: C_9  and  N_10
REMARK    3  A    between atoms: C_21  and  C_22
REMARK                            x       y       z     vdW  Elec       q    Type
REMARK                         _______ _______ _______ _____ _____    ______ ____
ROOT
ATOM      1  C   UNL     1       1.160  -5.041  -0.289  0.00  0.00    +0.000 A 
ATOM      2  N   UNL     1       2.063  -4.208  -0.856  0.00  0.00    +0.000 NA
ATOM      3  N   UNL     1       1.398  -3.282  -1.544  0.00  0.00    +0.000 N 
ATOM      4  C   UNL     1       1.802  -2.030  -1.847  0.00  0.00    +0.000 A 
ATOM      5  C   UNL     1       0.933  -0.949  -1.851  0.00  0.00    +0.000 A 
ATOM      6  C   UNL     1      -0.427  -1.224  -1.919  0.00  0.00    +0.000 A 
ATOM      7  N   UNL     1      -0.782  -2.529  -1.839  0.00  0.00    +0.000 NA
ATOM      8  C   UNL     1       0.074  -3.429  -1.299  0.00  0.00    +0.000 A 
ATOM      9  C   UNL     1      -0.123  -4.625  -0.622  0.00  0.00    +0.000 A 
ENDROOT
BRANCH   9  10
ATOM     10  C   UNL     1      -1.313  -5.465  -0.736  0.00  0.00    +0.000 A 
ATOM     11  C   UNL     1      -2.012  -5.843   0.402  0.00  0.00    +0.000 A 
ATOM     12  C   UNL     1      -3.365  -6.152   0.367  0.00  0.00    +0.000 A 
ATOM     13  N   UNL     1      -3.868  -6.531  -0.830  0.00  0.00    +0.000 NA
ATOM     14  C   UNL     1      -3.152  -6.281  -1.954  0.00  0.00    +0.000 A 
ATOM     15  C   UNL     1      -3.765  -6.497  -3.183  0.00  0.00    +0.000 A 
ATOM     16  C   UNL     1      -3.099  -6.100  -4.335  0.00  0.00    +0.000 A 
ATOM     17  C   UNL     1      -2.280  -4.984  -4.204  0.00  0.00    +0.000 A 
ATOM     18  C   UNL     1      -1.753  -4.621  -2.971  0.00  0.00    +0.000 A 
ATOM     19  C   UNL     1      -2.005  -5.502  -1.929  0.00  0.00    +0.000 A 
ENDBRANCH   9  10
BRANCH   5  20
ATOM     20  C   UNL     1       1.440   0.429  -1.899  0.00  0.00    +0.000 A 
ATOM     21  C   UNL     1       1.640   1.081  -3.104  0.00  0.00    +0.000 A 
ATOM     22  C   UNL     1       2.553   2.091  -3.244  0.00  0.00    +0.000 A 
ATOM     23  C   UNL     1       3.355   2.402  -2.155  0.00  0.00    +0.000 A 
ATOM     24  C   UNL     1       2.821   2.130  -0.901  0.00  0.00    +0.000 A 
ATOM     25  C   UNL     1       2.055   0.977  -0.785  0.00  0.00    +0.000 A 
BRANCH  23  26
ATOM     26  N   UNL     1       4.478   3.268  -2.329  0.00  0.00    +0.000 N 
ATOM     27  C   UNL     1       4.191   4.578  -2.907  0.00  0.00    +0.000 C 
ATOM     28  C   UNL     1       5.535   5.142  -3.350  0.00  0.00    +0.000 C 
ATOM     29  N   UNL     1       5.995   4.326  -4.471  0.00  0.00    +0.000 NA
ATOM     30  C   UNL     1       5.989   2.912  -4.134  0.00  0.00    +0.000 C 
ATOM     31  C   UNL     1       5.791   2.715  -2.647  0.00  0.00    +0.000 C 
ATOM     32  H   UNL     1       6.945   4.604  -4.717  0.00  0.00    +0.000 HD
ENDBRANCH  23  26
ENDBRANCH   5  20
TORSDOF 3
ENDMDL
