REMARK  Name = 4409
REMARK  6 active torsions:
REMARK  status: ('A' for Active; 'I' for Inactive)
REMARK    1  A    between atoms: O_1  and  C_13
REMARK    2  A    between atoms: O_1  and  C_17
REMARK    3  A    between atoms: C_3  and  C_4
REMARK    4  A    between atoms: C_4  and  C_8
REMARK    5  A    between atoms: C_8  and  C_15
REMARK    6  A    between atoms: C_15  and  C_16
REMARK                            x       y       z     vdW  Elec       q    Type
REMARK                         _______ _______ _______ _____ _____    ______ ____
ROOT
ATOM      1  C   UNL     1       1.317  -0.450  -0.467  0.00  0.00    +0.000 A 
ATOM      2  C   UNL     1      -0.950   0.421  -0.323  0.00  0.00    +0.000 A 
ATOM      3  C   UNL     1      -1.413  -0.865   0.044  0.00  0.00    +0.000 A 
ATOM      4  C   UNL     1       0.418   0.612  -0.576  0.00  0.00    +0.000 A 
ATOM      5  C   UNL     1       0.861  -1.714  -0.106  0.00  0.00    +0.000 A 
ATOM      6  C   UNL     1      -0.495  -1.922   0.148  0.00  0.00    +0.000 A 
ATOM      7  C   UNL     1      -1.869   1.478  -0.427  0.00  0.00    +0.000 A 
ATOM      8  C   UNL     1      -2.782  -1.055   0.297  0.00  0.00    +0.000 A 
ATOM      9  C   UNL     1      -3.680   0.007   0.189  0.00  0.00    +0.000 A 
ATOM     10  C   UNL     1      -3.225   1.271  -0.173  0.00  0.00    +0.000 A 
ENDROOT
BRANCH   9  11
ATOM     11  O   UNL     1      -5.004  -0.194   0.436  0.00  0.00    +0.000 OA
ATOM     12  C   UNL     1      -5.867   0.934   0.306  0.00  0.00    +0.000 C 
ENDBRANCH   9  11
BRANCH   1  13
ATOM     13  C   UNL     1       2.766  -0.229  -0.739  0.00  0.00    +0.000 C 
BRANCH  13  14
ATOM     14  C   UNL     1       3.539   0.173   0.522  0.00  0.00    +0.000 C 
BRANCH  14  16
ATOM     15  O   UNL     1       5.533   0.265  -0.843  0.00  0.00    +0.000 OA
ATOM     16  C   UNL     1       5.016   0.415   0.263  0.00  0.00    +0.000 C 
ATOM     17  C   UNL     1       5.835   0.853   1.450  0.00  0.00    +0.000 C 
ENDBRANCH  14  16
ENDBRANCH  13  14
ENDBRANCH   1  13
TORSDOF 4
