REMARK  Name = 439533
REMARK  6 active torsions:
REMARK  status: ('A' for Active; 'I' for Inactive)
REMARK    1  A    between atoms: O_2  and  C_9
REMARK    2  A    between atoms: O_4  and  C_14
REMARK    3  A    between atoms: O_5  and  C_19
REMARK    4  A    between atoms: O_6  and  C_20
REMARK    5  A    between atoms: O_7  and  C_22
REMARK    6  A    between atoms: C_8  and  C_10
REMARK                            x       y       z     vdW  Elec       q    Type
REMARK                         _______ _______ _______ _____ _____    ______ ____
ROOT
ATOM      1  O   UNL     1       0.279  -0.874   0.093  0.00  0.00    +0.000 OA
ATOM      2  O   UNL     1       2.040   2.823  -0.180  0.00  0.00    +0.000 OA
ATOM      3  C   UNL     1      -0.404   0.311   0.531  0.00  0.00    +0.000 C 
ATOM      4  C   UNL     1       0.007   1.527  -0.300  0.00  0.00    +0.000 C 
ATOM      5  C   UNL     1       1.502   1.722  -0.170  0.00  0.00    +0.000 C 
ATOM      6  C   UNL     1       2.300   0.484  -0.065  0.00  0.00    +0.000 A 
ATOM      7  C   UNL     1       1.641  -0.743   0.044  0.00  0.00    +0.000 A 
ATOM      8  C   UNL     1       3.696   0.536  -0.103  0.00  0.00    +0.000 A 
ATOM      9  C   UNL     1       2.383  -1.925   0.079  0.00  0.00    +0.000 A 
ATOM     10  C   UNL     1       4.431  -0.647  -0.049  0.00  0.00    +0.000 A 
ATOM     11  C   UNL     1       3.777  -1.876   0.037  0.00  0.00    +0.000 A 
ENDROOT
BRANCH   3  12
ATOM     12  C   UNL     1      -1.892   0.036   0.428  0.00  0.00    +0.000 A 
ATOM     13  C   UNL     1      -2.468  -0.207  -0.817  0.00  0.00    +0.000 A 
ATOM     14  C   UNL     1      -2.679   0.028   1.578  0.00  0.00    +0.000 A 
ATOM     15  C   UNL     1      -3.837  -0.460  -0.913  0.00  0.00    +0.000 A 
ATOM     16  C   UNL     1      -4.047  -0.225   1.483  0.00  0.00    +0.000 A 
ATOM     17  C   UNL     1      -4.626  -0.468   0.237  0.00  0.00    +0.000 A 
BRANCH  15  18
ATOM     18  O   UNL     1      -4.391  -0.697  -2.134  0.00  0.00    +0.000 OA
ATOM     19  H   UNL     1      -5.344  -0.851  -2.013  0.00  0.00    +0.000 HD
ENDBRANCH  15  18
BRANCH  17  20
ATOM     20  O   UNL     1      -5.963  -0.715   0.157  0.00  0.00    +0.000 OA
ATOM     21  H   UNL     1      -6.346  -0.681   1.051  0.00  0.00    +0.000 HD
ENDBRANCH  17  20
ENDBRANCH   3  12
BRANCH   4  22
ATOM     22  O   UNL     1      -0.634   2.692   0.189  0.00  0.00    +0.000 OA
ATOM     23  H   UNL     1      -0.407   3.425  -0.409  0.00  0.00    +0.000 HD
ENDBRANCH   4  22
BRANCH   8  24
ATOM     24  O   UNL     1       4.386   1.706  -0.206  0.00  0.00    +0.000 OA
ATOM     25  H   UNL     1       3.779   2.461  -0.232  0.00  0.00    +0.000 HD
ENDBRANCH   8  24
BRANCH  11  26
ATOM     26  O   UNL     1       4.499  -3.029   0.082  0.00  0.00    +0.000 OA
ATOM     27  H   UNL     1       3.887  -3.783   0.141  0.00  0.00    +0.000 HD
ENDBRANCH  11  26
TORSDOF 6
