REMARK  Name = 
REMARK  8 active torsions:
REMARK  status: ('A' for Active; 'I' for Inactive)
REMARK    1  A    between atoms: C_1  and  C_2
REMARK    2  A    between atoms: C_2  and  O_3
REMARK    3  A    between atoms: O_3  and  C_4
REMARK    4  A    between atoms: C_13  and  C_14
REMARK    5  A    between atoms: N_16  and  C_17
REMARK    6  A    between atoms: C_17  and  B_18
REMARK    7  A    between atoms: B_18  and  O_19
REMARK    8  A    between atoms: B_18  and  O_20
REMARK                            x       y       z     vdW  Elec       q    Type
REMARK                         _______ _______ _______ _____ _____    ______ ____
ROOT
ATOM      1  C   UNL     1      -1.416  -0.942  -0.733  0.00  0.00    +0.000 A 
ATOM      2  C   UNL     1      -2.244  -0.245  -1.603  0.00  0.00    +0.000 A 
ATOM      3  C   UNL     1      -2.178   1.142  -1.551  0.00  0.00    +0.000 A 
ATOM      4  C   UNL     1      -1.410   1.819  -0.632  0.00  0.00    +0.000 A 
ATOM      5  C   UNL     1      -1.786   3.061  -0.178  0.00  0.00    +0.000 A 
ATOM      6  C   UNL     1      -1.075   3.628   0.857  0.00  0.00    +0.000 A 
ATOM      7  C   UNL     1       0.158   3.092   1.175  0.00  0.00    +0.000 A 
ATOM      8  C   UNL     1       0.449   1.773   0.854  0.00  0.00    +0.000 A 
ATOM      9  C   UNL     1      -0.448   1.089   0.044  0.00  0.00    +0.000 A 
ATOM     10  C   UNL     1      -0.456  -0.299   0.040  0.00  0.00    +0.000 A 
ENDROOT
BRANCH  10  11
ATOM     11  C   UNL     1       0.786  -1.018   0.358  0.00  0.00    +0.000 C 
ATOM     12  O   UNL     1       1.532  -0.545   1.268  0.00  0.00    +0.000 OA
ATOM     13  N   UNL     1       1.442  -1.864  -0.577  0.00  0.00    +0.000 N 
ATOM     14  H   UNL     1       0.926  -2.589  -0.998  0.00  0.00    +0.000 HD
BRANCH  13  15
ATOM     15  C   UNL     1       2.847  -1.707  -0.941  0.00  0.00    +0.000 C 
BRANCH  15  16
ATOM     16  B   UNL     1       3.628  -0.835   0.142  0.00  0.00    +0.000 B 
BRANCH  16  17
ATOM     17  O   UNL     1       4.559  -1.575   1.007  0.00  0.00    +0.000 OA
ATOM     18  H   UNL     1       4.218  -2.471   1.156  0.00  0.00    +0.000 HD
ENDBRANCH  16  17
BRANCH  16  19
ATOM     19  O   UNL     1       4.039   0.546  -0.157  0.00  0.00    +0.000 OA
ATOM     20  H   UNL     1       3.376   0.963  -0.729  0.00  0.00    +0.000 HD
ENDBRANCH  16  19
ENDBRANCH  15  16
ENDBRANCH  13  15
ENDBRANCH  10  11
BRANCH   1  21
ATOM     21  O   UNL     1      -1.713  -2.245  -0.321  0.00  0.00    +0.000 OA
BRANCH  21  23
ATOM     22  C   UNL     1      -4.058  -2.490   0.210  0.00  0.00    +0.000 C 
ATOM     23  C   UNL     1      -2.656  -2.386   0.739  0.00  0.00    +0.000 C 
ENDBRANCH  21  23
ENDBRANCH   1  21
TORSDOF 7
