REMARK  Name = 98487
REMARK  3 active torsions:
REMARK  status: ('A' for Active; 'I' for Inactive)
REMARK    1  A    between atoms: O_1  and  C_5
REMARK    2  A    between atoms: O_1  and  C_11
REMARK    3  A    between atoms: C_4  and  C_10
REMARK                            x       y       z     vdW  Elec       q    Type
REMARK                         _______ _______ _______ _____ _____    ______ ____
ROOT
ATOM      1  C   UNL     1      -0.970   0.063  -0.002  0.00  0.00    +0.000 A 
ATOM      2  C   UNL     1       1.419  -0.301  -0.001  0.00  0.00    +0.000 A 
ATOM      3  C   UNL     1       0.119  -0.808  -0.003  0.00  0.00    +0.000 A 
ATOM      4  C   UNL     1      -0.759   1.442   0.001  0.00  0.00    +0.000 A 
ATOM      5  C   UNL     1       1.629   1.078   0.002  0.00  0.00    +0.000 A 
ATOM      6  C   UNL     1       0.540   1.950   0.003  0.00  0.00    +0.000 A 
ENDROOT
BRANCH   1   9
ATOM      7  O   UNL     1      -2.543  -1.689   0.009  0.00  0.00    +0.000 OA
ATOM      8  N   UNL     1      -3.375   0.448  -0.003  0.00  0.00    +0.000 N 
ATOM      9  C   UNL     1      -2.324  -0.465  -0.004  0.00  0.00    +0.000 C 
ATOM     10  H   UNL     1      -3.288   1.455  -0.009  0.00  0.00    +0.000 HD
ATOM     11  H   UNL     1      -4.331   0.104   0.003  0.00  0.00    +0.000 HD
ENDBRANCH   1   9
BRANCH   2  12
ATOM     12  O   UNL     1       2.481  -1.151  -0.002  0.00  0.00    +0.000 OA
ATOM     13  C   UNL     1       3.782  -0.565   0.000  0.00  0.00    +0.000 C 
ENDBRANCH   2  12
TORSDOF 2
