REMARK  Name = 8609
REMARK  5 active torsions:
REMARK  status: ('A' for Active; 'I' for Inactive)
REMARK    1  A    between atoms: O_1  and  C_11
REMARK    2  A    between atoms: O_1  and  C_12
REMARK    3  A    between atoms: O_2  and  C_6
REMARK    4  A    between atoms: N_4  and  C_8
REMARK    5  A    between atoms: C_5  and  C_11
REMARK                            x       y       z     vdW  Elec       q    Type
REMARK                         _______ _______ _______ _____ _____    ______ ____
ROOT
ATOM      1  C   UNL     1       1.307   0.067   0.137  0.00  0.00    +0.000 A 
ATOM      2  C   UNL     1       2.243   1.100   0.088  0.00  0.00    +0.000 A 
ATOM      3  C   UNL     1       1.726  -1.260   0.046  0.00  0.00    +0.000 A 
ATOM      4  C   UNL     1       4.019  -0.522  -0.144  0.00  0.00    +0.000 A 
ATOM      5  C   UNL     1       3.600   0.805  -0.053  0.00  0.00    +0.000 A 
ATOM      6  C   UNL     1       3.083  -1.554  -0.094  0.00  0.00    +0.000 A 
ENDROOT
BRANCH   4   7
ATOM      7  N   UNL     1       5.390  -0.820  -0.286  0.00  0.00    +0.000 N 
ATOM      8  H   UNL     1       5.695  -1.782  -0.353  0.00  0.00    +0.000 HD
ATOM      9  H   UNL     1       6.070  -0.072  -0.323  0.00  0.00    +0.000 HD
ENDBRANCH   4   7
BRANCH   2  10
ATOM     10  O   UNL     1       1.852   2.403   0.174  0.00  0.00    +0.000 OA
ATOM     11  H   UNL     1       0.885   2.469   0.208  0.00  0.00    +0.000 HD
ENDBRANCH   2  10
BRANCH   1  13
ATOM     12  O   UNL     1      -0.568   1.340   0.880  0.00  0.00    +0.000 OA
ATOM     13  C   UNL     1      -0.114   0.354   0.285  0.00  0.00    +0.000 C 
BRANCH  13  14
ATOM     14  O   UNL     1      -0.886  -0.632  -0.323  0.00  0.00    +0.000 OA
BRANCH  14  15
ATOM     15  C   UNL     1      -2.264  -0.420  -0.220  0.00  0.00    +0.000 A 
ATOM     16  C   UNL     1      -2.897   0.303  -1.205  0.00  0.00    +0.000 A 
ATOM     17  C   UNL     1      -2.933  -0.944   0.864  0.00  0.00    +0.000 A 
ATOM     18  C   UNL     1      -4.272   0.515  -1.101  0.00  0.00    +0.000 A 
ATOM     19  C   UNL     1      -4.308  -0.733   0.967  0.00  0.00    +0.000 A 
ATOM     20  C   UNL     1      -4.978  -0.003  -0.015  0.00  0.00    +0.000 A 
ENDBRANCH  14  15
ENDBRANCH  13  14
ENDBRANCH   1  13
TORSDOF 5
