REMARK  Name = 
REMARK  5 active torsions:
REMARK  status: ('A' for Active; 'I' for Inactive)
REMARK    1  A    between atoms: C_2  and  C_16
REMARK    2  A    between atoms: N_3  and  N_4
REMARK    3  A    between atoms: C_5  and  C_6
REMARK    4  A    between atoms: C_10  and  O_11
REMARK    5  A    between atoms: C_14  and  O_15
REMARK                            x       y       z     vdW  Elec       q    Type
REMARK                         _______ _______ _______ _____ _____    ______ ____
ROOT
ATOM      1  O   UNL     1      -0.359  -1.826   0.138  0.00  0.00    +0.000 OA
ATOM      2  C   UNL     1      -1.016  -0.930   0.749  0.00  0.00    +0.000 C 
ATOM      3  N   UNL     1      -0.414   0.371   0.733  0.00  0.00    +0.000 N 
ATOM      4  H   UNL     1      -0.705   1.047   1.387  0.00  0.00    +0.000 HD
ENDROOT
BRANCH   2   5
ATOM      5  C   UNL     1      -2.473  -1.070   0.870  0.00  0.00    +0.000 A 
ATOM      6  C   UNL     1      -3.104  -2.232   0.441  0.00  0.00    +0.000 A 
ATOM      7  C   UNL     1      -4.395  -2.187  -0.073  0.00  0.00    +0.000 A 
ATOM      8  C   UNL     1      -4.967  -0.966  -0.413  0.00  0.00    +0.000 A 
ATOM      9  C   UNL     1      -5.648  -0.784  -1.611  0.00  0.00    +0.000 A 
ATOM     10  C   UNL     1      -6.343   0.401  -1.741  0.00  0.00    +0.000 A 
ATOM     11  C   UNL     1      -6.224   1.412  -0.796  0.00  0.00    +0.000 A 
ATOM     12  C   UNL     1      -5.120   1.329   0.042  0.00  0.00    +0.000 A 
ATOM     13  C   UNL     1      -4.533   0.109   0.354  0.00  0.00    +0.000 A 
ATOM     14  C   UNL     1      -3.312   0.029   1.013  0.00  0.00    +0.000 A 
ENDBRANCH   2   5
BRANCH   3  15
ATOM     15  N   UNL     1       0.588   0.697  -0.202  0.00  0.00    +0.000 NA
ATOM     16  C   UNL     1       1.522   1.538   0.020  0.00  0.00    +0.000 C 
BRANCH  16  17
ATOM     17  C   UNL     1       2.940   1.276  -0.208  0.00  0.00    +0.000 A 
ATOM     18  C   UNL     1       3.821   1.930   0.645  0.00  0.00    +0.000 A 
ATOM     19  C   UNL     1       5.074   1.458   0.930  0.00  0.00    +0.000 A 
ATOM     20 BR   UNL     1       6.127   2.234   2.332  0.00  0.00    +0.000 Br
ATOM     21  C   UNL     1       5.415   0.218   0.435  0.00  0.00    +0.000 A 
ATOM     22  C   UNL     1       4.703  -0.280  -0.636  0.00  0.00    +0.000 A 
ATOM     23 BR   UNL     1       5.318  -1.858  -1.520  0.00  0.00    +0.000 Br
ATOM     24  C   UNL     1       3.410   0.166  -0.874  0.00  0.00    +0.000 A 
BRANCH  21  25
ATOM     25  O   UNL     1       6.479  -0.458   1.004  0.00  0.00    +0.000 OA
ATOM     26  H   UNL     1       6.937  -0.085   1.731  0.00  0.00    +0.000 HD
ENDBRANCH  21  25
BRANCH  24  27
ATOM     27  O   UNL     1       2.511  -0.578  -1.636  0.00  0.00    +0.000 OA
ATOM     28  H   UNL     1       2.805  -1.337  -2.098  0.00  0.00    +0.000 HD
ENDBRANCH  24  27
ENDBRANCH  16  17
ENDBRANCH   3  15
TORSDOF 5
