REMARK  Name = 68205
REMARK  5 active torsions:
REMARK  status: ('A' for Active; 'I' for Inactive)
REMARK    1  A    between atoms: O_2  and  C_20
REMARK    2  A    between atoms: O_3  and  C_21
REMARK    3  A    between atoms: O_4  and  C_25
REMARK    4  A    between atoms: C_6  and  C_9
REMARK    5  A    between atoms: C_14  and  C_25
REMARK                            x       y       z     vdW  Elec       q    Type
REMARK                         _______ _______ _______ _____ _____    ______ ____
ROOT
ATOM      1  O   UNL     1       2.146   1.609  -0.243  0.00  0.00    +0.000 OA
ATOM      2  C   UNL     1      -0.182  -0.147  -0.493  0.00  0.00    +0.000 C 
ATOM      3  C   UNL     1       1.228  -0.654  -0.271  0.00  0.00    +0.000 A 
ATOM      4  C   UNL     1      -0.282   1.347  -0.262  0.00  0.00    +0.000 A 
ATOM      5  C   UNL     1       2.297   0.244  -0.176  0.00  0.00    +0.000 A 
ATOM      6  C   UNL     1       0.875   2.128  -0.168  0.00  0.00    +0.000 A 
ATOM      7  C   UNL     1       1.486  -2.030  -0.170  0.00  0.00    +0.000 A 
ATOM      8  C   UNL     1      -1.534   1.972  -0.152  0.00  0.00    +0.000 A 
ATOM      9  C   UNL     1       3.603  -0.223  -0.008  0.00  0.00    +0.000 A 
ATOM     10  C   UNL     1       0.784   3.512   0.008  0.00  0.00    +0.000 A 
ATOM     11  C   UNL     1       2.790  -2.495   0.006  0.00  0.00    +0.000 A 
ATOM     12  C   UNL     1      -1.623   3.352   0.032  0.00  0.00    +0.000 A 
ATOM     13  C   UNL     1       3.848  -1.592   0.084  0.00  0.00    +0.000 A 
ATOM     14  C   UNL     1      -0.465   4.122   0.108  0.00  0.00    +0.000 A 
ENDROOT
BRANCH   2  15
ATOM     15  C   UNL     1      -1.154  -0.885   0.379  0.00  0.00    +0.000 A 
ATOM     16  C   UNL     1      -2.173  -1.653  -0.177  0.00  0.00    +0.000 A 
ATOM     17  C   UNL     1      -1.018  -0.789   1.761  0.00  0.00    +0.000 A 
ATOM     18  C   UNL     1      -3.063  -2.331   0.655  0.00  0.00    +0.000 A 
ATOM     19  C   UNL     1      -1.909  -1.466   2.594  0.00  0.00    +0.000 A 
ATOM     20  C   UNL     1      -2.931  -2.237   2.041  0.00  0.00    +0.000 A 
BRANCH  16  22
ATOM     21  O   UNL     1      -1.805  -2.628  -2.331  0.00  0.00    +0.000 OA
ATOM     22  C   UNL     1      -2.334  -1.769  -1.621  0.00  0.00    +0.000 C 
BRANCH  22  23
ATOM     23  O   UNL     1      -3.151  -0.808  -2.130  0.00  0.00    +0.000 OA
ATOM     24  H   UNL     1      -3.252  -0.892  -3.102  0.00  0.00    +0.000 HD
ENDBRANCH  22  23
ENDBRANCH  16  22
ENDBRANCH   2  15
BRANCH  13  25
ATOM     25  O   UNL     1       5.120  -2.047   0.251  0.00  0.00    +0.000 OA
ATOM     26  H   UNL     1       5.725  -1.286   0.284  0.00  0.00    +0.000 HD
ENDBRANCH  13  25
BRANCH  14  27
ATOM     27  O   UNL     1      -0.553   5.469   0.283  0.00  0.00    +0.000 OA
ATOM     28  H   UNL     1       0.345   5.842   0.314  0.00  0.00    +0.000 HD
ENDBRANCH  14  27
TORSDOF 5
