REMARK  Name = 9994897
REMARK  8 active torsions:
REMARK  status: ('A' for Active; 'I' for Inactive)
REMARK    1  A    between atoms: O_1  and  C_14
REMARK    2  A    between atoms: O_3  and  C_20
REMARK    3  A    between atoms: O_4  and  C_21
REMARK    4  A    between atoms: N_5  and  C_7
REMARK    5  A    between atoms: C_6  and  C_7
REMARK    6  A    between atoms: C_6  and  C_8
REMARK    7  A    between atoms: C_13  and  C_16
REMARK    8  A    between atoms: C_15  and  C_17
REMARK                            x       y       z     vdW  Elec       q    Type
REMARK                         _______ _______ _______ _____ _____    ______ ____
ROOT
ATOM      1  O   UNL     1      -0.211   1.315  -0.871  0.00  0.00    +0.000 OA
ATOM      2  N   UNL     1      -0.880  -0.882  -0.517  0.00  0.00    +0.000 N 
ATOM      3  C   UNL     1       0.045   0.142  -0.618  0.00  0.00    +0.000 C 
ATOM      4  H   UNL     1      -0.570  -1.824  -0.294  0.00  0.00    +0.000 HD
ENDROOT
BRANCH   3   5
ATOM      5  C   UNL     1       1.435  -0.341  -0.378  0.00  0.00    +0.000 C 
ATOM      6  C   UNL     1       2.461   0.522  -0.423  0.00  0.00    +0.000 C 
BRANCH   6   7
ATOM      7  C   UNL     1       3.870   0.158  -0.194  0.00  0.00    +0.000 A 
ATOM      8  C   UNL     1       4.779   1.147   0.145  0.00  0.00    +0.000 A 
ATOM      9  C   UNL     1       4.258  -1.166  -0.323  0.00  0.00    +0.000 A 
ATOM     10  C   UNL     1       6.114   0.802   0.361  0.00  0.00    +0.000 A 
ATOM     11  C   UNL     1       6.520  -0.527   0.235  0.00  0.00    +0.000 A 
ATOM     12  C   UNL     1       5.592  -1.510  -0.107  0.00  0.00    +0.000 A 
BRANCH  10  13
ATOM     13  O   UNL     1       7.011   1.771   0.696  0.00  0.00    +0.000 OA
ATOM     14  H   UNL     1       7.883   1.355   0.807  0.00  0.00    +0.000 HD
ENDBRANCH  10  13
BRANCH  11  15
ATOM     15  O   UNL     1       7.820  -0.876   0.446  0.00  0.00    +0.000 OA
ATOM     16  H   UNL     1       7.915  -1.835   0.315  0.00  0.00    +0.000 HD
ENDBRANCH  11  15
ENDBRANCH   6   7
ENDBRANCH   3   5
BRANCH   2  17
ATOM     17  C   UNL     1      -2.300  -0.684  -0.704  0.00  0.00    +0.000 C 
BRANCH  17  18
ATOM     18  C   UNL     1      -2.985  -0.340   0.619  0.00  0.00    +0.000 C 
BRANCH  18  19
ATOM     19  C   UNL     1      -4.470  -0.153   0.442  0.00  0.00    +0.000 A 
ATOM     20  C   UNL     1      -4.967   1.107   0.146  0.00  0.00    +0.000 A 
ATOM     21  C   UNL     1      -5.315  -1.244   0.578  0.00  0.00    +0.000 A 
ATOM     22  C   UNL     1      -6.341   1.280  -0.018  0.00  0.00    +0.000 A 
ATOM     23  C   UNL     1      -6.689  -1.071   0.413  0.00  0.00    +0.000 A 
ATOM     24  C   UNL     1      -7.202   0.191   0.116  0.00  0.00    +0.000 A 
BRANCH  24  25
ATOM     25  O   UNL     1      -8.543   0.361  -0.044  0.00  0.00    +0.000 OA
ATOM     26  H   UNL     1      -8.986  -0.496   0.083  0.00  0.00    +0.000 HD
ENDBRANCH  24  25
ENDBRANCH  18  19
ENDBRANCH  17  18
ENDBRANCH   2  17
TORSDOF 8
