REMARK  Name = 4814
REMARK  8 active torsions:
REMARK  status: ('A' for Active; 'I' for Inactive)
REMARK    1  A    between atoms: O_1  and  C_11
REMARK    2  A    between atoms: O_1  and  C_26
REMARK    3  A    between atoms: N_4  and  C_13
REMARK    4  A    between atoms: N_5  and  C_15
REMARK    5  A    between atoms: C_8  and  C_12
REMARK    6  A    between atoms: C_9  and  C_16
REMARK    7  A    between atoms: C_13  and  C_18
REMARK    8  A    between atoms: C_15  and  C_19
REMARK                            x       y       z     vdW  Elec       q    Type
REMARK                         _______ _______ _______ _____ _____    ______ ____
ROOT
ATOM      1  C   UNL     1       1.134  -1.684   0.365  0.00  0.00    +0.000 A 
ATOM      2  C   UNL     1      -1.281  -1.732   0.376  0.00  0.00    +0.000 A 
ATOM      3  C   UNL     1      -0.081  -1.205   0.854  0.00  0.00    +0.000 A 
ATOM      4  C   UNL     1       1.149  -2.690  -0.601  0.00  0.00    +0.000 A 
ATOM      5  C   UNL     1      -1.266  -2.737  -0.590  0.00  0.00    +0.000 A 
ATOM      6  C   UNL     1      -0.051  -3.217  -1.079  0.00  0.00    +0.000 A 
ENDROOT
BRANCH   1   9
ATOM      7  O   UNL     1       3.411  -1.807   0.911  0.00  0.00    +0.000 OA
ATOM      8  N   UNL     1       2.341   0.214   1.294  0.00  0.00    +0.000 N 
ATOM      9  C   UNL     1       2.376  -1.121   0.876  0.00  0.00    +0.000 C 
ATOM     10  H   UNL     1       1.495   0.761   1.175  0.00  0.00    +0.000 HD
BRANCH   8  11
ATOM     11  C   UNL     1       3.495   0.921   1.802  0.00  0.00    +0.000 C 
BRANCH  11  13
ATOM     12  N   UNL     1       4.603   3.576  -0.631  0.00  0.00    +0.000 NA
ATOM     13  C   UNL     1       4.260   1.607   0.708  0.00  0.00    +0.000 A 
ATOM     14  C   UNL     1       5.283   0.951   0.047  0.00  0.00    +0.000 A 
ATOM     15  C   UNL     1       3.955   2.901   0.344  0.00  0.00    +0.000 A 
ATOM     16  C   UNL     1       5.973   1.612  -0.963  0.00  0.00    +0.000 A 
ATOM     17  C   UNL     1       5.598   2.912  -1.261  0.00  0.00    +0.000 A 
ENDBRANCH  11  13
ENDBRANCH   8  11
ENDBRANCH   1   9
BRANCH   2  20
ATOM     18  O   UNL     1      -2.618  -0.725   2.019  0.00  0.00    +0.000 OA
ATOM     19  N   UNL     1      -3.656  -1.325   0.035  0.00  0.00    +0.000 N 
ATOM     20  C   UNL     1      -2.548  -1.230   0.885  0.00  0.00    +0.000 C 
ATOM     21  H   UNL     1      -3.543  -1.673  -0.911  0.00  0.00    +0.000 HD
BRANCH  19  22
ATOM     22  C   UNL     1      -4.976  -0.850   0.386  0.00  0.00    +0.000 C 
BRANCH  22  24
ATOM     23  N   UNL     1      -5.897   2.163  -1.681  0.00  0.00    +0.000 NA
ATOM     24  C   UNL     1      -5.183   0.582  -0.015  0.00  0.00    +0.000 A 
ATOM     25  C   UNL     1      -4.869   1.608   0.859  0.00  0.00    +0.000 A 
ATOM     26  C   UNL     1      -5.687   0.896  -1.258  0.00  0.00    +0.000 A 
ATOM     27  C   UNL     1      -5.071   2.925   0.460  0.00  0.00    +0.000 A 
ATOM     28  C   UNL     1      -5.582   3.147  -0.809  0.00  0.00    +0.000 A 
ENDBRANCH  22  24
ENDBRANCH  19  22
ENDBRANCH   2  20
BRANCH   4  29
ATOM     29  O   UNL     1       2.326  -3.171  -1.092  0.00  0.00    +0.000 OA
ATOM     30  C   UNL     1       2.863  -2.520  -2.241  0.00  0.00    +0.000 C 
ENDBRANCH   4  29
TORSDOF 7
