REMARK  Name = 68749
REMARK  8 active torsions:
REMARK  status: ('A' for Active; 'I' for Inactive)
REMARK    1  A    between atoms: O_1  and  C_8
REMARK    2  A    between atoms: O_1  and  C_11
REMARK    3  A    between atoms: O_2  and  C_7
REMARK    4  A    between atoms: O_2  and  C_19
REMARK    5  A    between atoms: O_3  and  C_9
REMARK    6  A    between atoms: O_3  and  C_20
REMARK    7  A    between atoms: C_6  and  C_11
REMARK    8  A    between atoms: C_19  and  C_21
REMARK                            x       y       z     vdW  Elec       q    Type
REMARK                         _______ _______ _______ _____ _____    ______ ____
ROOT
ATOM      1  O   UNL     1       0.134  -0.192  -1.563  0.00  0.00    +0.000 OA
ATOM      2  C   UNL     1      -0.129   0.509  -0.577  0.00  0.00    +0.000 C 
ENDROOT
BRANCH   2   3
ATOM      3  C   UNL     1      -1.475   0.906  -0.189  0.00  0.00    +0.000 A 
ATOM      4  C   UNL     1      -2.572   0.093  -0.472  0.00  0.00    +0.000 A 
ATOM      5  C   UNL     1      -1.659   2.119   0.475  0.00  0.00    +0.000 A 
ATOM      6  C   UNL     1      -3.853   0.492  -0.093  0.00  0.00    +0.000 A 
ATOM      7  C   UNL     1      -2.941   2.519   0.855  0.00  0.00    +0.000 A 
ATOM      8  C   UNL     1      -4.038   1.705   0.571  0.00  0.00    +0.000 A 
BRANCH   4   9
ATOM      9  O   UNL     1      -2.413  -1.095  -1.121  0.00  0.00    +0.000 OA
BRANCH   9  11
ATOM     10  O   UNL     1      -2.145  -2.144   0.954  0.00  0.00    +0.000 OA
ATOM     11  C   UNL     1      -2.197  -2.189  -0.268  0.00  0.00    +0.000 C 
ATOM     12  C   UNL     1      -2.035  -3.443  -1.074  0.00  0.00    +0.000 C 
ENDBRANCH   9  11
ENDBRANCH   4   9
ENDBRANCH   2   3
BRANCH   2  13
ATOM     13  O   UNL     1       0.816   1.014   0.312  0.00  0.00    +0.000 OA
BRANCH  13  14
ATOM     14  C   UNL     1       2.134   0.670  -0.000  0.00  0.00    +0.000 A 
ATOM     15  C   UNL     1       2.670  -0.487   0.519  0.00  0.00    +0.000 A 
ATOM     16  C   UNL     1       2.849   1.514  -0.823  0.00  0.00    +0.000 A 
ATOM     17  C   UNL     1       3.987  -0.819   0.201  0.00  0.00    +0.000 A 
ATOM     18  C   UNL     1       4.166   1.182  -1.141  0.00  0.00    +0.000 A 
ATOM     19  C   UNL     1       4.735   0.016  -0.629  0.00  0.00    +0.000 A 
BRANCH  15  20
ATOM     20  O   UNL     1       1.950  -1.311   1.331  0.00  0.00    +0.000 OA
ATOM     21  C   UNL     1       2.015  -1.058   2.733  0.00  0.00    +0.000 C 
ENDBRANCH  15  20
ENDBRANCH  13  14
ENDBRANCH   2  13
TORSDOF 6
