REMARK  Name = 77254
REMARK  3 active torsions:
REMARK  status: ('A' for Active; 'I' for Inactive)
REMARK    1  A    between atoms: O_3  and  C_9
REMARK    2  A    between atoms: N_5  and  C_7
REMARK    3  A    between atoms: C_6  and  C_8
REMARK                            x       y       z     vdW  Elec       q    Type
REMARK                         _______ _______ _______ _____ _____    ______ ____
ROOT
ATOM      1  O   UNL     1       0.136   1.817  -0.613  0.00  0.00    +0.000 OA
ATOM      2  N   UNL     1      -0.463  -0.319   0.149  0.00  0.00    +0.000 N 
ATOM      3  C   UNL     1       0.445   0.690  -0.197  0.00  0.00    +0.000 C 
ATOM      4  H   UNL     1      -0.091  -1.190   0.519  0.00  0.00    +0.000 HD
ENDROOT
BRANCH   3   6
ATOM      5 BR   UNL     1       4.130  -3.124  -0.379  0.00  0.00    +0.000 Br
ATOM      6  C   UNL     1       1.855   0.346  -0.071  0.00  0.00    +0.000 A 
ATOM      7  C   UNL     1       2.805   1.322   0.231  0.00  0.00    +0.000 A 
ATOM      8  C   UNL     1       2.249  -0.979  -0.253  0.00  0.00    +0.000 A 
ATOM      9  C   UNL     1       4.150   0.973   0.349  0.00  0.00    +0.000 A 
ATOM     10  C   UNL     1       3.594  -1.329  -0.134  0.00  0.00    +0.000 A 
ATOM     11  C   UNL     1       4.545  -0.353   0.167  0.00  0.00    +0.000 A 
BRANCH   7  12
ATOM     12  O   UNL     1       2.439   2.622   0.415  0.00  0.00    +0.000 OA
ATOM     13  H   UNL     1       1.473   2.712   0.405  0.00  0.00    +0.000 HD
ENDBRANCH   7  12
ENDBRANCH   3   6
BRANCH   2  15
ATOM     14 CL   UNL     1      -6.364  -0.171  -0.034  0.00  0.00    +0.000 Cl
ATOM     15  C   UNL     1      -1.878  -0.284   0.105  0.00  0.00    +0.000 A 
ATOM     16  C   UNL     1      -2.512   0.868  -0.328  0.00  0.00    +0.000 A 
ATOM     17  C   UNL     1      -2.595  -1.402   0.495  0.00  0.00    +0.000 A 
ATOM     18  C   UNL     1      -3.906   0.903  -0.371  0.00  0.00    +0.000 A 
ATOM     19  C   UNL     1      -3.988  -1.367   0.452  0.00  0.00    +0.000 A 
ATOM     20  C   UNL     1      -4.644  -0.214   0.019  0.00  0.00    +0.000 A 
ENDBRANCH   2  15
TORSDOF 3
