REMARK  Name = 4602
REMARK  4 active torsions:
REMARK  status: ('A' for Active; 'I' for Inactive)
REMARK    1  A    between atoms: O_1  and  C_8
REMARK    2  A    between atoms: O_3  and  C_16
REMARK    3  A    between atoms: N_4  and  C_6
REMARK    4  A    between atoms: C_5  and  C_7
REMARK                            x       y       z     vdW  Elec       q    Type
REMARK                         _______ _______ _______ _____ _____    ______ ____
ROOT
ATOM      1  O   UNL     1      -0.492   1.641   0.519  0.00  0.00    +0.000 OA
ATOM      2  N   UNL     1       0.282  -0.488  -0.093  0.00  0.00    +0.000 N 
ATOM      3  C   UNL     1      -0.706   0.464   0.191  0.00  0.00    +0.000 C 
ATOM      4  H   UNL     1      -0.016  -1.413  -0.392  0.00  0.00    +0.000 HD
ENDROOT
BRANCH   3   5
ATOM      5  C   UNL     1      -2.082  -0.007   0.109  0.00  0.00    +0.000 A 
ATOM      6  C   UNL     1      -3.115   0.859  -0.247  0.00  0.00    +0.000 A 
ATOM      7  C   UNL     1      -2.360  -1.344   0.394  0.00  0.00    +0.000 A 
ATOM      8  C   UNL     1      -4.427   0.389  -0.318  0.00  0.00    +0.000 A 
ATOM      9  C   UNL     1      -3.671  -1.815   0.322  0.00  0.00    +0.000 A 
ATOM     10  C   UNL     1      -4.704  -0.948  -0.033  0.00  0.00    +0.000 A 
BRANCH   6  11
ATOM     11  O   UNL     1      -2.865   2.169  -0.527  0.00  0.00    +0.000 OA
ATOM     12  H   UNL     1      -3.701   2.612  -0.752  0.00  0.00    +0.000 HD
ENDBRANCH   6  11
ENDBRANCH   3   5
BRANCH   2  13
ATOM     13  C   UNL     1       1.690  -0.329  -0.071  0.00  0.00    +0.000 A 
ATOM     14  C   UNL     1       2.226   0.901   0.267  0.00  0.00    +0.000 A 
ATOM     15  C   UNL     1       2.496  -1.408  -0.389  0.00  0.00    +0.000 A 
ATOM     16  C   UNL     1       3.612   1.057   0.287  0.00  0.00    +0.000 A 
ATOM     17  C   UNL     1       3.882  -1.252  -0.369  0.00  0.00    +0.000 A 
ATOM     18  C   UNL     1       4.440  -0.019  -0.031  0.00  0.00    +0.000 A 
BRANCH  18  19
ATOM     19  O   UNL     1       5.793   0.133  -0.009  0.00  0.00    +0.000 OA
ATOM     20  H   UNL     1       6.003   1.047   0.245  0.00  0.00    +0.000 HD
ENDBRANCH  18  19
ENDBRANCH   2  13
TORSDOF 4
