REMARK  Name = 11669698
REMARK  16 active torsions:
REMARK  status: ('A' for Active; 'I' for Inactive)
REMARK    1  A    between atoms: O_1  and  C_11
REMARK    2  A    between atoms: O_1  and  C_16
REMARK    3  A    between atoms: O_2  and  C_12
REMARK    4  A    between atoms: O_2  and  C_17
REMARK    5  A    between atoms: O_3  and  C_14
REMARK    6  A    between atoms: O_4  and  C_15
REMARK    7  A    between atoms: O_9  and  C_32
REMARK    8  A    between atoms: O_10  and  C_33
REMARK    9  A    between atoms: C_11  and  C_12
REMARK   10  A    between atoms: C_11  and  C_13
REMARK   11  A    between atoms: C_12  and  C_14
REMARK   12  A    between atoms: C_13  and  C_15
REMARK   13  A    between atoms: C_16  and  C_18
REMARK   14  A    between atoms: C_17  and  C_19
REMARK   15  A    between atoms: C_20  and  C_21
REMARK   16  A    between atoms: C_22  and  C_23
REMARK                            x       y       z     vdW  Elec       q    Type
REMARK                         _______ _______ _______ _____ _____    ______ ____
ROOT
ATOM      1  C   UNL     1       0.401  -1.352  -0.311  0.00  0.00    +0.000 C 
ENDROOT
BRANCH   1   2
ATOM      2  O   UNL     1       1.809  -1.206  -0.104  0.00  0.00    +0.000 OA
BRANCH   2   4
ATOM      3  O   UNL     1       1.802   0.766  -1.308  0.00  0.00    +0.000 OA
ATOM      4  C   UNL     1       2.371  -0.100  -0.661  0.00  0.00    +0.000 C 
BRANCH   4   5
ATOM      5  C   UNL     1       3.817  -0.124  -0.346  0.00  0.00    +0.000 C 
ATOM      6  C   UNL     1       4.604   0.873  -0.775  0.00  0.00    +0.000 C 
BRANCH   6   7
ATOM      7  C   UNL     1       6.052   0.967  -0.517  0.00  0.00    +0.000 A 
ATOM      8  C   UNL     1       6.754  -0.175  -0.167  0.00  0.00    +0.000 A 
ATOM      9  C   UNL     1       6.682   2.196  -0.628  0.00  0.00    +0.000 A 
ATOM     10  C   UNL     1       8.124  -0.085   0.077  0.00  0.00    +0.000 A 
ATOM     11  C   UNL     1       8.052   2.285  -0.384  0.00  0.00    +0.000 A 
ATOM     12  C   UNL     1       8.774   1.145  -0.031  0.00  0.00    +0.000 A 
BRANCH  12  13
ATOM     13  O   UNL     1      10.111   1.232   0.208  0.00  0.00    +0.000 OA
ATOM     14  H   UNL     1      10.447   0.349   0.440  0.00  0.00    +0.000 HD
ENDBRANCH  12  13
ENDBRANCH   6   7
ENDBRANCH   4   5
ENDBRANCH   2   4
ENDBRANCH   1   2
BRANCH   1  15
ATOM     15  C   UNL     1      -0.332  -0.116   0.230  0.00  0.00    +0.000 C 
BRANCH  15  17
ATOM     16  O   UNL     1      -0.910  -0.503   2.560  0.00  0.00    +0.000 OA
ATOM     17  C   UNL     1      -0.205   0.059   1.731  0.00  0.00    +0.000 C 
BRANCH  17  18
ATOM     18  O   UNL     1       0.799   0.906   2.071  0.00  0.00    +0.000 OA
ATOM     19  H   UNL     1       0.878   1.008   3.043  0.00  0.00    +0.000 HD
ENDBRANCH  17  18
ENDBRANCH  15  17
BRANCH  15  20
ATOM     20  O   UNL     1      -1.722  -0.289  -0.043  0.00  0.00    +0.000 OA
BRANCH  20  22
ATOM     21  O   UNL     1      -2.194   1.740   0.956  0.00  0.00    +0.000 OA
ATOM     22  C   UNL     1      -2.534   0.721   0.378  0.00  0.00    +0.000 C 
BRANCH  22  23
ATOM     23  C   UNL     1      -3.924   0.364   0.011  0.00  0.00    +0.000 C 
ATOM     24  C   UNL     1      -4.923   1.208   0.308  0.00  0.00    +0.000 C 
BRANCH  24  25
ATOM     25  C   UNL     1      -6.341   0.972  -0.013  0.00  0.00    +0.000 A 
ATOM     26  C   UNL     1      -6.772  -0.319  -0.273  0.00  0.00    +0.000 A 
ATOM     27  C   UNL     1      -7.216   2.045  -0.049  0.00  0.00    +0.000 A 
ATOM     28  C   UNL     1      -8.115  -0.542  -0.578  0.00  0.00    +0.000 A 
ATOM     29  C   UNL     1      -8.559   1.822  -0.354  0.00  0.00    +0.000 A 
ATOM     30  C   UNL     1      -9.008   0.528  -0.618  0.00  0.00    +0.000 A 
BRANCH  30  31
ATOM     31  O   UNL     1     -10.318   0.310  -0.916  0.00  0.00    +0.000 OA
ATOM     32  H   UNL     1     -10.452  -0.641  -1.070  0.00  0.00    +0.000 HD
ENDBRANCH  30  31
ENDBRANCH  24  25
ENDBRANCH  22  23
ENDBRANCH  20  22
ENDBRANCH  15  20
ENDBRANCH   1  15
BRANCH   1  33
ATOM     33  C   UNL     1      -0.020  -2.683   0.312  0.00  0.00    +0.000 C 
BRANCH  33  35
ATOM     34  O   UNL     1       1.275  -3.952  -1.312  0.00  0.00    +0.000 OA
ATOM     35  C   UNL     1       0.772  -3.864  -0.200  0.00  0.00    +0.000 C 
BRANCH  35  36
ATOM     36  O   UNL     1       0.894  -4.832   0.746  0.00  0.00    +0.000 OA
ATOM     37  H   UNL     1       1.419  -5.594   0.423  0.00  0.00    +0.000 HD
ENDBRANCH  35  36
ENDBRANCH  33  35
ENDBRANCH   1  33
TORSDOF 16
