REMARK  Name = 440005
REMARK  8 active torsions:
REMARK  status: ('A' for Active; 'I' for Inactive)
REMARK    1  A    between atoms: O_1  and  C_14
REMARK    2  A    between atoms: N_5  and  C_12
REMARK    3  A    between atoms: N_6  and  C_13
REMARK    4  A    between atoms: N_7  and  N_9
REMARK    5  A    between atoms: C_10  and  C_11
REMARK    6  A    between atoms: C_10  and  C_12
REMARK    7  A    between atoms: C_11  and  C_13
REMARK    8  A    between atoms: C_12  and  C_14
REMARK                            x       y       z     vdW  Elec       q    Type
REMARK                         _______ _______ _______ _____ _____    ______ ____
ROOT
ATOM      1  C   UNK     1       0.200  -1.566  -0.145  0.00  0.00    +0.000 C 
ENDROOT
BRANCH   1   2
ATOM      2  N   UNK     1       1.304  -0.605  -0.163  0.00  0.00    +0.000 NA
ATOM      3  N   UNK     1       3.643  -0.258   0.163  0.00  0.00    +0.000 N 
ATOM      4  N   UNK     1       2.804  -2.346   0.469  0.00  0.00    +0.000 N 
ATOM      5  C   UNK     1       2.487  -1.042   0.134  0.00  0.00    +0.000 C 
ATOM      6  H   UNK     1       4.504  -0.738   0.414  0.00  0.00    +0.000 HD
ATOM      7  H   UNK     1       2.106  -3.080   0.511  0.00  0.00    +0.000 HD
ATOM      8  H   UNK     1       3.757  -2.616   0.690  0.00  0.00    +0.000 HD
BRANCH   3  11
ATOM      9  O   UNK     1       4.764   1.613  -0.050  0.00  0.00    +0.000 OA
ATOM     10  O   UNK     1       2.596   1.651  -0.427  0.00  0.00    +0.000 OA
ATOM     11  N   UNK     1       3.650   1.083  -0.126  0.00  0.00    +0.000 N 
ENDBRANCH   3  11
ENDBRANCH   1   2
BRANCH   1  12
ATOM     12  C   UNK     1      -1.093  -0.879  -0.573  0.00  0.00    +0.000 C 
BRANCH  12  13
ATOM     13  C   UNK     1      -1.491   0.263   0.374  0.00  0.00    +0.000 C 
BRANCH  13  14
ATOM     14  C   UNK     1      -2.804   0.937  -0.050  0.00  0.00    +0.000 C 
BRANCH  14  15
ATOM     15  N   UNK     1      -3.170   1.966   0.920  0.00  0.00    +0.000 NA
ATOM     16  H   UNK     1      -3.985   2.480   0.585  0.00  0.00    +0.000 HD
ATOM     17  H   UNK     1      -2.417   2.649   0.996  0.00  0.00    +0.000 HD
ENDBRANCH  14  15
BRANCH  14  19
ATOM     18  O   UNK     1      -4.364  -0.694   0.869  0.00  0.00    +0.000 OA
ATOM     19  C   UNK     1      -3.968  -0.037  -0.085  0.00  0.00    +0.000 C 
BRANCH  19  20
ATOM     20  O   UNK     1      -4.556  -0.088  -1.309  0.00  0.00    +0.000 OA
ATOM     21  H   UNK     1      -5.314  -0.710  -1.325  0.00  0.00    +0.000 HD
ENDBRANCH  19  20
ENDBRANCH  14  19
ENDBRANCH  13  14
ENDBRANCH  12  13
ENDBRANCH   1  12
TORSDOF 8
