REMARK  Name = 5289553
REMARK  7 active torsions:
REMARK  status: ('A' for Active; 'I' for Inactive)
REMARK    1  A    between atoms: O_1  and  C_9
REMARK    2  A    between atoms: N_3  and  C_4
REMARK    3  A    between atoms: C_4  and  C_5
REMARK    4  A    between atoms: C_4  and  C_6
REMARK    5  A    between atoms: C_5  and  C_7
REMARK    6  A    between atoms: C_6  and  C_8
REMARK    7  A    between atoms: C_7  and  C_9
REMARK                            x       y       z     vdW  Elec       q    Type
REMARK                         _______ _______ _______ _____ _____    ______ ____
ROOT
ATOM      1  C   UNL     1       1.582  -0.473  -0.588  0.00  0.00    +0.000 C 
ENDROOT
BRANCH   1   2
ATOM      2  N   UNL     1       2.496  -1.462  -0.007  0.00  0.00    +0.000 NA
ATOM      3  H   UNL     1       3.407  -1.393  -0.458  0.00  0.00    +0.000 HD
ATOM      4  H   UNL     1       2.152  -2.402  -0.197  0.00  0.00    +0.000 HD
ENDBRANCH   1   2
BRANCH   1   5
ATOM      5  C   UNL     1       2.169   0.941  -0.428  0.00  0.00    +0.000 C 
ATOM      6  C   UNL     1       2.343   1.410   1.011  0.00  0.00    +0.000 C 
ENDBRANCH   1   5
BRANCH   1   7
ATOM      7  C   UNL     1       0.191  -0.674   0.039  0.00  0.00    +0.000 C 
BRANCH   7   8
ATOM      8  C   UNL     1      -0.879   0.245  -0.556  0.00  0.00    +0.000 C 
BRANCH   8  10
ATOM      9  O   UNL     1      -2.489  -0.832   0.920  0.00  0.00    +0.000 OA
ATOM     10  C   UNL     1      -2.237   0.005   0.064  0.00  0.00    +0.000 C 
BRANCH  10  11
ATOM     11  O   UNL     1      -3.175   0.840  -0.455  0.00  0.00    +0.000 OA
ATOM     12  H   UNL     1      -4.059   0.687  -0.060  0.00  0.00    +0.000 HD
ENDBRANCH  10  11
ENDBRANCH   8  10
ENDBRANCH   7   8
ENDBRANCH   1   7
TORSDOF 6
