REMARK  Name = 122335
REMARK  11 active torsions:
REMARK  status: ('A' for Active; 'I' for Inactive)
REMARK    1  A    between atoms: O_1  and  C_6
REMARK    2  A    between atoms: O_1  and  C_10
REMARK    3  A    between atoms: O_2  and  C_12
REMARK    4  A    between atoms: N_5  and  C_17
REMARK    5  A    between atoms: C_6  and  C_7
REMARK    6  A    between atoms: C_6  and  C_8
REMARK    7  A    between atoms: C_6  and  C_12
REMARK    8  A    between atoms: C_9  and  C_11
REMARK    9  A    between atoms: C_11  and  C_18
REMARK   10  A    between atoms: C_19  and  C_24
REMARK   11  A    between atoms: C_20  and  C_25
REMARK                            x       y       z     vdW  Elec       q    Type
REMARK                         _______ _______ _______ _____ _____    ______ ____
ROOT
ATOM      1  C   UNL     1      -0.643   1.856  -0.151  0.00  0.00    +0.000 A 
ATOM      2  C   UNL     1      -3.238   0.904   0.170  0.00  0.00    +0.000 A 
ATOM      3  C   UNL     1      -1.521   1.847  -1.234  0.00  0.00    +0.000 A 
ATOM      4  C   UNL     1      -1.065   1.388   1.093  0.00  0.00    +0.000 A 
ATOM      5  C   UNL     1      -2.822   1.370  -1.073  0.00  0.00    +0.000 A 
ATOM      6  C   UNL     1      -2.366   0.911   1.254  0.00  0.00    +0.000 A 
ENDROOT
BRANCH   2   7
ATOM      7  O   UNL     1      -4.513   0.436   0.327  0.00  0.00    +0.000 OA
BRANCH   7   8
ATOM      8  C   UNL     1      -4.715  -0.958   0.092  0.00  0.00    +0.000 C 
ATOM      9  C   UNL     1      -3.858  -1.734   1.087  0.00  0.00    +0.000 C 
ATOM     10  C   UNL     1      -4.334  -1.253  -1.356  0.00  0.00    +0.000 C 
BRANCH   8  12
ATOM     11  O   UNL     1      -7.010  -0.327   0.608  0.00  0.00    +0.000 OA
ATOM     12  C   UNL     1      -6.199  -1.203   0.333  0.00  0.00    +0.000 C 
BRANCH  12  13
ATOM     13  O   UNL     1      -6.555  -2.508   0.214  0.00  0.00    +0.000 OA
ATOM     14  H   UNL     1      -7.513  -2.642   0.374  0.00  0.00    +0.000 HD
ENDBRANCH  12  13
ENDBRANCH   8  12
ENDBRANCH   7   8
ENDBRANCH   2   7
BRANCH   1  15
ATOM     15  C   UNL     1       0.748   2.367  -0.323  0.00  0.00    +0.000 C 
BRANCH  15  18
ATOM     16  O   UNL     1       1.633   0.655  -1.770  0.00  0.00    +0.000 OA
ATOM     17  N   UNL     1       2.771   1.180   0.215  0.00  0.00    +0.000 N 
ATOM     18  C   UNL     1       1.756   1.295  -0.731  0.00  0.00    +0.000 C 
ATOM     19  H   UNL     1       2.731   1.787   1.031  0.00  0.00    +0.000 HD
BRANCH  17  20
ATOM     20  C   UNL     1       3.880   0.301   0.188  0.00  0.00    +0.000 A 
ATOM     21  C   UNL     1       5.120  -1.437  -0.904  0.00  0.00    +0.000 A 
ATOM     22  C   UNL     1       5.886  -0.535   1.202  0.00  0.00    +0.000 A 
ATOM     23  C   UNL     1       4.794   0.332   1.228  0.00  0.00    +0.000 A 
ATOM     24  C   UNL     1       4.027  -0.571  -0.877  0.00  0.00    +0.000 A 
ATOM     25  C   UNL     1       6.049  -1.420   0.136  0.00  0.00    +0.000 A 
ATOM     26  C   UNL     1       5.295  -2.383  -2.044  0.00  0.00    +0.000 C 
ATOM     27  C   UNL     1       6.880  -0.517   2.314  0.00  0.00    +0.000 C 
ENDBRANCH  17  20
ENDBRANCH  15  18
ENDBRANCH   1  15
TORSDOF 7
