REMARK  Name = 6971251
REMARK  4 active torsions:
REMARK  status: ('A' for Active; 'I' for Inactive)
REMARK    1  A    between atoms: N_3  and  CA_4
REMARK    2  A    between atoms: CA_4  and  C_5
REMARK    3  A    between atoms: CA_4  and  C_7
REMARK    4  A    between atoms: C_5  and  C_6
REMARK                            x       y       z     vdW  Elec       q    Type
REMARK                         _______ _______ _______ _____ _____    ______ ____
ROOT
ATOM      1  CA  UNL     1       0.217   0.600   0.383  0.00  0.00    +0.000 C 
ENDROOT
BRANCH   1   2
ATOM      2  N   UNL     1       0.018   2.053   0.082  0.00  0.00    +0.000 N 
ATOM      3  H1  UNL     1      -0.847   2.406   0.511  0.00  0.00    +0.000 HD
ATOM      4  H2  UNL     1      -0.049   2.220  -0.931  0.00  0.00    +0.000 HD
ATOM      5  H3  UNL     1       0.794   2.625   0.441  0.00  0.00    +0.000 HD
ENDBRANCH   1   2
BRANCH   1   8
ATOM      6  O   UNL     1      -1.180  -0.388  -1.269  0.00  0.00    +0.000 OA
ATOM      7  OXT UNL     1      -1.585  -0.840   0.930  0.00  0.00    +0.000 OA
ATOM      8  C   UNL     1      -0.971  -0.288  -0.027  0.00  0.00    +0.000 C 
ENDBRANCH   1   8
BRANCH   1   9
ATOM      9  C   UNL     1       1.581   0.166  -0.168  0.00  0.00    +0.000 C 
ATOM     10  C   UNL     1       1.920  -1.302   0.068  0.00  0.00    +0.000 C 
ENDBRANCH   1   9
TORSDOF 3
