REMARK  Name = 3080768
REMARK  10 active torsions:
REMARK  status: ('A' for Active; 'I' for Inactive)
REMARK    1  A    between atoms: O_3  and  C_20
REMARK    2  A    between atoms: OE1_5  and  CD_21
REMARK    3  A    between atoms: N_8  and  CA_16
REMARK    4  A    between atoms: N_9  and  CA_18
REMARK    5  A    between atoms: CA_10  and  C_14
REMARK    6  A    between atoms: C_15  and  CA_18
REMARK    7  A    between atoms: CA_16  and  CB_17
REMARK    8  A    between atoms: CA_16  and  C_20
REMARK    9  A    between atoms: CB_17  and  CG_19
REMARK   10  A    between atoms: CG_19  and  CD_21
REMARK                            x       y       z     vdW  Elec       q    Type
REMARK                         _______ _______ _______ _____ _____    ______ ____
ROOT
ATOM      1  O   PRO A   2       0.888   0.825  -1.549  0.00  0.00    +0.000 OA
ATOM      2  N   GLU A   3      -0.614   1.108   0.207  0.00  0.00    +0.000 N 
ATOM      3  C   PRO A   2       0.641   0.933  -0.351  0.00  0.00    +0.000 C 
ATOM      4  H   GLU A   3      -0.699   1.173   1.218  0.00  0.00    +0.000 HD
ENDROOT
BRANCH   3   7
ATOM      5  O   GLY A   1       1.764  -1.959   0.534  0.00  0.00    +0.000 OA
ATOM      6  N   PRO A   2       2.800   0.077   0.162  0.00  0.00    +0.000 N 
ATOM      7  CA  PRO A   2       1.724   0.909   0.685  0.00  0.00    +0.000 C 
ATOM      8  CB  PRO A   2       2.356   2.284   0.875  0.00  0.00    +0.000 C 
ATOM      9  CG  PRO A   2       3.449   2.323  -0.190  0.00  0.00    +0.000 C 
ATOM     10  CD  PRO A   2       3.951   0.887  -0.228  0.00  0.00    +0.000 C 
ATOM     11  C   GLY A   1       2.755  -1.308   0.198  0.00  0.00    +0.000 C 
BRANCH  11  12
ATOM     12  CA  GLY A   1       4.022  -2.010  -0.220  0.00  0.00    +0.000 C 
BRANCH  12  13
ATOM     13  N   GLY A   1       3.752  -3.428  -0.117  0.00  0.00    +0.000 NA
ATOM     14  H1  GLY A   1       4.577  -3.953  -0.405  0.00  0.00    +0.000 HD
ATOM     15  H2  GLY A   1       3.586  -3.680   0.857  0.00  0.00    +0.000 HD
ENDBRANCH  12  13
ENDBRANCH  11  12
ENDBRANCH   3   7
BRANCH   2  16
ATOM     16  CA  GLU A   3      -1.824   1.188  -0.579  0.00  0.00    +0.000 C 
BRANCH  16  18
ATOM     17  OXT GLU A   3      -2.554   2.679   1.203  0.00  0.00    +0.000 OA
ATOM     18  C   GLU A   3      -2.751   2.171   0.107  0.00  0.00    +0.000 C 
BRANCH  18  19
ATOM     19  O   GLU A   3      -3.834   2.465  -0.659  0.00  0.00    +0.000 OA
ATOM     20  H   GLU A   3      -4.426   3.114  -0.222  0.00  0.00    +0.000 HD
ENDBRANCH  18  19
ENDBRANCH  16  18
BRANCH  16  21
ATOM     21  CB  GLU A   3      -2.457  -0.185  -0.834  0.00  0.00    +0.000 C 
BRANCH  21  22
ATOM     22  CG  GLU A   3      -2.922  -0.949   0.413  0.00  0.00    +0.000 C 
BRANCH  22  24
ATOM     23  OE2 GLU A   3      -3.648  -2.792  -1.005  0.00  0.00    +0.000 OA
ATOM     24  CD  GLU A   3      -3.527  -2.302   0.109  0.00  0.00    +0.000 C 
BRANCH  24  25
ATOM     25  OE1 GLU A   3      -3.971  -2.916   1.238  0.00  0.00    +0.000 OA
ATOM     26  HE1 GLU A   3      -4.381  -3.786   1.043  0.00  0.00    +0.000 HD
ENDBRANCH  24  25
ENDBRANCH  22  24
ENDBRANCH  21  22
ENDBRANCH  16  21
ENDBRANCH   2  16
TORSDOF 10
