REMARK  Name = 9817372
REMARK  9 active torsions:
REMARK  status: ('A' for Active; 'I' for Inactive)
REMARK    1  A    between atoms: O_1  and  C_11
REMARK    2  A    between atoms: O_3  and  C_17
REMARK    3  A    between atoms: N_5  and  CA_9
REMARK    4  A    between atoms: C_6  and  C_7
REMARK    5  A    between atoms: C_6  and  C_8
REMARK    6  A    between atoms: C_6  and  C_11
REMARK    7  A    between atoms: C_7  and  CA_9
REMARK    8  A    between atoms: C_8  and  C_10
REMARK    9  A    between atoms: CA_9  and  C_17
REMARK                            x       y       z     vdW  Elec       q    Type
REMARK                         _______ _______ _______ _____ _____    ______ ____
ROOT
ATOM      1  C   UNL     1       1.485  -0.022   0.140  0.00  0.00    +0.000 C 
ENDROOT
BRANCH   1   3
ATOM      2  O   UNL     1       1.526  -2.449   0.405  0.00  0.00    +0.000 OA
ATOM      3  C   UNL     1       1.337  -1.470  -0.307  0.00  0.00    +0.000 C 
BRANCH   3   4
ATOM      4  O   UNL     1       0.980  -1.570  -1.614  0.00  0.00    +0.000 OA
ATOM      5  H   UNL     1       0.892  -2.504  -1.899  0.00  0.00    +0.000 HD
ENDBRANCH   3   4
ENDBRANCH   1   3
BRANCH   1   6
ATOM      6  C   UNL     1       2.934   0.295   0.570  0.00  0.00    +0.000 C 
BRANCH   6   7
ATOM      7  CA  UNL     1       3.997   0.038  -0.514  0.00  0.00    +0.000 C 
BRANCH   7   8
ATOM      8  N   UNL     1       3.812   0.910  -1.674  0.00  0.00    +0.000 NA
ATOM      9  H1  UNL     1       4.565   0.762  -2.345  0.00  0.00    +0.000 HD
ATOM     10  H2  UNL     1       3.861   1.887  -1.389  0.00  0.00    +0.000 HD
ENDBRANCH   7   8
BRANCH   7  12
ATOM     11  OXT UNL     1       6.163   1.166  -0.349  0.00  0.00    +0.000 OA
ATOM     12  C   UNL     1       5.376   0.319   0.050  0.00  0.00    +0.000 C 
BRANCH  12  13
ATOM     13  O   UNL     1       5.644  -0.521   1.084  0.00  0.00    +0.000 OA
ATOM     14  H   UNL     1       6.534  -0.360   1.464  0.00  0.00    +0.000 HD
ENDBRANCH  12  13
ENDBRANCH   7  12
ENDBRANCH   6   7
ENDBRANCH   1   6
BRANCH   1  15
ATOM     15  C   UNL     1       0.457   0.318   1.242  0.00  0.00    +0.000 C 
BRANCH  15  16
ATOM     16  C   UNL     1      -0.962   0.539   0.775  0.00  0.00    +0.000 A 
ATOM     17  C   UNL     1      -1.831  -0.539   0.713  0.00  0.00    +0.000 A 
ATOM     18  C   UNL     1      -1.367   1.812   0.419  0.00  0.00    +0.000 A 
ATOM     19  C   UNL     1      -3.155  -0.350   0.281  0.00  0.00    +0.000 A 
ATOM     20  C   UNL     1      -3.584   0.947  -0.086  0.00  0.00    +0.000 A 
ATOM     21  C   UNL     1      -2.678   2.017  -0.012  0.00  0.00    +0.000 A 
ATOM     22  C   UNL     1      -4.061  -1.421   0.207  0.00  0.00    +0.000 A 
ATOM     23  C   UNL     1      -4.907   1.135  -0.518  0.00  0.00    +0.000 A 
ATOM     24  C   UNL     1      -5.371  -1.215  -0.224  0.00  0.00    +0.000 A 
ATOM     25  C   UNL     1      -5.794   0.060  -0.586  0.00  0.00    +0.000 A 
ENDBRANCH  15  16
ENDBRANCH   1  15
TORSDOF 9
