REMARK  Name = 5462501
REMARK  11 active torsions:
REMARK  status: ('A' for Active; 'I' for Inactive)
REMARK    1  A    between atoms: O_2  and  C_14
REMARK    2  A    between atoms: O_4  and  C_19
REMARK    3  A    between atoms: N_7  and  CA_13
REMARK    4  A    between atoms: N_7  and  CA_15
REMARK    5  A    between atoms: CA_8  and  C_14
REMARK    6  A    between atoms: C_12  and  CA_13
REMARK    7  A    between atoms: CA_13  and  CB_17
REMARK    8  A    between atoms: CA_15  and  C_16
REMARK    9  A    between atoms: CA_15  and  C_19
REMARK   10  A    between atoms: C_16  and  C_18
REMARK   11  A    between atoms: C_18  and  C_20
REMARK                            x       y       z     vdW  Elec       q    Type
REMARK                         _______ _______ _______ _____ _____    ______ ____
ROOT
ATOM      1  N   UNL     1      -0.106   1.266  -1.310  0.00  0.00    +0.000 NA
ATOM      2  H   UNL     1       0.229   2.058  -1.857  0.00  0.00    +0.000 HD
ENDROOT
BRANCH   1   3
ATOM      3  CA  UNL     1      -1.518   1.402  -0.992  0.00  0.00    +0.000 C 
ATOM      4  CB  UNL     1      -2.278   2.026  -2.146  0.00  0.00    +0.000 C 
BRANCH   3  11
ATOM      5  O   UNL     1      -1.560  -0.958  -1.304  0.00  0.00    +0.000 OA
ATOM      6  N   UNL     1      -3.076  -0.063   0.199  0.00  0.00    +0.000 N 
ATOM      7  CA  UNL     1      -3.587  -1.334   0.696  0.00  0.00    +0.000 C 
ATOM      8  CB  UNL     1      -4.344  -0.975   1.970  0.00  0.00    +0.000 C 
ATOM      9  CG  UNL     1      -4.819   0.452   1.710  0.00  0.00    +0.000 C 
ATOM     10  CD  UNL     1      -3.676   1.061   0.912  0.00  0.00    +0.000 C 
ATOM     11  C   UNL     1      -2.041   0.015  -0.720  0.00  0.00    +0.000 C 
BRANCH   7  13
ATOM     12  OXT UNL     1      -5.158  -1.213  -1.138  0.00  0.00    +0.000 OA
ATOM     13  C   UNL     1      -4.501  -1.885  -0.357  0.00  0.00    +0.000 C 
BRANCH  13  14
ATOM     14  O   UNL     1      -4.503  -3.240  -0.327  0.00  0.00    +0.000 OA
ATOM     15  H   UNL     1      -5.097  -3.621  -1.009  0.00  0.00    +0.000 HD
ENDBRANCH  13  14
ENDBRANCH   7  13
ENDBRANCH   3  11
ENDBRANCH   1   3
BRANCH   1  16
ATOM     16  CA  UNL     1       0.691   1.111  -0.100  0.00  0.00    +0.000 C 
BRANCH  16  18
ATOM     17  OXT UNL     1       1.006   3.524  -0.186  0.00  0.00    +0.000 OA
ATOM     18  C   UNL     1       0.894   2.501   0.478  0.00  0.00    +0.000 C 
BRANCH  18  19
ATOM     19  O   UNL     1       0.912   2.502   1.835  0.00  0.00    +0.000 OA
ATOM     20  H   UNL     1       1.033   3.406   2.198  0.00  0.00    +0.000 HD
ENDBRANCH  18  19
ENDBRANCH  16  18
BRANCH  16  21
ATOM     21  C   UNL     1       2.034   0.460  -0.459  0.00  0.00    +0.000 C 
BRANCH  21  22
ATOM     22  C   UNL     1       2.966   0.220   0.740  0.00  0.00    +0.000 C 
BRANCH  22  23
ATOM     23  C   UNL     1       4.254  -0.489   0.399  0.00  0.00    +0.000 A 
ATOM     24  C   UNL     1       4.315  -1.882   0.442  0.00  0.00    +0.000 A 
ATOM     25  C   UNL     1       5.382   0.248   0.040  0.00  0.00    +0.000 A 
ATOM     26  C   UNL     1       5.505  -2.538   0.127  0.00  0.00    +0.000 A 
ATOM     27  C   UNL     1       6.572  -0.408  -0.276  0.00  0.00    +0.000 A 
ATOM     28  C   UNL     1       6.634  -1.801  -0.232  0.00  0.00    +0.000 A 
ENDBRANCH  22  23
ENDBRANCH  21  22
ENDBRANCH  16  21
ENDBRANCH   1  16
TORSDOF 10
