REMARK  Name = 39836
REMARK  9 active torsions:
REMARK  status: ('A' for Active; 'I' for Inactive)
REMARK    1  A    between atoms: O_1  and  C_14
REMARK    2  A    between atoms: O_1  and  C_16
REMARK    3  A    between atoms: N_5  and  C_12
REMARK    4  A    between atoms: N_6  and  C_13
REMARK    5  A    between atoms: N_7  and  N_9
REMARK    6  A    between atoms: C_10  and  C_11
REMARK    7  A    between atoms: C_10  and  C_12
REMARK    8  A    between atoms: C_11  and  C_13
REMARK    9  A    between atoms: C_12  and  C_14
REMARK                            x       y       z     vdW  Elec       q    Type
REMARK                         _______ _______ _______ _____ _____    ______ ____
ROOT
ATOM      1  C   UNL     1       0.536  -1.947  -0.497  0.00  0.00    +0.000 C 
ENDROOT
BRANCH   1   2
ATOM      2  N   UNL     1       1.393  -0.787  -0.247  0.00  0.00    +0.000 NA
ATOM      3  N   UNL     1       3.626   0.017   0.011  0.00  0.00    +0.000 N 
ATOM      4  N   UNL     1       3.311  -2.196  -0.399  0.00  0.00    +0.000 N 
ATOM      5  C   UNL     1       2.674  -0.980  -0.215  0.00  0.00    +0.000 C 
ATOM      6  H   UNL     1       4.598  -0.283   0.008  0.00  0.00    +0.000 HD
ATOM      7  H   UNL     1       4.321  -2.271  -0.360  0.00  0.00    +0.000 HD
ATOM      8  H   UNL     1       2.800  -3.053  -0.579  0.00  0.00    +0.000 HD
BRANCH   3  11
ATOM      9  O   UNL     1       4.274   2.072   0.407  0.00  0.00    +0.000 OA
ATOM     10  O   UNL     1       2.117   1.678   0.228  0.00  0.00    +0.000 OA
ATOM     11  N   UNL     1       3.302   1.332   0.227  0.00  0.00    +0.000 N 
ENDBRANCH   3  11
ENDBRANCH   1   2
BRANCH   1  12
ATOM     12  C   UNL     1      -0.931  -1.524  -0.490  0.00  0.00    +0.000 C 
BRANCH  12  13
ATOM     13  C   UNL     1      -1.355  -0.916   0.856  0.00  0.00    +0.000 C 
BRANCH  13  14
ATOM     14  C   UNL     1      -2.838  -0.524   0.938  0.00  0.00    +0.000 C 
BRANCH  14  15
ATOM     15  N   UNL     1      -3.710  -1.676   0.712  0.00  0.00    +0.000 NA
ATOM     16  H   UNL     1      -3.491  -2.408   1.386  0.00  0.00    +0.000 HD
ATOM     17  H   UNL     1      -4.679  -1.411   0.884  0.00  0.00    +0.000 HD
ENDBRANCH  14  15
BRANCH  14  19
ATOM     18  O   UNL     1      -4.030   0.437  -0.962  0.00  0.00    +0.000 OA
ATOM     19  C   UNL     1      -3.200   0.553  -0.070  0.00  0.00    +0.000 C 
BRANCH  19  20
ATOM     20  O   UNL     1      -2.462   1.676   0.185  0.00  0.00    +0.000 OA
ATOM     21  C   UNL     1      -2.707   2.786  -0.684  0.00  0.00    +0.000 C 
ENDBRANCH  19  20
ENDBRANCH  14  19
ENDBRANCH  13  14
ENDBRANCH  12  13
ENDBRANCH   1  12
TORSDOF 8
