REMARK  Name = 
REMARK  19 active torsions:
REMARK  status: ('A' for Active; 'I' for Inactive)
REMARK    1  A    between atoms: N_4  and  C_5
REMARK    2  A    between atoms: C_5  and  C_6
REMARK    3  A    between atoms: C_6  and  C_7
REMARK    4  A    between atoms: C_7  and  C_8
REMARK    5  A    between atoms: C_8  and  C_9
REMARK    6  A    between atoms: C_9  and  C_10
REMARK    7  A    between atoms: C_10  and  C_11
REMARK    8  A    between atoms: N_13  and  C_14
REMARK    9  A    between atoms: C_14  and  O_15
REMARK   10  A    between atoms: C_14  and  C_16
REMARK   11  A    between atoms: N_18  and  C_19
REMARK   12  A    between atoms: C_19  and  C_20
REMARK   13  A    between atoms: C_20  and  C_21
REMARK   14  A    between atoms: C_21  and  C_22
REMARK   15  A    between atoms: C_22  and  N_23
REMARK   16  A    between atoms: N_23  and  C_24
REMARK   17  A    between atoms: C_24  and  C_25
REMARK   18  A    between atoms: C_25  and  C_26
REMARK   19  A    between atoms: C_26  and  N_27
REMARK                            x       y       z     vdW  Elec       q    Type
REMARK                         _______ _______ _______ _____ _____    ______ ____
ROOT
ATOM      1  C   UNL     1       0.345   1.413  -0.908  0.00  0.00    +0.000 C 
ENDROOT
BRANCH   1   4
ATOM      2  C   UNL     1      -1.912   0.740  -0.044  0.00  0.00    +0.000 C 
ATOM      3  O   UNL     1      -2.015   0.035  -1.082  0.00  0.00    +0.000 OA
ATOM      4  N   UNL     1      -0.699   1.379   0.342  0.00  0.00    +0.000 N 
ATOM      5  H   UNL     1      -0.517   1.748   1.236  0.00  0.00    +0.000 HD
BRANCH   2   6
ATOM      6  C   UNL     1      -2.988   0.624   0.964  0.00  0.00    +0.000 C 
BRANCH   6   7
ATOM      7  C   UNL     1      -2.982  -0.709   1.676  0.00  0.00    +0.000 C 
BRANCH   7   8
ATOM      8  C   UNL     1      -3.207  -1.851   0.694  0.00  0.00    +0.000 C 
BRANCH   8   9
ATOM      9  C   UNL     1      -4.573  -1.694   0.040  0.00  0.00    +0.000 C 
BRANCH   9  10
ATOM     10  C   UNL     1      -5.463  -2.819   0.500  0.00  0.00    +0.000 C 
BRANCH  10  11
ATOM     11  C   UNL     1      -6.899  -2.378   0.449  0.00  0.00    +0.000 C 
BRANCH  11  15
ATOM     12  N   UNL     1      -7.224  -0.165  -1.123  0.00  0.00    +0.000 NA
ATOM     13  C   UNL     1      -7.130   0.051   0.142  0.00  0.00    +0.000 C 
ATOM     14  N   UNL     1      -7.294   1.335   0.716  0.00  0.00    +0.000 N 
ATOM     15  N   UNL     1      -7.032  -1.061   1.009  0.00  0.00    +0.000 N 
ATOM     16  H   UNL     1      -7.293   0.593  -1.748  0.00  0.00    +0.000 HD
ATOM     17  H   UNL     1      -7.364   2.128   0.137  0.00  0.00    +0.000 HD
ATOM     18  H   UNL     1      -7.337   1.435   1.695  0.00  0.00    +0.000 HD
ATOM     19  H   UNL     1      -7.056  -0.934   1.985  0.00  0.00    +0.000 HD
ENDBRANCH  11  15
ENDBRANCH  10  11
ENDBRANCH   9  10
ENDBRANCH   8   9
ENDBRANCH   7   8
ENDBRANCH   6   7
ENDBRANCH   2   6
ENDBRANCH   1   4
BRANCH   1  20
ATOM     20  C   UNL     1       1.599   1.842   0.107  0.00  0.00    +0.000 C 
ATOM     21  O   UNL     1       1.897   0.814   0.787  0.00  0.00    +0.000 OA
ATOM     22  N   UNL     1       2.648   2.413  -0.676  0.00  0.00    +0.000 N 
ATOM     23  H   UNL     1       2.420   2.848  -1.529  0.00  0.00    +0.000 HD
BRANCH  22  24
ATOM     24  C   UNL     1       4.025   2.376  -0.264  0.00  0.00    +0.000 C 
BRANCH  24  25
ATOM     25  C   UNL     1       4.234   1.825   1.115  0.00  0.00    +0.000 C 
BRANCH  25  26
ATOM     26  C   UNL     1       5.423   0.873   1.070  0.00  0.00    +0.000 C 
BRANCH  26  27
ATOM     27  C   UNL     1       5.445   0.102  -0.222  0.00  0.00    +0.000 C 
BRANCH  27  28
ATOM     28  N   UNL     1       6.715   0.183  -0.904  0.00  0.00    +0.000 NA
ATOM     29  H   UNL     1       7.016   1.157  -0.933  0.00  0.00    +0.000 HD
BRANCH  28  30
ATOM     30  C   UNL     1       7.726  -0.604  -0.222  0.00  0.00    +0.000 C 
BRANCH  30  31
ATOM     31  C   UNL     1       7.354  -2.057  -0.196  0.00  0.00    +0.000 C 
BRANCH  31  32
ATOM     32  C   UNL     1       6.580  -2.405   1.065  0.00  0.00    +0.000 C 
BRANCH  32  33
ATOM     33  N   UNL     1       5.412  -3.175   0.678  0.00  0.00    +0.000 NA
ATOM     34  H   UNL     1       4.836  -2.622   0.042  0.00  0.00    +0.000 HD
ATOM     35  H   UNL     1       4.870  -3.412   1.509  0.00  0.00    +0.000 HD
ENDBRANCH  32  33
ENDBRANCH  31  32
ENDBRANCH  30  31
ENDBRANCH  28  30
ENDBRANCH  27  28
ENDBRANCH  26  27
ENDBRANCH  25  26
ENDBRANCH  24  25
ENDBRANCH  22  24
ENDBRANCH   1  20
BRANCH   1  36
ATOM     36  O   UNL     1       0.012   2.917  -1.188  0.00  0.00    +0.000 OA
ATOM     37  H   UNL     1       0.009   3.409  -0.352  0.00  0.00    +0.000 HD
ENDBRANCH   1  36
TORSDOF 19
