REMARK  Name = 16564
REMARK  2 active torsions:
REMARK  status: ('A' for Active; 'I' for Inactive)
REMARK    1  A    between atoms: N_3  and  C_8
REMARK    2  A    between atoms: C_6  and  C_8
REMARK                            x       y       z     vdW  Elec       q    Type
REMARK                         _______ _______ _______ _____ _____    ______ ____
ROOT
ATOM      1  O   UNL     1      -0.106  -0.583  -0.658  0.00  0.00    +0.000 OA
ATOM      2  O   UNL     1      -1.245   1.881   0.309  0.00  0.00    +0.000 OA
ATOM      3  C   UNL     1       0.507   0.695  -0.874  0.00  0.00    +0.000 C 
ATOM      4  C   UNL     1       0.164   1.631   0.278  0.00  0.00    +0.000 C 
ATOM      5  C   UNL     1      -1.418  -0.470  -0.280  0.00  0.00    +0.000 A 
ATOM      6  C   UNL     1      -1.972   0.727   0.178  0.00  0.00    +0.000 A 
ATOM      7  C   UNL     1      -2.204  -1.620  -0.358  0.00  0.00    +0.000 A 
ATOM      8  C   UNL     1      -3.325   0.786   0.517  0.00  0.00    +0.000 A 
ATOM      9  C   UNL     1      -3.553  -1.563  -0.006  0.00  0.00    +0.000 A 
ATOM     10  C   UNL     1      -4.114  -0.361   0.425  0.00  0.00    +0.000 A 
ENDROOT
BRANCH   3  11
ATOM     11  C   UNL     1       2.009   0.477  -0.982  0.00  0.00    +0.000 C 
BRANCH  11  12
ATOM     12  N   UNL     1       2.489  -0.118   0.262  0.00  0.00    +0.000 NA
ATOM     13  N   UNL     1       4.289  -0.941   1.475  0.00  0.00    +0.000 N 
ATOM     14  N   UNL     1       4.721  -0.162  -0.624  0.00  0.00    +0.000 N 
ATOM     15  C   UNL     1       3.758  -0.380   0.337  0.00  0.00    +0.000 C 
ATOM     16  H   UNL     1       3.702  -1.159   2.273  0.00  0.00    +0.000 HD
ATOM     17  H   UNL     1       5.278  -1.151   1.551  0.00  0.00    +0.000 HD
ATOM     18  H   UNL     1       5.691  -0.406  -0.455  0.00  0.00    +0.000 HD
ATOM     19  H   UNL     1       4.503   0.246  -1.526  0.00  0.00    +0.000 HD
ENDBRANCH  11  12
ENDBRANCH   3  11
TORSDOF 2
