REMARK  Name = 5280793
REMARK  11 active torsions:
REMARK  status: ('A' for Active; 'I' for Inactive)
REMARK    1  A    between atoms: O_1  and  C_24
REMARK    2  A    between atoms: C_2  and  C_10
REMARK    3  A    between atoms: C_3  and  C_8
REMARK    4  A    between atoms: C_8  and  C_13
REMARK    5  A    between atoms: C_8  and  C_14
REMARK    6  A    between atoms: C_15  and  C_17
REMARK    7  A    between atoms: C_16  and  C_18
REMARK    8  A    between atoms: C_18  and  C_20
REMARK    9  A    between atoms: C_18  and  C_22
REMARK   10  A    between atoms: C_20  and  C_27
REMARK   11  A    between atoms: C_20  and  C_28
REMARK                            x       y       z     vdW  Elec       q    Type
REMARK                         _______ _______ _______ _____ _____    ______ ____
ROOT
ATOM      1  C   UNL     1       0.793   1.410   0.134  0.00  0.00    +0.000 C 
ATOM      2  C   UNL     1       2.063   0.728  -0.435  0.00  0.00    +0.000 C 
ATOM      3  C   UNL     1      -0.291   0.603  -0.623  0.00  0.00    +0.000 C 
ATOM      4  C   UNL     1       1.706  -0.773  -0.459  0.00  0.00    +0.000 C 
ATOM      5  C   UNL     1       0.170  -0.851  -0.477  0.00  0.00    +0.000 C 
ATOM      6  C   UNL     1       0.674   2.911  -0.221  0.00  0.00    +0.000 C 
ATOM      7  C   UNL     1      -1.683   1.017  -0.223  0.00  0.00    +0.000 C 
ATOM      8  C   UNL     1       0.707   1.246   1.674  0.00  0.00    +0.000 C 
ATOM      9  C   UNL     1      -0.737   3.327  -0.680  0.00  0.00    +0.000 C 
ATOM     10  C   UNL     1      -1.872   2.511  -0.048  0.00  0.00    +0.000 C 
ATOM     11  C   UNL     1      -2.702   0.165  -0.037  0.00  0.00    +0.000 C 
ENDROOT
BRANCH  11  12
ATOM     12  C   UNL     1      -4.029   0.589   0.335  0.00  0.00    +0.000 C 
ATOM     13  C   UNL     1      -5.049  -0.264   0.521  0.00  0.00    +0.000 C 
ATOM     14  C   UNL     1      -6.439   0.219   0.868  0.00  0.00    +0.000 C 
ATOM     15  C   UNL     1      -4.912  -1.709   0.363  0.00  0.00    +0.000 C 
ATOM     16  C   UNL     1      -7.522  -0.412  -0.015  0.00  0.00    +0.000 C 
ATOM     17  C   UNL     1      -5.972  -2.362  -0.489  0.00  0.00    +0.000 C 
ATOM     18  C   UNL     1      -7.383  -1.935  -0.073  0.00  0.00    +0.000 C 
ATOM     19  C   UNL     1      -3.939  -2.420   0.955  0.00  0.00    +0.000 C 
BRANCH  16  20
ATOM     20  O   UNL     1      -7.438   0.115  -1.337  0.00  0.00    +0.000 OA
ATOM     21  H   UNL     1      -6.532  -0.000  -1.666  0.00  0.00    +0.000 HD
ENDBRANCH  16  20
ENDBRANCH  11  12
BRANCH   2  22
ATOM     22  C   UNL     1       3.370   1.014   0.290  0.00  0.00    +0.000 C 
ATOM     23  C   UNL     1       3.680   2.513   0.283  0.00  0.00    +0.000 C 
BRANCH  22  24
ATOM     24  C   UNL     1       4.504   0.249  -0.350  0.00  0.00    +0.000 C 
ATOM     25  C   UNL     1       5.243  -0.667   0.294  0.00  0.00    +0.000 C 
BRANCH  25  26
ATOM     26  C   UNL     1       6.371  -1.443  -0.352  0.00  0.00    +0.000 C 
ATOM     27  C   UNL     1       5.988  -2.928  -0.350  0.00  0.00    +0.000 C 
BRANCH  26  28
ATOM     28  C   UNL     1       7.725  -1.177   0.366  0.00  0.00    +0.000 C 
ATOM     29  C   UNL     1       8.106   0.309   0.350  0.00  0.00    +0.000 C 
ATOM     30  C   UNL     1       8.869  -1.985  -0.264  0.00  0.00    +0.000 C 
ENDBRANCH  26  28
ENDBRANCH  25  26
ENDBRANCH  22  24
ENDBRANCH   2  22
TORSDOF 6
