REMARK  Name = 71415
REMARK  8 active torsions:
REMARK  status: ('A' for Active; 'I' for Inactive)
REMARK    1  A    between atoms: O_3  and  C_12
REMARK    2  A    between atoms: O_4  and  C_16
REMARK    3  A    between atoms: O_6  and  C_27
REMARK    4  A    between atoms: C_8  and  C_19
REMARK    5  A    between atoms: C_12  and  C_22
REMARK    6  A    between atoms: C_15  and  C_23
REMARK    7  A    between atoms: C_17  and  C_24
REMARK    8  A    between atoms: C_22  and  C_27
REMARK                            x       y       z     vdW  Elec       q    Type
REMARK                         _______ _______ _______ _____ _____    ______ ____
ROOT
ATOM      1  F   UNL     1       1.257  -0.458  -1.276  0.00  0.00    +0.000 F 
ATOM      2  F   UNL     1       3.438   3.038   0.086  0.00  0.00    +0.000 F 
ATOM      3  O   UNL     1       6.120  -0.743  -1.513  0.00  0.00    +0.000 OA
ATOM      4  C   UNL     1      -1.915  -0.136   0.201  0.00  0.00    +0.000 C 
ATOM      5  C   UNL     1      -0.945   0.985  -0.232  0.00  0.00    +0.000 C 
ATOM      6  C   UNL     1       0.426   0.905   0.457  0.00  0.00    +0.000 C 
ATOM      7  C   UNL     1       1.100  -0.465   0.101  0.00  0.00    +0.000 C 
ATOM      8  C   UNL     1      -3.186   0.278  -0.603  0.00  0.00    +0.000 C 
ATOM      9  C   UNL     1      -1.782   2.249  -0.060  0.00  0.00    +0.000 C 
ATOM     10  C   UNL     1      -1.269  -1.480  -0.198  0.00  0.00    +0.000 C 
ATOM     11  C   UNL     1      -3.172   1.840  -0.610  0.00  0.00    +0.000 C 
ATOM     12  C   UNL     1       0.153  -1.672   0.377  0.00  0.00    +0.000 C 
ATOM     13  C   UNL     1       2.560  -0.580   0.693  0.00  0.00    +0.000 C 
ATOM     14  C   UNL     1       1.312   2.085   0.025  0.00  0.00    +0.000 C 
ATOM     15  C   UNL     1      -2.229  -0.121   1.723  0.00  0.00    +0.000 C 
ATOM     16  C   UNL     1       2.723   1.988   0.588  0.00  0.00    +0.000 C 
ATOM     17  C   UNL     1       3.343   0.659   0.234  0.00  0.00    +0.000 C 
ATOM     18  C   UNL     1      -4.286   2.540   0.163  0.00  0.00    +0.000 C 
ATOM     19  C   UNL     1       2.617  -0.622   2.238  0.00  0.00    +0.000 C 
ATOM     20  C   UNL     1       3.223  -1.861   0.208  0.00  0.00    +0.000 C 
ATOM     21  C   UNL     1       4.482   0.597  -0.474  0.00  0.00    +0.000 C 
ATOM     22  C   UNL     1       4.356  -1.927  -0.499  0.00  0.00    +0.000 C 
ATOM     23  C   UNL     1       5.072  -0.696  -0.878  0.00  0.00    +0.000 C 
ENDROOT
BRANCH   8  24
ATOM     24  O   UNL     1      -3.073  -0.172  -1.959  0.00  0.00    +0.000 OA
ATOM     25  H   UNL     1      -2.454   0.401  -2.441  0.00  0.00    +0.000 HD
ENDBRANCH   8  24
BRANCH  12  26
ATOM     26  O   UNL     1       0.049  -1.978   1.758  0.00  0.00    +0.000 OA
ATOM     27  H   UNL     1      -0.495  -2.779   1.847  0.00  0.00    +0.000 HD
ENDBRANCH  12  26
BRANCH   8  29
ATOM     28  O   UNL     1      -5.203   0.139   0.661  0.00  0.00    +0.000 OA
ATOM     29  C   UNL     1      -4.453  -0.391  -0.158  0.00  0.00    +0.000 C 
BRANCH  29  30
ATOM     30  C   UNL     1      -4.748  -1.743  -0.772  0.00  0.00    +0.000 C 
BRANCH  30  31
ATOM     31  O   UNL     1      -5.969  -2.257  -0.282  0.00  0.00    +0.000 OA
ATOM     32  H   UNL     1      -6.679  -1.668  -0.588  0.00  0.00    +0.000 HD
ENDBRANCH  30  31
ENDBRANCH  29  30
ENDBRANCH   8  29
TORSDOF 5
