REMARK  Name = 13109
REMARK  4 active torsions:
REMARK  status: ('A' for Active; 'I' for Inactive)
REMARK    1  A    between atoms: O_1  and  C_7
REMARK    2  A    between atoms: C_3  and  C_14
REMARK    3  A    between atoms: C_7  and  C_19
REMARK    4  A    between atoms: C_14  and  C_18
REMARK                            x       y       z     vdW  Elec       q    Type
REMARK                         _______ _______ _______ _____ _____    ______ ____
ROOT
ATOM      1  O   UNL     1      -6.175  -0.124   0.920  0.00  0.00    +0.000 OA
ATOM      2  C   UNL     1       2.190  -0.357  -0.274  0.00  0.00    +0.000 C 
ATOM      3  C   UNL     1       1.371   0.919   0.025  0.00  0.00    +0.000 C 
ATOM      4  C   UNL     1      -0.056   0.852  -0.526  0.00  0.00    +0.000 C 
ATOM      5  C   UNL     1      -0.792  -0.360   0.117  0.00  0.00    +0.000 C 
ATOM      6  C   UNL     1       3.582   0.062   0.289  0.00  0.00    +0.000 C 
ATOM      7  C   UNL     1       1.487  -1.545   0.407  0.00  0.00    +0.000 C 
ATOM      8  C   UNL     1       2.285   2.048  -0.446  0.00  0.00    +0.000 C 
ATOM      9  C   UNL     1       0.017  -1.674  -0.033  0.00  0.00    +0.000 C 
ATOM     10  C   UNL     1      -2.246  -0.490  -0.433  0.00  0.00    +0.000 C 
ATOM     11  C   UNL     1       3.715   1.536  -0.174  0.00  0.00    +0.000 C 
ATOM     12  C   UNL     1      -0.838   2.142  -0.247  0.00  0.00    +0.000 C 
ATOM     13  C   UNL     1      -2.247   2.055  -0.823  0.00  0.00    +0.000 C 
ATOM     14  C   UNL     1      -2.990   0.835  -0.337  0.00  0.00    +0.000 C 
ATOM     15  C   UNL     1      -2.998  -1.623   0.295  0.00  0.00    +0.000 C 
ATOM     16  C   UNL     1      -4.495  -1.589   0.040  0.00  0.00    +0.000 C 
ATOM     17  C   UNL     1      -4.251   0.955   0.107  0.00  0.00    +0.000 C 
ATOM     18  C   UNL     1      -5.056  -0.246   0.429  0.00  0.00    +0.000 C 
ENDROOT
BRANCH   6  19
ATOM     19  O   UNL     1       4.643  -0.705  -0.262  0.00  0.00    +0.000 OA
ATOM     20  H   UNL     1       4.641  -1.580   0.164  0.00  0.00    +0.000 HD
ENDBRANCH   6  19
BRANCH   2  21
ATOM     21  C   UNL     1       2.322  -0.672  -1.794  0.00  0.00    +0.000 C 
ATOM     22  C   UNL     1       3.103  -1.942  -1.999  0.00  0.00    +0.000 C 
ENDBRANCH   2  21
BRANCH   6  23
ATOM     23  C   UNL     1       3.675  -0.009   1.761  0.00  0.00    +0.000 C 
ATOM     24  C   UNL     1       3.751  -0.068   2.958  0.00  0.00    +0.000 C 
ENDBRANCH   6  23
TORSDOF 3
