REMARK  Name = 5754
REMARK  7 active torsions:
REMARK  status: ('A' for Active; 'I' for Inactive)
REMARK    1  A    between atoms: O_1  and  C_10
REMARK    2  A    between atoms: O_2  and  C_13
REMARK    3  A    between atoms: O_4  and  C_26
REMARK    4  A    between atoms: C_6  and  C_17
REMARK    5  A    between atoms: C_10  and  C_22
REMARK    6  A    between atoms: C_12  and  C_21
REMARK    7  A    between atoms: C_22  and  C_26
REMARK                            x       y       z     vdW  Elec       q    Type
REMARK                         _______ _______ _______ _____ _____    ______ ____
ROOT
ATOM      1  O   UNL     1      -6.423  -0.034  -1.344  0.00  0.00    +0.000 OA
ATOM      2  C   UNL     1       1.892   0.163   0.144  0.00  0.00    +0.000 C 
ATOM      3  C   UNL     1       0.998  -1.077  -0.074  0.00  0.00    +0.000 C 
ATOM      4  C   UNL     1      -0.405  -0.939   0.538  0.00  0.00    +0.000 C 
ATOM      5  C   UNL     1      -1.120   0.289  -0.114  0.00  0.00    +0.000 C 
ATOM      6  C   UNL     1       3.201  -0.346  -0.521  0.00  0.00    +0.000 C 
ATOM      7  C   UNL     1       1.202   1.357  -0.547  0.00  0.00    +0.000 C 
ATOM      8  C   UNL     1      -2.619   0.457   0.369  0.00  0.00    +0.000 C 
ATOM      9  C   UNL     1      -0.248   1.582  -0.065  0.00  0.00    +0.000 C 
ATOM     10  C   UNL     1       1.885  -2.236   0.371  0.00  0.00    +0.000 C 
ATOM     11  C   UNL     1       3.303  -1.823  -0.078  0.00  0.00    +0.000 C 
ATOM     12  C   UNL     1      -1.220  -2.220   0.300  0.00  0.00    +0.000 C 
ATOM     13  C   UNL     1       2.157   0.472   1.643  0.00  0.00    +0.000 C 
ATOM     14  C   UNL     1      -3.346  -0.888   0.234  0.00  0.00    +0.000 C 
ATOM     15  C   UNL     1      -2.644  -2.089   0.818  0.00  0.00    +0.000 C 
ATOM     16  C   UNL     1      -3.300   1.523  -0.537  0.00  0.00    +0.000 C 
ATOM     17  C   UNL     1      -2.747   0.898   1.845  0.00  0.00    +0.000 C 
ATOM     18  C   UNL     1      -4.819   1.508  -0.459  0.00  0.00    +0.000 C 
ATOM     19  C   UNL     1      -4.557  -1.037  -0.328  0.00  0.00    +0.000 C 
ATOM     20  C   UNL     1      -5.342   0.133  -0.784  0.00  0.00    +0.000 C 
ENDROOT
BRANCH   6  21
ATOM     21  O   UNL     1       3.114  -0.286  -1.942  0.00  0.00    +0.000 OA
ATOM     22  H   UNL     1       3.873  -0.765  -2.317  0.00  0.00    +0.000 HD
ENDBRANCH   6  21
BRANCH   9  23
ATOM     23  O   UNL     1      -0.229   2.144   1.240  0.00  0.00    +0.000 OA
ATOM     24  H   UNL     1       0.282   2.970   1.200  0.00  0.00    +0.000 HD
ENDBRANCH   9  23
BRANCH   6  26
ATOM     25  O   UNL     1       4.327   1.673   0.060  0.00  0.00    +0.000 OA
ATOM     26  C   UNL     1       4.412   0.468  -0.174  0.00  0.00    +0.000 C 
BRANCH  26  27
ATOM     27  C   UNL     1       5.730  -0.276  -0.131  0.00  0.00    +0.000 C 
BRANCH  27  28
ATOM     28  O   UNL     1       6.799   0.584  -0.465  0.00  0.00    +0.000 OA
ATOM     29  H   UNL     1       6.862   1.258   0.234  0.00  0.00    +0.000 HD
ENDBRANCH  27  28
ENDBRANCH  26  27
ENDBRANCH   6  26
TORSDOF 5
