REMARK  Name = 6011
REMARK  4 active torsions:
REMARK  status: ('A' for Active; 'I' for Inactive)
REMARK    1  A    between atoms: O_1  and  C_13
REMARK    2  A    between atoms: C_6  and  C_18
REMARK    3  A    between atoms: C_7  and  C_19
REMARK    4  A    between atoms: C_20  and  C_22
REMARK                            x       y       z     vdW  Elec       q    Type
REMARK                         _______ _______ _______ _____ _____    ______ ____
ROOT
ATOM      1  O   UNL     1      -5.408   0.485   0.791  0.00  0.00    +0.000 OA
ATOM      2  C   UNL     1       0.007  -0.339   0.203  0.00  0.00    +0.000 C 
ATOM      3  C   UNL     1       0.914   0.866  -0.209  0.00  0.00    +0.000 C 
ATOM      4  C   UNL     1       2.298   0.674   0.421  0.00  0.00    +0.000 C 
ATOM      5  C   UNL     1      -1.456  -0.196  -0.364  0.00  0.00    +0.000 C 
ATOM      6  C   UNL     1       2.983  -0.629  -0.034  0.00  0.00    +0.000 C 
ATOM      7  C   UNL     1      -2.018   1.177   0.128  0.00  0.00    +0.000 C 
ATOM      8  C   UNL     1       0.681  -1.705  -0.098  0.00  0.00    +0.000 C 
ATOM      9  C   UNL     1       2.122  -1.809   0.435  0.00  0.00    +0.000 C 
ATOM     10  C   UNL     1       0.288   2.202   0.211  0.00  0.00    +0.000 C 
ATOM     11  C   UNL     1       3.371   1.737   0.199  0.00  0.00    +0.000 C 
ATOM     12  C   UNL     1       4.326  -0.477   0.706  0.00  0.00    +0.000 C 
ATOM     13  C   UNL     1      -1.141   2.359  -0.302  0.00  0.00    +0.000 C 
ATOM     14  C   UNL     1      -2.376  -1.308   0.224  0.00  0.00    +0.000 C 
ATOM     15  C   UNL     1       4.689   1.009   0.520  0.00  0.00    +0.000 C 
ATOM     16  C   UNL     1      -3.477   1.407  -0.270  0.00  0.00    +0.000 C 
ATOM     17  C   UNL     1      -1.462  -0.309  -1.909  0.00  0.00    +0.000 C 
ATOM     18  C   UNL     1       3.220  -0.737  -1.562  0.00  0.00    +0.000 C 
ATOM     19  C   UNL     1      -3.865  -1.141  -0.120  0.00  0.00    +0.000 C 
ATOM     20  C   UNL     1      -4.337   0.266   0.225  0.00  0.00    +0.000 C 
ATOM     21  C   UNL     1      -4.696  -2.200   0.602  0.00  0.00    +0.000 C 
ENDROOT
BRANCH  12  22
ATOM     22  O   UNL     1       5.335  -1.331   0.203  0.00  0.00    +0.000 OA
ATOM     23  H   UNL     1       5.026  -2.246   0.315  0.00  0.00    +0.000 HD
ENDBRANCH  12  22
TORSDOF 1
