REMARK  Name = 656583
REMARK  5 active torsions:
REMARK  status: ('A' for Active; 'I' for Inactive)
REMARK    1  A    between atoms: O_2  and  C_18
REMARK    2  A    between atoms: O_3  and  C_21
REMARK    3  A    between atoms: C_5  and  C_19
REMARK    4  A    between atoms: C_10  and  C_22
REMARK    5  A    between atoms: C_23  and  C_24
REMARK                            x       y       z     vdW  Elec       q    Type
REMARK                         _______ _______ _______ _____ _____    ______ ____
ROOT
ATOM      1  O   UNL     1       2.007  -1.663   1.260  0.00  0.00    +0.000 OA
ATOM      2  C   UNL     1       1.125   0.088  -0.311  0.00  0.00    +0.000 C 
ATOM      3  C   UNL     1       1.550  -1.366  -0.071  0.00  0.00    +0.000 C 
ATOM      4  C   UNL     1      -0.336   0.254   0.244  0.00  0.00    +0.000 C 
ATOM      5  C   UNL     1      -1.308  -0.831  -0.333  0.00  0.00    +0.000 C 
ATOM      6  C   UNL     1      -2.691  -0.624   0.292  0.00  0.00    +0.000 C 
ATOM      7  C   UNL     1      -3.277   0.769  -0.011  0.00  0.00    +0.000 C 
ATOM      8  C   UNL     1       3.009  -1.659   0.225  0.00  0.00    +0.000 C 
ATOM      9  C   UNL     1       0.642  -2.436  -0.605  0.00  0.00    +0.000 C 
ATOM     10  C   UNL     1      -0.774  -2.249  -0.063  0.00  0.00    +0.000 C 
ATOM     11  C   UNL     1      -0.909   1.687   0.102  0.00  0.00    +0.000 C 
ATOM     12  C   UNL     1      -2.354   1.822   0.616  0.00  0.00    +0.000 C 
ATOM     13  C   UNL     1       2.105   1.069   0.419  0.00  0.00    +0.000 C 
ATOM     14  C   UNL     1      -3.824  -1.577  -0.078  0.00  0.00    +0.000 C 
ATOM     15  C   UNL     1      -4.647   0.619   0.680  0.00  0.00    +0.000 C 
ATOM     16  C   UNL     1       1.204   0.390  -1.830  0.00  0.00    +0.000 C 
ATOM     17  C   UNL     1      -5.100  -0.806   0.310  0.00  0.00    +0.000 C 
ATOM     18  C   UNL     1       3.970  -0.542   0.108  0.00  0.00    +0.000 C 
ATOM     19  C   UNL     1      -3.466   1.077  -1.518  0.00  0.00    +0.000 C 
ATOM     20  C   UNL     1       3.573   0.745   0.212  0.00  0.00    +0.000 C 
ENDROOT
BRANCH  15  21
ATOM     21  O   UNL     1      -5.603   1.575   0.267  0.00  0.00    +0.000 OA
ATOM     22  H   UNL     1      -5.862   1.386  -0.650  0.00  0.00    +0.000 HD
ENDBRANCH  15  21
BRANCH  18  23
ATOM     23  O   UNL     1       5.311  -0.838  -0.088  0.00  0.00    +0.000 OA
ATOM     24  H   UNL     1       5.401  -1.806  -0.110  0.00  0.00    +0.000 HD
ENDBRANCH  18  23
BRANCH  20  26
ATOM     25  N   UNL     1       5.278   2.683   0.049  0.00  0.00    +0.000 NA
ATOM     26  C   UNL     1       4.513   1.814   0.122  0.00  0.00    +0.000 C 
ENDBRANCH  20  26
TORSDOF 3
