REMARK  Name = 160615
REMARK  4 active torsions:
REMARK  status: ('A' for Active; 'I' for Inactive)
REMARK    1  A    between atoms: O_1  and  C_11
REMARK    2  A    between atoms: O_2  and  C_21
REMARK    3  A    between atoms: C_5  and  C_17
REMARK    4  A    between atoms: C_8  and  C_19
REMARK                            x       y       z     vdW  Elec       q    Type
REMARK                         _______ _______ _______ _____ _____    ______ ____
ROOT
ATOM      1  O   UNL     1       5.403   0.259   0.935  0.00  0.00    +0.000 OA
ATOM      2  C   UNL     1      -2.151  -0.751   0.334  0.00  0.00    +0.000 C 
ATOM      3  C   UNL     1      -2.998   0.503   0.049  0.00  0.00    +0.000 C 
ATOM      4  C   UNL     1      -0.779  -0.705  -0.348  0.00  0.00    +0.000 C 
ATOM      5  C   UNL     1       0.002   0.540   0.177  0.00  0.00    +0.000 C 
ATOM      6  C   UNL     1       1.454   0.654  -0.433  0.00  0.00    +0.000 C 
ATOM      7  C   UNL     1      -2.261   1.715   0.633  0.00  0.00    +0.000 C 
ATOM      8  C   UNL     1      -0.838   1.842   0.058  0.00  0.00    +0.000 C 
ATOM      9  C   UNL     1      -4.286   0.111   0.797  0.00  0.00    +0.000 C 
ATOM     10  C   UNL     1      -3.101  -1.903   0.015  0.00  0.00    +0.000 C 
ATOM     11  C   UNL     1       0.024  -1.981  -0.076  0.00  0.00    +0.000 C 
ATOM     12  C   UNL     1      -4.482  -1.377   0.447  0.00  0.00    +0.000 C 
ATOM     13  C   UNL     1       2.185  -0.693  -0.292  0.00  0.00    +0.000 C 
ATOM     14  C   UNL     1       1.399  -1.913  -0.729  0.00  0.00    +0.000 C 
ATOM     15  C   UNL     1      -3.300   0.754  -1.450  0.00  0.00    +0.000 C 
ATOM     16  C   UNL     1       2.216   1.764   0.346  0.00  0.00    +0.000 C 
ATOM     17  C   UNL     1       1.421   1.031  -1.932  0.00  0.00    +0.000 C 
ATOM     18  C   UNL     1       3.716   1.739   0.120  0.00  0.00    +0.000 C 
ATOM     19  C   UNL     1       3.450  -0.817   0.160  0.00  0.00    +0.000 C 
ATOM     20  C   UNL     1       4.271   0.385   0.470  0.00  0.00    +0.000 C 
ENDROOT
BRANCH   9  21
ATOM     21  O   UNL     1      -5.404   0.890   0.418  0.00  0.00    +0.000 OA
ATOM     22  H   UNL     1      -6.183   0.521   0.868  0.00  0.00    +0.000 HD
ENDBRANCH   9  21
BRANCH  19  23
ATOM     23  O   UNL     1       4.060  -2.047   0.300  0.00  0.00    +0.000 OA
ATOM     24  H   UNL     1       3.691  -2.682  -0.331  0.00  0.00    +0.000 HD
ENDBRANCH  19  23
TORSDOF 2
