REMARK  Name = 20055236
REMARK  3 active torsions:
REMARK  status: ('A' for Active; 'I' for Inactive)
REMARK    1  A    between atoms: O_1  and  C_9
REMARK    2  A    between atoms: O_2  and  C_20
REMARK    3  A    between atoms: C_5  and  C_15
REMARK                            x       y       z     vdW  Elec       q    Type
REMARK                         _______ _______ _______ _____ _____    ______ ____
ROOT
ATOM      1  O   UNL     1      -5.477   0.467  -0.682  0.00  0.00    +0.000 OA
ATOM      2  C   UNL     1       2.089  -0.706  -0.328  0.00  0.00    +0.000 C 
ATOM      3  C   UNL     1       2.926   0.532   0.053  0.00  0.00    +0.000 C 
ATOM      4  C   UNL     1       0.704  -0.698   0.320  0.00  0.00    +0.000 C 
ATOM      5  C   UNL     1      -0.067   0.567  -0.158  0.00  0.00    +0.000 C 
ATOM      6  C   UNL     1       2.200   1.776  -0.474  0.00  0.00    +0.000 C 
ATOM      7  C   UNL     1       4.232   0.183  -0.689  0.00  0.00    +0.000 C 
ATOM      8  C   UNL     1       0.758   1.862   0.058  0.00  0.00    +0.000 C 
ATOM      9  C   UNL     1       3.034  -1.874  -0.056  0.00  0.00    +0.000 C 
ATOM     10  C   UNL     1      -1.483   0.641   0.494  0.00  0.00    +0.000 C 
ATOM     11  C   UNL     1      -0.099  -1.957  -0.025  0.00  0.00    +0.000 C 
ATOM     12  C   UNL     1       4.425  -1.323  -0.425  0.00  0.00    +0.000 C 
ATOM     13  C   UNL     1       3.184   0.693   1.572  0.00  0.00    +0.000 C 
ATOM     14  C   UNL     1      -1.467  -1.923   0.647  0.00  0.00    +0.000 C 
ATOM     15  C   UNL     1      -2.247  -0.670   0.313  0.00  0.00    +0.000 C 
ATOM     16  C   UNL     1      -2.263   1.848  -0.064  0.00  0.00    +0.000 C 
ATOM     17  C   UNL     1      -3.737   1.795   0.283  0.00  0.00    +0.000 C 
ATOM     18  C   UNL     1      -3.537  -0.736  -0.070  0.00  0.00    +0.000 C 
ATOM     19  C   UNL     1      -4.336   0.511  -0.226  0.00  0.00    +0.000 C 
ENDROOT
BRANCH   7  20
ATOM     20  O   UNL     1       5.351   0.948  -0.282  0.00  0.00    +0.000 OA
ATOM     21  H   UNL     1       6.130   0.593  -0.743  0.00  0.00    +0.000 HD
ENDBRANCH   7  20
BRANCH  18  22
ATOM     22  O   UNL     1      -4.190  -1.935  -0.261  0.00  0.00    +0.000 OA
ATOM     23  H   UNL     1      -5.111  -1.733  -0.499  0.00  0.00    +0.000 HD
ENDBRANCH  18  22
TORSDOF 2
