REMARK  Name = 101819
REMARK  5 active torsions:
REMARK  status: ('A' for Active; 'I' for Inactive)
REMARK    1  A    between atoms: O_1  and  C_9
REMARK    2  A    between atoms: O_2  and  C_21
REMARK    3  A    between atoms: C_6  and  C_18
REMARK    4  A    between atoms: C_7  and  C_19
REMARK    5  A    between atoms: C_9  and  C_22
REMARK                            x       y       z     vdW  Elec       q    Type
REMARK                         _______ _______ _______ _____ _____    ______ ____
ROOT
ATOM      1  C   UNL     1      -0.431   0.829   0.280  0.00  0.00    +0.000 C 
ATOM      2  C   UNL     1      -1.872   0.755  -0.245  0.00  0.00    +0.000 C 
ATOM      3  C   UNL     1       0.351  -0.429  -0.220  0.00  0.00    +0.000 C 
ATOM      4  C   UNL     1      -2.623  -0.509   0.224  0.00  0.00    +0.000 C 
ATOM      5  C   UNL     1       1.858  -0.403   0.234  0.00  0.00    +0.000 C 
ATOM      6  C   UNL     1       2.479   0.933  -0.286  0.00  0.00    +0.000 C 
ATOM      7  C   UNL     1      -4.045  -0.231  -0.356  0.00  0.00    +0.000 C 
ATOM      8  C   UNL     1      -0.396  -1.748   0.112  0.00  0.00    +0.000 C 
ATOM      9  C   UNL     1      -1.873  -1.734  -0.327  0.00  0.00    +0.000 C 
ATOM     10  C   UNL     1       0.261   2.127  -0.163  0.00  0.00    +0.000 C 
ATOM     11  C   UNL     1      -2.831   1.889   0.102  0.00  0.00    +0.000 C 
ATOM     12  C   UNL     1       1.735   2.167   0.236  0.00  0.00    +0.000 C 
ATOM     13  C   UNL     1      -4.234   1.292  -0.116  0.00  0.00    +0.000 C 
ATOM     14  C   UNL     1       2.648  -1.575  -0.416  0.00  0.00    +0.000 C 
ATOM     15  C   UNL     1       3.986   1.034  -0.019  0.00  0.00    +0.000 C 
ATOM     16  C   UNL     1      -2.715  -0.637   1.773  0.00  0.00    +0.000 C 
ATOM     17  C   UNL     1       1.971  -0.535   1.775  0.00  0.00    +0.000 C 
ATOM     18  C   UNL     1       4.160  -1.487  -0.201  0.00  0.00    +0.000 C 
ATOM     19  C   UNL     1       4.734  -0.143  -0.640  0.00  0.00    +0.000 C 
ATOM     20  C   UNL     1      -4.228  -0.572  -1.841  0.00  0.00    +0.000 C 
ENDROOT
BRANCH   7  21
ATOM     21  O   UNL     1      -5.041  -0.961   0.356  0.00  0.00    +0.000 OA
ATOM     22  H   UNL     1      -5.912  -0.652   0.055  0.00  0.00    +0.000 HD
ENDBRANCH   7  21
BRANCH  19  23
ATOM     23  O   UNL     1       6.104  -0.062  -0.263  0.00  0.00    +0.000 OA
ATOM     24  H   UNL     1       6.567  -0.812  -0.674  0.00  0.00    +0.000 HD
ENDBRANCH  19  23
TORSDOF 2
