REMARK  Name = 68947
REMARK  3 active torsions:
REMARK  status: ('A' for Active; 'I' for Inactive)
REMARK    1  A    between atoms: O_2  and  C_11
REMARK    2  A    between atoms: C_5  and  C_17
REMARK    3  A    between atoms: C_8  and  C_19
REMARK                            x       y       z     vdW  Elec       q    Type
REMARK                         _______ _______ _______ _____ _____    ______ ____
ROOT
ATOM      1 CL   UNL     1      -4.192  -2.187  -0.569  0.00  0.00    +0.000 Cl
ATOM      2  O   UNL     1      -4.966   0.491  -1.460  0.00  0.00    +0.000 OA
ATOM      3  C   UNL     1       1.993  -0.751  -0.341  0.00  0.00    +0.000 C 
ATOM      4  C   UNL     1       2.891   0.478  -0.096  0.00  0.00    +0.000 C 
ATOM      5  C   UNL     1       0.706  -0.711   0.487  0.00  0.00    +0.000 C 
ATOM      6  C   UNL     1      -0.106   0.572   0.086  0.00  0.00    +0.000 C 
ATOM      7  C   UNL     1      -1.478   0.651   0.852  0.00  0.00    +0.000 C 
ATOM      8  C   UNL     1       2.121   1.728  -0.539  0.00  0.00    +0.000 C 
ATOM      9  C   UNL     1       0.767   1.851   0.185  0.00  0.00    +0.000 C 
ATOM     10  C   UNL     1       4.082   0.100  -0.998  0.00  0.00    +0.000 C 
ATOM     11  C   UNL     1       2.949  -1.929  -0.177  0.00  0.00    +0.000 C 
ATOM     12  C   UNL     1      -0.130  -1.989   0.304  0.00  0.00    +0.000 C 
ATOM     13  C   UNL     1       4.284  -1.406  -0.738  0.00  0.00    +0.000 C 
ATOM     14  C   UNL     1      -2.220  -0.665   0.530  0.00  0.00    +0.000 C 
ATOM     15  C   UNL     1      -1.486  -1.904   1.009  0.00  0.00    +0.000 C 
ATOM     16  C   UNL     1       3.361   0.655   1.371  0.00  0.00    +0.000 C 
ATOM     17  C   UNL     1      -2.339   1.876   0.438  0.00  0.00    +0.000 C 
ATOM     18  C   UNL     1      -1.272   0.810   2.382  0.00  0.00    +0.000 C 
ATOM     19  C   UNL     1      -2.993   1.715  -0.918  0.00  0.00    +0.000 C 
ATOM     20  C   UNL     1      -3.344  -0.723  -0.212  0.00  0.00    +0.000 C 
ATOM     21  C   UNL     1      -3.878   0.496  -0.887  0.00  0.00    +0.000 C 
ENDROOT
BRANCH  10  22
ATOM     22  O   UNL     1       5.251   0.843  -0.711  0.00  0.00    +0.000 OA
ATOM     23  H   UNL     1       5.968   0.482  -1.260  0.00  0.00    +0.000 HD
ENDBRANCH  10  22
TORSDOF 1
