REMARK  Name = 10039774
REMARK  3 active torsions:
REMARK  status: ('A' for Active; 'I' for Inactive)
REMARK    1  A    between atoms: O_1  and  C_8
REMARK    2  A    between atoms: C_3  and  C_14
REMARK    3  A    between atoms: C_14  and  C_18
REMARK                            x       y       z     vdW  Elec       q    Type
REMARK                         _______ _______ _______ _____ _____    ______ ____
ROOT
ATOM      1  O   UNL     1      -6.002  -0.205  -0.148  0.00  0.00    +0.000 OA
ATOM      2  C   UNL     1       2.537  -0.345   0.144  0.00  0.00    +0.000 C 
ATOM      3  C   UNL     1       1.720   0.965   0.213  0.00  0.00    +0.000 C 
ATOM      4  C   UNL     1       0.322   0.806  -0.389  0.00  0.00    +0.000 C 
ATOM      5  C   UNL     1      -0.439  -0.290   0.423  0.00  0.00    +0.000 C 
ATOM      6  C   UNL     1       1.807  -1.420   0.961  0.00  0.00    +0.000 C 
ATOM      7  C   UNL     1       3.857   0.155   0.762  0.00  0.00    +0.000 C 
ATOM      8  C   UNL     1       2.678   2.006  -0.362  0.00  0.00    +0.000 C 
ATOM      9  C   UNL     1       0.356  -1.614   0.479  0.00  0.00    +0.000 C 
ATOM     10  C   UNL     1      -1.864  -0.424  -0.165  0.00  0.00    +0.000 C 
ATOM     11  C   UNL     1       4.065   1.541   0.120  0.00  0.00    +0.000 C 
ATOM     12  C   UNL     1      -0.469   2.127  -0.489  0.00  0.00    +0.000 C 
ATOM     13  C   UNL     1      -1.800   2.124   0.262  0.00  0.00    +0.000 C 
ATOM     14  C   UNL     1      -2.621   0.880   0.028  0.00  0.00    +0.000 C 
ATOM     15  C   UNL     1      -2.677  -1.589   0.411  0.00  0.00    +0.000 C 
ATOM     16  C   UNL     1      -4.074  -1.625  -0.199  0.00  0.00    +0.000 C 
ATOM     17  C   UNL     1      -3.962   0.938   0.059  0.00  0.00    +0.000 C 
ATOM     18  C   UNL     1      -4.777  -0.292  -0.087  0.00  0.00    +0.000 C 
ENDROOT
BRANCH   7  19
ATOM     19  O   UNL     1       4.948  -0.709   0.512  0.00  0.00    +0.000 OA
ATOM     20  H   UNL     1       4.830  -1.494   1.073  0.00  0.00    +0.000 HD
ENDBRANCH   7  19
BRANCH   2  21
ATOM     21  C   UNL     1       2.788  -0.881  -1.290  0.00  0.00    +0.000 C 
ATOM     22  C   UNL     1       3.606  -2.147  -1.246  0.00  0.00    +0.000 C 
ENDBRANCH   2  21
TORSDOF 2
