REMARK  Name = 9835303
REMARK  3 active torsions:
REMARK  status: ('A' for Active; 'I' for Inactive)
REMARK    1  A    between atoms: O_1  and  C_8
REMARK    2  A    between atoms: O_2  and  C_20
REMARK    3  A    between atoms: C_4  and  C_14
REMARK                            x       y       z     vdW  Elec       q    Type
REMARK                         _______ _______ _______ _____ _____    ______ ____
ROOT
ATOM      1  C   UNL     1       1.930   0.701   0.334  0.00  0.00    +0.000 C 
ATOM      2  C   UNL     1       2.700  -0.567  -0.090  0.00  0.00    +0.000 C 
ATOM      3  C   UNL     1       0.530   0.767  -0.278  0.00  0.00    +0.000 C 
ATOM      4  C   UNL     1      -0.282  -0.474   0.200  0.00  0.00    +0.000 C 
ATOM      5  C   UNL     1       1.932  -1.788   0.433  0.00  0.00    +0.000 C 
ATOM      6  C   UNL     1       4.039  -0.291   0.625  0.00  0.00    +0.000 C 
ATOM      7  C   UNL     1       0.476  -1.800  -0.065  0.00  0.00    +0.000 C 
ATOM      8  C   UNL     1       2.920   1.829   0.059  0.00  0.00    +0.000 C 
ATOM      9  C   UNL     1      -1.714  -0.472  -0.414  0.00  0.00    +0.000 C 
ATOM     10  C   UNL     1      -0.206   2.058   0.106  0.00  0.00    +0.000 C 
ATOM     11  C   UNL     1       4.292   1.211   0.385  0.00  0.00    +0.000 C 
ATOM     12  C   UNL     1       2.914  -0.710  -1.617  0.00  0.00    +0.000 C 
ATOM     13  C   UNL     1      -2.400   0.868  -0.180  0.00  0.00    +0.000 C 
ATOM     14  C   UNL     1      -1.597   2.097  -0.519  0.00  0.00    +0.000 C 
ATOM     15  C   UNL     1      -2.544  -1.662   0.118  0.00  0.00    +0.000 C 
ATOM     16  C   UNL     1      -4.034  -1.478  -0.137  0.00  0.00    +0.000 C 
ATOM     17  C   UNL     1      -3.661   0.970   0.276  0.00  0.00    +0.000 C 
ATOM     18  C   UNL     1      -4.547  -0.210   0.541  0.00  0.00    +0.000 C 
ENDROOT
BRANCH   6  19
ATOM     19  O   UNL     1       5.111  -1.097   0.176  0.00  0.00    +0.000 OA
ATOM     20  H   UNL     1       4.857  -2.025   0.315  0.00  0.00    +0.000 HD
ENDBRANCH   6  19
BRANCH  18  21
ATOM     21  O   UNL     1      -5.858   0.049   0.047  0.00  0.00    +0.000 OA
ATOM     22  H   UNL     1      -6.412  -0.720   0.267  0.00  0.00    +0.000 HD
ENDBRANCH  18  21
TORSDOF 2
