REMARK  Name = 476861
REMARK  15 active torsions:
REMARK  status: ('A' for Active; 'I' for Inactive)
REMARK    1  A    between atoms: O_1  and  C_17
REMARK    2  A    between atoms: O_1  and  C_23
REMARK    3  A    between atoms: O_2  and  C_18
REMARK    4  A    between atoms: O_2  and  C_24
REMARK    5  A    between atoms: O_3  and  C_21
REMARK    6  A    between atoms: O_3  and  C_25
REMARK    7  A    between atoms: O_4  and  C_22
REMARK    8  A    between atoms: O_4  and  C_26
REMARK    9  A    between atoms: C_5  and  C_6
REMARK   10  A    between atoms: C_5  and  C_7
REMARK   11  A    between atoms: C_5  and  C_9
REMARK   12  A    between atoms: C_6  and  C_8
REMARK   13  A    between atoms: C_6  and  C_10
REMARK   14  A    between atoms: C_7  and  C_11
REMARK   15  A    between atoms: C_8  and  C_12
REMARK                            x       y       z     vdW  Elec       q    Type
REMARK                         _______ _______ _______ _____ _____    ______ ____
ROOT
ATOM      1  C   UNL     1      -0.925  -2.396  -0.148  0.00  0.00    +0.000 C 
ATOM      2  C   UNL     1      -0.525  -3.862   0.071  0.00  0.00    +0.000 C 
ENDROOT
BRANCH   1   3
ATOM      3  C   UNL     1       0.297  -1.462  -0.423  0.00  0.00    +0.000 C 
ATOM      4  C   UNL     1       1.096  -1.960  -1.640  0.00  0.00    +0.000 C 
BRANCH   3   5
ATOM      5  C   UNL     1       1.221  -1.284   0.804  0.00  0.00    +0.000 C 
BRANCH   5   6
ATOM      6  C   UNL     1       2.397  -0.367   0.553  0.00  0.00    +0.000 A 
ATOM      7  C   UNL     1       3.584  -0.901   0.081  0.00  0.00    +0.000 A 
ATOM      8  C   UNL     1       2.262   0.989   0.800  0.00  0.00    +0.000 A 
ATOM      9  C   UNL     1       4.668  -0.055  -0.152  0.00  0.00    +0.000 A 
ATOM     10  C   UNL     1       3.347   1.835   0.568  0.00  0.00    +0.000 A 
ATOM     11  C   UNL     1       4.550   1.313   0.092  0.00  0.00    +0.000 A 
BRANCH   9  12
ATOM     12  O   UNL     1       5.837  -0.577  -0.616  0.00  0.00    +0.000 OA
ATOM     13  C   UNL     1       6.789  -1.004   0.357  0.00  0.00    +0.000 C 
ENDBRANCH   9  12
BRANCH  11  14
ATOM     14  O   UNL     1       5.601   2.150  -0.131  0.00  0.00    +0.000 OA
ATOM     15  C   UNL     1       5.706   2.726  -1.432  0.00  0.00    +0.000 C 
ENDBRANCH  11  14
ENDBRANCH   5   6
ENDBRANCH   3   5
ENDBRANCH   1   3
BRANCH   1  16
ATOM     16  C   UNL     1      -1.805  -1.938   1.041  0.00  0.00    +0.000 C 
BRANCH  16  17
ATOM     17  C   UNL     1      -2.741  -0.797   0.726  0.00  0.00    +0.000 A 
ATOM     18  C   UNL     1      -4.016  -1.073   0.257  0.00  0.00    +0.000 A 
ATOM     19  C   UNL     1      -2.309   0.507   0.911  0.00  0.00    +0.000 A 
ATOM     20  C   UNL     1      -4.881  -0.019  -0.033  0.00  0.00    +0.000 A 
ATOM     21  C   UNL     1      -3.175   1.562   0.620  0.00  0.00    +0.000 A 
ATOM     22  C   UNL     1      -4.461   1.299   0.148  0.00  0.00    +0.000 A 
BRANCH  20  23
ATOM     23  O   UNL     1      -6.135  -0.288  -0.494  0.00  0.00    +0.000 OA
ATOM     24  C   UNL     1      -6.298  -0.390  -1.907  0.00  0.00    +0.000 C 
ENDBRANCH  20  23
BRANCH  22  25
ATOM     25  O   UNL     1      -5.296   2.338  -0.133  0.00  0.00    +0.000 OA
ATOM     26  C   UNL     1      -4.789   3.653   0.080  0.00  0.00    +0.000 C 
ENDBRANCH  22  25
ENDBRANCH  16  17
ENDBRANCH   1  16
TORSDOF 9
