REMARK  Name = 6917655
REMARK  16 active torsions:
REMARK  status: ('A' for Active; 'I' for Inactive)
REMARK    1  A    between atoms: O_3  and  C_12
REMARK    2  A    between atoms: O_3  and  C_20
REMARK    3  A    between atoms: O_4  and  C_15
REMARK    4  A    between atoms: O_4  and  C_21
REMARK    5  A    between atoms: O_6  and  C_33
REMARK    6  A    between atoms: C_8  and  C_10
REMARK    7  A    between atoms: C_10  and  C_17
REMARK    8  A    between atoms: C_11  and  C_18
REMARK    9  A    between atoms: C_18  and  C_19
REMARK   10  A    between atoms: C_21  and  C_25
REMARK   11  A    between atoms: C_22  and  C_23
REMARK   12  A    between atoms: C_22  and  C_24
REMARK   13  A    between atoms: C_26  and  C_27
REMARK   14  A    between atoms: C_28  and  C_29
REMARK   15  A    between atoms: C_30  and  C_31
REMARK   16  A    between atoms: C_32  and  C_33
REMARK                            x       y       z     vdW  Elec       q    Type
REMARK                         _______ _______ _______ _____ _____    ______ ____
ROOT
ATOM      1  O   UNL     1       4.035   0.945   1.752  0.00  0.00    +0.000 OA
ATOM      2  C   UNL     1       3.323  -0.437  -0.205  0.00  0.00    +0.000 C 
ATOM      3  C   UNL     1       3.235  -0.152   1.285  0.00  0.00    +0.000 C 
ATOM      4  C   UNL     1       2.771  -1.856  -0.507  0.00  0.00    +0.000 C 
ATOM      5  C   UNL     1       2.619   1.149   1.760  0.00  0.00    +0.000 C 
ATOM      6  C   UNL     1       3.235  -1.342   2.194  0.00  0.00    +0.000 C 
ATOM      7  C   UNL     1       1.622  -2.263   0.427  0.00  0.00    +0.000 C 
ATOM      8  C   UNL     1       2.025  -2.237   1.909  0.00  0.00    +0.000 C 
ENDROOT
BRANCH   2  10
ATOM      9  O   UNL     1       4.841  -0.280  -2.156  0.00  0.00    +0.000 OA
ATOM     10  C   UNL     1       4.738  -0.307  -0.726  0.00  0.00    +0.000 C 
ATOM     11  C   UNL     1       5.202   0.919  -1.457  0.00  0.00    +0.000 C 
ATOM     12  C   UNL     1       5.723  -1.198  -0.067  0.00  0.00    +0.000 C 
BRANCH  11  13
ATOM     13  C   UNL     1       6.641   1.258  -1.559  0.00  0.00    +0.000 C 
BRANCH  13  14
ATOM     14  C   UNL     1       7.256   1.809  -0.294  0.00  0.00    +0.000 C 
ATOM     15  C   UNL     1       7.255   3.086   0.134  0.00  0.00    +0.000 C 
ATOM     16  C   UNL     1       6.573   4.161  -0.670  0.00  0.00    +0.000 C 
ATOM     17  C   UNL     1       7.888   3.568   1.408  0.00  0.00    +0.000 C 
ENDBRANCH  13  14
ENDBRANCH  11  13
ENDBRANCH   2  10
BRANCH   4  18
ATOM     18  O   UNL     1       2.287  -1.914  -1.849  0.00  0.00    +0.000 OA
ATOM     19  C   UNL     1       2.205  -3.254  -2.305  0.00  0.00    +0.000 C 
ENDBRANCH   4  18
BRANCH   7  20
ATOM     20  O   UNL     1       0.500  -1.397   0.228  0.00  0.00    +0.000 OA
BRANCH  20  22
ATOM     21  O   UNL     1      -0.947  -3.119   0.757  0.00  0.00    +0.000 OA
ATOM     22  C   UNL     1      -0.719  -1.965   0.429  0.00  0.00    +0.000 C 
BRANCH  22  23
ATOM     23  C   UNL     1      -1.743  -0.926   0.181  0.00  0.00    +0.000 C 
ATOM     24  C   UNL     1      -3.042  -1.226   0.313  0.00  0.00    +0.000 C 
BRANCH  24  25
ATOM     25  C   UNL     1      -4.095  -0.259   0.087  0.00  0.00    +0.000 C 
ATOM     26  C   UNL     1      -5.397  -0.553   0.217  0.00  0.00    +0.000 C 
BRANCH  26  27
ATOM     27  C   UNL     1      -6.488   0.367  -0.024  0.00  0.00    +0.000 C 
ATOM     28  C   UNL     1      -7.791   0.072   0.106  0.00  0.00    +0.000 C 
BRANCH  28  29
ATOM     29  C   UNL     1      -8.846   1.022  -0.177  0.00  0.00    +0.000 C 
ATOM     30  C   UNL     1     -10.145   0.719  -0.044  0.00  0.00    +0.000 C 
BRANCH  30  32
ATOM     31  O   UNL     1     -11.050   2.811  -0.705  0.00  0.00    +0.000 OA
ATOM     32  C   UNL     1     -11.244   1.666  -0.325  0.00  0.00    +0.000 C 
BRANCH  32  33
ATOM     33  O   UNL     1     -12.467   1.131  -0.117  0.00  0.00    +0.000 OA
ATOM     34  H   UNL     1     -13.185   1.772  -0.307  0.00  0.00    +0.000 HD
ENDBRANCH  32  33
ENDBRANCH  30  32
ENDBRANCH  28  29
ENDBRANCH  26  27
ENDBRANCH  24  25
ENDBRANCH  22  23
ENDBRANCH  20  22
ENDBRANCH   7  20
TORSDOF 12
