REMARK  Name = 221493
REMARK  11 active torsions:
REMARK  status: ('A' for Active; 'I' for Inactive)
REMARK    1  A    between atoms: O_1  and  C_12
REMARK    2  A    between atoms: O_2  and  C_16
REMARK    3  A    between atoms: O_3  and  C_25
REMARK    4  A    between atoms: O_4  and  C_29
REMARK    5  A    between atoms: C_6  and  C_20
REMARK    6  A    between atoms: C_10  and  C_23
REMARK    7  A    between atoms: C_11  and  C_21
REMARK    8  A    between atoms: C_21  and  C_26
REMARK    9  A    between atoms: C_21  and  C_27
REMARK   10  A    between atoms: C_26  and  C_28
REMARK   11  A    between atoms: C_28  and  C_29
REMARK                            x       y       z     vdW  Elec       q    Type
REMARK                         _______ _______ _______ _____ _____    ______ ____
ROOT
ATOM      1  C   UNL     1      -1.085  -0.018   0.236  0.00  0.00    +0.000 C 
ATOM      2  C   UNL     1      -0.092   1.048  -0.283  0.00  0.00    +0.000 C 
ATOM      3  C   UNL     1       1.231   1.071   0.498  0.00  0.00    +0.000 C 
ATOM      4  C   UNL     1       1.910  -0.336   0.386  0.00  0.00    +0.000 C 
ATOM      5  C   UNL     1       3.279  -0.386   1.170  0.00  0.00    +0.000 C 
ATOM      6  C   UNL     1      -2.284   0.297  -0.698  0.00  0.00    +0.000 C 
ATOM      7  C   UNL     1      -0.449  -1.414   0.075  0.00  0.00    +0.000 C 
ATOM      8  C   UNL     1       0.932  -1.490   0.760  0.00  0.00    +0.000 C 
ATOM      9  C   UNL     1       4.218   0.750   0.644  0.00  0.00    +0.000 C 
ATOM     10  C   UNL     1      -0.928   2.326  -0.335  0.00  0.00    +0.000 C 
ATOM     11  C   UNL     1       2.167   2.201   0.027  0.00  0.00    +0.000 C 
ATOM     12  C   UNL     1      -2.338   1.842  -0.720  0.00  0.00    +0.000 C 
ATOM     13  C   UNL     1       3.545   2.137   0.693  0.00  0.00    +0.000 C 
ATOM     14  C   UNL     1       4.012  -1.752   1.010  0.00  0.00    +0.000 C 
ATOM     15  C   UNL     1      -1.481   0.179   1.725  0.00  0.00    +0.000 C 
ATOM     16  C   UNL     1       4.789   0.457  -0.759  0.00  0.00    +0.000 C 
ATOM     17  C   UNL     1       3.060  -0.202   2.696  0.00  0.00    +0.000 C 
ATOM     18  C   UNL     1       4.536  -2.015  -0.395  0.00  0.00    +0.000 C 
ATOM     19  C   UNL     1       5.476  -0.903  -0.837  0.00  0.00    +0.000 C 
ENDROOT
BRANCH   7  20
ATOM     20  O   UNL     1      -0.317  -1.789  -1.296  0.00  0.00    +0.000 OA
ATOM     21  H   UNL     1       0.065  -2.682  -1.323  0.00  0.00    +0.000 HD
ENDBRANCH   7  20
BRANCH  11  22
ATOM     22  O   UNL     1       2.304   2.174  -1.390  0.00  0.00    +0.000 OA
ATOM     23  H   UNL     1       2.181   1.272  -1.721  0.00  0.00    +0.000 HD
ENDBRANCH  11  22
BRANCH  19  24
ATOM     24  O   UNL     1       5.884  -1.158  -2.177  0.00  0.00    +0.000 OA
ATOM     25  H   UNL     1       6.332  -2.021  -2.188  0.00  0.00    +0.000 HD
ENDBRANCH  19  24
BRANCH   6  26
ATOM     26  C   UNL     1      -3.617  -0.337  -0.325  0.00  0.00    +0.000 C 
ATOM     27  C   UNL     1      -3.475  -1.862  -0.267  0.00  0.00    +0.000 C 
BRANCH  26  28
ATOM     28  C   UNL     1      -4.711   0.105  -1.319  0.00  0.00    +0.000 C 
BRANCH  28  29
ATOM     29  C   UNL     1      -6.074  -0.543  -1.063  0.00  0.00    +0.000 C 
BRANCH  29  31
ATOM     30  O   UNL     1      -6.443   0.912   0.855  0.00  0.00    +0.000 OA
ATOM     31  C   UNL     1      -6.639  -0.152   0.283  0.00  0.00    +0.000 C 
BRANCH  31  32
ATOM     32  O   UNL     1      -7.407  -1.144   0.807  0.00  0.00    +0.000 OA
ATOM     33  H   UNL     1      -7.774  -0.898   1.683  0.00  0.00    +0.000 HD
ENDBRANCH  31  32
ENDBRANCH  29  31
ENDBRANCH  28  29
ENDBRANCH  26  28
ENDBRANCH   6  26
TORSDOF 8
