REMARK  Name = 5288670
REMARK  16 active torsions:
REMARK  status: ('A' for Active; 'I' for Inactive)
REMARK    1  A    between atoms: O_1  and  C_12
REMARK    2  A    between atoms: O_1  and  C_18
REMARK    3  A    between atoms: O_2  and  C_24
REMARK    4  A    between atoms: O_3  and  C_26
REMARK    5  A    between atoms: O_4  and  C_27
REMARK    6  A    between atoms: C_5  and  C_13
REMARK    7  A    between atoms: C_7  and  C_12
REMARK    8  A    between atoms: C_12  and  C_16
REMARK    9  A    between atoms: C_17  and  C_19
REMARK   10  A    between atoms: C_18  and  C_20
REMARK   11  A    between atoms: C_20  and  C_22
REMARK   12  A    between atoms: C_22  and  C_24
REMARK   13  A    between atoms: C_24  and  C_29
REMARK   14  A    between atoms: C_24  and  C_30
REMARK   15  A    between atoms: C_29  and  C_32
REMARK   16  A    between atoms: C_30  and  C_33
REMARK                            x       y       z     vdW  Elec       q    Type
REMARK                         _______ _______ _______ _____ _____    ______ ____
ROOT
ATOM      1  C   UNL     1       0.465   0.775   0.355  0.00  0.00    +0.000 C 
ATOM      2  C   UNL     1      -0.748   1.123   1.253  0.00  0.00    +0.000 C 
ATOM      3  C   UNL     1       1.341   2.025   0.613  0.00  0.00    +0.000 C 
ATOM      4  C   UNL     1      -1.053   2.576   0.884  0.00  0.00    +0.000 C 
ATOM      5  C   UNL     1       0.330   3.196   0.611  0.00  0.00    +0.000 C 
ATOM      6  C   UNL     1       1.080  -0.547   0.857  0.00  0.00    +0.000 C 
ATOM      7  C   UNL     1      -1.794   0.042   1.205  0.00  0.00    +0.000 C 
ATOM      8  C   UNL     1       0.097   0.641  -1.145  0.00  0.00    +0.000 C 
ATOM      9  C   UNL     1       0.043  -1.685   0.882  0.00  0.00    +0.000 C 
ATOM     10  C   UNL     1      -1.253  -1.311   1.620  0.00  0.00    +0.000 C 
ATOM     11  C   UNL     1      -3.072   0.221   0.848  0.00  0.00    +0.000 C 
ENDROOT
BRANCH  11  12
ATOM     12  C   UNL     1      -4.043  -0.845   0.824  0.00  0.00    +0.000 C 
ATOM     13  C   UNL     1      -5.325  -0.666   0.466  0.00  0.00    +0.000 C 
ATOM     14  C   UNL     1      -6.303  -1.812   0.411  0.00  0.00    +0.000 C 
ATOM     15  C   UNL     1      -5.864   0.631   0.063  0.00  0.00    +0.000 C 
ATOM     16  C   UNL     1      -7.066  -1.858  -0.915  0.00  0.00    +0.000 C 
ATOM     17  C   UNL     1      -6.689   0.632  -1.204  0.00  0.00    +0.000 C 
ATOM     18  C   UNL     1      -7.716  -0.504  -1.219  0.00  0.00    +0.000 C 
ATOM     19  C   UNL     1      -5.693   1.746   0.793  0.00  0.00    +0.000 C 
BRANCH  16  20
ATOM     20  O   UNL     1      -8.074  -2.860  -0.824  0.00  0.00    +0.000 OA
ATOM     21  H   UNL     1      -8.549  -2.875  -1.672  0.00  0.00    +0.000 HD
ENDBRANCH  16  20
BRANCH  17  22
ATOM     22  O   UNL     1      -5.801   0.490  -2.314  0.00  0.00    +0.000 OA
ATOM     23  H   UNL     1      -6.341   0.500  -3.123  0.00  0.00    +0.000 HD
ENDBRANCH  17  22
ENDBRANCH  11  12
BRANCH   3  24
ATOM     24  C   UNL     1       2.505   2.246  -0.341  0.00  0.00    +0.000 C 
ATOM     25  C   UNL     1       3.320   3.474   0.034  0.00  0.00    +0.000 C 
BRANCH  24  26
ATOM     26  O   UNL     1       3.351   1.100  -0.321  0.00  0.00    +0.000 OA
BRANCH  26  27
ATOM     27  C   UNL     1       4.168   1.038  -1.481  0.00  0.00    +0.000 C 
BRANCH  27  28
ATOM     28  C   UNL     1       5.046  -0.205  -1.399  0.00  0.00    +0.000 C 
BRANCH  28  29
ATOM     29  C   UNL     1       5.959  -0.166  -0.168  0.00  0.00    +0.000 C 
BRANCH  29  30
ATOM     30  C   UNL     1       6.954  -1.347  -0.066  0.00  0.00    +0.000 C 
BRANCH  30  31
ATOM     31  O   UNL     1       7.743  -1.133   1.114  0.00  0.00    +0.000 OA
ATOM     32  H   UNL     1       8.351  -1.886   1.212  0.00  0.00    +0.000 HD
ENDBRANCH  30  31
BRANCH  30  33
ATOM     33  C   UNL     1       7.943  -1.424  -1.254  0.00  0.00    +0.000 C 
ATOM     34  C   UNL     1       8.747  -0.160  -1.523  0.00  0.00    +0.000 C 
ENDBRANCH  30  33
BRANCH  30  35
ATOM     35  C   UNL     1       6.204  -2.694   0.097  0.00  0.00    +0.000 C 
ATOM     36  C   UNL     1       5.197  -2.737   1.243  0.00  0.00    +0.000 C 
ENDBRANCH  30  35
ENDBRANCH  29  30
ENDBRANCH  28  29
ENDBRANCH  27  28
ENDBRANCH  26  27
ENDBRANCH  24  26
ENDBRANCH   3  24
TORSDOF 12
