REMARK  Name = 46174141
REMARK  13 active torsions:
REMARK  status: ('A' for Active; 'I' for Inactive)
REMARK    1  A    between atoms: O_1  and  C_14
REMARK    2  A    between atoms: O_3  and  C_21
REMARK    3  A    between atoms: O_3  and  C_27
REMARK    4  A    between atoms: O_4  and  C_20
REMARK    5  A    between atoms: O_5  and  C_25
REMARK    6  A    between atoms: C_9  and  C_16
REMARK    7  A    between atoms: C_9  and  C_17
REMARK    8  A    between atoms: C_13  and  C_22
REMARK    9  A    between atoms: C_23  and  C_25
REMARK   10  A    between atoms: C_24  and  C_26
REMARK   11  A    between atoms: C_27  and  C_28
REMARK   12  A    between atoms: C_28  and  C_29
REMARK   13  A    between atoms: C_30  and  C_31
REMARK                            x       y       z     vdW  Elec       q    Type
REMARK                         _______ _______ _______ _____ _____    ______ ____
ROOT
ATOM      1  O   UNL     1      -2.147   1.445   2.460  0.00  0.00    +0.000 OA
ATOM      2  C   UNL     1      -3.680   0.725  -0.302  0.00  0.00    +0.000 C 
ATOM      3  C   UNL     1      -2.998   1.351  -1.489  0.00  0.00    +0.000 C 
ATOM      4  C   UNL     1      -3.925   0.185  -1.692  0.00  0.00    +0.000 C 
ATOM      5  C   UNL     1      -2.914  -0.017   0.763  0.00  0.00    +0.000 C 
ATOM      6  C   UNL     1      -1.531   1.194  -1.729  0.00  0.00    +0.000 C 
ATOM      7  C   UNL     1      -0.499   1.119   0.683  0.00  0.00    +0.000 C 
ATOM      8  C   UNL     1      -0.644   1.893  -0.674  0.00  0.00    +0.000 C 
ATOM      9  C   UNL     1       0.420  -0.177   0.614  0.00  0.00    +0.000 C 
ATOM     10  C   UNL     1      -1.859   0.884   1.395  0.00  0.00    +0.000 C 
ATOM     11  C   UNL     1      -5.172   0.323  -2.489  0.00  0.00    +0.000 C 
ATOM     12  C   UNL     1      -3.268  -1.129  -1.990  0.00  0.00    +0.000 C 
ATOM     13  C   UNL     1      -2.486  -1.425   0.481  0.00  0.00    +0.000 C 
ATOM     14  C   UNL     1       0.301   1.963   1.671  0.00  0.00    +0.000 C 
ATOM     15  C   UNL     1      -0.142  -1.375   1.437  0.00  0.00    +0.000 C 
ATOM     16  C   UNL     1       1.821   0.278   1.143  0.00  0.00    +0.000 C 
ATOM     17  C   UNL     1      -1.082   3.362  -0.509  0.00  0.00    +0.000 C 
ATOM     18  C   UNL     1      -1.329  -2.050   0.765  0.00  0.00    +0.000 C 
ATOM     19  C   UNL     1       1.525   1.501   1.930  0.00  0.00    +0.000 C 
ATOM     20  C   UNL     1       2.534   2.115   2.833  0.00  0.00    +0.000 C 
ENDROOT
BRANCH   9  21
ATOM     21  O   UNL     1       0.616  -0.635  -0.727  0.00  0.00    +0.000 OA
ATOM     22  H   UNL     1      -0.104  -1.220  -1.003  0.00  0.00    +0.000 HD
ENDBRANCH   9  21
BRANCH  15  23
ATOM     23  O   UNL     1       0.909  -2.336   1.614  0.00  0.00    +0.000 OA
ATOM     24  H   UNL     1       0.621  -2.962   2.301  0.00  0.00    +0.000 HD
ENDBRANCH  15  23
BRANCH  16  25
ATOM     25  O   UNL     1       2.704   0.653   0.090  0.00  0.00    +0.000 OA
BRANCH  25  27
ATOM     26  O   UNL     1       3.691  -1.427   0.148  0.00  0.00    +0.000 OA
ATOM     27  C   UNL     1       3.597  -0.300  -0.317  0.00  0.00    +0.000 C 
BRANCH  27  28
ATOM     28  C   UNL     1       4.453   0.241  -1.416  0.00  0.00    +0.000 C 
ATOM     29  C   UNL     1       5.264   1.474  -1.146  0.00  0.00    +0.000 C 
ATOM     30  C   UNL     1       4.397  -0.423  -2.585  0.00  0.00    +0.000 C 
ATOM     31  C   UNL     1       3.577  -1.634  -2.900  0.00  0.00    +0.000 C 
ENDBRANCH  27  28
ENDBRANCH  25  27
ENDBRANCH  16  25
BRANCH  18  32
ATOM     32  C   UNL     1      -1.184  -3.505   0.386  0.00  0.00    +0.000 C 
BRANCH  32  33
ATOM     33  O   UNL     1      -0.949  -4.274   1.548  0.00  0.00    +0.000 OA
ATOM     34  H   UNL     1      -0.834  -5.197   1.264  0.00  0.00    +0.000 HD
ENDBRANCH  32  33
ENDBRANCH  18  32
TORSDOF 7
