REMARK  Name = 9547261
REMARK  13 active torsions:
REMARK  status: ('A' for Active; 'I' for Inactive)
REMARK    1  A    between atoms: O_1  and  C_20
REMARK    2  A    between atoms: O_2  and  C_26
REMARK    3  A    between atoms: O_3  and  C_27
REMARK    4  A    between atoms: C_4  and  C_12
REMARK    5  A    between atoms: C_5  and  C_10
REMARK    6  A    between atoms: C_10  and  C_15
REMARK    7  A    between atoms: C_10  and  C_16
REMARK    8  A    between atoms: C_17  and  C_19
REMARK    9  A    between atoms: C_18  and  C_20
REMARK   10  A    between atoms: C_20  and  C_22
REMARK   11  A    between atoms: C_20  and  C_24
REMARK   12  A    between atoms: C_22  and  C_29
REMARK   13  A    between atoms: C_22  and  C_30
REMARK                            x       y       z     vdW  Elec       q    Type
REMARK                         _______ _______ _______ _____ _____    ______ ____
ROOT
ATOM      1  C   UNL     1       0.726  -1.443  -0.108  0.00  0.00    +0.000 C 
ATOM      2  C   UNL     1       2.088  -0.967   0.452  0.00  0.00    +0.000 C 
ATOM      3  C   UNL     1      -0.199  -0.985   1.046  0.00  0.00    +0.000 C 
ATOM      4  C   UNL     1       1.776   0.417   1.066  0.00  0.00    +0.000 C 
ATOM      5  C   UNL     1       0.257   0.451   1.314  0.00  0.00    +0.000 C 
ATOM      6  C   UNL     1       0.600  -2.973  -0.258  0.00  0.00    +0.000 C 
ATOM      7  C   UNL     1      -1.636  -1.338   0.770  0.00  0.00    +0.000 C 
ATOM      8  C   UNL     1       0.400  -0.759  -1.461  0.00  0.00    +0.000 C 
ATOM      9  C   UNL     1      -0.860  -3.403  -0.491  0.00  0.00    +0.000 C 
ATOM     10  C   UNL     1      -1.839  -2.821   0.541  0.00  0.00    +0.000 C 
ATOM     11  C   UNL     1      -2.650  -0.463   0.730  0.00  0.00    +0.000 C 
ENDROOT
BRANCH  11  12
ATOM     12  C   UNL     1      -4.015  -0.847   0.469  0.00  0.00    +0.000 C 
ATOM     13  C   UNL     1      -5.032   0.029   0.429  0.00  0.00    +0.000 C 
ATOM     14  C   UNL     1      -6.441  -0.403   0.110  0.00  0.00    +0.000 C 
ATOM     15  C   UNL     1      -4.855   1.463   0.646  0.00  0.00    +0.000 C 
ATOM     16  C   UNL     1      -7.076   0.459  -0.984  0.00  0.00    +0.000 C 
ATOM     17  C   UNL     1      -5.523   2.365  -0.365  0.00  0.00    +0.000 C 
ATOM     18  C   UNL     1      -6.972   1.948  -0.635  0.00  0.00    +0.000 C 
ATOM     19  C   UNL     1      -4.192   1.959   1.704  0.00  0.00    +0.000 C 
BRANCH  16  20
ATOM     20  O   UNL     1      -8.447   0.095  -1.110  0.00  0.00    +0.000 OA
ATOM     21  H   UNL     1      -8.835   0.652  -1.806  0.00  0.00    +0.000 HD
ENDBRANCH  16  20
BRANCH  17  22
ATOM     22  O   UNL     1      -4.774   2.307  -1.580  0.00  0.00    +0.000 OA
ATOM     23  H   UNL     1      -3.870   2.608  -1.385  0.00  0.00    +0.000 HD
ENDBRANCH  17  22
ENDBRANCH  11  12
BRANCH   2  24
ATOM     24  C   UNL     1       3.250  -0.932  -0.530  0.00  0.00    +0.000 C 
ATOM     25  C   UNL     1       3.518  -2.324  -1.107  0.00  0.00    +0.000 C 
BRANCH  24  26
ATOM     26  C   UNL     1       4.495  -0.406   0.147  0.00  0.00    +0.000 C 
ATOM     27  C   UNL     1       5.141   0.705  -0.242  0.00  0.00    +0.000 C 
BRANCH  27  28
ATOM     28  C   UNL     1       6.387   1.293   0.394  0.00  0.00    +0.000 C 
ATOM     29  C   UNL     1       6.061   2.712   0.883  0.00  0.00    +0.000 C 
BRANCH  28  30
ATOM     30  C   UNL     1       7.618   1.279  -0.567  0.00  0.00    +0.000 C 
ATOM     31  C   UNL     1       7.404   2.167  -1.803  0.00  0.00    +0.000 C 
ATOM     32  C   UNL     1       8.051  -0.120  -1.018  0.00  0.00    +0.000 C 
ENDBRANCH  28  30
BRANCH  28  33
ATOM     33  O   UNL     1       6.740   0.537   1.561  0.00  0.00    +0.000 OA
ATOM     34  H   UNL     1       6.035   0.640   2.223  0.00  0.00    +0.000 HD
ENDBRANCH  28  33
ENDBRANCH  27  28
ENDBRANCH  24  26
ENDBRANCH   2  24
TORSDOF 8
