REMARK  Name = 11154476
REMARK  8 active torsions:
REMARK  status: ('A' for Active; 'I' for Inactive)
REMARK    1  A    between atoms: O_5  and  C_16
REMARK    2  A    between atoms: O_6  and  C_19
REMARK    3  A    between atoms: O_7  and  C_21
REMARK    4  A    between atoms: C_15  and  C_23
REMARK    5  A    between atoms: C_23  and  C_27
REMARK    6  A    between atoms: C_23  and  C_28
REMARK    7  A    between atoms: C_23  and  C_29
REMARK    8  A    between atoms: C_24  and  C_30
REMARK                            x       y       z     vdW  Elec       q    Type
REMARK                         _______ _______ _______ _____ _____    ______ ____
ROOT
ATOM      1  O   UNL     1       0.767   0.141   1.475  0.00  0.00    +0.000 OA
ATOM      2  O   UNL     1      -0.474   2.717  -0.334  0.00  0.00    +0.000 OA
ATOM      3  O   UNL     1       0.345  -2.144   1.017  0.00  0.00    +0.000 OA
ATOM      4  O   UNL     1       2.627  -1.365  -0.649  0.00  0.00    +0.000 OA
ATOM      5  O   UNL     1       0.787   3.008   1.552  0.00  0.00    +0.000 OA
ATOM      6  O   UNL     1       0.090  -3.765  -0.587  0.00  0.00    +0.000 OA
ATOM      7  O   UNL     1       3.938  -1.843   1.170  0.00  0.00    +0.000 OA
ATOM      8  C   UNL     1      -0.064   0.395  -0.754  0.00  0.00    +0.000 C 
ATOM      9  C   UNL     1      -1.048  -0.498   0.057  0.00  0.00    +0.000 C 
ATOM     10  C   UNL     1       0.901   0.931   0.300  0.00  0.00    +0.000 C 
ATOM     11  C   UNL     1      -0.853   1.632  -1.202  0.00  0.00    +0.000 C 
ATOM     12  C   UNL     1      -2.248   0.450   0.341  0.00  0.00    +0.000 C 
ATOM     13  C   UNL     1       2.316   0.931  -0.322  0.00  0.00    +0.000 C 
ATOM     14  C   UNL     1       0.820  -0.223  -1.854  0.00  0.00    +0.000 C 
ATOM     15  C   UNL     1      -0.240  -0.858   1.290  0.00  0.00    +0.000 C 
ATOM     16  C   UNL     1      -2.315   1.274  -0.947  0.00  0.00    +0.000 C 
ATOM     17  C   UNL     1       2.262  -0.178  -1.351  0.00  0.00    +0.000 C 
ATOM     18  C   UNL     1      -1.435  -1.873  -0.472  0.00  0.00    +0.000 C 
ATOM     19  C   UNL     1       0.421   2.320   0.612  0.00  0.00    +0.000 C 
ATOM     20  C   UNL     1       3.439   0.470   0.602  0.00  0.00    +0.000 C 
ATOM     21  C   UNL     1      -0.261  -2.720  -0.065  0.00  0.00    +0.000 C 
ATOM     22  C   UNL     1       3.384  -1.032   0.443  0.00  0.00    +0.000 C 
ATOM     23  C   UNL     1       4.830   0.965   0.222  0.00  0.00    +0.000 C 
ENDROOT
BRANCH  12  24
ATOM     24  C   UNL     1      -3.589  -0.190   0.686  0.00  0.00    +0.000 C 
ATOM     25  C   UNL     1      -4.662   0.901   0.848  0.00  0.00    +0.000 C 
ATOM     26  C   UNL     1      -4.014  -1.151  -0.439  0.00  0.00    +0.000 C 
ATOM     27  C   UNL     1      -3.469  -0.978   2.002  0.00  0.00    +0.000 C 
ENDBRANCH  12  24
BRANCH  13  28
ATOM     28  O   UNL     1       2.615   2.155  -0.978  0.00  0.00    +0.000 OA
ATOM     29  H   UNL     1       1.942   2.312  -1.660  0.00  0.00    +0.000 HD
ENDBRANCH  13  28
BRANCH  16  30
ATOM     30  O   UNL     1      -3.135   2.419  -0.822  0.00  0.00    +0.000 OA
ATOM     31  H   UNL     1      -2.757   2.982  -0.126  0.00  0.00    +0.000 HD
ENDBRANCH  16  30
BRANCH  18  32
ATOM     32  O   UNL     1      -1.733  -1.890  -1.840  0.00  0.00    +0.000 OA
ATOM     33  H   UNL     1      -1.447  -1.071  -2.270  0.00  0.00    +0.000 HD
ENDBRANCH  18  32
TORSDOF 4
