REMARK  Name = 4893
REMARK  5 active torsions:
REMARK  status: ('A' for Active; 'I' for Inactive)
REMARK    1  A    between atoms: O_3  and  C_23
REMARK    2  A    between atoms: O_3  and  C_27
REMARK    3  A    between atoms: O_4  and  C_24
REMARK    4  A    between atoms: O_4  and  C_28
REMARK    5  A    between atoms: C_15  and  C_17
REMARK                            x       y       z     vdW  Elec       q    Type
REMARK                         _______ _______ _______ _____ _____    ______ ____
ROOT
ATOM      1  O   UNL     1      -5.715  -1.145  -1.628  0.00  0.00    +0.000 OA
ATOM      2  N   UNL     1      -0.897  -0.670  -0.259  0.00  0.00    +0.000 N 
ATOM      3  N   UNL     1      -3.774  -0.487  -0.556  0.00  0.00    +0.000 N 
ATOM      4  N   UNL     1       1.224   0.374  -0.284  0.00  0.00    +0.000 NA
ATOM      5  N   UNL     1       1.014  -1.974   0.214  0.00  0.00    +0.000 NA
ATOM      6  N   UNL     1       2.917  -3.276   0.686  0.00  0.00    +0.000 N 
ATOM      7  C   UNL     1      -1.537   0.603  -0.602  0.00  0.00    +0.000 C 
ATOM      8  C   UNL     1      -1.751  -1.850  -0.092  0.00  0.00    +0.000 C 
ATOM      9  C   UNL     1      -2.972   0.645  -0.077  0.00  0.00    +0.000 C 
ATOM     10  C   UNL     1      -3.038  -1.700  -0.902  0.00  0.00    +0.000 C 
ATOM     11  C   UNL     1       0.484  -0.761  -0.105  0.00  0.00    +0.000 A 
ATOM     12  C   UNL     1      -5.166  -0.448  -0.771  0.00  0.00    +0.000 C 
ATOM     13  C   UNL     1       2.558   0.294  -0.138  0.00  0.00    +0.000 A 
ATOM     14  C   UNL     1       3.188  -0.917   0.190  0.00  0.00    +0.000 A 
ATOM     15  C   UNL     1       2.353  -2.019   0.353  0.00  0.00    +0.000 A 
ATOM     16  C   UNL     1       3.361   1.419  -0.309  0.00  0.00    +0.000 A 
ATOM     17  C   UNL     1       4.584  -0.989   0.341  0.00  0.00    +0.000 A 
ATOM     18  C   UNL     1       4.750   1.356  -0.161  0.00  0.00    +0.000 A 
ATOM     19  C   UNL     1       5.362   0.151   0.164  0.00  0.00    +0.000 A 
ATOM     20  H   UNL     1       3.711  -3.297   1.313  0.00  0.00    +0.000 HD
ATOM     21  H   UNL     1       2.260  -4.044   0.763  0.00  0.00    +0.000 HD
ENDROOT
BRANCH  12  23
ATOM     22  O   UNL     1      -5.496   0.723   1.305  0.00  0.00    +0.000 OA
ATOM     23  C   UNL     1      -5.952   0.463   0.057  0.00  0.00    +0.000 A 
ATOM     24  C   UNL     1      -7.116   1.136  -0.198  0.00  0.00    +0.000 A 
ATOM     25  C   UNL     1      -7.403   1.868   0.979  0.00  0.00    +0.000 A 
ATOM     26  C   UNL     1      -6.388   1.583   1.863  0.00  0.00    +0.000 A 
ENDBRANCH  12  23
BRANCH  18  27
ATOM     27  O   UNL     1       5.493   2.485  -0.339  0.00  0.00    +0.000 OA
ATOM     28  C   UNL     1       5.965   2.748  -1.659  0.00  0.00    +0.000 C 
ENDBRANCH  18  27
BRANCH  19  29
ATOM     29  O   UNL     1       6.714   0.075   0.311  0.00  0.00    +0.000 OA
ATOM     30  C   UNL     1       7.239   0.311   1.617  0.00  0.00    +0.000 C 
ENDBRANCH  19  29
TORSDOF 3
