REMARK  Name = 5289373
REMARK  10 active torsions:
REMARK  status: ('A' for Active; 'I' for Inactive)
REMARK    1  A    between atoms: O_1  and  C_13
REMARK    2  A    between atoms: O_1  and  C_28
REMARK    3  A    between atoms: O_5  and  C_31
REMARK    4  A    between atoms: C_7  and  C_19
REMARK    5  A    between atoms: C_11  and  C_22
REMARK    6  A    between atoms: C_14  and  C_23
REMARK    7  A    between atoms: C_23  and  C_27
REMARK    8  A    between atoms: C_28  and  C_29
REMARK    9  A    between atoms: C_29  and  C_30
REMARK   10  A    between atoms: C_30  and  C_31
REMARK                            x       y       z     vdW  Elec       q    Type
REMARK                         _______ _______ _______ _____ _____    ______ ____
ROOT
ATOM      1  O   UNL     1       5.493  -3.153  -0.876  0.00  0.00    +0.000 OA
ATOM      2  C   UNL     1      -0.911   2.345   0.078  0.00  0.00    +0.000 C 
ATOM      3  C   UNL     1       0.407   2.561  -0.691  0.00  0.00    +0.000 C 
ATOM      4  C   UNL     1       1.588   1.815  -0.063  0.00  0.00    +0.000 C 
ATOM      5  C   UNL     1       1.292   0.276  -0.056  0.00  0.00    +0.000 C 
ATOM      6  C   UNL     1       2.502  -0.557   0.559  0.00  0.00    +0.000 C 
ATOM      7  C   UNL     1      -1.246   0.855  -0.002  0.00  0.00    +0.000 C 
ATOM      8  C   UNL     1      -0.114  -0.031   0.559  0.00  0.00    +0.000 C 
ATOM      9  C   UNL     1      -1.840   3.260  -0.751  0.00  0.00    +0.000 C 
ATOM     10  C   UNL     1       0.485   4.078  -0.837  0.00  0.00    +0.000 C 
ATOM     11  C   UNL     1       2.889   2.105  -0.821  0.00  0.00    +0.000 C 
ATOM     12  C   UNL     1      -0.978   4.504  -1.051  0.00  0.00    +0.000 C 
ATOM     13  C   UNL     1       3.821  -0.107  -0.092  0.00  0.00    +0.000 C 
ATOM     14  C   UNL     1      -0.861   2.795   1.560  0.00  0.00    +0.000 C 
ATOM     15  C   UNL     1       4.063   1.380  -0.183  0.00  0.00    +0.000 C 
ATOM     16  C   UNL     1       2.282  -2.076   0.290  0.00  0.00    +0.000 C 
ATOM     17  C   UNL     1       2.620  -0.342   2.086  0.00  0.00    +0.000 C 
ATOM     18  C   UNL     1       3.528  -2.928   0.472  0.00  0.00    +0.000 C 
ATOM     19  C   UNL     1       4.763  -0.944  -0.559  0.00  0.00    +0.000 C 
ATOM     20  C   UNL     1       4.647  -2.408  -0.387  0.00  0.00    +0.000 C 
ENDROOT
BRANCH   9  22
ATOM     21  O   UNL     1      -3.224   4.582   0.672  0.00  0.00    +0.000 OA
ATOM     22  C   UNL     1      -3.129   3.609  -0.075  0.00  0.00    +0.000 C 
ATOM     23  C   UNL     1      -4.305   2.714  -0.358  0.00  0.00    +0.000 C 
ENDBRANCH   9  22
BRANCH   8  24
ATOM     24  O   UNL     1      -0.489  -1.380   0.288  0.00  0.00    +0.000 OA
BRANCH  24  26
ATOM     25  O   UNL     1      -2.224  -1.336   1.807  0.00  0.00    +0.000 OA
ATOM     26  C   UNL     1      -1.700  -1.772   0.791  0.00  0.00    +0.000 C 
BRANCH  26  27
ATOM     27  C   UNL     1      -2.287  -2.835  -0.112  0.00  0.00    +0.000 C 
BRANCH  27  28
ATOM     28  C   UNL     1      -3.681  -3.280   0.314  0.00  0.00    +0.000 C 
BRANCH  28  30
ATOM     29  O   UNL     1      -3.650  -4.721  -1.625  0.00  0.00    +0.000 OA
ATOM     30  C   UNL     1      -4.248  -4.297  -0.645  0.00  0.00    +0.000 C 
BRANCH  30  31
ATOM     31  O   UNL     1      -5.489  -4.713  -0.291  0.00  0.00    +0.000 OA
ATOM     32  H   UNL     1      -5.843  -5.382  -0.916  0.00  0.00    +0.000 HD
ENDBRANCH  30  31
ENDBRANCH  28  30
ENDBRANCH  27  28
ENDBRANCH  26  27
ENDBRANCH  24  26
ENDBRANCH   8  24
TORSDOF 7
