REMARK  Name = 9854489
REMARK  10 active torsions:
REMARK  status: ('A' for Active; 'I' for Inactive)
REMARK    1  A    between atoms: S_1  and  C_26
REMARK    2  A    between atoms: S_1  and  C_33
REMARK    3  A    between atoms: O_5  and  C_15
REMARK    4  A    between atoms: O_5  and  C_31
REMARK    5  A    between atoms: O_6  and  C_19
REMARK    6  A    between atoms: C_11  and  C_22
REMARK    7  A    between atoms: C_15  and  C_26
REMARK    8  A    between atoms: C_18  and  C_25
REMARK    9  A    between atoms: C_20  and  C_27
REMARK   10  A    between atoms: C_31  and  C_34
REMARK                            x       y       z     vdW  Elec       q    Type
REMARK                         _______ _______ _______ _____ _____    ______ ____
ROOT
ATOM      1  F   UNL     1      -1.932  -0.636  -0.826  0.00  0.00    +0.000 F 
ATOM      2  F   UNL     1      -4.447  -1.490   2.604  0.00  0.00    +0.000 F 
ATOM      3  O   UNL     1      -6.520  -1.926  -1.819  0.00  0.00    +0.000 OA
ATOM      4  C   UNL     1       0.719   1.259   0.474  0.00  0.00    +0.000 C 
ATOM      5  C   UNL     1      -0.121   0.174   1.182  0.00  0.00    +0.000 C 
ATOM      6  C   UNL     1      -1.626   0.485   1.221  0.00  0.00    +0.000 C 
ATOM      7  C   UNL     1      -2.162   0.604  -0.247  0.00  0.00    +0.000 C 
ATOM      8  C   UNL     1       2.137   0.638   0.663  0.00  0.00    +0.000 C 
ATOM      9  C   UNL     1       0.621  -0.058   2.498  0.00  0.00    +0.000 C 
ATOM     10  C   UNL     1       0.216   1.363  -0.981  0.00  0.00    +0.000 C 
ATOM     11  C   UNL     1       2.119   0.126   2.136  0.00  0.00    +0.000 C 
ATOM     12  C   UNL     1      -1.308   1.589  -1.103  0.00  0.00    +0.000 C 
ATOM     13  C   UNL     1      -3.728   0.805  -0.300  0.00  0.00    +0.000 C 
ATOM     14  C   UNL     1      -2.376  -0.612   1.996  0.00  0.00    +0.000 C 
ATOM     15  C   UNL     1       0.639   2.646   1.169  0.00  0.00    +0.000 C 
ATOM     16  C   UNL     1      -3.886  -0.428   1.954  0.00  0.00    +0.000 C 
ATOM     17  C   UNL     1      -4.364  -0.321   0.527  0.00  0.00    +0.000 C 
ATOM     18  C   UNL     1       2.929  -1.143   2.385  0.00  0.00    +0.000 C 
ATOM     19  C   UNL     1      -4.206   2.156   0.279  0.00  0.00    +0.000 C 
ATOM     20  C   UNL     1      -4.209   0.769  -1.744  0.00  0.00    +0.000 C 
ATOM     21  C   UNL     1      -5.257  -1.192   0.031  0.00  0.00    +0.000 C 
ATOM     22  C   UNL     1      -5.095  -0.099  -2.241  0.00  0.00    +0.000 C 
ATOM     23  C   UNL     1      -5.692  -1.135  -1.379  0.00  0.00    +0.000 C 
ENDROOT
BRANCH  12  24
ATOM     24  O   UNL     1      -1.611   2.940  -0.787  0.00  0.00    +0.000 OA
ATOM     25  H   UNL     1      -2.164   3.293  -1.504  0.00  0.00    +0.000 HD
ENDBRANCH  12  24
BRANCH   8  27
ATOM     26  O   UNL     1       4.062   1.924   1.283  0.00  0.00    +0.000 OA
ATOM     27  C   UNL     1       3.262   1.595   0.416  0.00  0.00    +0.000 C 
BRANCH  27  28
ATOM     28  S   UNL     1       3.326   2.202  -1.239  0.00  0.00    +0.000 S 
BRANCH  28  30
ATOM     29  F   UNL     1       5.000   3.846  -2.352  0.00  0.00    +0.000 F 
ATOM     30  C   UNL     1       4.765   3.285  -1.135  0.00  0.00    +0.000 C 
ENDBRANCH  28  30
ENDBRANCH  27  28
ENDBRANCH   8  27
BRANCH   8  31
ATOM     31  O   UNL     1       2.416  -0.394  -0.275  0.00  0.00    +0.000 OA
BRANCH  31  33
ATOM     32  O   UNL     1       4.629  -0.497   0.315  0.00  0.00    +0.000 OA
ATOM     33  C   UNL     1       3.622  -1.032  -0.137  0.00  0.00    +0.000 C 
BRANCH  33  35
ATOM     34  O   UNL     1       4.669  -3.141  -0.508  0.00  0.00    +0.000 OA
ATOM     35  C   UNL     1       3.543  -2.420  -0.597  0.00  0.00    +0.000 A 
ATOM     36  C   UNL     1       2.504  -3.111  -1.107  0.00  0.00    +0.000 A 
ATOM     37  C   UNL     1       3.020  -4.402  -1.369  0.00  0.00    +0.000 A 
ATOM     38  C   UNL     1       4.341  -4.370  -0.988  0.00  0.00    +0.000 A 
ENDBRANCH  33  35
ENDBRANCH  31  33
ENDBRANCH   8  31
TORSDOF 7
