REMARK  Name = 444008
REMARK  4 active torsions:
REMARK  status: ('A' for Active; 'I' for Inactive)
REMARK    1  A    between atoms: O_1  and  C_7
REMARK    2  A    between atoms: C_4  and  C_14
REMARK    3  A    between atoms: C_7  and  C_19
REMARK    4  A    between atoms: C_11  and  C_17
REMARK                            x       y       z     vdW  Elec       q    Type
REMARK                         _______ _______ _______ _____ _____    ______ ____
ROOT
ATOM      1  O   UNL     1       5.980  -0.776   0.727  0.00  0.00    +0.000 OA
ATOM      2  C   UNL     1      -1.606   0.711   0.021  0.00  0.00    +0.000 C 
ATOM      3  C   UNL     1      -2.259  -0.561   0.617  0.00  0.00    +0.000 C 
ATOM      4  C   UNL     1      -0.103   0.786   0.308  0.00  0.00    +0.000 C 
ATOM      5  C   UNL     1       0.587  -0.440  -0.363  0.00  0.00    +0.000 C 
ATOM      6  C   UNL     1      -3.754  -0.301   0.251  0.00  0.00    +0.000 C 
ATOM      7  C   UNL     1      -1.581  -1.794  -0.014  0.00  0.00    +0.000 C 
ATOM      8  C   UNL     1      -2.511   1.838   0.510  0.00  0.00    +0.000 C 
ATOM      9  C   UNL     1      -0.047  -1.762   0.149  0.00  0.00    +0.000 C 
ATOM     10  C   UNL     1       0.577   2.105  -0.105  0.00  0.00    +0.000 C 
ATOM     11  C   UNL     1      -3.925   1.217   0.539  0.00  0.00    +0.000 C 
ATOM     12  C   UNL     1       2.108  -0.381  -0.235  0.00  0.00    +0.000 C 
ATOM     13  C   UNL     1      -2.114  -0.675   2.164  0.00  0.00    +0.000 C 
ATOM     14  C   UNL     1       2.040   2.061   0.374  0.00  0.00    +0.000 C 
ATOM     15  C   UNL     1       2.756   0.750   0.123  0.00  0.00    +0.000 C 
ATOM     16  C   UNL     1       0.497   2.418  -1.604  0.00  0.00    +0.000 C 
ATOM     17  C   UNL     1       2.865  -1.647  -0.577  0.00  0.00    +0.000 C 
ATOM     18  C   UNL     1       4.250   0.831   0.316  0.00  0.00    +0.000 C 
ATOM     19  C   UNL     1       4.339  -1.430  -0.886  0.00  0.00    +0.000 C 
ATOM     20  C   UNL     1       4.935  -0.505   0.139  0.00  0.00    +0.000 C 
ENDROOT
BRANCH   6  21
ATOM     21  O   UNL     1      -4.654  -1.074   1.032  0.00  0.00    +0.000 OA
ATOM     22  H   UNL     1      -4.423  -2.012   0.915  0.00  0.00    +0.000 HD
ENDBRANCH   6  21
BRANCH   6  23
ATOM     23  C   UNL     1      -4.064  -0.575  -1.166  0.00  0.00    +0.000 C 
ATOM     24  C   UNL     1      -4.316  -0.797  -2.319  0.00  0.00    +0.000 C 
ENDBRANCH   6  23
TORSDOF 2
