REMARK  Name = 11954369
REMARK  7 active torsions:
REMARK  status: ('A' for Active; 'I' for Inactive)
REMARK    1  A    between atoms: O_3  and  C_15
REMARK    2  A    between atoms: O_5  and  C_26
REMARK    3  A    between atoms: C_7  and  C_18
REMARK    4  A    between atoms: C_11  and  C_21
REMARK    5  A    between atoms: C_14  and  C_22
REMARK    6  A    between atoms: C_16  and  C_23
REMARK    7  A    between atoms: C_21  and  C_26
REMARK                            x       y       z     vdW  Elec       q    Type
REMARK                         _______ _______ _______ _____ _____    ______ ____
ROOT
ATOM      1  F   UNL     1       1.105  -0.309  -1.325  0.00  0.00    +0.000 F 
ATOM      2  F   UNL     1       3.318   2.988   0.432  0.00  0.00    +0.000 F 
ATOM      3  O   UNL     1       5.964  -0.581  -1.641  0.00  0.00    +0.000 OA
ATOM      4  C   UNL     1      -2.042  -0.156   0.216  0.00  0.00    +0.000 C 
ATOM      5  C   UNL     1      -1.076   1.005  -0.092  0.00  0.00    +0.000 C 
ATOM      6  C   UNL     1       0.299   0.839   0.570  0.00  0.00    +0.000 C 
ATOM      7  C   UNL     1       0.961  -0.481   0.043  0.00  0.00    +0.000 C 
ATOM      8  C   UNL     1      -3.281   0.347  -0.563  0.00  0.00    +0.000 C 
ATOM      9  C   UNL     1      -1.906   2.251   0.208  0.00  0.00    +0.000 C 
ATOM     10  C   UNL     1      -1.419  -1.445  -0.349  0.00  0.00    +0.000 C 
ATOM     11  C   UNL     1      -3.335   1.866  -0.247  0.00  0.00    +0.000 C 
ATOM     12  C   UNL     1       0.009  -1.709   0.181  0.00  0.00    +0.000 C 
ATOM     13  C   UNL     1       2.426  -0.673   0.603  0.00  0.00    +0.000 C 
ATOM     14  C   UNL     1       1.187   2.059   0.276  0.00  0.00    +0.000 C 
ATOM     15  C   UNL     1      -2.371  -0.317   1.723  0.00  0.00    +0.000 C 
ATOM     16  C   UNL     1       2.602   1.888   0.810  0.00  0.00    +0.000 C 
ATOM     17  C   UNL     1       3.211   0.610   0.290  0.00  0.00    +0.000 C 
ATOM     18  C   UNL     1      -3.789   2.675  -1.458  0.00  0.00    +0.000 C 
ATOM     19  C   UNL     1       2.492  -0.911   2.129  0.00  0.00    +0.000 C 
ATOM     20  C   UNL     1       3.078  -1.889  -0.041  0.00  0.00    +0.000 C 
ATOM     21  C   UNL     1       4.343   0.629  -0.431  0.00  0.00    +0.000 C 
ATOM     22  C   UNL     1       4.203  -1.872  -0.762  0.00  0.00    +0.000 C 
ATOM     23  C   UNL     1       4.922  -0.607  -0.995  0.00  0.00    +0.000 C 
ENDROOT
BRANCH  12  24
ATOM     24  O   UNL     1      -0.057  -2.169   1.522  0.00  0.00    +0.000 OA
ATOM     25  H   UNL     1      -0.617  -2.964   1.537  0.00  0.00    +0.000 HD
ENDBRANCH  12  24
BRANCH   8  27
ATOM     26  O   UNL     1      -5.266   0.042   0.718  0.00  0.00    +0.000 OA
ATOM     27  C   UNL     1      -4.553  -0.359  -0.201  0.00  0.00    +0.000 C 
BRANCH  27  28
ATOM     28  C   UNL     1      -4.901  -1.580  -1.025  0.00  0.00    +0.000 C 
BRANCH  28  29
ATOM     29  O   UNL     1      -6.122  -2.142  -0.593  0.00  0.00    +0.000 OA
ATOM     30  H   UNL     1      -6.311  -2.899  -1.173  0.00  0.00    +0.000 HD
ENDBRANCH  28  29
ENDBRANCH  27  28
ENDBRANCH   8  27
TORSDOF 4
