REMARK  Name = 127516
REMARK  7 active torsions:
REMARK  status: ('A' for Active; 'I' for Inactive)
REMARK    1  A    between atoms: O_2  and  C_11
REMARK    2  A    between atoms: O_3  and  C_14
REMARK    3  A    between atoms: O_5  and  C_25
REMARK    4  A    between atoms: C_7  and  C_18
REMARK    5  A    between atoms: C_11  and  C_21
REMARK    6  A    between atoms: C_15  and  C_22
REMARK    7  A    between atoms: C_21  and  C_25
REMARK                            x       y       z     vdW  Elec       q    Type
REMARK                         _______ _______ _______ _____ _____    ______ ____
ROOT
ATOM      1  F   UNL     1       1.216  -0.200  -1.282  0.00  0.00    +0.000 F 
ATOM      2  O   UNL     1       6.081  -0.446  -1.538  0.00  0.00    +0.000 OA
ATOM      3  C   UNL     1      -1.952   0.048   0.214  0.00  0.00    +0.000 C 
ATOM      4  C   UNL     1      -0.987   1.192  -0.166  0.00  0.00    +0.000 C 
ATOM      5  C   UNL     1       0.388   1.083   0.512  0.00  0.00    +0.000 C 
ATOM      6  C   UNL     1       1.062  -0.268   0.093  0.00  0.00    +0.000 C 
ATOM      7  C   UNL     1      -3.218   0.511  -0.560  0.00  0.00    +0.000 C 
ATOM      8  C   UNL     1      -1.304  -1.271  -0.252  0.00  0.00    +0.000 C 
ATOM      9  C   UNL     1      -1.820   2.450   0.066  0.00  0.00    +0.000 C 
ATOM     10  C   UNL     1       0.117  -1.487   0.319  0.00  0.00    +0.000 C 
ATOM     11  C   UNL     1       2.523  -0.407   0.677  0.00  0.00    +0.000 C 
ATOM     12  C   UNL     1      -3.247   2.043  -0.354  0.00  0.00    +0.000 C 
ATOM     13  C   UNL     1       1.270   2.286   0.130  0.00  0.00    +0.000 C 
ATOM     14  C   UNL     1      -2.271  -0.006   1.735  0.00  0.00    +0.000 C 
ATOM     15  C   UNL     1       2.684   2.166   0.687  0.00  0.00    +0.000 C 
ATOM     16  C   UNL     1       3.300   0.853   0.277  0.00  0.00    +0.000 C 
ATOM     17  C   UNL     1       2.583  -0.524   2.218  0.00  0.00    +0.000 C 
ATOM     18  C   UNL     1       3.191  -1.661   0.129  0.00  0.00    +0.000 C 
ATOM     19  C   UNL     1       4.437   0.834  -0.435  0.00  0.00    +0.000 C 
ATOM     20  C   UNL     1       4.322  -1.686  -0.582  0.00  0.00    +0.000 C 
ATOM     21  C   UNL     1       5.033  -0.435  -0.901  0.00  0.00    +0.000 C 
ENDROOT
BRANCH   7  22
ATOM     22  O   UNL     1      -3.103   0.223  -1.951  0.00  0.00    +0.000 OA
ATOM     23  H   UNL     1      -3.833   0.667  -2.416  0.00  0.00    +0.000 HD
ENDBRANCH   7  22
BRANCH  10  24
ATOM     24  O   UNL     1       0.012  -1.853   1.685  0.00  0.00    +0.000 OA
ATOM     25  H   UNL     1       0.108  -1.062   2.236  0.00  0.00    +0.000 HD
ENDBRANCH  10  24
BRANCH   7  27
ATOM     26  O   UNL     1      -5.434   0.479   0.313  0.00  0.00    +0.000 OA
ATOM     27  C   UNL     1      -4.489  -0.163  -0.143  0.00  0.00    +0.000 C 
BRANCH  27  28
ATOM     28  C   UNL     1      -4.538  -1.667  -0.315  0.00  0.00    +0.000 C 
BRANCH  28  29
ATOM     29  O   UNL     1      -5.858  -2.096  -0.575  0.00  0.00    +0.000 OA
ATOM     30  H   UNL     1      -6.122  -1.729  -1.436  0.00  0.00    +0.000 HD
ENDBRANCH  28  29
ENDBRANCH  27  28
ENDBRANCH   7  27
TORSDOF 5
