REMARK  Name = 
REMARK  6 active torsions:
REMARK  status: ('A' for Active; 'I' for Inactive)
REMARK    1  A    between atoms: C_1  and  O_2
REMARK    2  A    between atoms: O_2  and  C_3
REMARK    3  A    between atoms: C_7  and  C_8
REMARK    4  A    between atoms: N_9  and  C_10
REMARK    5  A    between atoms: C_13  and  C_14
REMARK    6  A    between atoms: C_17  and  O_18
REMARK                            x       y       z     vdW  Elec       q    Type
REMARK                         _______ _______ _______ _____ _____    ______ ____
ROOT
ATOM      1  C   UNL     1      -3.486   0.486  -0.707  0.00  0.00    +0.000 A 
ATOM      2  C   UNL     1      -3.715   1.611   0.052  0.00  0.00    +0.000 A 
ATOM      3  C   UNL     1      -2.714   2.046   0.898  0.00  0.00    +0.000 A 
ATOM      4  C   UNL     1      -1.630   1.265   1.219  0.00  0.00    +0.000 A 
ATOM      5  C   UNL     1      -1.522   0.056   0.567  0.00  0.00    +0.000 A 
ATOM      6  C   UNL     1      -2.256  -0.149  -0.595  0.00  0.00    +0.000 A 
ENDROOT
BRANCH   1   8
ATOM      7  C   UNL     1      -4.558  -1.442  -1.697  0.00  0.00    +0.000 C 
ATOM      8  O   UNL     1      -4.429  -0.026  -1.603  0.00  0.00    +0.000 OA
ENDBRANCH   1   8
BRANCH   5   9
ATOM      9  C   UNL     1      -0.363  -0.831   0.736  0.00  0.00    +0.000 C 
ATOM     10  N   UNL     1       0.764  -0.369   1.124  0.00  0.00    +0.000 NA
BRANCH  10  11
ATOM     11  C   UNL     1       2.019  -0.739   0.542  0.00  0.00    +0.000 A 
ATOM     12  C   UNL     1       3.080  -1.151   1.341  0.00  0.00    +0.000 A 
ATOM     13  C   UNL     1       4.368  -0.695   1.088  0.00  0.00    +0.000 A 
ATOM     14  C   UNL     1       4.655   0.091  -0.022  0.00  0.00    +0.000 A 
ATOM     15  C   UNL     1       5.642   1.209   0.119  0.00  0.00    +0.000 C 
ATOM     16  C   UNL     1       3.667   0.111  -0.998  0.00  0.00    +0.000 A 
ATOM     17  C   UNL     1       2.379  -0.343  -0.740  0.00  0.00    +0.000 A 
ENDBRANCH  10  11
ENDBRANCH   5   9
BRANCH   6  18
ATOM     18  O   UNL     1      -1.901  -1.130  -1.514  0.00  0.00    +0.000 OA
ATOM     19  H   UNL     1      -1.073  -1.561  -1.442  0.00  0.00    +0.000 HD
ENDBRANCH   6  18
TORSDOF 4
