REMARK  Name = 11284169
REMARK  10 active torsions:
REMARK  status: ('A' for Active; 'I' for Inactive)
REMARK    1  A    between atoms: O_4  and  C_18
REMARK    2  A    between atoms: O_5  and  C_24
REMARK    3  A    between atoms: C_9  and  C_13
REMARK    4  A    between atoms: C_16  and  C_21
REMARK    5  A    between atoms: C_17  and  C_22
REMARK    6  A    between atoms: C_19  and  C_25
REMARK    7  A    between atoms: C_20  and  C_28
REMARK    8  A    between atoms: C_20  and  C_29
REMARK    9  A    between atoms: C_25  and  C_32
REMARK   10  A    between atoms: C_37  and  C_38
REMARK                            x       y       z     vdW  Elec       q    Type
REMARK                         _______ _______ _______ _____ _____    ______ ____
ROOT
ATOM      1  O   UNL     1       1.232  -4.797  -1.283  0.00  0.00    +0.000 OA
ATOM      2  O   UNL     1       0.998  -1.184   0.729  0.00  0.00    +0.000 OA
ATOM      3  O   UNL     1      -3.751   1.528   1.544  0.00  0.00    +0.000 OA
ATOM      4  O   UNL     1       1.217  -0.375   2.884  0.00  0.00    +0.000 OA
ATOM      5  C   UNL     1       0.123  -4.304  -0.516  0.00  0.00    +0.000 C 
ATOM      6  C   UNL     1       1.563  -4.041  -0.109  0.00  0.00    +0.000 C 
ATOM      7  C   UNL     1      -0.747  -3.337  -1.259  0.00  0.00    +0.000 C 
ATOM      8  C   UNL     1       2.357  -2.806  -0.417  0.00  0.00    +0.000 C 
ATOM      9  C   UNL     1      -0.577  -5.432   0.173  0.00  0.00    +0.000 C 
ATOM     10  C   UNL     1      -1.961  -2.934  -0.416  0.00  0.00    +0.000 C 
ATOM     11  C   UNL     1      -2.783  -1.827  -1.091  0.00  0.00    +0.000 C 
ATOM     12  C   UNL     1       2.309  -1.789   0.735  0.00  0.00    +0.000 C 
ATOM     13  C   UNL     1      -3.896  -1.260  -0.176  0.00  0.00    +0.000 C 
ATOM     14  C   UNL     1      -4.555   0.029  -0.745  0.00  0.00    +0.000 C 
ATOM     15  C   UNL     1      -3.615   1.261  -0.841  0.00  0.00    +0.000 C 
ATOM     16  C   UNL     1      -1.643   2.312   0.646  0.00  0.00    +0.000 C 
ATOM     17  C   UNL     1      -4.979  -2.322   0.071  0.00  0.00    +0.000 C 
ATOM     18  C   UNL     1      -3.053   1.664   0.532  0.00  0.00    +0.000 C 
ATOM     19  C   UNL     1      -0.813   1.582   1.754  0.00  0.00    +0.000 C 
ATOM     20  C   UNL     1      -0.788   0.057   1.598  0.00  0.00    +0.000 C 
ATOM     21  C   UNL     1       0.588  -0.512   1.844  0.00  0.00    +0.000 C 
ATOM     22  C   UNL     1      -0.830   2.286  -0.662  0.00  0.00    +0.000 C 
ATOM     23  C   UNL     1      -1.858   3.789   1.034  0.00  0.00    +0.000 C 
ENDROOT
BRANCH  12  26
ATOM     24  S   UNL     1       6.387   2.493  -0.262  0.00  0.00    +0.000 S 
ATOM     25  N   UNL     1       4.468   1.902  -1.881  0.00  0.00    +0.000 NA
ATOM     26  C   UNL     1       3.371  -0.723   0.546  0.00  0.00    +0.000 A 
ATOM     27  C   UNL     1       3.363   0.059  -0.611  0.00  0.00    +0.000 A 
ATOM     28  C   UNL     1       4.340  -0.534   1.524  0.00  0.00    +0.000 A 
ATOM     29  C   UNL     1       4.349   1.053  -0.790  0.00  0.00    +0.000 A 
ATOM     30  C   UNL     1       5.327   0.443   1.372  0.00  0.00    +0.000 A 
ATOM     31  C   UNL     1       5.315   1.226   0.207  0.00  0.00    +0.000 A 
ATOM     32  C   UNL     1       5.499   2.696  -1.709  0.00  0.00    +0.000 A 
ATOM     33  C   UNL     1       5.924   3.732  -2.675  0.00  0.00    +0.000 C 
ENDBRANCH  12  26
BRANCH  14  34
ATOM     34  O   UNL     1      -5.077  -0.277  -2.041  0.00  0.00    +0.000 OA
ATOM     35  H   UNL     1      -4.332  -0.328  -2.663  0.00  0.00    +0.000 HD
ENDBRANCH  14  34
BRANCH  19  36
ATOM     36  O   UNL     1      -1.331   1.889   3.051  0.00  0.00    +0.000 OA
ATOM     37  H   UNL     1      -0.758   1.454   3.706  0.00  0.00    +0.000 HD
ENDBRANCH  19  36
BRANCH  15  38
ATOM     38  C   UNL     1      -4.345   2.475  -1.425  0.00  0.00    +0.000 C 
BRANCH  38  39
ATOM     39  C   UNL     1      -5.418   2.951  -0.499  0.00  0.00    +0.000 C 
ATOM     40  C   UNL     1      -6.711   3.029  -0.836  0.00  0.00    +0.000 C 
ENDBRANCH  38  39
ENDBRANCH  15  38
TORSDOF 5
