REMARK  Name = 90489020
REMARK  11 active torsions:
REMARK  status: ('A' for Active; 'I' for Inactive)
REMARK    1  A    between atoms: O_1  and  C_10
REMARK    2  A    between atoms: O_1  and  C_21
REMARK    3  A    between atoms: O_2  and  C_13
REMARK    4  A    between atoms: O_2  and  C_23
REMARK    5  A    between atoms: O_3  and  C_16
REMARK    6  A    between atoms: N_4  and  C_7
REMARK    7  A    between atoms: N_4  and  C_9
REMARK    8  A    between atoms: C_6  and  C_7
REMARK    9  A    between atoms: C_6  and  C_8
REMARK   10  A    between atoms: C_9  and  C_12
REMARK   11  A    between atoms: C_15  and  C_22
REMARK                            x       y       z     vdW  Elec       q    Type
REMARK                         _______ _______ _______ _____ _____    ______ ____
ROOT
ATOM      1  C   UNL     1      -0.289  -0.044   1.088  0.00  0.00    +0.000 C 
ENDROOT
BRANCH   1   2
ATOM      2  C   UNL     1      -1.725   0.028   0.684  0.00  0.00    +0.000 A 
ATOM      3  C   UNL     1      -2.274   1.221   0.214  0.00  0.00    +0.000 A 
ATOM      4  C   UNL     1      -2.519  -1.115   0.781  0.00  0.00    +0.000 A 
ATOM      5  C   UNL     1      -3.862  -1.065   0.408  0.00  0.00    +0.000 A 
ATOM      6  C   UNL     1      -3.617   1.271  -0.159  0.00  0.00    +0.000 A 
ATOM      7  C   UNL     1      -4.411   0.129  -0.062  0.00  0.00    +0.000 A 
BRANCH   3   8
ATOM      8  O   UNL     1      -1.512   2.346   0.114  0.00  0.00    +0.000 OA
ATOM      9  C   UNL     1      -2.155   3.521  -0.376  0.00  0.00    +0.000 C 
ENDBRANCH   3   8
BRANCH   5  10
ATOM     10  O   UNL     1      -4.616  -2.196   0.513  0.00  0.00    +0.000 OA
ATOM     11  C   UNL     1      -4.655  -3.054  -0.625  0.00  0.00    +0.000 C 
ENDBRANCH   5  10
BRANCH   7  13
ATOM     12  N   UNL     1      -6.902   0.259  -0.764  0.00  0.00    +0.000 NA
ATOM     13  C   UNL     1      -5.787   0.200  -0.450  0.00  0.00    +0.000 C 
ENDBRANCH   7  13
ENDBRANCH   1   2
BRANCH   1  14
ATOM     14  C   UNL     1       0.647  -0.122  -0.125  0.00  0.00    +0.000 C 
BRANCH  14  15
ATOM     15  N   UNL     1       2.045  -0.217   0.283  0.00  0.00    +0.000 NA
ATOM     16  H   UNL     1       2.171  -1.052   0.856  0.00  0.00    +0.000 HD
BRANCH  15  17
ATOM     17  C   UNL     1       2.921  -0.280  -0.877  0.00  0.00    +0.000 C 
BRANCH  17  18
ATOM     18  C   UNL     1       4.370  -0.371  -0.481  0.00  0.00    +0.000 A 
ATOM     19  C   UNL     1       5.058   0.754  -0.027  0.00  0.00    +0.000 A 
ATOM     20  C   UNL     1       5.026  -1.599  -0.574  0.00  0.00    +0.000 A 
ATOM     21  C   UNL     1       6.401   0.652   0.335  0.00  0.00    +0.000 A 
ATOM     22  C   UNL     1       6.369  -1.701  -0.211  0.00  0.00    +0.000 A 
ATOM     23  C   UNL     1       7.057  -0.576   0.243  0.00  0.00    +0.000 A 
BRANCH  19  24
ATOM     24  O   UNL     1       4.433   1.961   0.067  0.00  0.00    +0.000 OA
ATOM     25  H   UNL     1       5.066   2.621   0.400  0.00  0.00    +0.000 HD
ENDBRANCH  19  24
ENDBRANCH  17  18
ENDBRANCH  15  17
ENDBRANCH  14  15
ENDBRANCH   1  14
TORSDOF 9
