REMARK  Name = 259846
REMARK  9 active torsions:
REMARK  status: ('A' for Active; 'I' for Inactive)
REMARK    1  A    between atoms: O_1  and  C_24
REMARK    2  A    between atoms: C_2  and  C_19
REMARK    3  A    between atoms: C_3  and  C_20
REMARK    4  A    between atoms: C_6  and  C_23
REMARK    5  A    between atoms: C_8  and  C_26
REMARK    6  A    between atoms: C_16  and  C_27
REMARK    7  A    between atoms: C_17  and  C_28
REMARK    8  A    between atoms: C_17  and  C_29
REMARK    9  A    between atoms: C_27  and  C_30
REMARK                            x       y       z     vdW  Elec       q    Type
REMARK                         _______ _______ _______ _____ _____    ______ ____
ROOT
ATOM      1  C   UNL     1      -0.475  -1.033   0.242  0.00  0.00    +0.000 C 
ATOM      2  C   UNL     1       1.021  -1.059  -0.406  0.00  0.00    +0.000 C 
ATOM      3  C   UNL     1      -1.074   0.421   0.066  0.00  0.00    +0.000 C 
ATOM      4  C   UNL     1       1.904   0.042   0.318  0.00  0.00    +0.000 C 
ATOM      5  C   UNL     1      -2.628   0.617   0.366  0.00  0.00    +0.000 C 
ATOM      6  C   UNL     1       3.372  -0.029  -0.154  0.00  0.00    +0.000 C 
ATOM      7  C   UNL     1       3.989  -1.415   0.150  0.00  0.00    +0.000 C 
ATOM      8  C   UNL     1      -3.421  -0.497  -0.402  0.00  0.00    +0.000 C 
ATOM      9  C   UNL     1       1.710  -2.465  -0.271  0.00  0.00    +0.000 C 
ATOM     10  C   UNL     1      -1.416  -2.052  -0.456  0.00  0.00    +0.000 C 
ATOM     11  C   UNL     1      -0.161   1.482   0.720  0.00  0.00    +0.000 C 
ATOM     12  C   UNL     1       1.279   1.438   0.198  0.00  0.00    +0.000 C 
ATOM     13  C   UNL     1       3.212  -2.489  -0.623  0.00  0.00    +0.000 C 
ATOM     14  C   UNL     1      -2.894  -1.909  -0.080  0.00  0.00    +0.000 C 
ATOM     15  C   UNL     1       4.420   0.949   0.409  0.00  0.00    +0.000 C 
ATOM     16  C   UNL     1      -4.997  -0.372  -0.356  0.00  0.00    +0.000 C 
ATOM     17  C   UNL     1      -3.065   2.017  -0.199  0.00  0.00    +0.000 C 
ATOM     18  C   UNL     1      -0.405  -1.445   1.744  0.00  0.00    +0.000 C 
ATOM     19  C   UNL     1       0.967  -0.779  -1.948  0.00  0.00    +0.000 C 
ATOM     20  C   UNL     1       5.425  -1.187  -0.342  0.00  0.00    +0.000 C 
ATOM     21  C   UNL     1       5.768   0.238   0.129  0.00  0.00    +0.000 C 
ATOM     22  C   UNL     1      -2.925   0.621   1.883  0.00  0.00    +0.000 C 
ATOM     23  C   UNL     1      -5.452   1.122  -0.391  0.00  0.00    +0.000 C 
ATOM     24  C   UNL     1      -4.383   2.034  -0.981  0.00  0.00    +0.000 C 
ATOM     25  C   UNL     1       4.043  -1.797   1.651  0.00  0.00    +0.000 C 
ATOM     26  C   UNL     1      -5.559  -1.042  -1.644  0.00  0.00    +0.000 C 
ATOM     27  C   UNL     1      -5.638  -1.120   0.833  0.00  0.00    +0.000 C 
ENDROOT
BRANCH  15  28
ATOM     28  C   UNL     1       4.397   2.313  -0.203  0.00  0.00    +0.000 C 
ATOM     29  C   UNL     1       4.567   2.373  -1.692  0.00  0.00    +0.000 C 
ATOM     30  C   UNL     1       4.233   3.419   0.538  0.00  0.00    +0.000 C 
ENDBRANCH  15  28
BRANCH  23  31
ATOM     31  O   UNL     1      -5.813   1.602   0.902  0.00  0.00    +0.000 OA
ATOM     32  H   UNL     1      -6.104   2.525   0.805  0.00  0.00    +0.000 HD
ENDBRANCH  23  31
TORSDOF 2
