REMARK  Name = 58076382
REMARK  13 active torsions:
REMARK  status: ('A' for Active; 'I' for Inactive)
REMARK    1  A    between atoms: S_1  and  C_29
REMARK    2  A    between atoms: S_1  and  C_30
REMARK    3  A    between atoms: O_2  and  C_15
REMARK    4  A    between atoms: O_2  and  C_27
REMARK    5  A    between atoms: O_3  and  C_18
REMARK    6  A    between atoms: O_6  and  C_31
REMARK    7  A    between atoms: N_7  and  C_35
REMARK    8  A    between atoms: C_10  and  C_22
REMARK    9  A    between atoms: C_11  and  C_23
REMARK   10  A    between atoms: C_12  and  C_24
REMARK   11  A    between atoms: C_20  and  C_25
REMARK   12  A    between atoms: C_20  and  C_26
REMARK   13  A    between atoms: C_27  and  C_29
REMARK                            x       y       z     vdW  Elec       q    Type
REMARK                         _______ _______ _______ _____ _____    ______ ____
ROOT
ATOM      1  O   UNL     1      -4.320  -1.649   2.410  0.00  0.00    +0.000 OA
ATOM      2  C   UNL     1      -3.624   0.629  -0.230  0.00  0.00    +0.000 C 
ATOM      3  C   UNL     1      -2.985  -0.239   0.898  0.00  0.00    +0.000 C 
ATOM      4  C   UNL     1      -1.981  -1.339   0.424  0.00  0.00    +0.000 C 
ATOM      5  C   UNL     1      -2.671   1.719  -0.872  0.00  0.00    +0.000 C 
ATOM      6  C   UNL     1      -2.696  -2.231  -0.656  0.00  0.00    +0.000 C 
ATOM      7  C   UNL     1      -4.215  -0.307  -1.332  0.00  0.00    +0.000 C 
ATOM      8  C   UNL     1      -4.800   1.310   0.524  0.00  0.00    +0.000 C 
ATOM      9  C   UNL     1      -0.668  -0.677  -0.157  0.00  0.00    +0.000 C 
ATOM     10  C   UNL     1      -3.260  -1.392  -1.816  0.00  0.00    +0.000 C 
ATOM     11  C   UNL     1      -4.240  -0.686   1.658  0.00  0.00    +0.000 C 
ATOM     12  C   UNL     1      -1.707   2.424   0.151  0.00  0.00    +0.000 C 
ATOM     13  C   UNL     1      -5.401   0.246   1.434  0.00  0.00    +0.000 C 
ATOM     14  C   UNL     1      -0.219   1.913   0.177  0.00  0.00    +0.000 C 
ATOM     15  C   UNL     1      -0.051   0.452   0.699  0.00  0.00    +0.000 C 
ATOM     16  C   UNL     1      -1.579  -2.228   1.637  0.00  0.00    +0.000 C 
ATOM     17  C   UNL     1      -3.469   2.757  -1.699  0.00  0.00    +0.000 C 
ATOM     18  C   UNL     1      -1.857  -3.377  -1.235  0.00  0.00    +0.000 C 
ATOM     19  C   UNL     1       0.613   2.811   1.131  0.00  0.00    +0.000 C 
ENDROOT
BRANCH  12  20
ATOM     20  O   UNL     1      -1.692   3.838  -0.114  0.00  0.00    +0.000 OA
ATOM     21  H   UNL     1      -1.212   3.991  -0.945  0.00  0.00    +0.000 HD
ENDBRANCH  12  20
BRANCH  14  22
ATOM     22  C   UNL     1       0.425   2.046  -1.187  0.00  0.00    +0.000 C 
ATOM     23  C   UNL     1       1.702   2.393  -1.381  0.00  0.00    +0.000 C 
ENDBRANCH  14  22
BRANCH   9  24
ATOM     24  O   UNL     1       0.348  -1.682  -0.313  0.00  0.00    +0.000 OA
BRANCH  24  26
ATOM     25  O   UNL     1       1.174  -0.550  -2.142  0.00  0.00    +0.000 OA
ATOM     26  C   UNL     1       1.207  -1.487  -1.357  0.00  0.00    +0.000 C 
BRANCH  26  27
ATOM     27  C   UNL     1       2.195  -2.626  -1.367  0.00  0.00    +0.000 C 
BRANCH  27  28
ATOM     28  S   UNL     1       3.137  -2.695   0.175  0.00  0.00    +0.000 S 
BRANCH  28  29
ATOM     29  C   UNL     1       3.912  -1.037   0.095  0.00  0.00    +0.000 C 
ATOM     30  C   UNL     1       4.311  -0.564   1.500  0.00  0.00    +0.000 C 
ATOM     31  C   UNL     1       5.118  -1.095  -0.849  0.00  0.00    +0.000 C 
ATOM     32  C   UNL     1       5.072   0.766   1.442  0.00  0.00    +0.000 C 
ATOM     33  C   UNL     1       5.857   0.242  -0.895  0.00  0.00    +0.000 C 
ATOM     34  C   UNL     1       6.281   0.690   0.507  0.00  0.00    +0.000 C 
BRANCH  34  35
ATOM     35  N   UNL     1       6.945   1.992   0.451  0.00  0.00    +0.000 NA
ATOM     36  H   UNL     1       7.776   1.928  -0.135  0.00  0.00    +0.000 HD
ATOM     37  H   UNL     1       7.268   2.253   1.382  0.00  0.00    +0.000 HD
ENDBRANCH  34  35
BRANCH  30  38
ATOM     38  O   UNL     1       3.138  -0.371   2.288  0.00  0.00    +0.000 OA
ATOM     39  H   UNL     1       3.422  -0.080   3.171  0.00  0.00    +0.000 HD
ENDBRANCH  30  38
ENDBRANCH  28  29
ENDBRANCH  27  28
ENDBRANCH  26  27
ENDBRANCH  24  26
ENDBRANCH   9  24
TORSDOF 9
