REMARK  Name = 6473881
REMARK  2 active torsions:
REMARK  status: ('A' for Active; 'I' for Inactive)
REMARK    1  A    between atoms: C_4  and  C_9
REMARK    2  A    between atoms: C_16  and  C_18
REMARK                            x       y       z     vdW  Elec       q    Type
REMARK                         _______ _______ _______ _____ _____    ______ ____
ROOT
ATOM      1  O   UNL     1       1.011   1.360  -1.222  0.00  0.00    +0.000 OA
ATOM      2  O   UNL     1      -1.654   0.798   1.275  0.00  0.00    +0.000 OA
ATOM      3  O   UNL     1      -3.935   0.908   1.020  0.00  0.00    +0.000 OA
ATOM      4  C   UNL     1       1.627   1.888  -0.047  0.00  0.00    +0.000 C 
ATOM      5  C   UNL     1       0.123   1.603  -0.125  0.00  0.00    +0.000 C 
ATOM      6  C   UNL     1      -0.525   0.378   0.471  0.00  0.00    +0.000 C 
ATOM      7  C   UNL     1      -1.082  -0.625  -0.551  0.00  0.00    +0.000 C 
ATOM      8  C   UNL     1       2.622   1.000   0.654  0.00  0.00    +0.000 C 
ATOM      9  C   UNL     1       2.053   3.307  -0.226  0.00  0.00    +0.000 C 
ATOM     10  C   UNL     1      -0.938  -2.102  -0.099  0.00  0.00    +0.000 C 
ATOM     11  C   UNL     1       3.255  -0.125  -0.183  0.00  0.00    +0.000 C 
ATOM     12  C   UNL     1      -2.514  -0.209  -0.576  0.00  0.00    +0.000 C 
ATOM     13  C   UNL     1       0.407  -2.760  -0.477  0.00  0.00    +0.000 C 
ATOM     14  C   UNL     1      -2.833   0.559   0.638  0.00  0.00    +0.000 C 
ATOM     15  C   UNL     1       2.260  -1.146  -0.652  0.00  0.00    +0.000 C 
ATOM     16  C   UNL     1       1.610  -2.053   0.102  0.00  0.00    +0.000 C 
ATOM     17  C   UNL     1      -3.414  -0.418  -1.539  0.00  0.00    +0.000 C 
ATOM     18  C   UNL     1       1.927  -2.362   1.537  0.00  0.00    +0.000 C 
ENDROOT
TORSDOF 0
