REMARK  Name = 20055352
REMARK  6 active torsions:
REMARK  status: ('A' for Active; 'I' for Inactive)
REMARK    1  A    between atoms: O_4  and  C_12
REMARK    2  A    between atoms: C_8  and  C_20
REMARK    3  A    between atoms: C_11  and  C_22
REMARK    4  A    between atoms: C_12  and  C_23
REMARK    5  A    between atoms: C_18  and  C_26
REMARK    6  A    between atoms: C_23  and  C_28
REMARK                            x       y       z     vdW  Elec       q    Type
REMARK                         _______ _______ _______ _____ _____    ______ ____
ROOT
ATOM      1  O   UNL     1       5.495  -1.836  -1.123  0.00  0.00    +0.000 OA
ATOM      2  C   UNL     1      -1.652   0.719  -0.285  0.00  0.00    +0.000 C 
ATOM      3  C   UNL     1      -2.712  -0.307   0.181  0.00  0.00    +0.000 C 
ATOM      4  C   UNL     1      -0.269   0.480   0.335  0.00  0.00    +0.000 C 
ATOM      5  C   UNL     1       0.225  -0.942  -0.060  0.00  0.00    +0.000 C 
ATOM      6  C   UNL     1       1.666  -1.267   0.495  0.00  0.00    +0.000 C 
ATOM      7  C   UNL     1      -3.960   0.269  -0.535  0.00  0.00    +0.000 C 
ATOM      8  C   UNL     1      -2.238  -1.696  -0.277  0.00  0.00    +0.000 C 
ATOM      9  C   UNL     1      -0.836  -2.029   0.264  0.00  0.00    +0.000 C 
ATOM     10  C   UNL     1      -2.335   2.064  -0.054  0.00  0.00    +0.000 C 
ATOM     11  C   UNL     1       0.742   1.536  -0.131  0.00  0.00    +0.000 C 
ATOM     12  C   UNL     1      -3.822   1.798  -0.366  0.00  0.00    +0.000 C 
ATOM     13  C   UNL     1       2.129   1.294   0.479  0.00  0.00    +0.000 C 
ATOM     14  C   UNL     1       2.632  -0.113   0.145  0.00  0.00    +0.000 C 
ATOM     15  C   UNL     1      -2.929  -0.311   1.720  0.00  0.00    +0.000 C 
ATOM     16  C   UNL     1       2.141  -2.596  -0.165  0.00  0.00    +0.000 C 
ATOM     17  C   UNL     1       1.666  -1.452   2.030  0.00  0.00    +0.000 C 
ATOM     18  C   UNL     1       3.630  -2.850  -0.022  0.00  0.00    +0.000 C 
ATOM     19  C   UNL     1       3.849  -0.326  -0.389  0.00  0.00    +0.000 C 
ATOM     20  C   UNL     1       4.400  -1.688  -0.583  0.00  0.00    +0.000 C 
ENDROOT
BRANCH  13  24
ATOM     21  F   UNL     1       4.238   2.315   0.689  0.00  0.00    +0.000 F 
ATOM     22  F   UNL     1       3.226   2.469  -1.239  0.00  0.00    +0.000 F 
ATOM     23  F   UNL     1       2.500   3.617   0.470  0.00  0.00    +0.000 F 
ATOM     24  C   UNL     1       3.051   2.458   0.088  0.00  0.00    +0.000 C 
ENDBRANCH  13  24
BRANCH   7  26
ATOM     25  O   UNL     1      -6.142   0.446   0.455  0.00  0.00    +0.000 OA
ATOM     26  C   UNL     1      -5.270  -0.261  -0.035  0.00  0.00    +0.000 C 
ATOM     27  C   UNL     1      -5.472  -1.731  -0.167  0.00  0.00    +0.000 C 
ENDBRANCH   7  26
BRANCH   7  28
ATOM     28  O   UNL     1      -3.952  -0.058  -1.922  0.00  0.00    +0.000 OA
ATOM     29  H   UNL     1      -4.655   0.452  -2.360  0.00  0.00    +0.000 HD
ENDBRANCH   7  28
TORSDOF 3
