REMARK  Name = 
REMARK  22 active torsions:
REMARK  status: ('A' for Active; 'I' for Inactive)
REMARK    1  A    between atoms: C_1  and  C_2
REMARK    2  A    between atoms: C_2  and  C_3
REMARK    3  A    between atoms: C_7  and  C_8
REMARK    4  A    between atoms: C_16  and  C_17
REMARK    5  A    between atoms: C_16  and  C_18
REMARK    6  A    between atoms: C_18  and  O_20
REMARK    7  A    between atoms: C_23  and  C_24
REMARK    8  A    between atoms: C_27  and  C_28
REMARK    9  A    between atoms: C_29  and  C_30
REMARK   10  A    between atoms: C_33  and  O_34
REMARK   11  A    between atoms: O_34  and  C_35
REMARK   12  A    between atoms: C_37  and  C_38
REMARK   13  A    between atoms: C_38  and  O_40
REMARK   14  A    between atoms: C_41  and  O_42
REMARK   15  A    between atoms: C_43  and  O_44
REMARK   16  A    between atoms: C_45  and  O_46
REMARK   17  A    between atoms: O_46  and  C_47
REMARK   18  A    between atoms: C_49  and  C_50
REMARK   19  A    between atoms: C_50  and  O_52
REMARK   20  A    between atoms: C_53  and  O_54
REMARK   21  A    between atoms: C_55  and  O_56
REMARK   22  A    between atoms: C_57  and  O_58
REMARK                            x       y       z     vdW  Elec       q    Type
REMARK                         _______ _______ _______ _____ _____    ______ ____
ROOT
ATOM      1  C   UNL     1      -0.290  -0.922   1.069  0.00  0.00    +0.000 C 
ATOM      2  C   UNL     1      -0.192  -1.444   1.230  0.00  0.00    +0.000 C 
ATOM      3  C   UNL     1      -0.105  -2.109   2.603  0.00  0.00    +0.000 C 
ATOM      4  C   UNL     1       1.147  -2.143   0.612  0.00  0.00    +0.000 C 
ATOM      5  C   UNL     1       2.139  -1.398   1.672  0.00  0.00    +0.000 C 
ATOM      6  C   UNL     1       3.386  -2.083   1.099  0.00  0.00    +0.000 C 
ATOM      7  C   UNL     1       3.736  -1.207  -0.005  0.00  0.00    +0.000 C 
ATOM      8  C   UNL     1       3.693   0.192   0.520  0.00  0.00    +0.000 C 
ATOM      9  C   UNL     1       2.711  -1.411  -1.259  0.00  0.00    +0.000 C 
ATOM     10  C   UNL     1       3.052   0.045  -1.861  0.00  0.00    +0.000 C 
ATOM     11  O   UNL     1       2.437   0.150  -2.962  0.00  0.00    +0.000 OA
ATOM     12  C   UNL     1       4.498   0.347  -1.989  0.00  0.00    +0.000 C 
ATOM     13  C   UNL     1       5.451  -0.335  -1.380  0.00  0.00    +0.000 C 
ATOM     14  C   UNL     1       6.250   0.386  -0.180  0.00  0.00    +0.000 C 
ATOM     15  C   UNL     1       6.611   1.694  -1.092  0.00  0.00    +0.000 C 
ATOM     16  C   UNL     1       7.737   2.392  -0.388  0.00  0.00    +0.000 C 
ATOM     17  C   UNL     1       7.815   3.782  -0.984  0.00  0.00    +0.000 C 
ATOM     18  C   UNL     1       8.974   1.561  -0.691  0.00  0.00    +0.000 C 
ATOM     19  C   UNL     1       8.536   0.257  -1.335  0.00  0.00    +0.000 C 
ATOM     20  C   UNL     1       7.642  -0.431  -0.423  0.00  0.00    +0.000 C 
ATOM     21  C   UNL     1       8.248  -0.622   0.974  0.00  0.00    +0.000 C 
ATOM     22  C   UNL     1       7.288  -1.857  -0.754  0.00  0.00    +0.000 C 
ATOM     23  C   UNL     1       6.081  -2.139   0.146  0.00  0.00    +0.000 C 
ATOM     24  C   UNL     1       4.964  -1.609  -0.752  0.00  0.00    +0.000 C 
ATOM     25  C   UNL     1       4.771  -2.647  -1.786  0.00  0.00    +0.000 C 
ATOM     26  C   UNL     1       1.312  -1.010  -0.536  0.00  0.00    +0.000 C 
ATOM     27  C   UNL     1       1.201   0.321  -0.096  0.00  0.00    +0.000 C 
ATOM     28  C   UNL     1       0.222  -1.593  -1.404  0.00  0.00    +0.000 C 
ATOM     29  C   UNL     1      -1.109  -1.597  -0.976  0.00  0.00    +0.000 C 
ATOM     30  C   UNL     1      -1.324  -2.380   0.453  0.00  0.00    +0.000 C 
ENDROOT
BRANCH  16  31
ATOM     31  C   UNL     1       7.559   2.553   1.061  0.00  0.00    +0.000 C 
ATOM     32  O   UNL     1       8.598   2.887   1.710  0.00  0.00    +0.000 OA
BRANCH  31  33
ATOM     33  O   UNL     1       6.370   2.596   1.738  0.00  0.00    +0.000 OA
ATOM     34  H   UNL     1       5.575   2.359   1.303  0.00  0.00    +0.000 HD
ENDBRANCH  31  33
ENDBRANCH  16  31
BRANCH  30  35
ATOM     35  O   UNL     1      -2.426  -1.526   0.997  0.00  0.00    +0.000 OA
BRANCH  35  36
ATOM     36  C   UNL     1      -2.888  -0.658  -0.152  0.00  0.00    +0.000 C 
ATOM     37  O   UNL     1      -3.811  -1.637  -0.829  0.00  0.00    +0.000 OA
ATOM     38  C   UNL     1      -4.230  -2.753   0.061  0.00  0.00    +0.000 C 
ATOM     39  C   UNL     1      -5.301  -1.988   1.164  0.00  0.00    +0.000 C 
ATOM     40  C   UNL     1      -4.157  -1.000   1.942  0.00  0.00    +0.000 C 
ATOM     41  C   UNL     1      -4.367  -0.087   0.532  0.00  0.00    +0.000 C 
BRANCH  38  42
ATOM     42  C   UNL     1      -5.473  -3.067  -0.947  0.00  0.00    +0.000 C 
ATOM     43  O   UNL     1      -5.323  -2.889  -2.182  0.00  0.00    +0.000 OA
BRANCH  42  44
ATOM     44  O   UNL     1      -6.750  -3.133  -0.411  0.00  0.00    +0.000 OA
ATOM     45  H   UNL     1      -6.865  -3.265   0.510  0.00  0.00    +0.000 HD
ENDBRANCH  42  44
ENDBRANCH  38  42
BRANCH  39  46
ATOM     46  O   UNL     1      -5.099  -3.050   2.210  0.00  0.00    +0.000 OA
ATOM     47  H   UNL     1      -4.150  -3.209   2.331  0.00  0.00    +0.000 HD
ENDBRANCH  39  46
BRANCH  40  48
ATOM     48  O   UNL     1      -5.237  -0.300   2.703  0.00  0.00    +0.000 OA
ATOM     49  H   UNL     1      -5.996  -0.146   2.119  0.00  0.00    +0.000 HD
ENDBRANCH  40  48
BRANCH  41  50
ATOM     50  O   UNL     1      -3.872   1.227   1.044  0.00  0.00    +0.000 OA
BRANCH  50  51
ATOM     51  C   UNL     1      -5.349   1.641   1.143  0.00  0.00    +0.000 C 
ATOM     52  O   UNL     1      -5.608   1.528  -0.362  0.00  0.00    +0.000 OA
ATOM     53  C   UNL     1      -7.111   1.649  -0.203  0.00  0.00    +0.000 C 
ATOM     54  C   UNL     1      -6.967   3.337  -0.447  0.00  0.00    +0.000 C 
ATOM     55  C   UNL     1      -6.715   3.615   1.215  0.00  0.00    +0.000 C 
ATOM     56  C   UNL     1      -5.043   3.327   1.029  0.00  0.00    +0.000 C 
BRANCH  53  57
ATOM     57  C   UNL     1      -7.444   1.406  -1.765  0.00  0.00    +0.000 C 
ATOM     58  O   UNL     1      -8.525   2.036  -2.043  0.00  0.00    +0.000 OA
BRANCH  57  59
ATOM     59  O   UNL     1      -7.872   0.059  -1.918  0.00  0.00    +0.000 OA
ATOM     60  H   UNL     1      -7.269  -0.643  -1.772  0.00  0.00    +0.000 HD
ENDBRANCH  57  59
ENDBRANCH  53  57
BRANCH  54  61
ATOM     61  O   UNL     1      -8.444   3.539  -0.302  0.00  0.00    +0.000 OA
ATOM     62  H   UNL     1      -8.764   3.047   0.470  0.00  0.00    +0.000 HD
ENDBRANCH  54  61
BRANCH  55  63
ATOM     63  O   UNL     1      -6.586   5.092   0.981  0.00  0.00    +0.000 OA
ATOM     64  H   UNL     1      -6.012   5.249   0.215  0.00  0.00    +0.000 HD
ENDBRANCH  55  63
BRANCH  56  65
ATOM     65  O   UNL     1      -4.807   3.403   2.504  0.00  0.00    +0.000 OA
ATOM     66  H   UNL     1      -5.494   2.899   2.968  0.00  0.00    +0.000 HD
ENDBRANCH  56  65
ENDBRANCH  50  51
ENDBRANCH  41  50
ENDBRANCH  35  36
ENDBRANCH  30  35
TORSDOF 15
