REMARK  Name = 3086007
REMARK  14 active torsions:
REMARK  status: ('A' for Active; 'I' for Inactive)
REMARK    1  A    between atoms: O_1  and  C_21
REMARK    2  A    between atoms: O_2  and  C_22
REMARK    3  A    between atoms: C_3  and  C_18
REMARK    4  A    between atoms: C_4  and  C_19
REMARK    5  A    between atoms: C_6  and  C_20
REMARK    6  A    between atoms: C_11  and  C_22
REMARK    7  A    between atoms: C_15  and  C_24
REMARK    8  A    between atoms: C_15  and  C_25
REMARK    9  A    between atoms: C_22  and  C_26
REMARK   10  A    between atoms: C_22  and  C_27
REMARK   11  A    between atoms: C_26  and  C_28
REMARK   12  A    between atoms: C_28  and  C_29
REMARK   13  A    between atoms: C_30  and  C_31
REMARK   14  A    between atoms: C_30  and  C_32
REMARK                            x       y       z     vdW  Elec       q    Type
REMARK                         _______ _______ _______ _____ _____    ______ ____
ROOT
ATOM      1  C   UNL     1       1.177  -0.887  -0.318  0.00  0.00    +0.000 C 
ATOM      2  C   UNL     1      -0.243  -0.976   0.419  0.00  0.00    +0.000 C 
ATOM      3  C   UNL     1       1.864   0.480   0.117  0.00  0.00    +0.000 C 
ATOM      4  C   UNL     1       3.386   0.665  -0.318  0.00  0.00    +0.000 C 
ATOM      5  C   UNL     1      -1.095   0.257   0.019  0.00  0.00    +0.000 C 
ATOM      6  C   UNL     1       4.172  -0.604   0.195  0.00  0.00    +0.000 C 
ATOM      7  C   UNL     1       2.097  -2.067   0.087  0.00  0.00    +0.000 C 
ATOM      8  C   UNL     1       0.947   1.707  -0.152  0.00  0.00    +0.000 C 
ATOM      9  C   UNL     1      -2.502  -0.055   0.544  0.00  0.00    +0.000 C 
ATOM     10  C   UNL     1      -1.215  -2.098  -0.014  0.00  0.00    +0.000 C 
ATOM     11  C   UNL     1      -0.458   1.566   0.457  0.00  0.00    +0.000 C 
ATOM     12  C   UNL     1       3.559  -1.912  -0.351  0.00  0.00    +0.000 C 
ATOM     13  C   UNL     1       5.742  -0.525   0.111  0.00  0.00    +0.000 C 
ATOM     14  C   UNL     1      -2.621  -1.585   0.368  0.00  0.00    +0.000 C 
ATOM     15  C   UNL     1       3.973   1.912   0.414  0.00  0.00    +0.000 C 
ATOM     16  C   UNL     1       0.992  -0.973  -1.861  0.00  0.00    +0.000 C 
ATOM     17  C   UNL     1      -0.090  -1.108   1.971  0.00  0.00    +0.000 C 
ATOM     18  C   UNL     1       3.525   0.913  -1.839  0.00  0.00    +0.000 C 
ATOM     19  C   UNL     1       6.205   0.779   0.825  0.00  0.00    +0.000 C 
ATOM     20  C   UNL     1       5.493   2.034   0.333  0.00  0.00    +0.000 C 
ATOM     21  C   UNL     1       6.296  -0.610  -1.325  0.00  0.00    +0.000 C 
ATOM     22  C   UNL     1       6.373  -1.716   0.884  0.00  0.00    +0.000 C 
ENDROOT
BRANCH  19  23
ATOM     23  O   UNL     1       7.613   0.961   0.669  0.00  0.00    +0.000 OA
ATOM     24  H   UNL     1       8.063   0.353   1.280  0.00  0.00    +0.000 HD
ENDBRANCH  19  23
BRANCH   9  25
ATOM     25  C   UNL     1      -3.602   0.703  -0.189  0.00  0.00    +0.000 C 
ATOM     26  C   UNL     1      -3.534   0.401  -1.690  0.00  0.00    +0.000 C 
BRANCH  25  27
ATOM     27  O   UNL     1      -3.361   2.105  -0.029  0.00  0.00    +0.000 OA
ATOM     28  H   UNL     1      -3.933   2.589  -0.648  0.00  0.00    +0.000 HD
ENDBRANCH  25  27
BRANCH  25  29
ATOM     29  C   UNL     1      -4.983   0.354   0.413  0.00  0.00    +0.000 C 
BRANCH  29  30
ATOM     30  C   UNL     1      -6.162   1.123  -0.197  0.00  0.00    +0.000 C 
BRANCH  30  31
ATOM     31  C   UNL     1      -7.449   0.779   0.500  0.00  0.00    +0.000 C 
ATOM     32  C   UNL     1      -8.348  -0.160   0.148  0.00  0.00    +0.000 C 
ATOM     33  C   UNL     1      -9.621  -0.456   0.889  0.00  0.00    +0.000 C 
ATOM     34  C   UNL     1      -8.130  -1.005  -1.079  0.00  0.00    +0.000 C 
ENDBRANCH  30  31
ENDBRANCH  29  30
ENDBRANCH  25  29
ENDBRANCH   9  25
TORSDOF 6
