REMARK  Name = 16923
REMARK  13 active torsions:
REMARK  status: ('A' for Active; 'I' for Inactive)
REMARK    1  A    between atoms: O_1  and  C_13
REMARK    2  A    between atoms: O_2  and  C_15
REMARK    3  A    between atoms: O_4  and  C_28
REMARK    4  A    between atoms: O_4  and  C_31
REMARK    5  A    between atoms: O_7  and  C_34
REMARK    6  A    between atoms: C_9  and  C_21
REMARK    7  A    between atoms: C_13  and  C_23
REMARK    8  A    between atoms: C_17  and  C_24
REMARK    9  A    between atoms: C_20  and  C_26
REMARK   10  A    between atoms: C_23  and  C_28
REMARK   11  A    between atoms: C_31  and  C_32
REMARK   12  A    between atoms: C_32  and  C_33
REMARK   13  A    between atoms: C_33  and  C_34
REMARK                            x       y       z     vdW  Elec       q    Type
REMARK                         _______ _______ _______ _____ _____    ______ ____
ROOT
ATOM      1  O   UNL     1      -7.209  -2.634   1.592  0.00  0.00    +0.000 OA
ATOM      2  C   UNL     1      -0.054   0.947  -0.222  0.00  0.00    +0.000 C 
ATOM      3  C   UNL     1      -1.348   1.612   0.298  0.00  0.00    +0.000 C 
ATOM      4  C   UNL     1      -2.622   1.099  -0.391  0.00  0.00    +0.000 C 
ATOM      5  C   UNL     1      -2.749  -0.441  -0.131  0.00  0.00    +0.000 C 
ATOM      6  C   UNL     1       0.990   1.729   0.621  0.00  0.00    +0.000 C 
ATOM      7  C   UNL     1      -0.164  -0.564   0.067  0.00  0.00    +0.000 C 
ATOM      8  C   UNL     1      -1.442  -1.204  -0.518  0.00  0.00    +0.000 C 
ATOM      9  C   UNL     1      -1.026   3.103   0.239  0.00  0.00    +0.000 C 
ATOM     10  C   UNL     1      -4.096  -1.033  -0.708  0.00  0.00    +0.000 C 
ATOM     11  C   UNL     1       0.468   3.184   0.617  0.00  0.00    +0.000 C 
ATOM     12  C   UNL     1      -3.857   1.856   0.129  0.00  0.00    +0.000 C 
ATOM     13  C   UNL     1      -5.170   1.305  -0.443  0.00  0.00    +0.000 C 
ATOM     14  C   UNL     1       0.202   1.200  -1.733  0.00  0.00    +0.000 C 
ATOM     15  C   UNL     1      -5.255  -0.189  -0.139  0.00  0.00    +0.000 C 
ATOM     16  C   UNL     1      -4.185  -1.008  -2.251  0.00  0.00    +0.000 C 
ATOM     17  C   UNL     1      -4.221  -2.497  -0.310  0.00  0.00    +0.000 C 
ATOM     18  C   UNL     1      -6.338   2.168   0.054  0.00  0.00    +0.000 C 
ATOM     19  C   UNL     1      -6.243  -0.725   0.598  0.00  0.00    +0.000 C 
ATOM     20  C   UNL     1      -5.205  -3.021   0.424  0.00  0.00    +0.000 C 
ATOM     21  C   UNL     1      -6.293  -2.166   0.924  0.00  0.00    +0.000 C 
ENDROOT
BRANCH   6  22
ATOM     22  O   UNL     1       1.038   1.249   1.961  0.00  0.00    +0.000 OA
ATOM     23  H   UNL     1       1.517   1.898   2.505  0.00  0.00    +0.000 HD
ENDBRANCH   6  22
BRANCH   8  24
ATOM     24  O   UNL     1      -1.314  -1.323  -1.928  0.00  0.00    +0.000 OA
ATOM     25  H   UNL     1      -1.722  -0.557  -2.356  0.00  0.00    +0.000 HD
ENDBRANCH   8  24
BRANCH   6  27
ATOM     26  O   UNL     1       2.860   2.396  -0.695  0.00  0.00    +0.000 OA
ATOM     27  C   UNL     1       2.402   1.611   0.133  0.00  0.00    +0.000 C 
BRANCH  27  28
ATOM     28  C   UNL     1       3.220   0.478   0.716  0.00  0.00    +0.000 C 
BRANCH  28  29
ATOM     29  O   UNL     1       4.529   0.484   0.187  0.00  0.00    +0.000 OA
BRANCH  29  31
ATOM     30  O   UNL     1       5.073  -1.364   1.455  0.00  0.00    +0.000 OA
ATOM     31  C   UNL     1       5.373  -0.501   0.641  0.00  0.00    +0.000 C 
BRANCH  31  32
ATOM     32  C   UNL     1       6.728  -0.350  -0.018  0.00  0.00    +0.000 C 
BRANCH  32  33
ATOM     33  C   UNL     1       7.705  -1.456   0.363  0.00  0.00    +0.000 C 
BRANCH  33  35
ATOM     34  O   UNL     1       9.268  -0.382  -1.135  0.00  0.00    +0.000 OA
ATOM     35  C   UNL     1       9.020  -1.296  -0.360  0.00  0.00    +0.000 C 
BRANCH  35  36
ATOM     36  O   UNL     1       9.912  -2.266  -0.041  0.00  0.00    +0.000 OA
ATOM     37  H   UNL     1      10.766  -2.146  -0.508  0.00  0.00    +0.000 HD
ENDBRANCH  35  36
ENDBRANCH  33  35
ENDBRANCH  32  33
ENDBRANCH  31  32
ENDBRANCH  29  31
ENDBRANCH  28  29
ENDBRANCH  27  28
ENDBRANCH   6  27
TORSDOF 10
