REMARK  Name = 66381
REMARK  12 active torsions:
REMARK  status: ('A' for Active; 'I' for Inactive)
REMARK    1  A    between atoms: O_3  and  C_16
REMARK    2  A    between atoms: O_5  and  C_27
REMARK    3  A    between atoms: O_5  and  C_30
REMARK    4  A    between atoms: C_8  and  C_19
REMARK    5  A    between atoms: C_12  and  C_22
REMARK    6  A    between atoms: C_15  and  C_23
REMARK    7  A    between atoms: C_17  and  C_24
REMARK    8  A    between atoms: C_22  and  C_27
REMARK    9  A    between atoms: C_30  and  C_31
REMARK   10  A    between atoms: C_31  and  C_32
REMARK   11  A    between atoms: C_31  and  C_33
REMARK   12  A    between atoms: C_31  and  C_34
REMARK                            x       y       z     vdW  Elec       q    Type
REMARK                         _______ _______ _______ _____ _____    ______ ____
ROOT
ATOM      1  F   UNL     1       2.372  -0.469  -1.254  0.00  0.00    +0.000 F 
ATOM      2  F   UNL     1       5.492   2.280  -0.005  0.00  0.00    +0.000 F 
ATOM      3  O   UNL     1       6.950  -2.102  -1.652  0.00  0.00    +0.000 OA
ATOM      4  C   UNL     1      -0.519   0.728   0.331  0.00  0.00    +0.000 C 
ATOM      5  C   UNL     1       0.703   1.533  -0.153  0.00  0.00    +0.000 C 
ATOM      6  C   UNL     1       2.019   1.077   0.491  0.00  0.00    +0.000 C 
ATOM      7  C   UNL     1       2.268  -0.428   0.128  0.00  0.00    +0.000 C 
ATOM      8  C   UNL     1      -1.623   1.454  -0.477  0.00  0.00    +0.000 C 
ATOM      9  C   UNL     1       0.259   2.986   0.001  0.00  0.00    +0.000 C 
ATOM     10  C   UNL     1      -0.302  -0.741  -0.074  0.00  0.00    +0.000 C 
ATOM     11  C   UNL     1      -1.246   2.956  -0.364  0.00  0.00    +0.000 C 
ATOM     12  C   UNL     1       1.031  -1.321   0.451  0.00  0.00    +0.000 C 
ATOM     13  C   UNL     1       3.659  -0.946   0.672  0.00  0.00    +0.000 C 
ATOM     14  C   UNL     1       3.183   1.961   0.016  0.00  0.00    +0.000 C 
ATOM     15  C   UNL     1      -0.788   0.846   1.853  0.00  0.00    +0.000 C 
ATOM     16  C   UNL     1       4.530   1.474   0.532  0.00  0.00    +0.000 C 
ATOM     17  C   UNL     1       4.740   0.024   0.172  0.00  0.00    +0.000 C 
ATOM     18  C   UNL     1      -1.537   3.706  -1.660  0.00  0.00    +0.000 C 
ATOM     19  C   UNL     1       3.750  -1.007   2.214  0.00  0.00    +0.000 C 
ATOM     20  C   UNL     1       3.919  -2.362   0.178  0.00  0.00    +0.000 C 
ATOM     21  C   UNL     1       5.790  -0.355  -0.574  0.00  0.00    +0.000 C 
ATOM     22  C   UNL     1       4.962  -2.743  -0.566  0.00  0.00    +0.000 C 
ATOM     23  C   UNL     1       5.980  -1.762  -0.983  0.00  0.00    +0.000 C 
ENDROOT
BRANCH  12  24
ATOM     24  O   UNL     1       0.925  -1.580   1.842  0.00  0.00    +0.000 OA
ATOM     25  H   UNL     1       0.174  -2.183   1.976  0.00  0.00    +0.000 HD
ENDBRANCH  12  24
BRANCH   8  27
ATOM     26  O   UNL     1      -3.535   1.863   0.882  0.00  0.00    +0.000 OA
ATOM     27  C   UNL     1      -3.013   1.174   0.007  0.00  0.00    +0.000 C 
BRANCH  27  28
ATOM     28  C   UNL     1      -3.725   0.005  -0.639  0.00  0.00    +0.000 C 
BRANCH  28  29
ATOM     29  O   UNL     1      -5.025  -0.143  -0.106  0.00  0.00    +0.000 OA
BRANCH  29  31
ATOM     30  O   UNL     1      -5.395  -1.952  -1.478  0.00  0.00    +0.000 OA
ATOM     31  C   UNL     1      -5.779  -1.175  -0.613  0.00  0.00    +0.000 C 
BRANCH  31  32
ATOM     32  C   UNL     1      -7.162  -1.226   0.045  0.00  0.00    +0.000 C 
ATOM     33  C   UNL     1      -7.902   0.093  -0.214  0.00  0.00    +0.000 C 
ATOM     34  C   UNL     1      -7.976  -2.381  -0.559  0.00  0.00    +0.000 C 
ATOM     35  C   UNL     1      -7.004  -1.464   1.553  0.00  0.00    +0.000 C 
ENDBRANCH  31  32
ENDBRANCH  29  31
ENDBRANCH  28  29
ENDBRANCH  27  28
ENDBRANCH   8  27
TORSDOF 6
