REMARK  Name = 7339
REMARK  14 active torsions:
REMARK  status: ('A' for Active; 'I' for Inactive)
REMARK    1  A    between atoms: P_1  and  O_5
REMARK    2  A    between atoms: P_1  and  O_9
REMARK    3  A    between atoms: P_1  and  O_10
REMARK    4  A    between atoms: P_2  and  O_8
REMARK    5  A    between atoms: P_2  and  O_12
REMARK    6  A    between atoms: P_2  and  O_13
REMARK    7  A    between atoms: P_3  and  O_9
REMARK    8  A    between atoms: P_3  and  O_15
REMARK    9  A    between atoms: P_3  and  O_16
REMARK   10  A    between atoms: O_5  and  C_21
REMARK   11  A    between atoms: O_6  and  C_18
REMARK   12  A    between atoms: O_7  and  C_20
REMARK   13  A    between atoms: O_8  and  C_22
REMARK   14  A    between atoms: C_19  and  C_22
REMARK                            x       y       z     vdW  Elec       q    Type
REMARK                         _______ _______ _______ _____ _____    ______ ____
ROOT
ATOM      1  O   UNL     1       0.693   0.044  -0.598  0.00  0.00    +0.000 OA
ATOM      2  C   UNL     1       0.869   2.177   0.413  0.00  0.00    +0.000 C 
ATOM      3  C   UNL     1       1.639   1.100  -0.341  0.00  0.00    +0.000 C 
ATOM      4  C   UNL     1      -0.510   2.040  -0.194  0.00  0.00    +0.000 C 
ATOM      5  C   UNL     1      -0.625   0.524  -0.271  0.00  0.00    +0.000 C 
ENDROOT
BRANCH   2   6
ATOM      6  O   UNL     1       1.437   3.456   0.234  0.00  0.00    +0.000 OA
ATOM      7  H   UNL     1       2.341   3.431   0.591  0.00  0.00    +0.000 HD
ENDBRANCH   2   6
BRANCH   4   8
ATOM      8  O   UNL     1      -0.515   2.604  -1.504  0.00  0.00    +0.000 OA
ATOM      9  H   UNL     1      -0.031   2.012  -2.104  0.00  0.00    +0.000 HD
ENDBRANCH   4   8
BRANCH   5  10
ATOM     10  O   UNL     1      -1.602   0.134  -1.220  0.00  0.00    +0.000 OA
BRANCH  10  11
ATOM     11  P   UNL     1      -2.383  -1.273  -1.047  0.00  0.00    +0.000 P 
ATOM     12  O   UNL     1      -3.392  -1.569  -2.119  0.00  0.00    +0.000 OA
BRANCH  11  13
ATOM     13  O   UNL     1      -1.205  -2.374  -0.917  0.00  0.00    +0.000 OA
ATOM     14  H   UNL     1      -0.761  -2.692  -1.732  0.00  0.00    +0.000 HD
ENDBRANCH  11  13
BRANCH  11  15
ATOM     15  O   UNL     1      -3.001  -1.213   0.446  0.00  0.00    +0.000 OA
BRANCH  15  16
ATOM     16  P   UNL     1      -4.139  -0.261   1.085  0.00  0.00    +0.000 P 
ATOM     17  O   UNL     1      -3.825   1.205   1.044  0.00  0.00    +0.000 OA
BRANCH  16  18
ATOM     18  O   UNL     1      -4.348  -0.881   2.563  0.00  0.00    +0.000 OA
ATOM     19  H   UNL     1      -4.940  -0.417   3.193  0.00  0.00    +0.000 HD
ENDBRANCH  16  18
BRANCH  16  20
ATOM     20  O   UNL     1      -5.480  -0.703   0.298  0.00  0.00    +0.000 OA
ATOM     21  H   UNL     1      -6.310  -0.205   0.457  0.00  0.00    +0.000 HD
ENDBRANCH  16  20
ENDBRANCH  15  16
ENDBRANCH  11  15
ENDBRANCH  10  11
ENDBRANCH   5  10
BRANCH   3  22
ATOM     22  C   UNL     1       2.820   0.550   0.439  0.00  0.00    +0.000 C 
BRANCH  22  23
ATOM     23  O   UNL     1       3.459  -0.447  -0.341  0.00  0.00    +0.000 OA
BRANCH  23  24
ATOM     24  P   UNL     1       4.757  -1.193   0.274  0.00  0.00    +0.000 P 
ATOM     25  O   UNL     1       5.372  -2.233  -0.616  0.00  0.00    +0.000 OA
BRANCH  24  26
ATOM     26  O   UNL     1       4.248  -1.727   1.712  0.00  0.00    +0.000 OA
ATOM     27  H   UNL     1       4.851  -2.279   2.255  0.00  0.00    +0.000 HD
ENDBRANCH  24  26
BRANCH  24  28
ATOM     28  O   UNL     1       5.732   0.039   0.658  0.00  0.00    +0.000 OA
ATOM     29  H   UNL     1       6.640  -0.155   0.974  0.00  0.00    +0.000 HD
ENDBRANCH  24  28
ENDBRANCH  23  24
ENDBRANCH  22  23
ENDBRANCH   3  22
TORSDOF 14
