REMARK  Name = 
REMARK  25 active torsions:
REMARK  status: ('A' for Active; 'I' for Inactive)
REMARK    1  A    between atoms: C_1  and  C_2
REMARK    2  A    between atoms: N_4  and  C_5
REMARK    3  A    between atoms: C_6  and  O_7
REMARK    4  A    between atoms: O_7  and  P_8
REMARK    5  A    between atoms: P_8  and  O_10
REMARK    6  A    between atoms: P_8  and  O_11
REMARK    7  A    between atoms: O_11  and  P_12
REMARK    8  A    between atoms: P_12  and  O_14
REMARK    9  A    between atoms: P_12  and  O_15
REMARK   10  A    between atoms: O_15  and  C_16
REMARK   11  A    between atoms: C_16  and  C_17
REMARK   12  A    between atoms: C_19  and  N_20
REMARK   13  A    between atoms: C_28  and  O_29
REMARK   14  A    between atoms: C_30  and  O_31
REMARK   15  A    between atoms: C_33  and  C_34
REMARK   16  A    between atoms: C_34  and  O_35
REMARK   17  A    between atoms: C_36  and  O_37
REMARK   18  A    between atoms: C_38  and  O_39
REMARK   19  A    between atoms: O_39  and  C_40
REMARK   20  A    between atoms: C_40  and  C_41
REMARK   21  A    between atoms: C_40  and  C_42
REMARK   22  A    between atoms: N_44  and  CA_45
REMARK   23  A    between atoms: CA_45  and  CB_46
REMARK   24  A    between atoms: CA_45  and  C_47
REMARK   25  A    between atoms: C_47  and  OXT_49
REMARK                            x       y       z     vdW  Elec       q    Type
REMARK                         _______ _______ _______ _____ _____    ______ ____
ROOT
ATOM      1  O   UNK A   0      -1.060   0.709   0.901  0.00  0.00    +0.000 OA
ENDROOT
BRANCH   1   3
ATOM      2  C   UNK A   0      -3.361   1.133   1.398  0.00  0.00    +0.000 C 
ATOM      3  C   UNK A   0      -2.005   1.849   0.569  0.00  0.00    +0.000 C 
ATOM      4  O   UNK A   0      -2.233   1.363  -0.847  0.00  0.00    +0.000 OA
ATOM      5  C   UNK A   0      -3.260   2.248  -1.496  0.00  0.00    +0.000 C 
ATOM      6  C   UNK A   0      -3.839   2.742   0.045  0.00  0.00    +0.000 C 
ATOM      7  C   UNK A   0      -4.174   1.034  -0.062  0.00  0.00    +0.000 C 
BRANCH   2  11
ATOM      8  C   UNK A   0      -3.322  -2.274   2.342  0.00  0.00    +0.000 C 
ATOM      9  C   UNK A   0      -3.192  -1.101   2.638  0.00  0.00    +0.000 C 
ATOM     10  O   UNK A   0      -3.420  -0.482   3.703  0.00  0.00    +0.000 OA
ATOM     11  N   UNK A   0      -2.840  -0.314   1.481  0.00  0.00    +0.000 N 
ATOM     12  H   UNK A   0      -2.282  -0.692   0.763  0.00  0.00    +0.000 HD
ENDBRANCH   2  11
BRANCH   6  13
ATOM     13  O   UNK A   0      -5.139   3.301  -0.415  0.00  0.00    +0.000 OA
ATOM     14  H   UNK A   0      -5.493   2.750  -1.130  0.00  0.00    +0.000 HD
ENDBRANCH   6  13
BRANCH   5  15
ATOM     15  C   UNK A   0      -2.250   3.515  -1.694  0.00  0.00    +0.000 C 
BRANCH  15  16
ATOM     16  O   UNK A   0      -1.748   2.859  -2.858  0.00  0.00    +0.000 OA
ATOM     17  H   UNK A   0      -1.469   1.960  -2.627  0.00  0.00    +0.000 HD
ENDBRANCH  15  16
ENDBRANCH   5  15
BRANCH   7  18
ATOM     18  O   UNK A   0      -5.630   1.061   0.320  0.00  0.00    +0.000 OA
BRANCH  18  19
ATOM     19  C   UNK A   0      -5.587   0.556  -1.161  0.00  0.00    +0.000 C 
ATOM     20  C   UNK A   0      -6.751   1.607  -1.716  0.00  0.00    +0.000 C 
BRANCH  19  21
ATOM     21  C   UNK A   0      -6.534  -0.743  -0.998  0.00  0.00    +0.000 C 
ATOM     22  O   UNK A   0      -6.146  -1.861  -1.130  0.00  0.00    +0.000 OA
ATOM     23  N   ALA A   1      -7.838  -0.634  -1.450  0.00  0.00    +0.000 N 
ATOM     24  H   ALA A   1      -8.059  -0.140  -2.272  0.00  0.00    +0.000 HD
BRANCH  23  25
ATOM     25  CA  ALA A   1      -8.953  -1.344  -0.584  0.00  0.00    +0.000 C 
ATOM     26  CB  ALA A   1      -8.339  -2.846  -0.894  0.00  0.00    +0.000 C 
BRANCH  25  27
ATOM     27  C   ALA A   1      -8.225  -1.103   0.836  0.00  0.00    +0.000 C 
ATOM     28  O   ALA A   1      -7.515  -1.943   1.350  0.00  0.00    +0.000 OA
BRANCH  27  29
ATOM     29  OXT ALA A   1      -8.920  -0.304   1.752  0.00  0.00    +0.000 OA
ATOM     30  HXT ALA A   1      -9.492   0.371   1.445  0.00  0.00    +0.000 HD
ENDBRANCH  27  29
ENDBRANCH  25  27
ENDBRANCH  23  25
ENDBRANCH  19  21
ENDBRANCH  18  19
ENDBRANCH   7  18
ENDBRANCH   1   3
BRANCH   1  31
ATOM     31  P   UNK A   0      -0.184   0.297  -0.446  0.00  0.00    +0.000 P 
ATOM     32  O   UNK A   0      -0.840  -0.353  -1.567  0.00  0.00    +0.000 OA
BRANCH  31  33
ATOM     33  O   UNK A   0       0.738   1.676  -0.758  0.00  0.00    +0.000 OA
ATOM     34  H   UNK A   0       0.156   2.394  -1.054  0.00  0.00    +0.000 HD
ENDBRANCH  31  33
BRANCH  31  35
ATOM     35  O   UNK A   0       0.974  -0.848   0.054  0.00  0.00    +0.000 OA
BRANCH  35  36
ATOM     36  P   UNK A   0       1.837  -1.090  -1.387  0.00  0.00    +0.000 P 
ATOM     37  O   UNK A   0       0.931  -1.690  -2.418  0.00  0.00    +0.000 OA
BRANCH  36  38
ATOM     38  O   UNK A   0       2.345   0.429  -1.973  0.00  0.00    +0.000 OA
ATOM     39  H   UNK A   0       1.570   0.993  -2.124  0.00  0.00    +0.000 HD
ENDBRANCH  36  38
BRANCH  36  40
ATOM     40  O   UNK A   0       3.202  -2.042  -1.137  0.00  0.00    +0.000 OA
BRANCH  40  41
ATOM     41  C   UNK A   0       4.117  -1.148  -0.734  0.00  0.00    +0.000 C 
BRANCH  41  42
ATOM     42  C   UNK A   0       4.389  -1.447   0.868  0.00  0.00    +0.000 C 
ATOM     43  O   UNK A   0       5.836  -1.462   0.593  0.00  0.00    +0.000 OA
ATOM     44  C   UNK A   0       6.454  -0.328   1.313  0.00  0.00    +0.000 C 
ATOM     45  C   UNK A   0       5.502   0.721   0.361  0.00  0.00    +0.000 C 
ATOM     46  C   UNK A   0       4.142   0.205   1.222  0.00  0.00    +0.000 C 
BRANCH  44  47
ATOM     47  N   UNK A   0       7.621  -0.225   0.245  0.00  0.00    +0.000 N 
ATOM     48  C   UNK A   0       8.172   0.976   0.106  0.00  0.00    +0.000 A 
ATOM     49  C   UNK A   0       9.559   0.958  -0.017  0.00  0.00    +0.000 A 
ATOM     50  C   UNK A   0      10.269  -0.231  -0.062  0.00  0.00    +0.000 A 
ATOM     51  O   UNK A   0      11.417  -0.321   0.386  0.00  0.00    +0.000 OA
ATOM     52  N   UNK A   0       9.552  -1.353  -0.310  0.00  0.00    +0.000 N 
ATOM     53  C   UNK A   0       8.225  -1.341  -0.085  0.00  0.00    +0.000 A 
ATOM     54  O   UNK A   0       7.507  -2.376  -0.230  0.00  0.00    +0.000 OA
ATOM     55  H   UNK A   0       9.994  -2.165  -0.649  0.00  0.00    +0.000 HD
ENDBRANCH  44  47
BRANCH  45  56
ATOM     56  O   UNK A   0       5.743   1.875   1.286  0.00  0.00    +0.000 OA
ATOM     57  H   UNK A   0       5.646   1.579   2.205  0.00  0.00    +0.000 HD
ENDBRANCH  45  56
BRANCH  46  58
ATOM     58  O   UNK A   0       4.773   0.091   2.582  0.00  0.00    +0.000 OA
ATOM     59  H   UNK A   0       5.611  -0.394   2.510  0.00  0.00    +0.000 HD
ENDBRANCH  46  58
ENDBRANCH  41  42
ENDBRANCH  40  41
ENDBRANCH  36  40
ENDBRANCH  35  36
ENDBRANCH  31  35
ENDBRANCH   1  31
TORSDOF 22
