REMARK  Name = 19235
REMARK  15 active torsions:
REMARK  status: ('A' for Active; 'I' for Inactive)
REMARK    1  A    between atoms: P_1  and  O_6
REMARK    2  A    between atoms: P_1  and  O_12
REMARK    3  A    between atoms: P_1  and  O_14
REMARK    4  A    between atoms: P_2  and  O_8
REMARK    5  A    between atoms: P_2  and  O_12
REMARK    6  A    between atoms: P_2  and  O_16
REMARK    7  A    between atoms: O_4  and  C_21
REMARK    8  A    between atoms: O_5  and  C_22
REMARK    9  A    between atoms: O_6  and  C_25
REMARK   10  A    between atoms: O_8  and  C_29
REMARK   11  A    between atoms: O_9  and  C_26
REMARK   12  A    between atoms: O_10  and  C_27
REMARK   13  A    between atoms: O_11  and  C_28
REMARK   14  A    between atoms: N_19  and  C_24
REMARK   15  A    between atoms: C_23  and  C_25
REMARK                            x       y       z     vdW  Elec       q    Type
REMARK                         _______ _______ _______ _____ _____    ______ ____
ROOT
ATOM      1  P   UNL     1       0.852  -3.398   0.700  0.00  0.00    +0.000 P 
ATOM      2  O   UNL     1       1.022  -4.254   1.921  0.00  0.00    +0.000 OA
ENDROOT
BRANCH   1   3
ATOM      3  O   UNL     1       1.595  -3.948  -0.628  0.00  0.00    +0.000 OA
ATOM      4  H   UNL     1       1.633  -3.386  -1.431  0.00  0.00    +0.000 HD
ENDBRANCH   1   3
BRANCH   1   5
ATOM      5  O   UNL     1      -0.673  -3.155   0.221  0.00  0.00    +0.000 OA
BRANCH   5   6
ATOM      6  C   UNL     1      -0.902  -2.355  -0.926  0.00  0.00    +0.000 C 
BRANCH   6  10
ATOM      7  O   UNL     1      -3.014  -1.620  -0.045  0.00  0.00    +0.000 OA
ATOM      8  C   UNL     1      -2.759  -1.418  -2.392  0.00  0.00    +0.000 C 
ATOM      9  C   UNL     1      -2.833  -0.030  -1.793  0.00  0.00    +0.000 C 
ATOM     10  C   UNL     1      -2.401  -2.269  -1.181  0.00  0.00    +0.000 C 
ATOM     11  C   UNL     1      -3.449  -0.306  -0.432  0.00  0.00    +0.000 C 
BRANCH  11  14
ATOM     12  O   UNL     1      -4.874   2.032   0.260  0.00  0.00    +0.000 OA
ATOM     13  O   UNL     1      -1.726   3.242   3.401  0.00  0.00    +0.000 OA
ATOM     14  N   UNL     1      -3.025   0.637   0.564  0.00  0.00    +0.000 N 
ATOM     15  N   UNL     1      -3.305   2.633   1.823  0.00  0.00    +0.000 N 
ATOM     16  C   UNL     1      -3.813   1.780   0.835  0.00  0.00    +0.000 A 
ATOM     17  C   UNL     1      -1.840   0.426   1.260  0.00  0.00    +0.000 A 
ATOM     18  C   UNL     1      -1.369   1.248   2.199  0.00  0.00    +0.000 A 
ATOM     19  C   UNL     1      -2.132   2.465   2.542  0.00  0.00    +0.000 A 
ATOM     20  H   UNL     1      -3.855   3.461   2.034  0.00  0.00    +0.000 HD
ENDBRANCH  11  14
BRANCH   8  21
ATOM     21  O   UNL     1      -4.046  -1.828  -2.853  0.00  0.00    +0.000 OA
ATOM     22  H   UNL     1      -3.958  -2.735  -3.192  0.00  0.00    +0.000 HD
ENDBRANCH   8  21
BRANCH   9  23
ATOM     23  O   UNL     1      -3.614   0.851  -2.574  0.00  0.00    +0.000 OA
ATOM     24  H   UNL     1      -3.683   1.690  -2.088  0.00  0.00    +0.000 HD
ENDBRANCH   9  23
ENDBRANCH   6  10
ENDBRANCH   5   6
ENDBRANCH   1   5
BRANCH   1  25
ATOM     25  O   UNL     1       1.432  -1.897   0.846  0.00  0.00    +0.000 OA
BRANCH  25  26
ATOM     26  P   UNL     1       2.778  -1.342   1.549  0.00  0.00    +0.000 P 
ATOM     27  O   UNL     1       2.683  -1.208   3.041  0.00  0.00    +0.000 OA
BRANCH  26  28
ATOM     28  O   UNL     1       3.914  -2.377   1.042  0.00  0.00    +0.000 OA
ATOM     29  H   UNL     1       3.992  -3.249   1.486  0.00  0.00    +0.000 HD
ENDBRANCH  26  28
BRANCH  26  30
ATOM     30  O   UNL     1       3.108   0.034   0.774  0.00  0.00    +0.000 OA
BRANCH  30  35
ATOM     31  O   UNL     1       1.956   0.195  -1.292  0.00  0.00    +0.000 OA
ATOM     32  C   UNL     1       3.678   2.503  -1.004  0.00  0.00    +0.000 C 
ATOM     33  C   UNL     1       4.219   1.081  -1.156  0.00  0.00    +0.000 C 
ATOM     34  C   UNL     1       2.267   2.598  -1.586  0.00  0.00    +0.000 C 
ATOM     35  C   UNL     1       3.223   0.035  -0.648  0.00  0.00    +0.000 C 
ATOM     36  C   UNL     1       1.378   1.477  -1.062  0.00  0.00    +0.000 C 
BRANCH  32  37
ATOM     37  O   UNL     1       4.546   3.385  -1.718  0.00  0.00    +0.000 OA
ATOM     38  H   UNL     1       4.532   3.131  -2.657  0.00  0.00    +0.000 HD
ENDBRANCH  32  37
BRANCH  33  39
ATOM     39  O   UNL     1       5.448   0.942  -0.453  0.00  0.00    +0.000 OA
ATOM     40  H   UNL     1       5.759   0.029  -0.582  0.00  0.00    +0.000 HD
ENDBRANCH  33  39
BRANCH  34  41
ATOM     41  O   UNL     1       1.672   3.842  -1.233  0.00  0.00    +0.000 OA
ATOM     42  H   UNL     1       0.787   3.870  -1.635  0.00  0.00    +0.000 HD
ENDBRANCH  34  41
ENDBRANCH  30  35
ENDBRANCH  26  30
ENDBRANCH  25  26
ENDBRANCH   1  25
TORSDOF 15
