REMARK  Name = 
REMARK  25 active torsions:
REMARK  status: ('A' for Active; 'I' for Inactive)
REMARK    1  A    between atoms: N_10  and  C_11
REMARK    2  A    between atoms: C_13  and  C_14
REMARK    3  A    between atoms: C_14  and  O_15
REMARK    4  A    between atoms: O_15  and  P_16
REMARK    5  A    between atoms: P_16  and  O_18
REMARK    6  A    between atoms: P_16  and  O_19
REMARK    7  A    between atoms: O_19  and  P_20
REMARK    8  A    between atoms: P_20  and  O_22
REMARK    9  A    between atoms: P_20  and  O_23
REMARK   10  A    between atoms: O_23  and  P_24
REMARK   11  A    between atoms: P_24  and  O_26
REMARK   12  A    between atoms: P_24  and  O_27
REMARK   13  A    between atoms: O_27  and  P_28
REMARK   14  A    between atoms: P_28  and  O_30
REMARK   15  A    between atoms: P_28  and  O_31
REMARK   16  A    between atoms: O_31  and  P_32
REMARK   17  A    between atoms: P_32  and  O_34
REMARK   18  A    between atoms: P_32  and  O_35
REMARK   19  A    between atoms: O_35  and  C_36
REMARK   20  A    between atoms: C_36  and  C_37
REMARK   21  A    between atoms: C_39  and  N_40
REMARK   22  A    between atoms: C_50  and  O_51
REMARK   23  A    between atoms: C_52  and  O_53
REMARK   24  A    between atoms: C_54  and  O_55
REMARK   25  A    between atoms: C_56  and  O_57
REMARK                            x       y       z     vdW  Elec       q    Type
REMARK                         _______ _______ _______ _____ _____    ______ ____
ROOT
ATOM      1  P   UNL     1      -0.504  -0.873   0.782  0.00  0.00    +0.000 P 
ATOM      2  O   UNL     1       0.545  -1.933   0.446  0.00  0.00    +0.000 OA
ENDROOT
BRANCH   1   3
ATOM      3  O   UNL     1      -0.926   0.104  -0.511  0.00  0.00    +0.000 OA
ATOM      4  H   UNL     1      -1.412  -0.419  -1.167  0.00  0.00    +0.000 HD
ENDBRANCH   1   3
BRANCH   1   5
ATOM      5  O   UNL     1      -1.817  -1.795   1.101  0.00  0.00    +0.000 OA
BRANCH   5   6
ATOM      6  P   UNL     1      -1.942  -2.839  -0.250  0.00  0.00    +0.000 P 
ATOM      7  O   UNL     1      -1.688  -4.274   0.142  0.00  0.00    +0.000 OA
BRANCH   6   8
ATOM      8  O   UNL     1      -0.752  -2.490  -1.423  0.00  0.00    +0.000 OA
ATOM      9  H   UNL     1      -0.850  -3.097  -2.173  0.00  0.00    +0.000 HD
ENDBRANCH   6   8
BRANCH   6  10
ATOM     10  O   UNL     1      -3.372  -2.650  -1.099  0.00  0.00    +0.000 OA
BRANCH  10  11
ATOM     11  P   UNL     1      -3.844  -1.012  -1.071  0.00  0.00    +0.000 P 
ATOM     12  O   UNL     1      -4.932  -0.812  -2.115  0.00  0.00    +0.000 OA
BRANCH  11  13
ATOM     13  O   UNL     1      -2.532  -0.115  -1.563  0.00  0.00    +0.000 OA
ATOM     14  H   UNL     1      -2.764   0.827  -1.560  0.00  0.00    +0.000 HD
ENDBRANCH  11  13
BRANCH  11  15
ATOM     15  O   UNL     1      -4.433  -0.800   0.419  0.00  0.00    +0.000 OA
BRANCH  15  16
ATOM     16  C   UNL     1      -4.302   0.293   1.149  0.00  0.00    +0.000 C 
BRANCH  16  19
ATOM     17  C   UNL     1      -7.399   1.576   0.256  0.00  0.00    +0.000 C 
ATOM     18  O   UNL     1      -6.338   0.509   0.042  0.00  0.00    +0.000 OA
ATOM     19  C   UNL     1      -5.402   1.442   0.755  0.00  0.00    +0.000 C 
ATOM     20  C   UNL     1      -6.146   1.313   2.290  0.00  0.00    +0.000 C 
ATOM     21  C   UNL     1      -7.627   0.715   1.717  0.00  0.00    +0.000 C 
BRANCH  17  31
ATOM     22  N   UNL     1     -12.659  -0.922  -0.115  0.00  0.00    +0.000 N 
ATOM     23  C   UNL     1     -11.293  -1.105  -0.004  0.00  0.00    +0.000 A 
ATOM     24  N   UNL     1     -10.814  -2.069   0.799  0.00  0.00    +0.000 NA
ATOM     25  C   UNL     1      -9.490  -2.255   0.966  0.00  0.00    +0.000 A 
ATOM     26  N   UNL     1      -8.614  -1.343   0.493  0.00  0.00    +0.000 NA
ATOM     27  C   UNL     1      -9.096  -0.316  -0.249  0.00  0.00    +0.000 A 
ATOM     28  C   UNL     1     -10.402  -0.316  -0.733  0.00  0.00    +0.000 A 
ATOM     29  N   UNL     1     -10.534   0.916  -1.291  0.00  0.00    +0.000 NA
ATOM     30  C   UNL     1      -9.316   1.512  -1.340  0.00  0.00    +0.000 A 
ATOM     31  N   UNL     1      -8.484   0.782  -0.560  0.00  0.00    +0.000 N 
ATOM     32  H   UNL     1     -13.275  -1.487   0.406  0.00  0.00    +0.000 HD
ATOM     33  H   UNL     1     -13.016  -0.229  -0.716  0.00  0.00    +0.000 HD
ENDBRANCH  17  31
BRANCH  20  34
ATOM     34  O   UNL     1      -6.490   2.775   2.223  0.00  0.00    +0.000 OA
ATOM     35  H   UNL     1      -6.882   2.976   1.359  0.00  0.00    +0.000 HD
ENDBRANCH  20  34
BRANCH  21  36
ATOM     36  O   UNL     1      -8.520   1.770   2.296  0.00  0.00    +0.000 OA
ATOM     37  H   UNL     1      -8.134   2.645   2.134  0.00  0.00    +0.000 HD
ENDBRANCH  21  36
ENDBRANCH  16  19
ENDBRANCH  15  16
ENDBRANCH  11  15
ENDBRANCH  10  11
ENDBRANCH   6  10
ENDBRANCH   5   6
ENDBRANCH   1   5
BRANCH   1  38
ATOM     38  O   UNL     1       0.309   0.033   1.865  0.00  0.00    +0.000 OA
BRANCH  38  39
ATOM     39  P   UNL     1       1.673   0.552   0.959  0.00  0.00    +0.000 P 
ATOM     40  O   UNL     1       1.299   0.759  -0.504  0.00  0.00    +0.000 OA
BRANCH  39  41
ATOM     41  O   UNL     1       2.068   2.089   1.525  0.00  0.00    +0.000 OA
ATOM     42  H   UNL     1       1.279   2.653   1.506  0.00  0.00    +0.000 HD
ENDBRANCH  39  41
BRANCH  39  43
ATOM     43  O   UNL     1       2.909  -0.531   0.928  0.00  0.00    +0.000 OA
BRANCH  43  44
ATOM     44  P   UNL     1       3.719  -0.816  -0.465  0.00  0.00    +0.000 P 
ATOM     45  O   UNL     1       4.943  -1.641  -0.062  0.00  0.00    +0.000 OA
BRANCH  44  46
ATOM     46  O   UNL     1       2.970  -1.898  -1.556  0.00  0.00    +0.000 OA
ATOM     47  H   UNL     1       2.676  -2.688  -1.076  0.00  0.00    +0.000 HD
ENDBRANCH  44  46
BRANCH  44  48
ATOM     48  O   UNL     1       4.138   0.427  -1.444  0.00  0.00    +0.000 OA
BRANCH  48  49
ATOM     49  C   UNL     1       4.259   1.677  -0.965  0.00  0.00    +0.000 C 
BRANCH  49  50
ATOM     50  C   UNL     1       5.436   1.685   0.176  0.00  0.00    +0.000 C 
ATOM     51  O   UNL     1       6.361   0.817  -0.646  0.00  0.00    +0.000 OA
ATOM     52  C   UNL     1       7.226   1.035   0.583  0.00  0.00    +0.000 C 
ATOM     53  C   UNL     1       7.745   2.579   0.046  0.00  0.00    +0.000 C 
ATOM     54  C   UNL     1       6.207   3.023  -0.554  0.00  0.00    +0.000 C 
BRANCH  52  55
ATOM     55  N   UNL     1       8.469   0.320  -0.077  0.00  0.00    +0.000 N 
ATOM     56  C   UNL     1       8.307  -0.977  -0.465  0.00  0.00    +0.000 A 
ATOM     57  N   UNL     1       9.552  -1.467  -0.689  0.00  0.00    +0.000 NA
ATOM     58  C   UNL     1      10.375  -0.727   0.077  0.00  0.00    +0.000 A 
ATOM     59  C   UNL     1       9.585   0.236   0.693  0.00  0.00    +0.000 A 
ATOM     60  N   UNL     1      10.130   0.885   1.718  0.00  0.00    +0.000 NA
ATOM     61  C   UNL     1      11.444   0.717   2.007  0.00  0.00    +0.000 A 
ATOM     62  N   UNL     1      12.265   0.079   1.139  0.00  0.00    +0.000 NA
ATOM     63  C   UNL     1      11.761  -0.627   0.098  0.00  0.00    +0.000 A 
ATOM     64  N   UNL     1      12.578  -1.065  -0.996  0.00  0.00    +0.000 N 
ATOM     65  H   UNL     1      13.557  -0.977  -0.944  0.00  0.00    +0.000 HD
ATOM     66  H   UNL     1      12.160  -1.453  -1.798  0.00  0.00    +0.000 HD
ENDBRANCH  52  55
BRANCH  53  67
ATOM     67  O   UNL     1       7.607   3.111   1.442  0.00  0.00    +0.000 OA
ATOM     68  H   UNL     1       6.756   2.829   1.812  0.00  0.00    +0.000 HD
ENDBRANCH  53  67
BRANCH  54  69
ATOM     69  O   UNL     1       5.785   3.937   0.560  0.00  0.00    +0.000 OA
ATOM     70  H   UNL     1       5.960   3.510   1.413  0.00  0.00    +0.000 HD
ENDBRANCH  54  69
ENDBRANCH  49  50
ENDBRANCH  48  49
ENDBRANCH  44  48
ENDBRANCH  43  44
ENDBRANCH  39  43
ENDBRANCH  38  39
ENDBRANCH   1  38
TORSDOF 25
