REMARK  Name = 16500
REMARK  18 active torsions:
REMARK  status: ('A' for Active; 'I' for Inactive)
REMARK    1  A    between atoms: P_1  and  O_7
REMARK    2  A    between atoms: P_1  and  O_12
REMARK    3  A    between atoms: P_1  and  O_14
REMARK    4  A    between atoms: P_2  and  O_8
REMARK    5  A    between atoms: P_2  and  O_12
REMARK    6  A    between atoms: P_2  and  O_15
REMARK    7  A    between atoms: O_5  and  C_23
REMARK    8  A    between atoms: O_6  and  C_24
REMARK    9  A    between atoms: O_7  and  C_31
REMARK   10  A    between atoms: O_8  and  C_32
REMARK   11  A    between atoms: O_9  and  C_27
REMARK   12  A    between atoms: O_10  and  C_28
REMARK   13  A    between atoms: O_11  and  C_29
REMARK   14  A    between atoms: O_13  and  C_33
REMARK   15  A    between atoms: N_18  and  C_26
REMARK   16  A    between atoms: N_22  and  C_37
REMARK   17  A    between atoms: C_25  and  C_31
REMARK   18  A    between atoms: C_30  and  C_33
REMARK                            x       y       z     vdW  Elec       q    Type
REMARK                         _______ _______ _______ _____ _____    ______ ____
ROOT
ATOM      1  P   UNL     1      -0.357   3.467   1.199  0.00  0.00    +0.000 P 
ATOM      2  O   UNL     1      -0.059   3.842   2.621  0.00  0.00    +0.000 OA
ENDROOT
BRANCH   1   3
ATOM      3  O   UNL     1      -1.246   4.543   0.380  0.00  0.00    +0.000 OA
ATOM      4  H   UNL     1      -1.524   4.336  -0.537  0.00  0.00    +0.000 HD
ENDBRANCH   1   3
BRANCH   1   5
ATOM      5  O   UNL     1       0.932   3.225   0.251  0.00  0.00    +0.000 OA
BRANCH   5   6
ATOM      6  C   UNL     1       0.765   2.471  -0.937  0.00  0.00    +0.000 C 
BRANCH   6  10
ATOM      7  O   UNL     1       3.038   1.687  -0.796  0.00  0.00    +0.000 OA
ATOM      8  C   UNL     1       2.029   1.572  -2.949  0.00  0.00    +0.000 C 
ATOM      9  C   UNL     1       2.337   0.167  -2.471  0.00  0.00    +0.000 C 
ATOM     10  C   UNL     1       2.104   2.379  -1.657  0.00  0.00    +0.000 C 
ATOM     11  C   UNL     1       3.393   0.432  -1.409  0.00  0.00    +0.000 C 
BRANCH  11  12
ATOM     12  N   UNL     1       3.484  -0.608  -0.387  0.00  0.00    +0.000 N 
ATOM     13  N   UNL     1       4.190  -2.445   0.659  0.00  0.00    +0.000 NA
ATOM     14  N   UNL     1       1.778   0.133   1.176  0.00  0.00    +0.000 NA
ATOM     15  N   UNL     1       1.609  -1.379   3.085  0.00  0.00    +0.000 NA
ATOM     16  C   UNL     1       2.741  -0.702   0.755  0.00  0.00    +0.000 A 
ATOM     17  C   UNL     1       4.339  -1.677  -0.400  0.00  0.00    +0.000 A 
ATOM     18  C   UNL     1       3.194  -1.847   1.390  0.00  0.00    +0.000 A 
ATOM     19  C   UNL     1       2.590  -2.177   2.599  0.00  0.00    +0.000 A 
ATOM     20  C   UNL     1       1.269  -0.289   2.354  0.00  0.00    +0.000 A 
BRANCH  19  21
ATOM     21  N   UNL     1       2.989  -3.321   3.312  0.00  0.00    +0.000 N 
ATOM     22  H   UNL     1       3.720  -3.918   2.951  0.00  0.00    +0.000 HD
ATOM     23  H   UNL     1       2.534  -3.540   4.188  0.00  0.00    +0.000 HD
ENDBRANCH  19  21
ENDBRANCH  11  12
BRANCH   8  24
ATOM     24  O   UNL     1       3.065   2.013  -3.827  0.00  0.00    +0.000 OA
ATOM     25  H   UNL     1       2.862   2.931  -4.077  0.00  0.00    +0.000 HD
ENDBRANCH   8  24
BRANCH   9  26
ATOM     26  O   UNL     1       2.822  -0.673  -3.498  0.00  0.00    +0.000 OA
ATOM     27  H   UNL     1       3.046  -1.530  -3.097  0.00  0.00    +0.000 HD
ENDBRANCH   9  26
ENDBRANCH   6  10
ENDBRANCH   5   6
ENDBRANCH   1   5
BRANCH   1  28
ATOM     28  O   UNL     1      -1.197   2.096   1.027  0.00  0.00    +0.000 OA
BRANCH  28  29
ATOM     29  P   UNL     1      -2.662   1.675   1.565  0.00  0.00    +0.000 P 
ATOM     30  O   UNL     1      -2.802   1.706   3.059  0.00  0.00    +0.000 OA
BRANCH  29  31
ATOM     31  O   UNL     1      -3.650   2.689   0.781  0.00  0.00    +0.000 OA
ATOM     32  H   UNL     1      -3.744   3.608   1.111  0.00  0.00    +0.000 HD
ENDBRANCH  29  31
BRANCH  29  33
ATOM     33  O   UNL     1      -2.945   0.234   0.896  0.00  0.00    +0.000 OA
BRANCH  33  39
ATOM     34  O   UNL     1      -1.798  -0.822  -0.890  0.00  0.00    +0.000 OA
ATOM     35  C   UNL     1      -4.516  -1.795  -0.826  0.00  0.00    +0.000 C 
ATOM     36  C   UNL     1      -3.327  -2.715  -1.114  0.00  0.00    +0.000 C 
ATOM     37  C   UNL     1      -4.167  -0.346  -1.158  0.00  0.00    +0.000 C 
ATOM     38  C   UNL     1      -2.039  -2.173  -0.479  0.00  0.00    +0.000 C 
ATOM     39  C   UNL     1      -2.844   0.078  -0.518  0.00  0.00    +0.000 C 
BRANCH  35  40
ATOM     40  O   UNL     1      -5.613  -2.211  -1.642  0.00  0.00    +0.000 OA
ATOM     41  H   UNL     1      -5.347  -2.127  -2.574  0.00  0.00    +0.000 HD
ENDBRANCH  35  40
BRANCH  36  42
ATOM     42  O   UNL     1      -3.631  -4.006  -0.592  0.00  0.00    +0.000 OA
ATOM     43  H   UNL     1      -3.712  -3.928   0.374  0.00  0.00    +0.000 HD
ENDBRANCH  36  42
BRANCH  37  44
ATOM     44  O   UNL     1      -5.221   0.505  -0.723  0.00  0.00    +0.000 OA
ATOM     45  H   UNL     1      -4.966   1.419  -0.935  0.00  0.00    +0.000 HD
ENDBRANCH  37  44
BRANCH  38  46
ATOM     46  C   UNL     1      -0.814  -2.987  -0.885  0.00  0.00    +0.000 C 
BRANCH  46  47
ATOM     47  O   UNL     1       0.220  -2.740   0.050  0.00  0.00    +0.000 OA
ATOM     48  H   UNL     1       0.990  -3.264  -0.229  0.00  0.00    +0.000 HD
ENDBRANCH  46  47
ENDBRANCH  38  46
ENDBRANCH  33  39
ENDBRANCH  29  33
ENDBRANCH  28  29
ENDBRANCH   1  28
TORSDOF 18
