REMARK  Name = 5459918
REMARK  10 active torsions:
REMARK  status: ('A' for Active; 'I' for Inactive)
REMARK    1  A    between atoms: P_1  and  O_5
REMARK    2  A    between atoms: P_1  and  O_7
REMARK    3  A    between atoms: P_1  and  O_8
REMARK    4  A    between atoms: O_3  and  C_12
REMARK    5  A    between atoms: O_4  and  C_14
REMARK    6  A    between atoms: O_5  and  C_16
REMARK    7  A    between atoms: N_10  and  C_15
REMARK    8  A    between atoms: N_11  and  C_18
REMARK    9  A    between atoms: C_13  and  C_16
REMARK   10  A    between atoms: C_17  and  C_18
REMARK                            x       y       z     vdW  Elec       q    Type
REMARK                         _______ _______ _______ _____ _____    ______ ____
ROOT
ATOM      1  O   UNL     1      -0.061   0.132  -0.868  0.00  0.00    +0.000 OA
ATOM      2  C   UNL     1      -0.104   1.800   0.797  0.00  0.00    +0.000 C 
ATOM      3  C   UNL     1       0.787   1.085  -0.204  0.00  0.00    +0.000 C 
ATOM      4  C   UNL     1      -1.433   1.840   0.069  0.00  0.00    +0.000 C 
ATOM      5  C   UNL     1      -1.436   0.504  -0.662  0.00  0.00    +0.000 C 
ENDROOT
BRANCH   5   7
ATOM      6  O   UNL     1      -4.213  -0.303  -0.792  0.00  0.00    +0.000 OA
ATOM      7  N   UNL     1      -2.078  -0.537   0.096  0.00  0.00    +0.000 N 
ATOM      8  C   UNL     1      -3.426  -0.861  -0.030  0.00  0.00    +0.000 C 
ATOM      9  H   UNL     1      -1.508  -1.037   0.771  0.00  0.00    +0.000 HD
BRANCH   8  10
ATOM     10  C   UNL     1      -3.837  -1.974   0.912  0.00  0.00    +0.000 C 
BRANCH  10  11
ATOM     11  N   UNL     1      -4.944  -2.707   0.315  0.00  0.00    +0.000 NA
ATOM     12  H   UNL     1      -5.721  -2.074   0.132  0.00  0.00    +0.000 HD
ATOM     13  H   UNL     1      -4.662  -3.088  -0.587  0.00  0.00    +0.000 HD
ENDBRANCH  10  11
ENDBRANCH   8  10
ENDBRANCH   5   7
BRANCH   2  14
ATOM     14  O   UNL     1       0.391   3.078   1.131  0.00  0.00    +0.000 OA
ATOM     15  H   UNL     1      -0.269   3.507   1.702  0.00  0.00    +0.000 HD
ENDBRANCH   2  14
BRANCH   4  16
ATOM     16  O   UNL     1      -1.473   2.903  -0.880  0.00  0.00    +0.000 OA
ATOM     17  H   UNL     1      -1.350   3.733  -0.390  0.00  0.00    +0.000 HD
ENDBRANCH   4  16
BRANCH   3  18
ATOM     18  C   UNL     1       1.959   0.365   0.440  0.00  0.00    +0.000 C 
BRANCH  18  19
ATOM     19  O   UNL     1       2.713  -0.273  -0.576  0.00  0.00    +0.000 OA
BRANCH  19  20
ATOM     20  P   UNL     1       4.027  -1.116  -0.148  0.00  0.00    +0.000 P 
ATOM     21  O   UNL     1       4.766  -1.758  -1.286  0.00  0.00    +0.000 OA
BRANCH  20  22
ATOM     22  O   UNL     1       3.479  -2.134   0.982  0.00  0.00    +0.000 OA
ATOM     23  H   UNL     1       4.089  -2.808   1.351  0.00  0.00    +0.000 HD
ENDBRANCH  20  22
BRANCH  20  24
ATOM     24  O   UNL     1       4.885  -0.042   0.704  0.00  0.00    +0.000 OA
ATOM     25  H   UNL     1       5.786  -0.286   1.004  0.00  0.00    +0.000 HD
ENDBRANCH  20  24
ENDBRANCH  19  20
ENDBRANCH  18  19
ENDBRANCH   3  18
TORSDOF 10
