REMARK  Name = 6858181
REMARK  15 active torsions:
REMARK  status: ('A' for Active; 'I' for Inactive)
REMARK    1  A    between atoms: P_2  and  O_8
REMARK    2  A    between atoms: P_2  and  O_9
REMARK    3  A    between atoms: P_2  and  O_10
REMARK    4  A    between atoms: P_3  and  O_9
REMARK    5  A    between atoms: P_3  and  O_11
REMARK    6  A    between atoms: P_3  and  O_12
REMARK    7  A    between atoms: P_4  and  O_11
REMARK    8  A    between atoms: P_4  and  O_14
REMARK    9  A    between atoms: P_4  and  O_15
REMARK   10  A    between atoms: O_6  and  C_22
REMARK   11  A    between atoms: O_7  and  C_23
REMARK   12  A    between atoms: O_8  and  C_26
REMARK   13  A    between atoms: N_17  and  C_24
REMARK   14  A    between atoms: N_21  and  C_30
REMARK   15  A    between atoms: C_25  and  C_26
REMARK                            x       y       z     vdW  Elec       q    Type
REMARK                         _______ _______ _______ _____ _____    ______ ____
ROOT
ATOM      1  O   UNL     1      -0.388  -1.799   0.946  0.00  0.00    +0.000 OA
ATOM      2  C   UNL     1      -1.954  -2.715  -0.576  0.00  0.00    +0.000 C 
ATOM      3  C   UNL     1      -1.054  -3.834  -0.093  0.00  0.00    +0.000 C 
ATOM      4  C   UNL     1      -1.758  -1.676   0.518  0.00  0.00    +0.000 C 
ATOM      5  C   UNL     1       0.130  -3.071   0.491  0.00  0.00    +0.000 C 
ENDROOT
BRANCH   4   6
ATOM      6  N   UNL     1      -2.018  -0.303   0.089  0.00  0.00    +0.000 N 
ATOM      7  N   UNL     1      -1.646   1.716  -0.784  0.00  0.00    +0.000 NA
ATOM      8  N   UNL     1      -4.345  -0.050   0.741  0.00  0.00    +0.000 NA
ATOM      9  N   UNL     1      -5.188   2.171   0.181  0.00  0.00    +0.000 NA
ATOM     10  C   UNL     1      -3.193   0.385   0.209  0.00  0.00    +0.000 A 
ATOM     11  C   UNL     1      -1.120   0.540  -0.513  0.00  0.00    +0.000 A 
ATOM     12  C   UNL     1      -2.942   1.633  -0.339  0.00  0.00    +0.000 A 
ATOM     13  C   UNL     1      -3.994   2.543  -0.341  0.00  0.00    +0.000 A 
ATOM     14  C   UNL     1      -5.287   0.916   0.683  0.00  0.00    +0.000 A 
BRANCH  13  15
ATOM     15  N   UNL     1      -3.828   3.831  -0.878  0.00  0.00    +0.000 N 
ATOM     16  H   UNL     1      -4.608   4.474  -0.868  0.00  0.00    +0.000 HD
ATOM     17  H   UNL     1      -2.939   4.111  -1.268  0.00  0.00    +0.000 HD
ENDBRANCH  13  15
ENDBRANCH   4   6
BRANCH   2  18
ATOM     18  O   UNL     1      -3.307  -3.105  -0.694  0.00  0.00    +0.000 OA
ATOM     19  H   UNL     1      -3.821  -2.317  -0.940  0.00  0.00    +0.000 HD
ENDBRANCH   2  18
BRANCH   3  20
ATOM     20  O   UNL     1      -1.704  -4.549   0.957  0.00  0.00    +0.000 OA
ATOM     21  H   UNL     1      -2.516  -4.933   0.585  0.00  0.00    +0.000 HD
ENDBRANCH   3  20
BRANCH   5  22
ATOM     22  C   UNL     1       1.227  -2.804  -0.531  0.00  0.00    +0.000 C 
BRANCH  22  23
ATOM     23  O   UNL     1       2.276  -2.085   0.095  0.00  0.00    +0.000 OA
BRANCH  23  25
ATOM     24  S   UNL     1       4.702  -3.109  -1.426  0.00  0.00    +0.000 S 
ATOM     25  P   UNL     1       3.585  -1.663  -0.767  0.00  0.00    +0.000 P 
BRANCH  25  26
ATOM     26  O   UNL     1       2.917  -0.741  -1.925  0.00  0.00    +0.000 OA
ATOM     27  H   UNL     1       2.341   0.007  -1.658  0.00  0.00    +0.000 HD
ENDBRANCH  25  26
BRANCH  25  28
ATOM     28  O   UNL     1       4.312  -0.554   0.161  0.00  0.00    +0.000 OA
BRANCH  28  29
ATOM     29  P   UNL     1       3.749   0.712   0.988  0.00  0.00    +0.000 P 
ATOM     30  O   UNL     1       2.739   0.396   2.052  0.00  0.00    +0.000 OA
BRANCH  29  31
ATOM     31  O   UNL     1       5.089   1.446   1.519  0.00  0.00    +0.000 OA
ATOM     32  H   UNL     1       5.556   1.075   2.297  0.00  0.00    +0.000 HD
ENDBRANCH  29  31
BRANCH  29  33
ATOM     33  O   UNL     1       3.224   1.712  -0.167  0.00  0.00    +0.000 OA
BRANCH  33  34
ATOM     34  P   UNL     1       2.667   3.228  -0.114  0.00  0.00    +0.000 P 
ATOM     35  O   UNL     1       3.644   4.225   0.438  0.00  0.00    +0.000 OA
BRANCH  34  36
ATOM     36  O   UNL     1       1.284   3.095   0.711  0.00  0.00    +0.000 OA
ATOM     37  H   UNL     1       0.801   3.911   0.963  0.00  0.00    +0.000 HD
ENDBRANCH  34  36
BRANCH  34  38
ATOM     38  O   UNL     1       2.182   3.510  -1.629  0.00  0.00    +0.000 OA
ATOM     39  H   UNL     1       1.889   4.414  -1.874  0.00  0.00    +0.000 HD
ENDBRANCH  34  38
ENDBRANCH  33  34
ENDBRANCH  29  33
ENDBRANCH  28  29
ENDBRANCH  25  28
ENDBRANCH  23  25
ENDBRANCH  22  23
ENDBRANCH   5  22
TORSDOF 15
