REMARK  Name = 448873
REMARK  17 active torsions:
REMARK  status: ('A' for Active; 'I' for Inactive)
REMARK    1  A    between atoms: P_1  and  O_7
REMARK    2  A    between atoms: P_1  and  O_12
REMARK    3  A    between atoms: P_1  and  O_15
REMARK    4  A    between atoms: P_2  and  O_8
REMARK    5  A    between atoms: P_2  and  O_12
REMARK    6  A    between atoms: P_2  and  O_16
REMARK    7  A    between atoms: O_5  and  C_22
REMARK    8  A    between atoms: O_6  and  C_23
REMARK    9  A    between atoms: O_7  and  C_30
REMARK   10  A    between atoms: O_8  and  C_31
REMARK   11  A    between atoms: O_9  and  C_26
REMARK   12  A    between atoms: O_10  and  C_27
REMARK   13  A    between atoms: O_11  and  C_28
REMARK   14  A    between atoms: O_13  and  C_32
REMARK   15  A    between atoms: N_20  and  C_25
REMARK   16  A    between atoms: C_24  and  C_31
REMARK   17  A    between atoms: C_29  and  C_32
REMARK                            x       y       z     vdW  Elec       q    Type
REMARK                         _______ _______ _______ _____ _____    ______ ____
ROOT
ATOM      1  P   UNL     1       1.844  -2.915   1.033  0.00  0.00    +0.000 P 
ATOM      2  O   UNL     1       2.382  -1.836   1.926  0.00  0.00    +0.000 OA
ENDROOT
BRANCH   1   3
ATOM      3  O   UNL     1       2.638  -4.323   1.106  0.00  0.00    +0.000 OA
ATOM      4  H   UNL     1       2.352  -5.059   0.524  0.00  0.00    +0.000 HD
ENDBRANCH   1   3
BRANCH   1   5
ATOM      5  O   UNL     1       0.299  -3.327   1.282  0.00  0.00    +0.000 OA
BRANCH   5   6
ATOM      6  C   UNL     1      -0.638  -2.301   1.558  0.00  0.00    +0.000 C 
BRANCH   6  10
ATOM      7  O   UNL     1      -2.932  -1.642   1.276  0.00  0.00    +0.000 OA
ATOM      8  C   UNL     1      -2.027  -2.968  -0.466  0.00  0.00    +0.000 C 
ATOM      9  C   UNL     1      -2.305  -1.582  -1.009  0.00  0.00    +0.000 C 
ATOM     10  C   UNL     1      -2.005  -2.724   1.037  0.00  0.00    +0.000 C 
ATOM     11  C   UNL     1      -3.274  -1.029   0.022  0.00  0.00    +0.000 C 
BRANCH  11  14
ATOM     12  O   UNL     1      -4.900   0.820  -1.361  0.00  0.00    +0.000 OA
ATOM     13  O   UNL     1      -2.806   4.418   0.618  0.00  0.00    +0.000 OA
ATOM     14  N   UNL     1      -3.176   0.396   0.158  0.00  0.00    +0.000 N 
ATOM     15  N   UNL     1      -3.856   2.611  -0.375  0.00  0.00    +0.000 N 
ATOM     16  C   UNL     1      -4.039   1.237  -0.583  0.00  0.00    +0.000 A 
ATOM     17  C   UNL     1      -2.232   0.948   1.016  0.00  0.00    +0.000 A 
ATOM     18  C   UNL     1      -2.069   2.259   1.204  0.00  0.00    +0.000 A 
ATOM     19  C   UNL     1      -2.931   3.207   0.468  0.00  0.00    +0.000 A 
ATOM     20  H   UNL     1      -4.465   3.234  -0.897  0.00  0.00    +0.000 HD
ENDBRANCH  11  14
BRANCH   8  21
ATOM     21  O   UNL     1      -3.119  -3.841  -0.754  0.00  0.00    +0.000 OA
ATOM     22  H   UNL     1      -2.910  -4.706  -0.361  0.00  0.00    +0.000 HD
ENDBRANCH   8  21
BRANCH   9  23
ATOM     23  O   UNL     1      -2.856  -1.617  -2.309  0.00  0.00    +0.000 OA
ATOM     24  H   UNL     1      -3.082  -0.703  -2.554  0.00  0.00    +0.000 HD
ENDBRANCH   9  23
ENDBRANCH   6  10
ENDBRANCH   5   6
ENDBRANCH   1   5
BRANCH   1  25
ATOM     25  O   UNL     1       1.876  -2.561  -0.544  0.00  0.00    +0.000 OA
BRANCH  25  26
ATOM     26  P   UNL     1       2.992  -1.809  -1.440  0.00  0.00    +0.000 P 
ATOM     27  O   UNL     1       4.333  -2.485  -1.449  0.00  0.00    +0.000 OA
BRANCH  26  28
ATOM     28  O   UNL     1       2.289  -1.702  -2.894  0.00  0.00    +0.000 OA
ATOM     29  H   UNL     1       2.291  -2.487  -3.481  0.00  0.00    +0.000 HD
ENDBRANCH  26  28
BRANCH  26  30
ATOM     30  O   UNL     1       3.008  -0.293  -0.884  0.00  0.00    +0.000 OA
BRANCH  30  36
ATOM     31  O   UNL     1       1.442   0.818   0.511  0.00  0.00    +0.000 OA
ATOM     32  C   UNL     1       2.878   2.712  -1.106  0.00  0.00    +0.000 C 
ATOM     33  C   UNL     1       2.508   3.014   0.347  0.00  0.00    +0.000 C 
ATOM     34  C   UNL     1       1.911   1.693  -1.712  0.00  0.00    +0.000 C 
ATOM     35  C   UNL     1       2.371   1.707   1.138  0.00  0.00    +0.000 C 
ATOM     36  C   UNL     1       1.796   0.453  -0.827  0.00  0.00    +0.000 C 
BRANCH  32  37
ATOM     37  O   UNL     1       2.838   3.904  -1.887  0.00  0.00    +0.000 OA
ATOM     38  H   UNL     1       3.084   3.667  -2.797  0.00  0.00    +0.000 HD
ENDBRANCH  32  37
BRANCH  33  39
ATOM     39  O   UNL     1       3.528   3.810   0.944  0.00  0.00    +0.000 OA
ATOM     40  H   UNL     1       4.359   3.305   0.917  0.00  0.00    +0.000 HD
ENDBRANCH  33  39
BRANCH  34  41
ATOM     41  O   UNL     1       0.608   2.266  -1.827  0.00  0.00    +0.000 OA
ATOM     42  H   UNL     1       0.033   1.607  -2.253  0.00  0.00    +0.000 HD
ENDBRANCH  34  41
BRANCH  35  43
ATOM     43  C   UNL     1       1.869   1.962   2.557  0.00  0.00    +0.000 C 
BRANCH  43  44
ATOM     44  O   UNL     1       1.755   0.719   3.224  0.00  0.00    +0.000 OA
ATOM     45  H   UNL     1       1.427   0.903   4.121  0.00  0.00    +0.000 HD
ENDBRANCH  43  44
ENDBRANCH  35  43
ENDBRANCH  30  36
ENDBRANCH  26  30
ENDBRANCH  25  26
ENDBRANCH   1  25
TORSDOF 17
