REMARK  Name = 163884
REMARK  18 active torsions:
REMARK  status: ('A' for Active; 'I' for Inactive)
REMARK    1  A    between atoms: P_1  and  O_5
REMARK    2  A    between atoms: P_1  and  O_10
REMARK    3  A    between atoms: P_1  and  O_11
REMARK    4  A    between atoms: P_2  and  O_9
REMARK    5  A    between atoms: P_2  and  O_10
REMARK    6  A    between atoms: P_2  and  O_13
REMARK    7  A    between atoms: O_3  and  C_26
REMARK    8  A    between atoms: O_4  and  C_27
REMARK    9  A    between atoms: O_5  and  C_28
REMARK   10  A    between atoms: O_7  and  C_29
REMARK   11  A    between atoms: O_8  and  C_30
REMARK   12  A    between atoms: O_9  and  C_35
REMARK   13  A    between atoms: N_16  and  C_24
REMARK   14  A    between atoms: N_17  and  C_32
REMARK   15  A    between atoms: N_22  and  C_43
REMARK   16  A    between atoms: C_23  and  C_28
REMARK   17  A    between atoms: C_31  and  C_35
REMARK   18  A    between atoms: C_36  and  C_41
REMARK                            x       y       z     vdW  Elec       q    Type
REMARK                         _______ _______ _______ _____ _____    ______ ____
ROOT
ATOM      1  P   UNL     1      -2.736   3.494  -1.348  0.00  0.00    +0.000 P 
ATOM      2  O   UNL     1      -3.812   4.525  -1.173  0.00  0.00    +0.000 OA
ENDROOT
BRANCH   1   3
ATOM      3  O   UNL     1      -2.117   3.399  -2.840  0.00  0.00    +0.000 OA
ATOM      4  H   UNL     1      -1.453   2.707  -3.043  0.00  0.00    +0.000 HD
ENDBRANCH   1   3
BRANCH   1   5
ATOM      5  O   UNL     1      -1.437   3.666  -0.399  0.00  0.00    +0.000 OA
BRANCH   5   6
ATOM      6  C   UNL     1      -0.385   2.725  -0.515  0.00  0.00    +0.000 C 
BRANCH   6  10
ATOM      7  O   UNL     1       1.065   1.353   0.832  0.00  0.00    +0.000 OA
ATOM      8  C   UNL     1       1.304   3.706   1.110  0.00  0.00    +0.000 C 
ATOM      9  C   UNL     1       2.590   3.142   0.539  0.00  0.00    +0.000 C 
ATOM     10  C   UNL     1       0.307   2.585   0.834  0.00  0.00    +0.000 C 
ATOM     11  C   UNL     1       2.468   1.672   0.912  0.00  0.00    +0.000 C 
BRANCH  11  12
ATOM     12  N   UNL     1       3.227   0.773   0.046  0.00  0.00    +0.000 N 
ATOM     13  N   UNL     1       4.918  -0.484  -0.683  0.00  0.00    +0.000 NA
ATOM     14  N   UNL     1       1.634   0.411  -1.752  0.00  0.00    +0.000 NA
ATOM     15  N   UNL     1       2.544  -1.081  -3.455  0.00  0.00    +0.000 NA
ATOM     16  C   UNL     1       2.814   0.232  -1.138  0.00  0.00    +0.000 A 
ATOM     17  C   UNL     1       4.497   0.314   0.276  0.00  0.00    +0.000 A 
ATOM     18  C   UNL     1       3.876  -0.544  -1.574  0.00  0.00    +0.000 A 
ATOM     19  C   UNL     1       3.711  -1.216  -2.780  0.00  0.00    +0.000 A 
ATOM     20  C   UNL     1       1.592  -0.288  -2.907  0.00  0.00    +0.000 A 
BRANCH  19  21
ATOM     21  N   UNL     1       4.737  -2.027  -3.296  0.00  0.00    +0.000 N 
ATOM     22  H   UNL     1       4.592  -2.506  -4.175  0.00  0.00    +0.000 HD
ATOM     23  H   UNL     1       5.608  -2.130  -2.794  0.00  0.00    +0.000 HD
ENDBRANCH  19  21
ENDBRANCH  11  12
BRANCH   8  24
ATOM     24  O   UNL     1       1.440   3.864   2.522  0.00  0.00    +0.000 OA
ATOM     25  H   UNL     1       0.587   4.184   2.862  0.00  0.00    +0.000 HD
ENDBRANCH   8  24
BRANCH   9  26
ATOM     26  O   UNL     1       3.748   3.732   1.094  0.00  0.00    +0.000 OA
ATOM     27  H   UNL     1       4.520   3.274   0.720  0.00  0.00    +0.000 HD
ENDBRANCH   9  26
ENDBRANCH   6  10
ENDBRANCH   5   6
ENDBRANCH   1   5
BRANCH   1  28
ATOM     28  O   UNL     1      -3.204   1.976  -1.052  0.00  0.00    +0.000 OA
BRANCH  28  29
ATOM     29  P   UNL     1      -4.170   1.367   0.093  0.00  0.00    +0.000 P 
ATOM     30  O   UNL     1      -3.983   1.986   1.448  0.00  0.00    +0.000 OA
BRANCH  29  31
ATOM     31  O   UNL     1      -5.650   1.559  -0.530  0.00  0.00    +0.000 OA
ATOM     32  H   UNL     1      -6.074   2.442  -0.482  0.00  0.00    +0.000 HD
ENDBRANCH  29  31
BRANCH  29  33
ATOM     33  O   UNL     1      -3.911  -0.229   0.036  0.00  0.00    +0.000 OA
BRANCH  33  34
ATOM     34  C   UNL     1      -4.056  -0.927  -1.189  0.00  0.00    +0.000 C 
BRANCH  34  35
ATOM     35  C   UNL     1      -3.108  -2.116  -1.189  0.00  0.00    +0.000 C 
ATOM     36  C   UNL     1      -0.941  -2.987  -0.560  0.00  0.00    +0.000 C 
ATOM     37  C   UNL     1      -1.638  -1.712  -1.057  0.00  0.00    +0.000 C 
ATOM     38  C   UNL     1      -3.302  -3.044   0.010  0.00  0.00    +0.000 C 
ATOM     39  C   UNL     1      -2.037  -3.908   0.005  0.00  0.00    +0.000 C 
BRANCH  36  40
ATOM     40  N   UNL     1       0.104  -2.674   0.454  0.00  0.00    +0.000 N 
ATOM     41  C   UNL     1      -0.261  -2.072   1.594  0.00  0.00    +0.000 A 
ATOM     42  C   UNL     1       1.376  -3.006   0.194  0.00  0.00    +0.000 A 
ATOM     43  C   UNL     1       0.691  -1.769   2.557  0.00  0.00    +0.000 A 
ATOM     44  C   UNL     1       2.371  -2.728   1.120  0.00  0.00    +0.000 A 
ATOM     45  C   UNL     1       2.020  -2.102   2.313  0.00  0.00    +0.000 A 
BRANCH  43  48
ATOM     46  O   UNL     1       1.147  -0.822   4.664  0.00  0.00    +0.000 OA
ATOM     47  N   UNL     1      -1.041  -0.810   3.977  0.00  0.00    +0.000 N 
ATOM     48  C   UNL     1       0.305  -1.116   3.796  0.00  0.00    +0.000 C 
ATOM     49  H   UNL     1      -1.337  -0.347   4.830  0.00  0.00    +0.000 HD
ATOM     50  H   UNL     1      -1.785  -1.009   3.320  0.00  0.00    +0.000 HD
ENDBRANCH  43  48
ENDBRANCH  36  40
BRANCH  38  51
ATOM     51  O   UNL     1      -4.487  -3.808  -0.101  0.00  0.00    +0.000 OA
ATOM     52  H   UNL     1      -4.491  -4.447   0.631  0.00  0.00    +0.000 HD
ENDBRANCH  38  51
BRANCH  39  53
ATOM     53  O   UNL     1      -2.210  -5.010  -0.885  0.00  0.00    +0.000 OA
ATOM     54  H   UNL     1      -1.383  -5.523  -0.875  0.00  0.00    +0.000 HD
ENDBRANCH  39  53
ENDBRANCH  34  35
ENDBRANCH  33  34
ENDBRANCH  29  33
ENDBRANCH  28  29
ENDBRANCH   1  28
TORSDOF 18
