REMARK  Name = 444378
REMARK  15 active torsions:
REMARK  status: ('A' for Active; 'I' for Inactive)
REMARK    1  A    between atoms: P_1  and  O_7
REMARK    2  A    between atoms: P_1  and  O_8
REMARK    3  A    between atoms: P_1  and  O_10
REMARK    4  A    between atoms: P_2  and  O_8
REMARK    5  A    between atoms: P_2  and  O_12
REMARK    6  A    between atoms: P_2  and  O_13
REMARK    7  A    between atoms: P_3  and  O_12
REMARK    8  A    between atoms: P_3  and  O_15
REMARK    9  A    between atoms: P_3  and  O_16
REMARK   10  A    between atoms: O_5  and  C_24
REMARK   11  A    between atoms: O_6  and  C_25
REMARK   12  A    between atoms: O_7  and  C_27
REMARK   13  A    between atoms: N_18  and  C_23
REMARK   14  A    between atoms: N_19  and  C_31
REMARK   15  A    between atoms: C_26  and  C_27
REMARK                            x       y       z     vdW  Elec       q    Type
REMARK                         _______ _______ _______ _____ _____    ______ ____
ROOT
ATOM      1  O   UNL     1       0.376   2.482  -1.330  0.00  0.00    +0.000 OA
ATOM      2  C   UNL     1      -0.917   2.286  -0.716  0.00  0.00    +0.000 C 
ATOM      3  C   UNL     1      -0.776   2.638   0.763  0.00  0.00    +0.000 C 
ATOM      4  C   UNL     1       0.718   2.530   0.992  0.00  0.00    +0.000 C 
ATOM      5  C   UNL     1       1.279   2.997  -0.340  0.00  0.00    +0.000 C 
ENDROOT
BRANCH   2   7
ATOM      6  O   UNL     1      -3.867  -2.938  -0.952  0.00  0.00    +0.000 OA
ATOM      7  N   UNL     1      -1.382   0.912  -0.917  0.00  0.00    +0.000 N 
ATOM      8  N   UNL     1      -1.424  -1.175  -1.530  0.00  0.00    +0.000 N 
ATOM      9  N   UNL     1      -3.619   1.010   0.135  0.00  0.00    +0.000 N 
ATOM     10  N   UNL     1      -4.794  -1.086   0.034  0.00  0.00    +0.000 NA
ATOM     11  N   UNL     1      -5.736   0.824   1.042  0.00  0.00    +0.000 N 
ATOM     12  C   UNL     1      -2.591   0.395  -0.521  0.00  0.00    +0.000 A 
ATOM     13  C   UNL     1      -0.683  -0.058  -1.530  0.00  0.00    +0.000 A 
ATOM     14  C   UNL     1      -2.621  -0.920  -0.907  0.00  0.00    +0.000 A 
ATOM     15  C   UNL     1      -1.008  -2.438  -2.102  0.00  0.00    +0.000 C 
ATOM     16  C   UNL     1      -3.756  -1.755  -0.643  0.00  0.00    +0.000 A 
ATOM     17  C   UNL     1      -4.715   0.185   0.384  0.00  0.00    +0.000 A 
ATOM     18  H   UNL     1      -3.645   1.980   0.435  0.00  0.00    +0.000 HD
ATOM     19  H   UNL     1      -6.591   0.335   1.284  0.00  0.00    +0.000 HD
ATOM     20  H   UNL     1      -5.666   1.800   1.308  0.00  0.00    +0.000 HD
ENDBRANCH   2   7
BRANCH   3  21
ATOM     21  O   UNL     1      -1.241   3.968   0.982  0.00  0.00    +0.000 OA
ATOM     22  H   UNL     1      -2.193   3.979   0.784  0.00  0.00    +0.000 HD
ENDBRANCH   3  21
BRANCH   4  23
ATOM     23  O   UNL     1       1.180   3.317   2.069  0.00  0.00    +0.000 OA
ATOM     24  H   UNL     1       2.146   3.219   2.114  0.00  0.00    +0.000 HD
ENDBRANCH   4  23
BRANCH   5  25
ATOM     25  C   UNL     1       2.686   2.497  -0.614  0.00  0.00    +0.000 C 
BRANCH  25  26
ATOM     26  O   UNL     1       2.680   1.080  -0.613  0.00  0.00    +0.000 OA
BRANCH  26  27
ATOM     27  P   UNL     1       4.053   0.266  -0.881  0.00  0.00    +0.000 P 
ATOM     28  O   UNL     1       5.150   0.537   0.108  0.00  0.00    +0.000 OA
BRANCH  27  29
ATOM     29  O   UNL     1       4.434   0.615  -2.414  0.00  0.00    +0.000 OA
ATOM     30  H   UNL     1       4.886   1.463  -2.610  0.00  0.00    +0.000 HD
ENDBRANCH  27  29
BRANCH  27  31
ATOM     31  O   UNL     1       3.599  -1.283  -0.956  0.00  0.00    +0.000 OA
BRANCH  31  32
ATOM     32  P   UNL     1       2.991  -2.273   0.165  0.00  0.00    +0.000 P 
ATOM     33  O   UNL     1       2.692  -3.665  -0.306  0.00  0.00    +0.000 OA
BRANCH  32  34
ATOM     34  O   UNL     1       4.054  -2.181   1.380  0.00  0.00    +0.000 OA
ATOM     35  H   UNL     1       4.894  -2.683   1.314  0.00  0.00    +0.000 HD
ENDBRANCH  32  34
BRANCH  32  36
ATOM     36  O   UNL     1       1.710  -1.462   0.725  0.00  0.00    +0.000 OA
BRANCH  36  37
ATOM     37  P   UNL     1       0.693  -1.763   1.944  0.00  0.00    +0.000 P 
ATOM     38  O   UNL     1       1.342  -1.849   3.293  0.00  0.00    +0.000 OA
BRANCH  37  39
ATOM     39  O   UNL     1      -0.418  -0.599   1.789  0.00  0.00    +0.000 OA
ATOM     40  H   UNL     1      -1.112  -0.509   2.476  0.00  0.00    +0.000 HD
ENDBRANCH  37  39
BRANCH  37  41
ATOM     41  O   UNL     1      -0.088  -3.095   1.467  0.00  0.00    +0.000 OA
ATOM     42  H   UNL     1      -0.720  -3.522   2.084  0.00  0.00    +0.000 HD
ENDBRANCH  37  41
ENDBRANCH  36  37
ENDBRANCH  32  36
ENDBRANCH  31  32
ENDBRANCH  27  31
ENDBRANCH  26  27
ENDBRANCH  25  26
ENDBRANCH   5  25
TORSDOF 14
