REMARK  Name = 5288882
REMARK  20 active torsions:
REMARK  status: ('A' for Active; 'I' for Inactive)
REMARK    1  A    between atoms: P_1  and  O_9
REMARK    2  A    between atoms: P_1  and  O_11
REMARK    3  A    between atoms: P_1  and  O_12
REMARK    4  A    between atoms: P_2  and  O_10
REMARK    5  A    between atoms: P_2  and  O_11
REMARK    6  A    between atoms: O_5  and  C_25
REMARK    7  A    between atoms: O_6  and  C_26
REMARK    8  A    between atoms: O_7  and  C_29
REMARK    9  A    between atoms: O_8  and  C_30
REMARK   10  A    between atoms: O_9  and  C_33
REMARK   11  A    between atoms: O_10  and  C_34
REMARK   12  A    between atoms: N_18  and  C_28
REMARK   13  A    between atoms: N_19  and  C_32
REMARK   14  A    between atoms: N_23  and  C_43
REMARK   15  A    between atoms: C_27  and  C_33
REMARK   16  A    between atoms: C_31  and  C_34
REMARK   17  A    between atoms: C_40  and  C_45
REMARK   18  A    between atoms: C_41  and  C_44
REMARK   19  A    between atoms: C_44  and  C_47
REMARK   20  A    between atoms: C_47  and  C_48
REMARK                            x       y       z     vdW  Elec       q    Type
REMARK                         _______ _______ _______ _____ _____    ______ ____
ROOT
ATOM      1  P   UNL     1       2.329   3.651   1.896  0.00  0.00    +0.000 P 
ATOM      2  O   UNL     1       1.897   4.941   2.560  0.00  0.00    +0.000 OA
ATOM      3  O   UNL     1       3.787   3.398   1.580  0.00  0.00    +0.000 OA
ENDROOT
BRANCH   1   4
ATOM      4  O   UNL     1       1.765   2.381   2.759  0.00  0.00    +0.000 OA
BRANCH   4   5
ATOM      5  C   UNL     1       2.051   1.064   2.318  0.00  0.00    +0.000 C 
BRANCH   5   9
ATOM      6  O   UNL     1      -0.013   0.263   3.266  0.00  0.00    +0.000 OA
ATOM      7  C   UNL     1       1.664  -1.382   2.886  0.00  0.00    +0.000 C 
ATOM      8  C   UNL     1       0.472  -1.678   1.998  0.00  0.00    +0.000 C 
ATOM      9  C   UNL     1       1.420   0.070   3.284  0.00  0.00    +0.000 C 
ATOM     10  C   UNL     1      -0.630  -0.911   2.706  0.00  0.00    +0.000 C 
BRANCH  10  11
ATOM     11  N   UNL     1      -1.722  -0.574   1.758  0.00  0.00    +0.000 N 
ATOM     12  C   UNL     1      -2.759  -1.414   1.641  0.00  0.00    +0.000 A 
ATOM     13  C   UNL     1      -1.634   0.560   1.049  0.00  0.00    +0.000 A 
ATOM     14  C   UNL     1      -3.793  -1.125   0.761  0.00  0.00    +0.000 A 
ATOM     15  C   UNL     1      -3.728   0.045   0.012  0.00  0.00    +0.000 A 
ATOM     16  C   UNL     1      -2.639   0.900   0.154  0.00  0.00    +0.000 A 
BRANCH  14  19
ATOM     17  O   UNL     1      -4.890  -2.991  -0.167  0.00  0.00    +0.000 OA
ATOM     18  N   UNL     1      -6.000  -1.856   1.488  0.00  0.00    +0.000 N 
ATOM     19  C   UNL     1      -4.911  -2.050   0.644  0.00  0.00    +0.000 C 
ATOM     20  H   UNL     1      -6.033  -1.097   2.161  0.00  0.00    +0.000 HD
ATOM     21  H   UNL     1      -6.804  -2.475   1.453  0.00  0.00    +0.000 HD
ENDBRANCH  14  19
BRANCH  15  22
ATOM     22  C   UNL     1      -4.810   0.407  -0.952  0.00  0.00    +0.000 C 
BRANCH  22  24
ATOM     23  O   UNL     1      -5.904   1.621   0.832  0.00  0.00    +0.000 OA
ATOM     24  C   UNL     1      -5.925   1.241  -0.338  0.00  0.00    +0.000 C 
ATOM     25  C   UNL     1      -7.079   1.589  -1.243  0.00  0.00    +0.000 C 
ENDBRANCH  22  24
ENDBRANCH  15  22
ENDBRANCH  10  11
BRANCH   7  26
ATOM     26  O   UNL     1       1.599  -2.197   4.056  0.00  0.00    +0.000 OA
ATOM     27  H   UNL     1       2.349  -1.949   4.624  0.00  0.00    +0.000 HD
ENDBRANCH   7  26
BRANCH   8  28
ATOM     28  O   UNL     1       0.180  -3.057   1.905  0.00  0.00    +0.000 OA
ATOM     29  H   UNL     1       0.970  -3.498   1.547  0.00  0.00    +0.000 HD
ENDBRANCH   8  28
ENDBRANCH   5   9
ENDBRANCH   4   5
ENDBRANCH   1   4
BRANCH   1  30
ATOM     30  O   UNL     1       1.459   3.458   0.527  0.00  0.00    +0.000 OA
BRANCH  30  31
ATOM     31  P   UNL     1       1.427   4.314  -0.844  0.00  0.00    +0.000 P 
ATOM     32  O   UNL     1       0.604   5.567  -0.772  0.00  0.00    +0.000 OA
BRANCH  31  33
ATOM     33  O   UNL     1       2.993   4.564  -1.161  0.00  0.00    +0.000 OA
ATOM     34  H   UNL     1       3.467   5.273  -0.676  0.00  0.00    +0.000 HD
ENDBRANCH  31  33
BRANCH  31  35
ATOM     35  O   UNL     1       0.953   3.257  -1.974  0.00  0.00    +0.000 OA
BRANCH  35  36
ATOM     36  C   UNL     1       1.652   2.035  -2.139  0.00  0.00    +0.000 C 
BRANCH  36  40
ATOM     37  O   UNL     1       1.684  -0.019  -3.394  0.00  0.00    +0.000 OA
ATOM     38  C   UNL     1      -0.467   0.910  -2.976  0.00  0.00    +0.000 C 
ATOM     39  C   UNL     1      -0.361  -0.428  -2.272  0.00  0.00    +0.000 C 
ATOM     40  C   UNL     1       0.994   1.245  -3.261  0.00  0.00    +0.000 C 
ATOM     41  C   UNL     1       0.780  -1.082  -3.036  0.00  0.00    +0.000 C 
BRANCH  41  42
ATOM     42  N   UNL     1       1.497  -2.104  -2.276  0.00  0.00    +0.000 N 
ATOM     43  N   UNL     1       2.055  -4.120  -1.507  0.00  0.00    +0.000 NA
ATOM     44  N   UNL     1       3.121  -0.741  -1.092  0.00  0.00    +0.000 NA
ATOM     45  N   UNL     1       4.557  -2.109   0.330  0.00  0.00    +0.000 NA
ATOM     46  C   UNL     1       2.540  -1.905  -1.417  0.00  0.00    +0.000 A 
ATOM     47  C   UNL     1       1.242  -3.450  -2.296  0.00  0.00    +0.000 A 
ATOM     48  C   UNL     1       2.872  -3.167  -0.951  0.00  0.00    +0.000 A 
ATOM     49  C   UNL     1       3.924  -3.246  -0.044  0.00  0.00    +0.000 A 
ATOM     50  C   UNL     1       4.123  -0.944  -0.209  0.00  0.00    +0.000 A 
BRANCH  49  51
ATOM     51  N   UNL     1       4.329  -4.486   0.479  0.00  0.00    +0.000 N 
ATOM     52  H   UNL     1       3.857  -5.336   0.201  0.00  0.00    +0.000 HD
ATOM     53  H   UNL     1       5.095  -4.518   1.137  0.00  0.00    +0.000 HD
ENDBRANCH  49  51
ENDBRANCH  41  42
BRANCH  38  54
ATOM     54  O   UNL     1      -1.152   0.742  -4.218  0.00  0.00    +0.000 OA
ATOM     55  H   UNL     1      -1.168   1.608  -4.660  0.00  0.00    +0.000 HD
ENDBRANCH  38  54
BRANCH  39  56
ATOM     56  O   UNL     1      -1.550  -1.188  -2.346  0.00  0.00    +0.000 OA
ATOM     57  H   UNL     1      -1.384  -2.037  -1.901  0.00  0.00    +0.000 HD
ENDBRANCH  39  56
ENDBRANCH  36  40
ENDBRANCH  35  36
ENDBRANCH  31  35
ENDBRANCH  30  31
ENDBRANCH   1  30
TORSDOF 19
