REMARK  Name = 82400
REMARK  12 active torsions:
REMARK  status: ('A' for Active; 'I' for Inactive)
REMARK    1  A    between atoms: P_1  and  O_6
REMARK    2  A    between atoms: P_1  and  O_9
REMARK    3  A    between atoms: P_1  and  O_10
REMARK    4  A    between atoms: P_2  and  O_8
REMARK    5  A    between atoms: P_2  and  O_12
REMARK    6  A    between atoms: P_2  and  O_13
REMARK    7  A    between atoms: O_4  and  C_15
REMARK    8  A    between atoms: O_5  and  C_16
REMARK    9  A    between atoms: O_6  and  C_19
REMARK   10  A    between atoms: O_7  and  C_18
REMARK   11  A    between atoms: O_8  and  C_20
REMARK   12  A    between atoms: C_17  and  C_20
REMARK                            x       y       z     vdW  Elec       q    Type
REMARK                         _______ _______ _______ _____ _____    ______ ____
ROOT
ATOM      1  O   UNL     1       0.192   0.054  -0.837  0.00  0.00    +0.000 OA
ATOM      2  C   UNL     1       0.426   2.247   0.217  0.00  0.00    +0.000 C 
ATOM      3  C   UNL     1       1.947   2.076   0.246  0.00  0.00    +0.000 C 
ATOM      4  C   UNL     1      -0.285   0.887   0.226  0.00  0.00    +0.000 C 
ATOM      5  C   UNL     1       2.396   1.081  -0.822  0.00  0.00    +0.000 C 
ATOM      6  C   UNL     1       1.593  -0.219  -0.756  0.00  0.00    +0.000 C 
ENDROOT
BRANCH   2   7
ATOM      7  O   UNL     1       0.046   3.012   1.358  0.00  0.00    +0.000 OA
ATOM      8  H   UNL     1       0.393   3.913   1.240  0.00  0.00    +0.000 HD
ENDBRANCH   2   7
BRANCH   3   9
ATOM      9  O   UNL     1       2.546   3.347  -0.018  0.00  0.00    +0.000 OA
ATOM     10  H   UNL     1       2.356   3.925   0.740  0.00  0.00    +0.000 HD
ENDBRANCH   3   9
BRANCH   5  11
ATOM     11  O   UNL     1       3.784   0.812  -0.661  0.00  0.00    +0.000 OA
ATOM     12  H   UNL     1       3.901   0.356   0.190  0.00  0.00    +0.000 HD
ENDBRANCH   5  11
BRANCH   6  13
ATOM     13  O   UNL     1       1.924  -1.011   0.383  0.00  0.00    +0.000 OA
BRANCH  13  14
ATOM     14  P   UNL     1       1.826  -2.617   0.251  0.00  0.00    +0.000 P 
ATOM     15  O   UNL     1       2.708  -3.225  -0.800  0.00  0.00    +0.000 OA
BRANCH  14  16
ATOM     16  O   UNL     1       0.243  -2.894   0.069  0.00  0.00    +0.000 OA
ATOM     17  H   UNL     1      -0.062  -3.812  -0.093  0.00  0.00    +0.000 HD
ENDBRANCH  14  16
BRANCH  14  18
ATOM     18  O   UNL     1       2.120  -3.115   1.761  0.00  0.00    +0.000 OA
ATOM     19  H   UNL     1       2.210  -4.076   1.935  0.00  0.00    +0.000 HD
ENDBRANCH  14  18
ENDBRANCH  13  14
ENDBRANCH   6  13
BRANCH   4  20
ATOM     20  C   UNL     1      -1.793   1.028   0.039  0.00  0.00    +0.000 C 
BRANCH  20  21
ATOM     21  O   UNL     1      -2.370  -0.265   0.048  0.00  0.00    +0.000 OA
BRANCH  21  22
ATOM     22  P   UNL     1      -3.974  -0.397  -0.134  0.00  0.00    +0.000 P 
ATOM     23  O   UNL     1      -4.501  -1.802  -0.112  0.00  0.00    +0.000 OA
BRANCH  22  24
ATOM     24  O   UNL     1      -4.276   0.433  -1.489  0.00  0.00    +0.000 OA
ATOM     25  H   UNL     1      -5.189   0.439  -1.848  0.00  0.00    +0.000 HD
ENDBRANCH  22  24
BRANCH  22  26
ATOM     26  O   UNL     1      -4.552   0.567   1.029  0.00  0.00    +0.000 OA
ATOM     27  H   UNL     1      -5.519   0.590   1.189  0.00  0.00    +0.000 HD
ENDBRANCH  22  26
ENDBRANCH  21  22
ENDBRANCH  20  21
ENDBRANCH   4  20
TORSDOF 12
