REMARK  Name = 
REMARK  15 active torsions:
REMARK  status: ('A' for Active; 'I' for Inactive)
REMARK    1  A    between atoms: C_1  and  C_5
REMARK    2  A    between atoms: C_1  and  O_27
REMARK    3  A    between atoms: C_2  and  AS_12
REMARK    4  A    between atoms: C_2  and  P_30
REMARK    5  A    between atoms: C_7  and  O_18
REMARK    6  A    between atoms: C_8  and  O_19
REMARK    7  A    between atoms: C_9  and  N_13
REMARK    8  A    between atoms: C_11  and  N_17
REMARK    9  A    between atoms: AS_12  and  O_20
REMARK   10  A    between atoms: AS_12  and  O_21
REMARK   11  A    between atoms: O_23  and  P_30
REMARK   12  A    between atoms: O_25  and  P_31
REMARK   13  A    between atoms: O_27  and  P_31
REMARK   14  A    between atoms: O_29  and  P_30
REMARK   15  A    between atoms: O_29  and  P_31
REMARK                            x       y       z     vdW  Elec       q    Type
REMARK                         _______ _______ _______ _____ _____    ______ ____
ROOT
ATOM      1  C   UNL     1       0.099  -1.009   0.000  0.00  0.00    +0.000 C 
ATOM      2  C   UNL     1       0.884  -1.264   0.000  0.00  0.00    +0.000 C 
ATOM      3  C   UNL     1       1.369  -0.597   0.000  0.00  0.00    +0.000 C 
ATOM      4  C   UNL     1       0.884   0.071   0.000  0.00  0.00    +0.000 C 
ATOM      5  O   UNL     1       0.099  -0.184   0.000  0.00  0.00    +0.000 OA
ENDROOT
BRANCH   4  14
ATOM      6  C   UNL     1       3.352   1.110   0.000  0.00  0.00    +0.000 A 
ATOM      7  C   UNL     1       0.654   1.523   0.000  0.00  0.00    +0.000 A 
ATOM      8  C   UNL     1       1.923   1.935   0.000  0.00  0.00    +0.000 A 
ATOM      9  C   UNL     1       2.638   2.348   0.000  0.00  0.00    +0.000 A 
ATOM     10  C   UNL     1       1.923   1.110   0.000  0.00  0.00    +0.000 A 
ATOM     11  N   UNL     1       3.352   1.935   0.000  0.00  0.00    +0.000 NA
ATOM     12  N   UNL     1       2.638   0.698   0.000  0.00  0.00    +0.000 NA
ATOM     13  N   UNL     1       1.139   2.190   0.000  0.00  0.00    +0.000 NA
ATOM     14  N   UNL     1       1.139   0.856   0.000  0.00  0.00    +0.000 N 
BRANCH   9  15
ATOM     15  N   UNL     1       2.638   3.173   0.000  0.00  0.00    +0.000 N 
ATOM     16  H   UNL     1       3.490   3.665   0.000  0.00  0.00    +0.000 HD
ATOM     17  H   UNL     1       1.785   3.665   0.000  0.00  0.00    +0.000 HD
ENDBRANCH   9  15
ENDBRANCH   4  14
BRANCH   2  18
ATOM     18  O   UNL     1       1.139  -2.049   0.000  0.00  0.00    +0.000 OA
ATOM     19  H   UNL     1       0.490  -2.769   0.000  0.00  0.00    +0.000 HD
ENDBRANCH   2  18
BRANCH   3  20
ATOM     20  O   UNL     1       2.194  -0.597   0.000  0.00  0.00    +0.000 OA
ATOM     21  H   UNL     1       2.679  -1.437   0.000  0.00  0.00    +0.000 HD
ENDBRANCH   3  20
BRANCH   1  22
ATOM     22  C   UNL     1      -0.568  -1.494   0.000  0.00  0.00    +0.000 C 
BRANCH  22  23
ATOM     23  O   UNL     1      -1.322  -1.158   0.000  0.00  0.00    +0.000 OA
BRANCH  23  25
ATOM     24  O   UNL     1      -1.504  -2.311   0.000  0.00  0.00    +0.000 OA
ATOM     25  P   UNL     1      -1.989  -1.643   0.000  0.00  0.00    +0.000 P 
BRANCH  25  26
ATOM     26  O   UNL     1      -2.474  -0.976   0.000  0.00  0.00    +0.000 OA
ATOM     27  H   UNL     1      -2.080  -0.090   0.000  0.00  0.00    +0.000 HD
ENDBRANCH  25  26
BRANCH  25  28
ATOM     28  O   UNL     1      -2.657  -2.128   0.000  0.00  0.00    +0.000 OA
BRANCH  28  30
ATOM     29  O   UNL     1      -3.746  -2.546   0.000  0.00  0.00    +0.000 OA
ATOM     30  P   UNL     1      -3.410  -1.793   0.000  0.00  0.00    +0.000 P 
BRANCH  30  31
ATOM     31  O   UNL     1      -3.075  -1.039   0.000  0.00  0.00    +0.000 OA
ATOM     32  H   UNL     1      -2.110  -0.938   0.000  0.00  0.00    +0.000 HD
ENDBRANCH  30  31
BRANCH  30  33
ATOM     33  C   UNL     1      -4.164  -1.457   0.000  0.00  0.00    +0.000 C 
BRANCH  33  34
ATOM     34 AS   UNL     1      -4.832  -1.942   0.000  0.00  0.00    +0.000 As
ATOM     35  O   UNL     1      -4.347  -2.610   0.000  0.00  0.00    +0.000 OA
BRANCH  34  36
ATOM     36  O   UNL     1      -5.499  -2.427   0.000  0.00  0.00    +0.000 OA
ATOM     37  H   UNL     1      -6.385  -2.032   0.000  0.00  0.00    +0.000 HD
ENDBRANCH  34  36
BRANCH  34  38
ATOM     38  O   UNL     1      -5.316  -1.275   0.000  0.00  0.00    +0.000 OA
ATOM     39  H   UNL     1      -4.922  -0.388   0.000  0.00  0.00    +0.000 HD
ENDBRANCH  34  38
ENDBRANCH  33  34
ENDBRANCH  30  33
ENDBRANCH  28  30
ENDBRANCH  25  28
ENDBRANCH  23  25
ENDBRANCH  22  23
ENDBRANCH   1  22
TORSDOF 15
