REMARK  Name = 128419
REMARK  12 active torsions:
REMARK  status: ('A' for Active; 'I' for Inactive)
REMARK    1  A    between atoms: P_1  and  O_3
REMARK    2  A    between atoms: P_1  and  O_9
REMARK    3  A    between atoms: P_1  and  O_10
REMARK    4  A    between atoms: P_2  and  O_4
REMARK    5  A    between atoms: P_2  and  O_11
REMARK    6  A    between atoms: P_2  and  O_12
REMARK    7  A    between atoms: O_3  and  C_15
REMARK    8  A    between atoms: O_4  and  C_16
REMARK    9  A    between atoms: O_5  and  C_17
REMARK   10  A    between atoms: O_6  and  C_18
REMARK   11  A    between atoms: O_7  and  C_19
REMARK   12  A    between atoms: O_8  and  C_20
REMARK                            x       y       z     vdW  Elec       q    Type
REMARK                         _______ _______ _______ _____ _____    ______ ____
ROOT
ATOM      1  C   UNL     1       1.282   0.696  -0.741  0.00  0.00    +0.000 C 
ATOM      2  C   UNL     1      -1.282   0.697  -0.746  0.00  0.00    +0.000 C 
ATOM      3  C   UNL     1       0.002   1.020  -1.527  0.00  0.00    +0.000 C 
ATOM      4  C   UNL     1       1.281   1.285   0.680  0.00  0.00    +0.000 C 
ATOM      5  C   UNL     1      -1.285   1.290   0.673  0.00  0.00    +0.000 C 
ATOM      6  C   UNL     1      -0.005   0.968   1.460  0.00  0.00    +0.000 C 
ENDROOT
BRANCH   3   7
ATOM      7  O   UNL     1       0.018   2.400  -1.884  0.00  0.00    +0.000 OA
ATOM      8  H   UNL     1      -0.774   2.574  -2.420  0.00  0.00    +0.000 HD
ENDBRANCH   3   7
BRANCH   4   9
ATOM      9  O   UNL     1       1.459   2.696   0.589  0.00  0.00    +0.000 OA
ATOM     10  H   UNL     1       2.304   2.861   0.136  0.00  0.00    +0.000 HD
ENDBRANCH   4   9
BRANCH   5  11
ATOM     11  O   UNL     1      -1.438   2.705   0.605  0.00  0.00    +0.000 OA
ATOM     12  H   UNL     1      -0.687   3.070   0.106  0.00  0.00    +0.000 HD
ENDBRANCH   5  11
BRANCH   6  13
ATOM     13  O   UNL     1      -0.008  -0.402   1.851  0.00  0.00    +0.000 OA
ATOM     14  H   UNL     1       0.792  -0.559   2.380  0.00  0.00    +0.000 HD
ENDBRANCH   6  13
BRANCH   1  15
ATOM     15  O   UNL     1       1.437  -0.719  -0.678  0.00  0.00    +0.000 OA
BRANCH  15  16
ATOM     16  P   UNL     1       2.771  -1.306   0.012  0.00  0.00    +0.000 P 
ATOM     17  O   UNL     1       2.971  -0.921   1.448  0.00  0.00    +0.000 OA
BRANCH  16  18
ATOM     18  O   UNL     1       3.956  -0.862  -0.995  0.00  0.00    +0.000 OA
ATOM     19  H   UNL     1       4.885  -1.062  -0.752  0.00  0.00    +0.000 HD
ENDBRANCH  16  18
BRANCH  16  20
ATOM     20  O   UNL     1       2.632  -2.895  -0.256  0.00  0.00    +0.000 OA
ATOM     21  H   UNL     1       3.285  -3.504   0.152  0.00  0.00    +0.000 HD
ENDBRANCH  16  20
ENDBRANCH  15  16
ENDBRANCH   1  15
BRANCH   2  22
ATOM     22  O   UNL     1      -1.435  -0.719  -0.678  0.00  0.00    +0.000 OA
BRANCH  22  23
ATOM     23  P   UNL     1      -2.770  -1.306   0.011  0.00  0.00    +0.000 P 
ATOM     24  O   UNL     1      -2.973  -0.916   1.445  0.00  0.00    +0.000 OA
BRANCH  23  25
ATOM     25  O   UNL     1      -2.682  -2.897  -0.268  0.00  0.00    +0.000 OA
ATOM     26  H   UNL     1      -3.370  -3.483   0.112  0.00  0.00    +0.000 HD
ENDBRANCH  23  25
BRANCH  23  27
ATOM     27  O   UNL     1      -3.931  -0.815  -1.002  0.00  0.00    +0.000 OA
ATOM     28  H   UNL     1      -4.869  -0.966  -0.757  0.00  0.00    +0.000 HD
ENDBRANCH  23  27
ENDBRANCH  22  23
ENDBRANCH   2  22
TORSDOF 12
