REMARK  Name = 445795
REMARK  16 active torsions:
REMARK  status: ('A' for Active; 'I' for Inactive)
REMARK    1  A    between atoms: P_1  and  O_8
REMARK    2  A    between atoms: P_1  and  O_12
REMARK    3  A    between atoms: P_1  and  O_15
REMARK    4  A    between atoms: P_2  and  O_9
REMARK    5  A    between atoms: P_2  and  O_12
REMARK    6  A    between atoms: P_2  and  O_16
REMARK    7  A    between atoms: O_6  and  C_22
REMARK    8  A    between atoms: O_7  and  C_23
REMARK    9  A    between atoms: O_8  and  C_30
REMARK   10  A    between atoms: O_9  and  C_31
REMARK   11  A    between atoms: O_10  and  C_26
REMARK   12  A    between atoms: O_11  and  C_27
REMARK   13  A    between atoms: O_13  and  C_32
REMARK   14  A    between atoms: N_20  and  C_25
REMARK   15  A    between atoms: C_24  and  C_30
REMARK   16  A    between atoms: C_28  and  C_32
REMARK                            x       y       z     vdW  Elec       q    Type
REMARK                         _______ _______ _______ _____ _____    ______ ____
ROOT
ATOM      1  P   UNL     1      -2.104  -2.691  -1.107  0.00  0.00    +0.000 P 
ATOM      2  O   UNL     1      -2.486  -1.577  -2.038  0.00  0.00    +0.000 OA
ENDROOT
BRANCH   1   3
ATOM      3  O   UNL     1      -3.046  -4.003  -1.188  0.00  0.00    +0.000 OA
ATOM      4  H   UNL     1      -2.865  -4.754  -0.584  0.00  0.00    +0.000 HD
ENDBRANCH   1   3
BRANCH   1   5
ATOM      5  O   UNL     1      -0.607  -3.275  -1.290  0.00  0.00    +0.000 OA
BRANCH   5   6
ATOM      6  C   UNL     1       0.448  -2.364  -1.546  0.00  0.00    +0.000 C 
BRANCH   6  10
ATOM      7  O   UNL     1       2.789  -1.957  -1.187  0.00  0.00    +0.000 OA
ATOM      8  C   UNL     1       1.680  -3.140   0.540  0.00  0.00    +0.000 C 
ATOM      9  C   UNL     1       2.091  -1.783   1.071  0.00  0.00    +0.000 C 
ATOM     10  C   UNL     1       1.740  -2.925  -0.966  0.00  0.00    +0.000 C 
ATOM     11  C   UNL     1       3.152  -1.361   0.069  0.00  0.00    +0.000 C 
BRANCH  11  14
ATOM     12  O   UNL     1       4.921   0.326   1.484  0.00  0.00    +0.000 OA
ATOM     13  O   UNL     1       3.313   4.092  -0.632  0.00  0.00    +0.000 OA
ATOM     14  N   UNL     1       3.217   0.064  -0.093  0.00  0.00    +0.000 N 
ATOM     15  N   UNL     1       4.119   2.200   0.430  0.00  0.00    +0.000 N 
ATOM     16  C   UNL     1       4.141   0.819   0.667  0.00  0.00    +0.000 A 
ATOM     17  C   UNL     1       2.373   0.699  -0.996  0.00  0.00    +0.000 A 
ATOM     18  C   UNL     1       2.363   2.016  -1.211  0.00  0.00    +0.000 A 
ATOM     19  C   UNL     1       3.297   2.877  -0.458  0.00  0.00    +0.000 A 
ATOM     20  H   UNL     1       4.774   2.763   0.965  0.00  0.00    +0.000 HD
ENDBRANCH  11  14
BRANCH   8  21
ATOM     21  O   UNL     1       2.657  -4.122   0.883  0.00  0.00    +0.000 OA
ATOM     22  H   UNL     1       2.368  -4.967   0.498  0.00  0.00    +0.000 HD
ENDBRANCH   8  21
BRANCH   9  23
ATOM     23  O   UNL     1       2.587  -1.851   2.392  0.00  0.00    +0.000 OA
ATOM     24  H   UNL     1       1.885  -2.230   2.948  0.00  0.00    +0.000 HD
ENDBRANCH   9  23
ENDBRANCH   6  10
ENDBRANCH   5   6
ENDBRANCH   1   5
BRANCH   1  25
ATOM     25  O   UNL     1      -2.154  -2.304   0.462  0.00  0.00    +0.000 OA
BRANCH  25  26
ATOM     26  P   UNL     1      -3.211  -1.415   1.302  0.00  0.00    +0.000 P 
ATOM     27  O   UNL     1      -4.618  -1.938   1.270  0.00  0.00    +0.000 OA
BRANCH  26  28
ATOM     28  O   UNL     1      -2.555  -1.356   2.779  0.00  0.00    +0.000 OA
ATOM     29  H   UNL     1      -2.666  -2.124   3.379  0.00  0.00    +0.000 HD
ENDBRANCH  26  28
BRANCH  26  30
ATOM     30  O   UNL     1      -3.041   0.081   0.721  0.00  0.00    +0.000 OA
BRANCH  30  37
ATOM     31  F   UNL     1      -2.260   1.623   2.796  0.00  0.00    +0.000 F 
ATOM     32  O   UNL     1      -1.332   1.006  -0.631  0.00  0.00    +0.000 OA
ATOM     33  C   UNL     1      -2.176   3.296  -0.491  0.00  0.00    +0.000 C 
ATOM     34  C   UNL     1      -2.612   3.038   0.953  0.00  0.00    +0.000 C 
ATOM     35  C   UNL     1      -2.162   1.981  -1.282  0.00  0.00    +0.000 C 
ATOM     36  C   UNL     1      -1.756   1.939   1.572  0.00  0.00    +0.000 C 
ATOM     37  C   UNL     1      -1.751   0.688   0.699  0.00  0.00    +0.000 C 
BRANCH  33  38
ATOM     38  O   UNL     1      -0.860   3.855  -0.501  0.00  0.00    +0.000 OA
ATOM     39  H   UNL     1      -0.230   3.159  -0.250  0.00  0.00    +0.000 HD
ENDBRANCH  33  38
BRANCH  34  40
ATOM     40  O   UNL     1      -2.479   4.239   1.705  0.00  0.00    +0.000 OA
ATOM     41  H   UNL     1      -3.032   4.915   1.278  0.00  0.00    +0.000 HD
ENDBRANCH  34  40
BRANCH  35  42
ATOM     42  C   UNL     1      -1.624   2.160  -2.697  0.00  0.00    +0.000 C 
BRANCH  42  43
ATOM     43  O   UNL     1      -2.051   1.064  -3.485  0.00  0.00    +0.000 OA
ATOM     44  H   UNL     1      -1.700   1.199  -4.381  0.00  0.00    +0.000 HD
ENDBRANCH  42  43
ENDBRANCH  35  42
ENDBRANCH  30  37
ENDBRANCH  26  30
ENDBRANCH  25  26
ENDBRANCH   1  25
TORSDOF 16
