REMARK  Name = 5289376
REMARK  16 active torsions:
REMARK  status: ('A' for Active; 'I' for Inactive)
REMARK    1  A    between atoms: P_1  and  O_4
REMARK    2  A    between atoms: P_1  and  O_10
REMARK    3  A    between atoms: P_1  and  O_11
REMARK    4  A    between atoms: P_2  and  O_6
REMARK    5  A    between atoms: P_2  and  O_14
REMARK    6  A    between atoms: P_2  and  O_15
REMARK    7  A    between atoms: O_3  and  C_17
REMARK    8  A    between atoms: O_3  and  C_23
REMARK    9  A    between atoms: O_4  and  C_19
REMARK   10  A    between atoms: O_5  and  C_18
REMARK   11  A    between atoms: O_6  and  C_23
REMARK   12  A    between atoms: O_7  and  C_24
REMARK   13  A    between atoms: O_9  and  C_26
REMARK   14  A    between atoms: C_21  and  C_24
REMARK   15  A    between atoms: C_23  and  C_25
REMARK   16  A    between atoms: C_23  and  C_26
REMARK                            x       y       z     vdW  Elec       q    Type
REMARK                         _______ _______ _______ _____ _____    ______ ____
ROOT
ATOM      1  C   UNL     1       0.087  -0.794  -0.325  0.00  0.00    +0.000 C 
ATOM      2  C   UNL     1       1.213  -1.383  -1.181  0.00  0.00    +0.000 C 
ATOM      3  C   UNL     1       2.559  -0.708  -0.877  0.00  0.00    +0.000 C 
ATOM      4  C   UNL     1      -0.040   0.719  -0.550  0.00  0.00    +0.000 C 
ATOM      5  C   UNL     1       1.279   1.419  -0.677  0.00  0.00    +0.000 C 
ATOM      6  C   UNL     1       2.454   0.787  -0.813  0.00  0.00    +0.000 C 
ENDROOT
BRANCH   2   7
ATOM      7  O   UNL     1       1.333  -2.783  -0.939  0.00  0.00    +0.000 OA
ATOM      8  H   UNL     1       0.461  -3.181  -1.103  0.00  0.00    +0.000 HD
ENDBRANCH   2   7
BRANCH   5  10
ATOM      9  O   UNL     1       2.218   3.548  -0.194  0.00  0.00    +0.000 OA
ATOM     10  C   UNL     1       1.296   2.883  -0.630  0.00  0.00    +0.000 C 
BRANCH  10  11
ATOM     11  O   UNL     1       0.144   3.365  -1.140  0.00  0.00    +0.000 OA
ATOM     12  H   UNL     1       0.116   4.346  -1.126  0.00  0.00    +0.000 HD
ENDBRANCH  10  11
ENDBRANCH   5  10
BRANCH   1  13
ATOM     13  O   UNL     1      -1.141  -1.421  -0.692  0.00  0.00    +0.000 OA
BRANCH  13  14
ATOM     14  C   UNL     1      -2.279  -0.981   0.048  0.00  0.00    +0.000 C 
ATOM     15  C   UNL     1      -2.049  -1.404   1.502  0.00  0.00    +0.000 C 
BRANCH  14  17
ATOM     16  O   UNL     1      -4.197  -2.474   0.275  0.00  0.00    +0.000 OA
ATOM     17  C   UNL     1      -3.538  -1.711  -0.420  0.00  0.00    +0.000 C 
BRANCH  17  18
ATOM     18  O   UNL     1      -3.842  -1.453  -1.719  0.00  0.00    +0.000 OA
ATOM     19  H   UNL     1      -4.642  -1.940  -2.010  0.00  0.00    +0.000 HD
ENDBRANCH  17  18
ENDBRANCH  14  17
BRANCH  14  20
ATOM     20  O   UNL     1      -2.513   0.419  -0.040  0.00  0.00    +0.000 OA
BRANCH  20  21
ATOM     21  P   UNL     1      -3.700   1.146   0.784  0.00  0.00    +0.000 P 
ATOM     22  O   UNL     1      -5.096   0.675   0.496  0.00  0.00    +0.000 OA
BRANCH  21  23
ATOM     23  O   UNL     1      -3.439   2.714   0.486  0.00  0.00    +0.000 OA
ATOM     24  H   UNL     1      -3.725   3.087  -0.375  0.00  0.00    +0.000 HD
ENDBRANCH  21  23
BRANCH  21  25
ATOM     25  O   UNL     1      -3.243   0.999   2.329  0.00  0.00    +0.000 OA
ATOM     26  H   UNL     1      -3.845   1.319   3.034  0.00  0.00    +0.000 HD
ENDBRANCH  21  25
ENDBRANCH  20  21
ENDBRANCH  14  20
ENDBRANCH  13  14
ENDBRANCH   1  13
BRANCH   3  27
ATOM     27  O   UNL     1       3.063  -1.143   0.386  0.00  0.00    +0.000 OA
BRANCH  27  28
ATOM     28  P   UNL     1       4.509  -0.601   0.861  0.00  0.00    +0.000 P 
ATOM     29  O   UNL     1       4.618   0.890   0.994  0.00  0.00    +0.000 OA
BRANCH  28  30
ATOM     30  O   UNL     1       5.537  -1.278  -0.188  0.00  0.00    +0.000 OA
ATOM     31  H   UNL     1       6.488  -1.042  -0.139  0.00  0.00    +0.000 HD
ENDBRANCH  28  30
BRANCH  28  32
ATOM     32  O   UNL     1       4.769  -1.429   2.224  0.00  0.00    +0.000 OA
ATOM     33  H   UNL     1       5.556  -1.213   2.769  0.00  0.00    +0.000 HD
ENDBRANCH  28  32
ENDBRANCH  27  28
ENDBRANCH   3  27
TORSDOF 15
