REMARK  Name = 123926
REMARK  18 active torsions:
REMARK  status: ('A' for Active; 'I' for Inactive)
REMARK    1  A    between atoms: P_1  and  O_9
REMARK    2  A    between atoms: P_1  and  O_11
REMARK    3  A    between atoms: P_1  and  O_12
REMARK    4  A    between atoms: P_2  and  O_10
REMARK    5  A    between atoms: P_2  and  O_11
REMARK    6  A    between atoms: O_5  and  C_23
REMARK    7  A    between atoms: O_6  and  C_24
REMARK    8  A    between atoms: O_7  and  C_27
REMARK    9  A    between atoms: O_8  and  C_28
REMARK   10  A    between atoms: O_9  and  C_31
REMARK   11  A    between atoms: O_10  and  C_32
REMARK   12  A    between atoms: N_17  and  C_26
REMARK   13  A    between atoms: N_18  and  C_30
REMARK   14  A    between atoms: N_22  and  C_41
REMARK   15  A    between atoms: C_25  and  C_31
REMARK   16  A    between atoms: C_29  and  C_32
REMARK   17  A    between atoms: C_38  and  C_42
REMARK   18  A    between atoms: C_42  and  C_44
REMARK                            x       y       z     vdW  Elec       q    Type
REMARK                         _______ _______ _______ _____ _____    ______ ____
ROOT
ATOM      1  P   UNL     1       4.092   1.369  -1.653  0.00  0.00    +0.000 P 
ATOM      2  O   UNL     1       5.383   1.768  -0.998  0.00  0.00    +0.000 OA
ENDROOT
BRANCH   1   3
ATOM      3  O   UNL     1       4.139   1.371  -3.270  0.00  0.00    +0.000 OA
ATOM      4  H   UNL     1       4.908   0.963  -3.722  0.00  0.00    +0.000 HD
ENDBRANCH   1   3
BRANCH   1   5
ATOM      5  O   UNL     1       2.828   2.310  -1.287  0.00  0.00    +0.000 OA
BRANCH   5   6
ATOM      6  C   UNL     1       1.555   2.035  -1.844  0.00  0.00    +0.000 C 
BRANCH   6  10
ATOM      7  O   UNL     1      -0.742   2.757  -1.869  0.00  0.00    +0.000 OA
ATOM      8  C   UNL     1       0.420   3.055   0.187  0.00  0.00    +0.000 C 
ATOM      9  C   UNL     1      -0.708   2.063   0.395  0.00  0.00    +0.000 C 
ATOM     10  C   UNL     1       0.564   3.070  -1.331  0.00  0.00    +0.000 C 
ATOM     11  C   UNL     1      -1.613   2.383  -0.784  0.00  0.00    +0.000 C 
BRANCH  11  12
ATOM     12  N   UNL     1      -2.467   1.272  -1.198  0.00  0.00    +0.000 N 
ATOM     13  N   UNL     1      -3.102  -0.590  -2.247  0.00  0.00    +0.000 NA
ATOM     14  N   UNL     1      -4.492   1.757   0.052  0.00  0.00    +0.000 NA
ATOM     15  N   UNL     1      -6.218   0.085  -0.372  0.00  0.00    +0.000 NA
ATOM     16  C   UNL     1      -3.750   1.031  -0.797  0.00  0.00    +0.000 A 
ATOM     17  C   UNL     1      -2.123   0.272  -2.068  0.00  0.00    +0.000 A 
ATOM     18  C   UNL     1      -4.125  -0.128  -1.458  0.00  0.00    +0.000 A 
ATOM     19  C   UNL     1      -5.413  -0.599  -1.220  0.00  0.00    +0.000 A 
ATOM     20  C   UNL     1      -5.715   1.204   0.203  0.00  0.00    +0.000 A 
BRANCH  19  21
ATOM     21  N   UNL     1      -5.876  -1.768  -1.847  0.00  0.00    +0.000 N 
ATOM     22  H   UNL     1      -5.276  -2.281  -2.478  0.00  0.00    +0.000 HD
ATOM     23  H   UNL     1      -6.815  -2.091  -1.657  0.00  0.00    +0.000 HD
ENDBRANCH  19  21
ENDBRANCH  11  12
BRANCH   8  24
ATOM     24  O   UNL     1       0.002   4.349   0.623  0.00  0.00    +0.000 OA
ATOM     25  H   UNL     1       0.732   4.966   0.440  0.00  0.00    +0.000 HD
ENDBRANCH   8  24
BRANCH   9  26
ATOM     26  O   UNL     1      -1.372   2.232   1.631  0.00  0.00    +0.000 OA
ATOM     27  H   UNL     1      -2.098   1.587   1.664  0.00  0.00    +0.000 HD
ENDBRANCH   9  26
ENDBRANCH   6  10
ENDBRANCH   5   6
ENDBRANCH   1   5
BRANCH   1  28
ATOM     28  O   UNL     1       3.600  -0.130  -1.300  0.00  0.00    +0.000 OA
BRANCH  28  29
ATOM     29  P   UNL     1       4.309  -1.581  -1.546  0.00  0.00    +0.000 P 
ATOM     30  O   UNL     1       5.561  -1.654  -0.699  0.00  0.00    +0.000 OA
ATOM     31  O   UNL     1       4.371  -1.839  -3.036  0.00  0.00    +0.000 OA
BRANCH  29  32
ATOM     32  O   UNL     1       3.162  -2.556  -0.906  0.00  0.00    +0.000 OA
BRANCH  32  33
ATOM     33  C   UNL     1       1.803  -2.344  -1.249  0.00  0.00    +0.000 C 
BRANCH  33  37
ATOM     34  O   UNL     1       1.096  -3.179   0.896  0.00  0.00    +0.000 OA
ATOM     35  C   UNL     1      -0.545  -3.218  -0.827  0.00  0.00    +0.000 C 
ATOM     36  C   UNL     1      -0.995  -2.264   0.261  0.00  0.00    +0.000 C 
ATOM     37  C   UNL     1       0.943  -3.373  -0.529  0.00  0.00    +0.000 C 
ATOM     38  C   UNL     1      -0.161  -2.735   1.439  0.00  0.00    +0.000 C 
BRANCH  38  39
ATOM     39  N   UNL     1       0.009  -1.640   2.427  0.00  0.00    +0.000 N 
ATOM     40  C   UNL     1       1.031  -0.786   2.276  0.00  0.00    +0.000 A 
ATOM     41  C   UNL     1      -0.864  -1.541   3.439  0.00  0.00    +0.000 A 
ATOM     42  C   UNL     1       1.214   0.248   3.183  0.00  0.00    +0.000 A 
ATOM     43  C   UNL     1      -0.730  -0.527   4.377  0.00  0.00    +0.000 A 
ATOM     44  C   UNL     1       0.322   0.374   4.244  0.00  0.00    +0.000 A 
BRANCH  42  46
ATOM     45  O   UNL     1       2.234   2.362   3.419  0.00  0.00    +0.000 OA
ATOM     46  C   UNL     1       2.318   1.179   3.028  0.00  0.00    +0.000 C 
ATOM     47  C   UNL     1       3.621   0.728   2.375  0.00  0.00    +0.000 C 
ENDBRANCH  42  46
ENDBRANCH  38  39
BRANCH  35  48
ATOM     48  O   UNL     1      -1.184  -4.482  -0.646  0.00  0.00    +0.000 OA
ATOM     49  H   UNL     1      -0.840  -5.082  -1.329  0.00  0.00    +0.000 HD
ENDBRANCH  35  48
BRANCH  36  50
ATOM     50  O   UNL     1      -2.379  -2.343   0.528  0.00  0.00    +0.000 OA
ATOM     51  H   UNL     1      -2.845  -2.274  -0.322  0.00  0.00    +0.000 HD
ENDBRANCH  36  50
ENDBRANCH  33  37
ENDBRANCH  32  33
ENDBRANCH  29  32
ENDBRANCH  28  29
ENDBRANCH   1  28
TORSDOF 17
