REMARK  Name = 447049
REMARK  18 active torsions:
REMARK  status: ('A' for Active; 'I' for Inactive)
REMARK    1  A    between atoms: P_1  and  O_7
REMARK    2  A    between atoms: P_1  and  O_12
REMARK    3  A    between atoms: P_1  and  O_13
REMARK    4  A    between atoms: P_2  and  O_10
REMARK    5  A    between atoms: P_2  and  O_12
REMARK    6  A    between atoms: P_2  and  O_15
REMARK    7  A    between atoms: O_5  and  C_23
REMARK    8  A    between atoms: O_6  and  C_24
REMARK    9  A    between atoms: O_7  and  C_30
REMARK   10  A    between atoms: O_8  and  C_29
REMARK   11  A    between atoms: O_8  and  C_37
REMARK   12  A    between atoms: O_9  and  C_27
REMARK   13  A    between atoms: O_10  and  C_32
REMARK   14  A    between atoms: O_11  and  C_31
REMARK   15  A    between atoms: N_18  and  C_26
REMARK   16  A    between atoms: C_25  and  C_30
REMARK   17  A    between atoms: C_28  and  C_32
REMARK   18  A    between atoms: C_37  and  C_39
REMARK                            x       y       z     vdW  Elec       q    Type
REMARK                         _______ _______ _______ _____ _____    ______ ____
ROOT
ATOM      1  P   UNL     1      -4.709   1.407   0.308  0.00  0.00    +0.000 P 
ATOM      2  O   UNL     1      -5.946   1.569  -0.526  0.00  0.00    +0.000 OA
ENDROOT
BRANCH   1   3
ATOM      3  O   UNL     1      -4.933   1.661   1.891  0.00  0.00    +0.000 OA
ATOM      4  H   UNL     1      -5.711   1.255   2.330  0.00  0.00    +0.000 HD
ENDBRANCH   1   3
BRANCH   1   5
ATOM      5  O   UNL     1      -3.489   2.393  -0.089  0.00  0.00    +0.000 OA
BRANCH   5   6
ATOM      6  C   UNL     1      -2.268   2.334   0.627  0.00  0.00    +0.000 C 
BRANCH   6  10
ATOM      7  O   UNL     1      -0.049   3.259   0.760  0.00  0.00    +0.000 OA
ATOM      8  C   UNL     1      -0.987   3.116  -1.423  0.00  0.00    +0.000 C 
ATOM      9  C   UNL     1       0.227   2.212  -1.347  0.00  0.00    +0.000 C 
ATOM     10  C   UNL     1      -1.304   3.361   0.049  0.00  0.00    +0.000 C 
ATOM     11  C   UNL     1       0.966   2.798  -0.153  0.00  0.00    +0.000 C 
BRANCH  11  12
ATOM     12  N   UNL     1       1.847   1.851   0.526  0.00  0.00    +0.000 N 
ATOM     13  N   UNL     1       2.494   0.246   1.932  0.00  0.00    +0.000 NA
ATOM     14  N   UNL     1       3.960   2.314  -0.579  0.00  0.00    +0.000 NA
ATOM     15  N   UNL     1       5.745   0.896   0.293  0.00  0.00    +0.000 NA
ATOM     16  N   UNL     1       5.375  -0.721   2.018  0.00  0.00    +0.000 N 
ATOM     17  C   UNL     1       3.181   1.668   0.302  0.00  0.00    +0.000 A 
ATOM     18  C   UNL     1       1.480   0.975   1.513  0.00  0.00    +0.000 A 
ATOM     19  C   UNL     1       3.563   0.669   1.184  0.00  0.00    +0.000 A 
ATOM     20  C   UNL     1       4.901   0.286   1.159  0.00  0.00    +0.000 A 
ATOM     21  C   UNL     1       5.229   1.858  -0.511  0.00  0.00    +0.000 A 
ATOM     22  H   UNL     1       6.351  -0.983   1.979  0.00  0.00    +0.000 HD
ATOM     23  H   UNL     1       4.746  -1.181   2.661  0.00  0.00    +0.000 HD
ENDBRANCH  11  12
BRANCH   8  24
ATOM     24  O   UNL     1      -0.620   4.357  -2.027  0.00  0.00    +0.000 OA
ATOM     25  H   UNL     1      -1.409   4.925  -2.025  0.00  0.00    +0.000 HD
ENDBRANCH   8  24
BRANCH   9  26
ATOM     26  O   UNL     1       1.014   2.242  -2.520  0.00  0.00    +0.000 OA
ATOM     27  H   UNL     1       1.796   1.685  -2.364  0.00  0.00    +0.000 HD
ENDBRANCH   9  26
ENDBRANCH   6  10
ENDBRANCH   5   6
ENDBRANCH   1   5
BRANCH   1  28
ATOM     28  O   UNL     1      -4.065  -0.075   0.259  0.00  0.00    +0.000 OA
BRANCH  28  29
ATOM     29  P   UNL     1      -4.679  -1.513   0.672  0.00  0.00    +0.000 P 
ATOM     30  O   UNL     1      -5.910  -1.908  -0.089  0.00  0.00    +0.000 OA
BRANCH  29  31
ATOM     31  O   UNL     1      -4.878  -1.377   2.271  0.00  0.00    +0.000 OA
ATOM     32  H   UNL     1      -4.117  -1.090   2.820  0.00  0.00    +0.000 HD
ENDBRANCH  29  31
BRANCH  29  33
ATOM     33  O   UNL     1      -3.411  -2.505   0.520  0.00  0.00    +0.000 OA
BRANCH  33  34
ATOM     34  C   UNL     1      -2.870  -2.718  -0.774  0.00  0.00    +0.000 C 
BRANCH  34  37
ATOM     35  O   UNL     1      -0.809  -3.189  -1.951  0.00  0.00    +0.000 OA
ATOM     36  C   UNL     1      -0.606  -1.861  -0.002  0.00  0.00    +0.000 C 
ATOM     37  C   UNL     1      -1.384  -3.004  -0.643  0.00  0.00    +0.000 C 
ATOM     38  C   UNL     1       0.771  -2.068  -0.595  0.00  0.00    +0.000 C 
ATOM     39  C   UNL     1       0.402  -2.413  -2.030  0.00  0.00    +0.000 C 
BRANCH  36  40
ATOM     40  O   UNL     1      -0.628  -1.932   1.407  0.00  0.00    +0.000 OA
ATOM     41  H   UNL     1      -1.555  -1.860   1.690  0.00  0.00    +0.000 HD
ENDBRANCH  36  40
BRANCH  39  42
ATOM     42  O   UNL     1       1.456  -3.105  -2.676  0.00  0.00    +0.000 OA
ATOM     43  H   UNL     1       1.342  -2.974  -3.632  0.00  0.00    +0.000 HD
ENDBRANCH  39  42
BRANCH  38  44
ATOM     44  O   UNL     1       1.402  -3.180   0.035  0.00  0.00    +0.000 OA
BRANCH  44  46
ATOM     45  O   UNL     1       3.479  -2.324  -0.500  0.00  0.00    +0.000 OA
ATOM     46  C   UNL     1       2.767  -3.179   0.008  0.00  0.00    +0.000 C 
ATOM     47  C   UNL     1       3.288  -4.400   0.703  0.00  0.00    +0.000 C 
ENDBRANCH  44  46
ENDBRANCH  38  44
ENDBRANCH  34  37
ENDBRANCH  33  34
ENDBRANCH  29  33
ENDBRANCH  28  29
ENDBRANCH   1  28
TORSDOF 17
