REMARK  Name = 18068
REMARK  17 active torsions:
REMARK  status: ('A' for Active; 'I' for Inactive)
REMARK    1  A    between atoms: P_1  and  O_7
REMARK    2  A    between atoms: P_1  and  O_12
REMARK    3  A    between atoms: P_1  and  O_15
REMARK    4  A    between atoms: P_2  and  O_8
REMARK    5  A    between atoms: P_2  and  O_12
REMARK    6  A    between atoms: P_2  and  O_16
REMARK    7  A    between atoms: O_5  and  C_22
REMARK    8  A    between atoms: O_6  and  C_23
REMARK    9  A    between atoms: O_7  and  C_30
REMARK   10  A    between atoms: O_8  and  C_31
REMARK   11  A    between atoms: O_9  and  C_26
REMARK   12  A    between atoms: O_10  and  C_27
REMARK   13  A    between atoms: O_11  and  C_28
REMARK   14  A    between atoms: O_13  and  C_32
REMARK   15  A    between atoms: N_20  and  C_25
REMARK   16  A    between atoms: C_24  and  C_31
REMARK   17  A    between atoms: C_29  and  C_32
REMARK                            x       y       z     vdW  Elec       q    Type
REMARK                         _______ _______ _______ _____ _____    ______ ____
ROOT
ATOM      1  P   UNL     1      -1.162   3.283   0.536  0.00  0.00    +0.000 P 
ATOM      2  O   UNL     1      -2.226   2.675   1.403  0.00  0.00    +0.000 OA
ENDROOT
BRANCH   1   3
ATOM      3  O   UNL     1      -1.417   4.825   0.121  0.00  0.00    +0.000 OA
ATOM      4  H   UNL     1      -0.772   5.270  -0.468  0.00  0.00    +0.000 HD
ENDBRANCH   1   3
BRANCH   1   5
ATOM      5  O   UNL     1       0.331   3.290   1.159  0.00  0.00    +0.000 OA
BRANCH   5   6
ATOM      6  C   UNL     1       0.931   2.050   1.491  0.00  0.00    +0.000 C 
BRANCH   6  10
ATOM      7  O   UNL     1       3.029   0.883   1.617  0.00  0.00    +0.000 OA
ATOM      8  C   UNL     1       2.870   2.521  -0.087  0.00  0.00    +0.000 C 
ATOM      9  C   UNL     1       2.963   1.156  -0.736  0.00  0.00    +0.000 C 
ATOM     10  C   UNL     1       2.441   2.172   1.332  0.00  0.00    +0.000 C 
ATOM     11  C   UNL     1       3.517   0.307   0.395  0.00  0.00    +0.000 C 
BRANCH  11  14
ATOM     12  O   UNL     1       4.985  -1.764  -0.843  0.00  0.00    +0.000 OA
ATOM     13  O   UNL     1       1.755  -4.898   0.156  0.00  0.00    +0.000 OA
ATOM     14  N   UNL     1       3.084  -1.059   0.318  0.00  0.00    +0.000 N 
ATOM     15  N   UNL     1       3.375  -3.323  -0.345  0.00  0.00    +0.000 N 
ATOM     16  C   UNL     1       3.895  -2.022  -0.327  0.00  0.00    +0.000 A 
ATOM     17  C   UNL     1       1.867  -1.434   0.877  0.00  0.00    +0.000 A 
ATOM     18  C   UNL     1       1.385  -2.678   0.851  0.00  0.00    +0.000 A 
ATOM     19  C   UNL     1       2.170  -3.743   0.197  0.00  0.00    +0.000 A 
ATOM     20  H   UNL     1       3.942  -4.032  -0.803  0.00  0.00    +0.000 HD
ENDBRANCH  11  14
BRANCH   8  21
ATOM     21  O   UNL     1       4.162   3.126  -0.019  0.00  0.00    +0.000 OA
ATOM     22  H   UNL     1       4.058   3.982   0.431  0.00  0.00    +0.000 HD
ENDBRANCH   8  21
BRANCH   9  23
ATOM     23  O   UNL     1       3.800   1.159  -1.874  0.00  0.00    +0.000 OA
ATOM     24  H   UNL     1       3.876   0.241  -2.183  0.00  0.00    +0.000 HD
ENDBRANCH   9  23
ENDBRANCH   6  10
ENDBRANCH   5   6
ENDBRANCH   1   5
BRANCH   1  25
ATOM     25  O   UNL     1      -0.958   2.551  -0.890  0.00  0.00    +0.000 OA
BRANCH  25  26
ATOM     26  P   UNL     1      -2.031   1.938  -1.932  0.00  0.00    +0.000 P 
ATOM     27  O   UNL     1      -3.018   2.939  -2.459  0.00  0.00    +0.000 OA
BRANCH  26  28
ATOM     28  O   UNL     1      -1.099   1.258  -3.067  0.00  0.00    +0.000 OA
ATOM     29  H   UNL     1      -0.698   1.829  -3.756  0.00  0.00    +0.000 HD
ENDBRANCH  26  28
BRANCH  26  30
ATOM     30  O   UNL     1      -2.696   0.693  -1.151  0.00  0.00    +0.000 OA
BRANCH  30  36
ATOM     31  O   UNL     1      -1.989  -0.413   0.819  0.00  0.00    +0.000 OA
ATOM     32  C   UNL     1      -3.564  -2.160  -0.840  0.00  0.00    +0.000 C 
ATOM     33  C   UNL     1      -3.690  -2.164   0.686  0.00  0.00    +0.000 C 
ATOM     34  C   UNL     1      -2.175  -1.674  -1.254  0.00  0.00    +0.000 C 
ATOM     35  C   UNL     1      -3.304  -0.792   1.255  0.00  0.00    +0.000 C 
ATOM     36  C   UNL     1      -1.859  -0.325  -0.603  0.00  0.00    +0.000 C 
BRANCH  32  37
ATOM     37  O   UNL     1      -3.774  -3.474  -1.350  0.00  0.00    +0.000 OA
ATOM     38  H   UNL     1      -4.654  -3.764  -1.057  0.00  0.00    +0.000 HD
ENDBRANCH  32  37
BRANCH  33  39
ATOM     39  O   UNL     1      -2.817  -3.154   1.235  0.00  0.00    +0.000 OA
ATOM     40  H   UNL     1      -1.904  -2.830   1.161  0.00  0.00    +0.000 HD
ENDBRANCH  33  39
BRANCH  34  41
ATOM     41  O   UNL     1      -2.099  -1.542  -2.670  0.00  0.00    +0.000 OA
ATOM     42  H   UNL     1      -1.207  -1.222  -2.887  0.00  0.00    +0.000 HD
ENDBRANCH  34  41
BRANCH  35  43
ATOM     43  C   UNL     1      -3.296  -0.776   2.779  0.00  0.00    +0.000 C 
BRANCH  43  44
ATOM     44  O   UNL     1      -3.384   0.568   3.217  0.00  0.00    +0.000 OA
ATOM     45  H   UNL     1      -3.380   0.554   4.189  0.00  0.00    +0.000 HD
ENDBRANCH  43  44
ENDBRANCH  35  43
ENDBRANCH  30  36
ENDBRANCH  26  30
ENDBRANCH  25  26
ENDBRANCH   1  25
TORSDOF 17
