REMARK  Name = 
REMARK  28 active torsions:
REMARK  status: ('A' for Active; 'I' for Inactive)
REMARK    1  A    between atoms: C_1  and  C_3
REMARK    2  A    between atoms: C_2  and  C_4
REMARK    3  A    between atoms: C_3  and  C_5
REMARK    4  A    between atoms: C_4  and  C_6
REMARK    5  A    between atoms: C_5  and  C_7
REMARK    6  A    between atoms: C_6  and  C_8
REMARK    7  A    between atoms: C_7  and  C_9
REMARK    8  A    between atoms: C_8  and  C_11
REMARK    9  A    between atoms: C_9  and  C_10
REMARK   10  A    between atoms: C_10  and  C_12
REMARK   11  A    between atoms: C_11  and  C_13
REMARK   12  A    between atoms: C_12  and  C_15
REMARK   13  A    between atoms: C_13  and  C_17
REMARK   14  A    between atoms: C_14  and  C_16
REMARK   15  A    between atoms: C_14  and  N_21
REMARK   16  A    between atoms: C_15  and  O_26
REMARK   17  A    between atoms: C_16  and  O_27
REMARK   18  A    between atoms: C_17  and  P_30
REMARK   19  A    between atoms: C_18  and  C_20
REMARK   20  A    between atoms: C_18  and  O_26
REMARK   21  A    between atoms: C_19  and  C_20
REMARK   22  A    between atoms: C_19  and  O_28
REMARK   23  A    between atoms: C_20  and  O_29
REMARK   24  A    between atoms: O_22  and  P_30
REMARK   25  A    between atoms: O_24  and  P_31
REMARK   26  A    between atoms: O_27  and  P_31
REMARK   27  A    between atoms: O_28  and  P_31
REMARK   28  A    between atoms: O_29  and  P_30
REMARK                            x       y       z     vdW  Elec       q    Type
REMARK                         _______ _______ _______ _____ _____    ______ ____
ROOT
ATOM      1  C   UNL     1       2.305  -2.445   0.000  0.00  0.00    +0.000 C 
ENDROOT
BRANCH   1   2
ATOM      2  C   UNL     1       1.591  -2.858   0.000  0.00  0.00    +0.000 C 
BRANCH   2   3
ATOM      3  O   UNL     1       0.876  -2.445   0.000  0.00  0.00    +0.000 OA
BRANCH   3   4
ATOM      4  C   UNL     1       0.162  -2.858   0.000  0.00  0.00    +0.000 C 
BRANCH   4   5
ATOM      5  C   UNL     1      -0.553  -2.445   0.000  0.00  0.00    +0.000 C 
BRANCH   5   6
ATOM      6  C   UNL     1      -1.267  -2.858   0.000  0.00  0.00    +0.000 C 
BRANCH   6   7
ATOM      7  C   UNL     1      -1.982  -2.445   0.000  0.00  0.00    +0.000 C 
BRANCH   7   8
ATOM      8  C   UNL     1      -2.696  -2.858   0.000  0.00  0.00    +0.000 C 
BRANCH   8   9
ATOM      9  C   UNL     1      -3.410  -2.445   0.000  0.00  0.00    +0.000 C 
BRANCH   9  11
ATOM     10  C   UNL     1      -4.840  -2.445   0.000  0.00  0.00    +0.000 C 
ATOM     11  C   UNL     1      -4.125  -2.858   0.000  0.00  0.00    +0.000 C 
ENDBRANCH   9  11
ENDBRANCH   8   9
ENDBRANCH   7   8
ENDBRANCH   6   7
ENDBRANCH   5   6
ENDBRANCH   4   5
ENDBRANCH   3   4
ENDBRANCH   2   3
ENDBRANCH   1   2
BRANCH   1  12
ATOM     12  C   UNL     1       2.305  -1.620   0.000  0.00  0.00    +0.000 C 
BRANCH  12  13
ATOM     13  O   UNL     1       3.020  -1.208   0.000  0.00  0.00    +0.000 OA
BRANCH  13  15
ATOM     14  O   UNL     1       3.020   0.442   0.000  0.00  0.00    +0.000 OA
ATOM     15  P   UNL     1       3.020  -0.383   0.000  0.00  0.00    +0.000 P 
BRANCH  15  16
ATOM     16  O   UNL     1       3.845  -0.383   0.000  0.00  0.00    +0.000 OA
ATOM     17  H   UNL     1       4.330  -1.223   0.000  0.00  0.00    +0.000 HD
ENDBRANCH  15  16
BRANCH  15  18
ATOM     18  O   UNL     1       2.195  -0.383   0.000  0.00  0.00    +0.000 OA
BRANCH  18  19
ATOM     19  C   UNL     1       1.782   0.332   0.000  0.00  0.00    +0.000 C 
BRANCH  19  20
ATOM     20  C   UNL     1       0.957   0.332   0.000  0.00  0.00    +0.000 C 
BRANCH  20  21
ATOM     21  N   UNL     1       0.545   1.046   0.000  0.00  0.00    +0.000 NA
ATOM     22  H   UNL     1       1.055   1.929   0.000  0.00  0.00    +0.000 HD
ATOM     23  H   UNL     1      -0.475   1.046   0.000  0.00  0.00    +0.000 HD
ENDBRANCH  20  21
ENDBRANCH  19  20
ENDBRANCH  18  19
ENDBRANCH  15  18
ENDBRANCH  13  15
ENDBRANCH  12  13
ENDBRANCH   1  12
BRANCH   1  24
ATOM     24  O   UNL     1       3.020  -2.858   0.000  0.00  0.00    +0.000 OA
BRANCH  24  26
ATOM     25  O   UNL     1       3.322  -1.731   0.000  0.00  0.00    +0.000 OA
ATOM     26  P   UNL     1       3.734  -2.445   0.000  0.00  0.00    +0.000 P 
BRANCH  26  27
ATOM     27  O   UNL     1       4.147  -3.160   0.000  0.00  0.00    +0.000 OA
ATOM     28  H   UNL     1       3.662  -4.000   0.000  0.00  0.00    +0.000 HD
ENDBRANCH  26  27
BRANCH  26  29
ATOM     29  C   UNL     1       4.449  -2.033   0.000  0.00  0.00    +0.000 C 
BRANCH  29  30
ATOM     30  C   UNL     1       5.163  -2.445   0.000  0.00  0.00    +0.000 C 
BRANCH  30  31
ATOM     31  C   UNL     1       5.878  -2.033   0.000  0.00  0.00    +0.000 C 
BRANCH  31  32
ATOM     32  C   UNL     1       6.592  -2.445   0.000  0.00  0.00    +0.000 C 
BRANCH  32  33
ATOM     33  C   UNL     1       7.306  -2.033   0.000  0.00  0.00    +0.000 C 
BRANCH  33  35
ATOM     34  C   UNL     1       8.736  -2.033   0.000  0.00  0.00    +0.000 C 
ATOM     35  C   UNL     1       8.021  -2.445   0.000  0.00  0.00    +0.000 C 
ENDBRANCH  33  35
ENDBRANCH  32  33
ENDBRANCH  31  32
ENDBRANCH  30  31
ENDBRANCH  29  30
ENDBRANCH  26  29
ENDBRANCH  24  26
ENDBRANCH   1  24
TORSDOF 26
