REMARK  Name = 121966
REMARK  16 active torsions:
REMARK  status: ('A' for Active; 'I' for Inactive)
REMARK    1  A    between atoms: P_1  and  O_6
REMARK    2  A    between atoms: P_1  and  O_11
REMARK    3  A    between atoms: P_1  and  O_13
REMARK    4  A    between atoms: P_2  and  O_9
REMARK    5  A    between atoms: P_2  and  O_11
REMARK    6  A    between atoms: P_2  and  O_14
REMARK    7  A    between atoms: O_5  and  C_20
REMARK    8  A    between atoms: O_6  and  C_28
REMARK    9  A    between atoms: O_7  and  C_24
REMARK   10  A    between atoms: O_8  and  C_25
REMARK   11  A    between atoms: O_9  and  C_29
REMARK   12  A    between atoms: O_10  and  C_26
REMARK   13  A    between atoms: N_18  and  C_23
REMARK   14  A    between atoms: C_21  and  C_29
REMARK   15  A    between atoms: C_27  and  C_30
REMARK   16  A    between atoms: C_33  and  C_35
REMARK                            x       y       z     vdW  Elec       q    Type
REMARK                         _______ _______ _______ _____ _____    ______ ____
ROOT
ATOM      1  P   UNL     1       2.007  -3.403  -0.521  0.00  0.00    +0.000 P 
ATOM      2  O   UNL     1       2.894  -4.596  -0.311  0.00  0.00    +0.000 OA
ENDROOT
BRANCH   1   3
ATOM      3  O   UNL     1       1.380  -3.272  -2.006  0.00  0.00    +0.000 OA
ATOM      4  H   UNL     1       0.877  -2.468  -2.254  0.00  0.00    +0.000 HD
ENDBRANCH   1   3
BRANCH   1   5
ATOM      5  O   UNL     1       0.721  -3.304   0.455  0.00  0.00    +0.000 OA
BRANCH   5   6
ATOM      6  C   UNL     1      -0.156  -2.201   0.308  0.00  0.00    +0.000 C 
BRANCH   6   9
ATOM      7  O   UNL     1      -1.908  -1.031   1.451  0.00  0.00    +0.000 OA
ATOM      8  C   UNL     1      -2.376  -3.285   0.887  0.00  0.00    +0.000 C 
ATOM      9  C   UNL     1      -1.282  -2.322   1.326  0.00  0.00    +0.000 C 
ATOM     10  C   UNL     1      -3.320  -2.399   0.108  0.00  0.00    +0.000 C 
ATOM     11  C   UNL     1      -3.206  -1.073   0.843  0.00  0.00    +0.000 C 
BRANCH  11  14
ATOM     12  O   UNL     1      -5.660   0.274   0.318  0.00  0.00    +0.000 OA
ATOM     13  O   UNL     1      -3.610   3.256  -2.521  0.00  0.00    +0.000 OA
ATOM     14  N   UNL     1      -3.361   0.058  -0.025  0.00  0.00    +0.000 N 
ATOM     15  N   UNL     1      -4.625   1.754  -1.096  0.00  0.00    +0.000 N 
ATOM     16  C   UNL     1      -2.236   0.554  -0.672  0.00  0.00    +0.000 A 
ATOM     17  C   UNL     1      -4.622   0.660  -0.224  0.00  0.00    +0.000 A 
ATOM     18  C   UNL     1      -2.243   1.601  -1.507  0.00  0.00    +0.000 A 
ATOM     19  C   UNL     1      -3.535   2.289  -1.766  0.00  0.00    +0.000 A 
ATOM     20  C   UNL     1      -1.020   2.119  -2.194  0.00  0.00    +0.000 C 
ATOM     21  H   UNL     1      -5.522   2.204  -1.254  0.00  0.00    +0.000 HD
ENDBRANCH  11  14
BRANCH   8  22
ATOM     22  O   UNL     1      -3.046  -3.813   2.030  0.00  0.00    +0.000 OA
ATOM     23  H   UNL     1      -2.398  -4.341   2.528  0.00  0.00    +0.000 HD
ENDBRANCH   8  22
ENDBRANCH   6   9
ENDBRANCH   5   6
ENDBRANCH   1   5
BRANCH   1  24
ATOM     24  O   UNL     1       2.737  -1.977  -0.307  0.00  0.00    +0.000 OA
BRANCH  24  25
ATOM     25  P   UNL     1       3.700  -1.120  -1.284  0.00  0.00    +0.000 P 
ATOM     26  O   UNL     1       4.959  -1.832  -1.686  0.00  0.00    +0.000 OA
BRANCH  25  27
ATOM     27  O   UNL     1       2.727  -0.736  -2.519  0.00  0.00    +0.000 OA
ATOM     28  H   UNL     1       2.580  -1.396  -3.230  0.00  0.00    +0.000 HD
ENDBRANCH  25  27
BRANCH  25  29
ATOM     29  O   UNL     1       3.937   0.273  -0.505  0.00  0.00    +0.000 OA
BRANCH  29  35
ATOM     30  O   UNL     1       2.415   0.648   1.242  0.00  0.00    +0.000 OA
ATOM     31  C   UNL     1       2.028   3.366   0.404  0.00  0.00    +0.000 C 
ATOM     32  C   UNL     1       1.509   2.860   1.752  0.00  0.00    +0.000 C 
ATOM     33  C   UNL     1       3.206   2.519  -0.079  0.00  0.00    +0.000 C 
ATOM     34  C   UNL     1       1.250   1.348   1.693  0.00  0.00    +0.000 C 
ATOM     35  C   UNL     1       2.818   1.041  -0.072  0.00  0.00    +0.000 C 
ATOM     36  C   UNL     1       0.881   0.788   3.063  0.00  0.00    +0.000 C 
BRANCH  31  37
ATOM     37  O   UNL     1       2.427   4.728   0.537  0.00  0.00    +0.000 OA
ATOM     38  H   UNL     1       2.761   5.020  -0.328  0.00  0.00    +0.000 HD
ENDBRANCH  31  37
BRANCH  32  39
ATOM     39  O   UNL     1       0.293   3.530   2.073  0.00  0.00    +0.000 OA
ATOM     40  H   UNL     1      -0.358   3.320   1.381  0.00  0.00    +0.000 HD
ENDBRANCH  32  39
BRANCH  33  41
ATOM     41  O   UNL     1       4.317   2.695   0.806  0.00  0.00    +0.000 OA
ATOM     42  H   UNL     1       4.116   2.243   1.643  0.00  0.00    +0.000 HD
ENDBRANCH  33  41
ENDBRANCH  29  35
ENDBRANCH  25  29
ENDBRANCH  24  25
ENDBRANCH   1  24
TORSDOF 14
