REMARK  Name = 5288994
REMARK  18 active torsions:
REMARK  status: ('A' for Active; 'I' for Inactive)
REMARK    1  A    between atoms: P_1  and  O_9
REMARK    2  A    between atoms: P_1  and  O_11
REMARK    3  A    between atoms: P_1  and  O_12
REMARK    4  A    between atoms: P_2  and  O_10
REMARK    5  A    between atoms: P_2  and  O_11
REMARK    6  A    between atoms: O_5  and  C_23
REMARK    7  A    between atoms: O_6  and  C_24
REMARK    8  A    between atoms: O_7  and  C_27
REMARK    9  A    between atoms: O_8  and  C_28
REMARK   10  A    between atoms: O_9  and  C_31
REMARK   11  A    between atoms: O_10  and  C_32
REMARK   12  A    between atoms: N_16  and  C_26
REMARK   13  A    between atoms: N_17  and  C_30
REMARK   14  A    between atoms: N_21  and  C_41
REMARK   15  A    between atoms: N_22  and  C_42
REMARK   16  A    between atoms: C_25  and  C_31
REMARK   17  A    between atoms: C_29  and  C_32
REMARK   18  A    between atoms: C_38  and  C_42
REMARK                            x       y       z     vdW  Elec       q    Type
REMARK                         _______ _______ _______ _____ _____    ______ ____
ROOT
ATOM      1  P   UNL     1       4.256  -1.077   1.098  0.00  0.00    +0.000 P 
ATOM      2  O   UNL     1       5.062  -2.343   1.133  0.00  0.00    +0.000 OA
ENDROOT
BRANCH   1   3
ATOM      3  O   UNL     1       5.114   0.266   1.379  0.00  0.00    +0.000 OA
ATOM      4  H   UNL     1       5.976   0.381   0.926  0.00  0.00    +0.000 HD
ENDBRANCH   1   3
BRANCH   1   5
ATOM      5  O   UNL     1       3.047  -1.014   2.172  0.00  0.00    +0.000 OA
BRANCH   5   6
ATOM      6  C   UNL     1       2.215   0.131   2.236  0.00  0.00    +0.000 C 
BRANCH   6  10
ATOM      7  O   UNL     1       0.302   1.070   3.356  0.00  0.00    +0.000 OA
ATOM      8  C   UNL     1       0.282  -1.293   3.068  0.00  0.00    +0.000 C 
ATOM      9  C   UNL     1      -0.861  -0.689   2.276  0.00  0.00    +0.000 C 
ATOM     10  C   UNL     1       1.175  -0.083   3.326  0.00  0.00    +0.000 C 
ATOM     11  C   UNL     1      -1.022   0.661   2.960  0.00  0.00    +0.000 C 
BRANCH  11  12
ATOM     12  N   UNL     1      -1.623   1.689   2.114  0.00  0.00    +0.000 N 
ATOM     13  N   UNL     1      -3.194   2.979   1.199  0.00  0.00    +0.000 NA
ATOM     14  N   UNL     1       0.340   2.546   0.966  0.00  0.00    +0.000 NA
ATOM     15  N   UNL     1      -0.252   4.334  -0.586  0.00  0.00    +0.000 NA
ATOM     16  C   UNL     1      -0.974   2.510   1.236  0.00  0.00    +0.000 A 
ATOM     17  C   UNL     1      -2.954   2.008   2.055  0.00  0.00    +0.000 A 
ATOM     18  C   UNL     1      -1.966   3.302   0.679  0.00  0.00    +0.000 A 
ATOM     19  C   UNL     1      -1.565   4.242  -0.265  0.00  0.00    +0.000 A 
ATOM     20  C   UNL     1       0.606   3.492   0.040  0.00  0.00    +0.000 A 
BRANCH  19  21
ATOM     21  N   UNL     1      -2.503   5.089  -0.879  0.00  0.00    +0.000 N 
ATOM     22  H   UNL     1      -2.187   5.763  -1.562  0.00  0.00    +0.000 HD
ATOM     23  H   UNL     1      -3.484   5.022  -0.641  0.00  0.00    +0.000 HD
ENDBRANCH  19  21
ENDBRANCH  11  12
BRANCH   8  24
ATOM     24  O   UNL     1      -0.208  -1.778   4.317  0.00  0.00    +0.000 OA
ATOM     25  H   UNL     1       0.554  -2.122   4.814  0.00  0.00    +0.000 HD
ENDBRANCH   8  24
BRANCH   9  26
ATOM     26  O   UNL     1      -2.045  -1.456   2.341  0.00  0.00    +0.000 OA
ATOM     27  H   UNL     1      -2.729  -0.984   1.837  0.00  0.00    +0.000 HD
ENDBRANCH   9  26
ENDBRANCH   6  10
ENDBRANCH   5   6
ENDBRANCH   1   5
BRANCH   1  28
ATOM     28  O   UNL     1       3.551  -0.774  -0.326  0.00  0.00    +0.000 OA
BRANCH  28  29
ATOM     29  P   UNL     1       4.147  -0.137  -1.707  0.00  0.00    +0.000 P 
ATOM     30  O   UNL     1       5.174  -1.094  -2.273  0.00  0.00    +0.000 OA
ATOM     31  O   UNL     1       4.502   1.312  -1.455  0.00  0.00    +0.000 OA
BRANCH  29  32
ATOM     32  O   UNL     1       2.798  -0.180  -2.631  0.00  0.00    +0.000 OA
BRANCH  32  33
ATOM     33  C   UNL     1       1.696   0.643  -2.284  0.00  0.00    +0.000 C 
BRANCH  33  37
ATOM     34  O   UNL     1       0.161  -0.963  -3.214  0.00  0.00    +0.000 OA
ATOM     35  C   UNL     1      -0.664   1.258  -2.995  0.00  0.00    +0.000 C 
ATOM     36  C   UNL     1      -1.464   0.343  -2.090  0.00  0.00    +0.000 C 
ATOM     37  C   UNL     1       0.576   0.421  -3.291  0.00  0.00    +0.000 C 
ATOM     38  C   UNL     1      -1.187  -1.014  -2.711  0.00  0.00    +0.000 C 
BRANCH  38  39
ATOM     39  N   UNL     1      -1.371  -2.094  -1.708  0.00  0.00    +0.000 N 
ATOM     40  C   UNL     1      -2.568  -2.689  -1.612  0.00  0.00    +0.000 A 
ATOM     41  C   UNL     1      -0.335  -2.437  -0.932  0.00  0.00    +0.000 A 
ATOM     42  C   UNL     1      -2.769  -3.700  -0.683  0.00  0.00    +0.000 A 
ATOM     43  C   UNL     1      -0.477  -3.442   0.015  0.00  0.00    +0.000 A 
ATOM     44  C   UNL     1      -1.709  -4.077   0.137  0.00  0.00    +0.000 A 
BRANCH  42  45
ATOM     45  C   UNL     1      -4.093  -4.370  -0.568  0.00  0.00    +0.000 C 
BRANCH  45  46
ATOM     46  N   UNL     1      -4.976  -3.704   0.393  0.00  0.00    +0.000 NA
ATOM     47  H   UNL     1      -5.197  -2.766   0.059  0.00  0.00    +0.000 HD
ATOM     48  H   UNL     1      -5.863  -4.204   0.433  0.00  0.00    +0.000 HD
ENDBRANCH  45  46
ENDBRANCH  42  45
ENDBRANCH  38  39
BRANCH  35  49
ATOM     49  O   UNL     1      -1.380   1.467  -4.212  0.00  0.00    +0.000 OA
ATOM     50  H   UNL     1      -0.820   2.017  -4.787  0.00  0.00    +0.000 HD
ENDBRANCH  35  49
BRANCH  36  51
ATOM     51  O   UNL     1      -2.844   0.646  -2.075  0.00  0.00    +0.000 OA
ATOM     52  H   UNL     1      -2.937   1.565  -1.772  0.00  0.00    +0.000 HD
ENDBRANCH  36  51
ENDBRANCH  33  37
ENDBRANCH  32  33
ENDBRANCH  29  32
ENDBRANCH  28  29
ENDBRANCH   1  28
TORSDOF 18
