REMARK  Name = 91532
REMARK  15 active torsions:
REMARK  status: ('A' for Active; 'I' for Inactive)
REMARK    1  A    between atoms: P_1  and  O_7
REMARK    2  A    between atoms: P_1  and  O_8
REMARK    3  A    between atoms: P_1  and  O_9
REMARK    4  A    between atoms: P_2  and  O_8
REMARK    5  A    between atoms: P_2  and  O_11
REMARK    6  A    between atoms: P_2  and  C_31
REMARK    7  A    between atoms: P_3  and  O_13
REMARK    8  A    between atoms: P_3  and  O_14
REMARK    9  A    between atoms: P_3  and  C_31
REMARK   10  A    between atoms: O_5  and  C_21
REMARK   11  A    between atoms: O_6  and  C_22
REMARK   12  A    between atoms: O_7  and  C_25
REMARK   13  A    between atoms: N_16  and  C_24
REMARK   14  A    between atoms: N_20  and  C_29
REMARK   15  A    between atoms: C_23  and  C_25
REMARK                            x       y       z     vdW  Elec       q    Type
REMARK                         _______ _______ _______ _____ _____    ______ ____
ROOT
ATOM      1  O   UNL     1      -0.767  -2.209   0.812  0.00  0.00    +0.000 OA
ATOM      2  C   UNL     1      -0.499  -3.127  -1.367  0.00  0.00    +0.000 C 
ATOM      3  C   UNL     1      -1.373  -1.891  -1.455  0.00  0.00    +0.000 C 
ATOM      4  C   UNL     1       0.160  -2.963  -0.002  0.00  0.00    +0.000 C 
ATOM      5  C   UNL     1      -1.855  -1.759  -0.018  0.00  0.00    +0.000 C 
ENDROOT
BRANCH   5   6
ATOM      6  N   UNL     1      -2.234  -0.400   0.359  0.00  0.00    +0.000 N 
ATOM      7  N   UNL     1      -2.023   1.700   1.083  0.00  0.00    +0.000 NA
ATOM      8  N   UNL     1      -4.624  -0.449  -0.078  0.00  0.00    +0.000 NA
ATOM      9  N   UNL     1      -5.665   1.697   0.440  0.00  0.00    +0.000 NA
ATOM     10  C   UNL     1      -3.487   0.145   0.317  0.00  0.00    +0.000 A 
ATOM     11  C   UNL     1      -1.390   0.574   0.827  0.00  0.00    +0.000 A 
ATOM     12  C   UNL     1      -3.334   1.446   0.768  0.00  0.00    +0.000 A 
ATOM     13  C   UNL     1      -4.481   2.232   0.823  0.00  0.00    +0.000 A 
ATOM     14  C   UNL     1      -5.663   0.409   0.019  0.00  0.00    +0.000 A 
BRANCH  13  15
ATOM     15  N   UNL     1      -4.418   3.564   1.267  0.00  0.00    +0.000 N 
ATOM     16  H   UNL     1      -3.536   3.966   1.553  0.00  0.00    +0.000 HD
ATOM     17  H   UNL     1      -5.265   4.115   1.297  0.00  0.00    +0.000 HD
ENDBRANCH  13  15
ENDBRANCH   5   6
BRANCH   2  18
ATOM     18  O   UNL     1      -1.324  -4.292  -1.343  0.00  0.00    +0.000 OA
ATOM     19  H   UNL     1      -1.849  -4.293  -0.525  0.00  0.00    +0.000 HD
ENDBRANCH   2  18
BRANCH   3  20
ATOM     20  O   UNL     1      -2.448  -2.037  -2.360  0.00  0.00    +0.000 OA
ATOM     21  H   UNL     1      -2.069  -2.234  -3.233  0.00  0.00    +0.000 HD
ENDBRANCH   3  20
BRANCH   4  22
ATOM     22  C   UNL     1       1.475  -2.198  -0.066  0.00  0.00    +0.000 C 
BRANCH  22  23
ATOM     23  O   UNL     1       2.007  -2.085   1.243  0.00  0.00    +0.000 OA
BRANCH  23  24
ATOM     24  P   UNL     1       3.410  -1.314   1.480  0.00  0.00    +0.000 P 
ATOM     25  O   UNL     1       3.864  -1.264   2.909  0.00  0.00    +0.000 OA
BRANCH  24  26
ATOM     26  O   UNL     1       4.445  -2.045   0.474  0.00  0.00    +0.000 OA
ATOM     27  H   UNL     1       4.837  -2.904   0.740  0.00  0.00    +0.000 HD
ENDBRANCH  24  26
BRANCH  24  28
ATOM     28  O   UNL     1       3.188   0.135   0.801  0.00  0.00    +0.000 OA
BRANCH  28  29
ATOM     29  P   UNL     1       4.202   1.364   0.552  0.00  0.00    +0.000 P 
ATOM     30  O   UNL     1       5.456   1.024  -0.195  0.00  0.00    +0.000 OA
BRANCH  29  31
ATOM     31  O   UNL     1       4.427   1.976   2.030  0.00  0.00    +0.000 OA
ATOM     32  H   UNL     1       4.999   1.492   2.663  0.00  0.00    +0.000 HD
ENDBRANCH  29  31
BRANCH  29  33
ATOM     33  C   UNL     1       3.155   2.594  -0.257  0.00  0.00    +0.000 C 
BRANCH  33  34
ATOM     34  P   UNL     1       2.519   2.435  -1.941  0.00  0.00    +0.000 P 
ATOM     35  O   UNL     1       1.752   3.627  -2.427  0.00  0.00    +0.000 OA
BRANCH  34  36
ATOM     36  O   UNL     1       1.691   1.048  -1.896  0.00  0.00    +0.000 OA
ATOM     37  H   UNL     1       1.214   0.752  -2.700  0.00  0.00    +0.000 HD
ENDBRANCH  34  36
BRANCH  34  38
ATOM     38  O   UNL     1       3.836   2.062  -2.799  0.00  0.00    +0.000 OA
ATOM     39  H   UNL     1       3.756   1.953  -3.771  0.00  0.00    +0.000 HD
ENDBRANCH  34  38
ENDBRANCH  33  34
ENDBRANCH  29  33
ENDBRANCH  28  29
ENDBRANCH  24  28
ENDBRANCH  23  24
ENDBRANCH  22  23
ENDBRANCH   4  22
TORSDOF 15
