REMARK  Name = 440996
REMARK  10 active torsions:
REMARK  status: ('A' for Active; 'I' for Inactive)
REMARK    1  A    between atoms: P_1  and  O_6
REMARK    2  A    between atoms: P_1  and  O_8
REMARK    3  A    between atoms: P_1  and  O_9
REMARK    4  A    between atoms: O_3  and  C_12
REMARK    5  A    between atoms: O_4  and  C_14
REMARK    6  A    between atoms: O_5  and  C_16
REMARK    7  A    between atoms: O_6  and  C_17
REMARK    8  A    between atoms: N_11  and  C_13
REMARK    9  A    between atoms: C_15  and  C_17
REMARK   10  A    between atoms: C_18  and  C_19
REMARK                            x       y       z     vdW  Elec       q    Type
REMARK                         _______ _______ _______ _____ _____    ______ ____
ROOT
ATOM      1  O   UNL     1       0.322  -0.790   0.109  0.00  0.00    +0.000 OA
ATOM      2  C   UNL     1      -1.544   1.363  -0.234  0.00  0.00    +0.000 C 
ATOM      3  C   UNL     1      -1.993  -0.062   0.091  0.00  0.00    +0.000 C 
ATOM      4  C   UNL     1      -0.089   1.596   0.182  0.00  0.00    +0.000 C 
ATOM      5  C   UNL     1       0.809   0.474  -0.346  0.00  0.00    +0.000 C 
ATOM      6  C   UNL     1      -0.976  -1.096  -0.398  0.00  0.00    +0.000 C 
ENDROOT
BRANCH   3   8
ATOM      7  O   UNL     1      -4.564  -0.726   1.329  0.00  0.00    +0.000 OA
ATOM      8  N   UNL     1      -3.299  -0.315  -0.581  0.00  0.00    +0.000 N 
ATOM      9  C   UNL     1      -4.456  -0.623   0.110  0.00  0.00    +0.000 C 
ATOM     10  C   UNL     1      -5.634  -0.805  -0.809  0.00  0.00    +0.000 C 
ATOM     11  H   UNL     1      -3.325  -0.250  -1.595  0.00  0.00    +0.000 HD
ENDBRANCH   3   8
BRANCH   2  12
ATOM     12  O   UNL     1      -2.381   2.277   0.478  0.00  0.00    +0.000 OA
ATOM     13  H   UNL     1      -2.277   2.104   1.429  0.00  0.00    +0.000 HD
ENDBRANCH   2  12
BRANCH   4  14
ATOM     14  O   UNL     1       0.324   2.855  -0.343  0.00  0.00    +0.000 OA
ATOM     15  H   UNL     1       1.165   3.092   0.083  0.00  0.00    +0.000 HD
ENDBRANCH   4  14
BRANCH   6  16
ATOM     16  O   UNL     1      -1.381  -2.379   0.077  0.00  0.00    +0.000 OA
ATOM     17  H   UNL     1      -0.995  -3.039  -0.523  0.00  0.00    +0.000 HD
ENDBRANCH   6  16
BRANCH   5  18
ATOM     18  C   UNL     1       2.248   0.607   0.145  0.00  0.00    +0.000 C 
BRANCH  18  19
ATOM     19  O   UNL     1       3.004  -0.470  -0.377  0.00  0.00    +0.000 OA
BRANCH  19  20
ATOM     20  P   UNL     1       4.577  -0.564  -0.003  0.00  0.00    +0.000 P 
ATOM     21  O   UNL     1       5.301  -1.735  -0.599  0.00  0.00    +0.000 OA
BRANCH  20  22
ATOM     22  O   UNL     1       4.591  -0.491   1.613  0.00  0.00    +0.000 OA
ATOM     23  H   UNL     1       5.444  -0.600   2.085  0.00  0.00    +0.000 HD
ENDBRANCH  20  22
BRANCH  20  24
ATOM     24  O   UNL     1       5.141   0.885  -0.445  0.00  0.00    +0.000 OA
ATOM     25  H   UNL     1       6.107   1.052  -0.403  0.00  0.00    +0.000 HD
ENDBRANCH  20  24
ENDBRANCH  19  20
ENDBRANCH  18  19
ENDBRANCH   5  18
TORSDOF 9
