REMARK  Name = 188347
REMARK  14 active torsions:
REMARK  status: ('A' for Active; 'I' for Inactive)
REMARK    1  A    between atoms: P_1  and  O_5
REMARK    2  A    between atoms: P_1  and  O_8
REMARK    3  A    between atoms: P_1  and  O_9
REMARK    4  A    between atoms: P_2  and  O_7
REMARK    5  A    between atoms: P_2  and  O_11
REMARK    6  A    between atoms: P_2  and  O_12
REMARK    7  A    between atoms: P_3  and  O_11
REMARK    8  A    between atoms: P_3  and  O_15
REMARK    9  A    between atoms: P_3  and  O_16
REMARK   10  A    between atoms: O_5  and  C_23
REMARK   11  A    between atoms: O_6  and  C_24
REMARK   12  A    between atoms: O_7  and  C_27
REMARK   13  A    between atoms: N_18  and  C_25
REMARK   14  A    between atoms: C_26  and  C_27
REMARK                            x       y       z     vdW  Elec       q    Type
REMARK                         _______ _______ _______ _____ _____    ______ ____
ROOT
ATOM      1  O   UNL     1       0.471   0.112  -1.204  0.00  0.00    +0.000 OA
ATOM      2  C   UNL     1       0.531   2.074   0.086  0.00  0.00    +0.000 C 
ATOM      3  C   UNL     1      -0.872   1.965  -0.482  0.00  0.00    +0.000 C 
ATOM      4  C   UNL     1      -0.897   0.547  -1.056  0.00  0.00    +0.000 C 
ATOM      5  C   UNL     1       1.335   1.212  -0.872  0.00  0.00    +0.000 C 
ENDROOT
BRANCH   4   7
ATOM      6  O   UNL     1      -4.695  -3.104   1.719  0.00  0.00    +0.000 OA
ATOM      7  N   UNL     1      -1.625  -0.410  -0.222  0.00  0.00    +0.000 N 
ATOM      8  N   UNL     1      -3.866  -0.370  -1.167  0.00  0.00    +0.000 N 
ATOM      9  N   UNL     1      -2.015  -1.917   1.397  0.00  0.00    +0.000 NA
ATOM     10  N   UNL     1      -5.429  -1.831  -0.074  0.00  0.00    +0.000 NA
ATOM     11  N   UNL     1      -6.053  -0.486  -1.906  0.00  0.00    +0.000 N 
ATOM     12  C   UNL     1      -2.926  -0.777  -0.310  0.00  0.00    +0.000 A 
ATOM     13  C   UNL     1      -1.112  -1.132   0.833  0.00  0.00    +0.000 A 
ATOM     14  C   UNL     1      -3.154  -1.692   0.675  0.00  0.00    +0.000 A 
ATOM     15  C   UNL     1      -4.468  -2.280   0.841  0.00  0.00    +0.000 A 
ATOM     16  C   UNL     1      -5.127  -0.940  -1.002  0.00  0.00    +0.000 A 
ATOM     17  H   UNL     1      -3.702   0.313  -1.899  0.00  0.00    +0.000 HD
ATOM     18  H   UNL     1      -5.810   0.198  -2.615  0.00  0.00    +0.000 HD
ATOM     19  H   UNL     1      -7.010  -0.823  -1.892  0.00  0.00    +0.000 HD
ENDBRANCH   4   7
BRANCH   3  20
ATOM     20  O   UNL     1      -1.075   2.903  -1.538  0.00  0.00    +0.000 OA
ATOM     21  H   UNL     1      -1.972   2.758  -1.885  0.00  0.00    +0.000 HD
ENDBRANCH   3  20
BRANCH   2  22
ATOM     22  O   UNL     1       1.014   3.399   0.141  0.00  0.00    +0.000 OA
BRANCH  22  23
ATOM     23  P   UNL     1       0.195   4.471   1.027  0.00  0.00    +0.000 P 
ATOM     24  O   UNL     1      -1.229   4.691   0.607  0.00  0.00    +0.000 OA
BRANCH  23  25
ATOM     25  O   UNL     1       1.134   5.788   1.005  0.00  0.00    +0.000 OA
ATOM     26  H   UNL     1       0.812   6.608   1.437  0.00  0.00    +0.000 HD
ENDBRANCH  23  25
BRANCH  23  27
ATOM     27  O   UNL     1       0.384   3.905   2.530  0.00  0.00    +0.000 OA
ATOM     28  H   UNL     1      -0.105   4.334   3.263  0.00  0.00    +0.000 HD
ENDBRANCH  23  27
ENDBRANCH  22  23
ENDBRANCH   2  22
BRANCH   5  29
ATOM     29  C   UNL     1       2.628   0.688  -0.275  0.00  0.00    +0.000 C 
BRANCH  29  30
ATOM     30  O   UNL     1       3.287  -0.107  -1.246  0.00  0.00    +0.000 OA
BRANCH  30  31
ATOM     31  P   UNL     1       4.703  -0.806  -0.894  0.00  0.00    +0.000 P 
ATOM     32  O   UNL     1       5.296  -1.621  -2.007  0.00  0.00    +0.000 OA
BRANCH  31  33
ATOM     33  O   UNL     1       5.639   0.412  -0.387  0.00  0.00    +0.000 OA
ATOM     34  H   UNL     1       6.063   0.993  -1.054  0.00  0.00    +0.000 HD
ENDBRANCH  31  33
BRANCH  31  35
ATOM     35  O   UNL     1       4.418  -1.643   0.460  0.00  0.00    +0.000 OA
BRANCH  35  36
ATOM     36  P   UNL     1       3.477  -2.927   0.735  0.00  0.00    +0.000 P 
ATOM     37  O   UNL     1       2.022  -2.712   0.437  0.00  0.00    +0.000 OA
BRANCH  36  38
ATOM     38  O   UNL     1       4.190  -4.101  -0.117  0.00  0.00    +0.000 OA
ATOM     39  H   UNL     1       3.754  -4.978  -0.175  0.00  0.00    +0.000 HD
ENDBRANCH  36  38
BRANCH  36  40
ATOM     40  O   UNL     1       3.818  -3.311   2.267  0.00  0.00    +0.000 OA
ATOM     41  H   UNL     1       3.302  -4.021   2.705  0.00  0.00    +0.000 HD
ENDBRANCH  36  40
ENDBRANCH  35  36
ENDBRANCH  31  35
ENDBRANCH  30  31
ENDBRANCH  29  30
ENDBRANCH   5  29
TORSDOF 14
