REMARK  Name = 6830
REMARK  14 active torsions:
REMARK  status: ('A' for Active; 'I' for Inactive)
REMARK    1  A    between atoms: P_1  and  O_7
REMARK    2  A    between atoms: P_1  and  O_8
REMARK    3  A    between atoms: P_1  and  O_9
REMARK    4  A    between atoms: P_2  and  O_8
REMARK    5  A    between atoms: P_2  and  O_12
REMARK    6  A    between atoms: P_2  and  O_13
REMARK    7  A    between atoms: P_3  and  O_12
REMARK    8  A    between atoms: P_3  and  O_15
REMARK    9  A    between atoms: P_3  and  O_16
REMARK   10  A    between atoms: O_5  and  C_23
REMARK   11  A    between atoms: O_6  and  C_24
REMARK   12  A    between atoms: O_7  and  C_27
REMARK   13  A    between atoms: N_18  and  C_25
REMARK   14  A    between atoms: C_26  and  C_27
REMARK                            x       y       z     vdW  Elec       q    Type
REMARK                         _______ _______ _______ _____ _____    ______ ____
ROOT
ATOM      1  O   UNL     1       1.984   1.607   0.976  0.00  0.00    +0.000 OA
ATOM      2  C   UNL     1       2.788   1.754  -1.246  0.00  0.00    +0.000 C 
ATOM      3  C   UNL     1       2.375   3.142  -0.801  0.00  0.00    +0.000 C 
ATOM      4  C   UNL     1       2.973   1.050   0.089  0.00  0.00    +0.000 C 
ATOM      5  C   UNL     1       1.498   2.847   0.412  0.00  0.00    +0.000 C 
ENDROOT
BRANCH   4   7
ATOM      6  O   UNL     1       1.490  -4.702   0.468  0.00  0.00    +0.000 OA
ATOM      7  N   UNL     1       2.814  -0.401   0.025  0.00  0.00    +0.000 N 
ATOM      8  N   UNL     1       0.862  -0.805   1.419  0.00  0.00    +0.000 N 
ATOM      9  N   UNL     1       3.218  -2.537  -0.540  0.00  0.00    +0.000 NA
ATOM     10  N   UNL     1       0.232  -3.115   1.597  0.00  0.00    +0.000 NA
ATOM     11  N   UNL     1      -0.966  -1.410   2.697  0.00  0.00    +0.000 N 
ATOM     12  C   UNL     1       1.873  -1.167   0.626  0.00  0.00    +0.000 A 
ATOM     13  C   UNL     1       3.611  -1.281  -0.675  0.00  0.00    +0.000 A 
ATOM     14  C   UNL     1       2.126  -2.462   0.277  0.00  0.00    +0.000 A 
ATOM     15  C   UNL     1       1.282  -3.532   0.769  0.00  0.00    +0.000 A 
ATOM     16  C   UNL     1       0.054  -1.839   1.887  0.00  0.00    +0.000 A 
ATOM     17  H   UNL     1       0.669   0.157   1.679  0.00  0.00    +0.000 HD
ATOM     18  H   UNL     1      -1.098  -0.426   2.905  0.00  0.00    +0.000 HD
ATOM     19  H   UNL     1      -1.626  -2.065   3.103  0.00  0.00    +0.000 HD
ENDBRANCH   4   7
BRANCH   2  20
ATOM     20  O   UNL     1       3.975   1.749  -2.013  0.00  0.00    +0.000 OA
ATOM     21  H   UNL     1       4.698   2.087  -1.459  0.00  0.00    +0.000 HD
ENDBRANCH   2  20
BRANCH   3  22
ATOM     22  O   UNL     1       3.527   3.867  -0.370  0.00  0.00    +0.000 OA
ATOM     23  H   UNL     1       4.055   4.066  -1.162  0.00  0.00    +0.000 HD
ENDBRANCH   3  22
BRANCH   5  24
ATOM     24  C   UNL     1       0.029   2.667   0.052  0.00  0.00    +0.000 C 
BRANCH  24  25
ATOM     25  O   UNL     1      -0.704   2.388   1.233  0.00  0.00    +0.000 OA
BRANCH  25  26
ATOM     26  P   UNL     1      -2.302   2.148   1.154  0.00  0.00    +0.000 P 
ATOM     27  O   UNL     1      -3.087   3.307   0.611  0.00  0.00    +0.000 OA
BRANCH  26  28
ATOM     28  O   UNL     1      -2.717   1.706   2.654  0.00  0.00    +0.000 OA
ATOM     29  H   UNL     1      -2.832   2.399   3.338  0.00  0.00    +0.000 HD
ENDBRANCH  26  28
BRANCH  26  30
ATOM     30  O   UNL     1      -2.467   0.782   0.307  0.00  0.00    +0.000 OA
BRANCH  30  31
ATOM     31  P   UNL     1      -3.767  -0.110  -0.037  0.00  0.00    +0.000 P 
ATOM     32  O   UNL     1      -4.500  -0.657   1.152  0.00  0.00    +0.000 OA
BRANCH  31  33
ATOM     33  O   UNL     1      -4.650   0.845  -0.997  0.00  0.00    +0.000 OA
ATOM     34  H   UNL     1      -5.180   1.564  -0.593  0.00  0.00    +0.000 HD
ENDBRANCH  31  33
BRANCH  31  35
ATOM     35  O   UNL     1      -3.194  -1.232  -1.048  0.00  0.00    +0.000 OA
BRANCH  35  36
ATOM     36  P   UNL     1      -2.360  -1.115  -2.428  0.00  0.00    +0.000 P 
ATOM     37  O   UNL     1      -3.059  -0.358  -3.519  0.00  0.00    +0.000 OA
BRANCH  36  38
ATOM     38  O   UNL     1      -0.950  -0.485  -1.950  0.00  0.00    +0.000 OA
ATOM     39  H   UNL     1      -0.289  -0.227  -2.628  0.00  0.00    +0.000 HD
ENDBRANCH  36  38
BRANCH  36  40
ATOM     40  O   UNL     1      -1.989  -2.648  -2.779  0.00  0.00    +0.000 OA
ATOM     41  H   UNL     1      -1.540  -2.846  -3.628  0.00  0.00    +0.000 HD
ENDBRANCH  36  40
ENDBRANCH  35  36
ENDBRANCH  31  35
ENDBRANCH  30  31
ENDBRANCH  26  30
ENDBRANCH  25  26
ENDBRANCH  24  25
ENDBRANCH   5  24
TORSDOF 14
