REMARK  Name = 121969
REMARK  18 active torsions:
REMARK  status: ('A' for Active; 'I' for Inactive)
REMARK    1  A    between atoms: P_1  and  O_5
REMARK    2  A    between atoms: P_1  and  O_11
REMARK    3  A    between atoms: P_1  and  O_12
REMARK    4  A    between atoms: P_2  and  O_6
REMARK    5  A    between atoms: P_2  and  O_13
REMARK    6  A    between atoms: P_2  and  O_14
REMARK    7  A    between atoms: P_3  and  O_7
REMARK    8  A    between atoms: P_3  and  O_15
REMARK    9  A    between atoms: P_3  and  O_16
REMARK   10  A    between atoms: P_4  and  O_8
REMARK   11  A    between atoms: P_4  and  O_17
REMARK   12  A    between atoms: P_4  and  O_18
REMARK   13  A    between atoms: O_5  and  C_23
REMARK   14  A    between atoms: O_6  and  C_24
REMARK   15  A    between atoms: O_7  and  C_25
REMARK   16  A    between atoms: O_8  and  C_26
REMARK   17  A    between atoms: O_9  and  C_27
REMARK   18  A    between atoms: O_10  and  C_28
REMARK                            x       y       z     vdW  Elec       q    Type
REMARK                         _______ _______ _______ _____ _____    ______ ____
ROOT
ATOM      1  C   UNL     1      -0.554  -1.663  -0.494  0.00  0.00    +0.000 C 
ATOM      2  C   UNL     1       0.593  -1.645   0.528  0.00  0.00    +0.000 C 
ATOM      3  C   UNL     1      -0.587   0.901  -0.507  0.00  0.00    +0.000 C 
ATOM      4  C   UNL     1       0.565   0.921   0.512  0.00  0.00    +0.000 C 
ATOM      5  C   UNL     1      -0.620  -0.386  -1.347  0.00  0.00    +0.000 C 
ATOM      6  C   UNL     1       0.633  -0.356   1.365  0.00  0.00    +0.000 C 
ENDROOT
BRANCH   5   7
ATOM      7  O   UNL     1       0.466  -0.392  -2.269  0.00  0.00    +0.000 OA
ATOM      8  H   UNL     1       0.399   0.411  -2.814  0.00  0.00    +0.000 HD
ENDBRANCH   5   7
BRANCH   6   9
ATOM      9  O   UNL     1      -0.431  -0.362   2.313  0.00  0.00    +0.000 OA
ATOM     10  H   UNL     1      -0.335  -1.160   2.861  0.00  0.00    +0.000 HD
ENDBRANCH   6   9
BRANCH   1  11
ATOM     11  O   UNL     1      -1.800  -1.830   0.178  0.00  0.00    +0.000 OA
BRANCH  11  12
ATOM     12  P   UNL     1      -3.132  -1.981  -0.718  0.00  0.00    +0.000 P 
ATOM     13  O   UNL     1      -3.432  -0.817  -1.617  0.00  0.00    +0.000 OA
BRANCH  12  14
ATOM     14  O   UNL     1      -4.284  -2.340   0.358  0.00  0.00    +0.000 OA
ATOM     15  H   UNL     1      -5.211  -2.426   0.049  0.00  0.00    +0.000 HD
ENDBRANCH  12  14
BRANCH  12  16
ATOM     16  O   UNL     1      -2.884  -3.386  -1.479  0.00  0.00    +0.000 OA
ATOM     17  H   UNL     1      -3.518  -3.669  -2.171  0.00  0.00    +0.000 HD
ENDBRANCH  12  16
ENDBRANCH  11  12
ENDBRANCH   1  11
BRANCH   2  18
ATOM     18  O   UNL     1       1.827  -1.811  -0.167  0.00  0.00    +0.000 OA
BRANCH  18  19
ATOM     19  P   UNL     1       3.179  -1.928   0.705  0.00  0.00    +0.000 P 
ATOM     20  O   UNL     1       3.483  -0.744   1.575  0.00  0.00    +0.000 OA
BRANCH  19  21
ATOM     21  O   UNL     1       4.314  -2.293  -0.388  0.00  0.00    +0.000 OA
ATOM     22  H   UNL     1       5.248  -2.362  -0.097  0.00  0.00    +0.000 HD
ENDBRANCH  19  21
BRANCH  19  23
ATOM     23  O   UNL     1       2.964  -3.321   1.498  0.00  0.00    +0.000 OA
ATOM     24  H   UNL     1       3.617  -3.583   2.182  0.00  0.00    +0.000 HD
ENDBRANCH  19  23
ENDBRANCH  18  19
ENDBRANCH   2  18
BRANCH   3  25
ATOM     25  O   UNL     1      -1.834   1.041   0.169  0.00  0.00    +0.000 OA
BRANCH  25  26
ATOM     26  P   UNL     1      -2.041   2.327   1.121  0.00  0.00    +0.000 P 
ATOM     27  O   UNL     1      -1.070   2.443   2.259  0.00  0.00    +0.000 OA
BRANCH  26  28
ATOM     28  O   UNL     1      -3.599   2.247   1.546  0.00  0.00    +0.000 OA
ATOM     29  H   UNL     1      -3.952   2.907   2.181  0.00  0.00    +0.000 HD
ENDBRANCH  26  28
BRANCH  26  30
ATOM     30  O   UNL     1      -2.006   3.552   0.066  0.00  0.00    +0.000 OA
ATOM     31  H   UNL     1      -2.015   4.471   0.406  0.00  0.00    +0.000 HD
ENDBRANCH  26  30
ENDBRANCH  25  26
ENDBRANCH   3  25
BRANCH   4  32
ATOM     32  O   UNL     1       1.807   1.086  -0.166  0.00  0.00    +0.000 OA
BRANCH  32  33
ATOM     33  P   UNL     1       1.981   2.366  -1.131  0.00  0.00    +0.000 P 
ATOM     34  O   UNL     1       1.007   2.445  -2.269  0.00  0.00    +0.000 OA
BRANCH  33  35
ATOM     35  O   UNL     1       3.540   2.323  -1.556  0.00  0.00    +0.000 OA
ATOM     36  H   UNL     1       3.876   2.985  -2.197  0.00  0.00    +0.000 HD
ENDBRANCH  33  35
BRANCH  33  37
ATOM     37  O   UNL     1       1.914   3.601  -0.088  0.00  0.00    +0.000 OA
ATOM     38  H   UNL     1       1.899   4.517  -0.438  0.00  0.00    +0.000 HD
ENDBRANCH  33  37
ENDBRANCH  32  33
ENDBRANCH   4  32
TORSDOF 18
