REMARK  Name = 5327077
REMARK  12 active torsions:
REMARK  status: ('A' for Active; 'I' for Inactive)
REMARK    1  A    between atoms: P_2  and  O_4
REMARK    2  A    between atoms: P_2  and  O_10
REMARK    3  A    between atoms: P_2  and  O_11
REMARK    4  A    between atoms: O_4  and  C_18
REMARK    5  A    between atoms: O_5  and  C_20
REMARK    6  A    between atoms: O_5  and  C_25
REMARK    7  A    between atoms: O_6  and  C_21
REMARK    8  A    between atoms: O_7  and  C_23
REMARK    9  A    between atoms: N_14  and  C_19
REMARK   10  A    between atoms: C_16  and  C_23
REMARK   11  A    between atoms: C_21  and  C_24
REMARK   12  A    between atoms: C_25  and  C_26
REMARK                            x       y       z     vdW  Elec       q    Type
REMARK                         _______ _______ _______ _____ _____    ______ ____
ROOT
ATOM      1  S   UNL     1      -0.802   1.546  -1.969  0.00  0.00    +0.000 S 
ATOM      2  O   UNL     1      -0.482   1.551   1.151  0.00  0.00    +0.000 OA
ATOM      3  C   UNL     1       0.725   1.658   0.385  0.00  0.00    +0.000 C 
ATOM      4  C   UNL     1      -1.429   0.621   0.593  0.00  0.00    +0.000 C 
ATOM      5  C   UNL     1       1.477   0.302   0.327  0.00  0.00    +0.000 C 
ATOM      6  C   UNL     1       0.655  -0.853   0.926  0.00  0.00    +0.000 C 
ATOM      7  C   UNL     1      -0.784  -0.774   0.393  0.00  0.00    +0.000 C 
ATOM      8  C   UNL     1      -2.042   1.244  -0.674  0.00  0.00    +0.000 C 
ATOM      9  C   UNL     1       0.445   2.382  -0.941  0.00  0.00    +0.000 C 
ENDROOT
BRANCH   8  12
ATOM     10  O   UNL     1      -3.097  -0.047  -2.385  0.00  0.00    +0.000 OA
ATOM     11  N   UNL     1      -4.192   0.205  -0.377  0.00  0.00    +0.000 N 
ATOM     12  C   UNL     1      -3.142   0.402  -1.242  0.00  0.00    +0.000 C 
ATOM     13  H   UNL     1      -4.995  -0.351  -0.654  0.00  0.00    +0.000 HD
ATOM     14  H   UNL     1      -4.230   0.623   0.546  0.00  0.00    +0.000 HD
ENDBRANCH   8  12
BRANCH   6  15
ATOM     15  N   UNL     1       0.697  -0.793   2.393  0.00  0.00    +0.000 NA
ATOM     16  H   UNL     1       1.656  -0.917   2.715  0.00  0.00    +0.000 HD
ATOM     17  H   UNL     1       0.155  -1.556   2.792  0.00  0.00    +0.000 HD
ENDBRANCH   6  15
BRANCH   8  18
ATOM     18  O   UNL     1      -2.711   2.450  -0.310  0.00  0.00    +0.000 OA
ATOM     19  H   UNL     1      -2.878   2.942  -1.132  0.00  0.00    +0.000 HD
ENDBRANCH   8  18
BRANCH   3  21
ATOM     20  O   UNL     1       1.193   3.009   2.341  0.00  0.00    +0.000 OA
ATOM     21  C   UNL     1       1.534   2.591   1.244  0.00  0.00    +0.000 C 
BRANCH  21  22
ATOM     22  O   UNL     1       2.702   2.911   0.635  0.00  0.00    +0.000 OA
ATOM     23  H   UNL     1       3.244   3.520   1.180  0.00  0.00    +0.000 HD
ENDBRANCH  21  22
ENDBRANCH   3  21
BRANCH   5  24
ATOM     24  O   UNL     1       1.843  -0.020  -1.016  0.00  0.00    +0.000 OA
BRANCH  24  25
ATOM     25  P   UNL     1       2.736  -1.341  -1.267  0.00  0.00    +0.000 P 
ATOM     26  O   UNL     1       2.113  -2.628  -0.811  0.00  0.00    +0.000 OA
BRANCH  25  27
ATOM     27  O   UNL     1       4.157  -0.982  -0.585  0.00  0.00    +0.000 OA
ATOM     28  H   UNL     1       4.858  -1.668  -0.558  0.00  0.00    +0.000 HD
ENDBRANCH  25  27
BRANCH  25  29
ATOM     29  O   UNL     1       3.051  -1.258  -2.850  0.00  0.00    +0.000 OA
ATOM     30  H   UNL     1       3.512  -2.007  -3.282  0.00  0.00    +0.000 HD
ENDBRANCH  25  29
ENDBRANCH  24  25
ENDBRANCH   5  24
BRANCH   7  31
ATOM     31  O   UNL     1      -1.573  -1.778   1.035  0.00  0.00    +0.000 OA
BRANCH  31  33
ATOM     32  O   UNL     1      -0.463  -3.504  -0.025  0.00  0.00    +0.000 OA
ATOM     33  C   UNL     1      -1.107  -3.051   0.911  0.00  0.00    +0.000 C 
ATOM     34  C   UNL     1      -1.503  -3.844   2.119  0.00  0.00    +0.000 C 
ENDBRANCH  31  33
ENDBRANCH   7  31
TORSDOF 11
