REMARK  Name = 5892
REMARK  17 active torsions:
REMARK  status: ('A' for Active; 'I' for Inactive)
REMARK    1  A    between atoms: P_1  and  O_9
REMARK    2  A    between atoms: P_1  and  O_11
REMARK    3  A    between atoms: P_1  and  O_12
REMARK    4  A    between atoms: P_2  and  O_10
REMARK    5  A    between atoms: P_2  and  O_11
REMARK    6  A    between atoms: O_5  and  C_24
REMARK    7  A    between atoms: O_6  and  C_25
REMARK    8  A    between atoms: O_7  and  C_28
REMARK    9  A    between atoms: O_8  and  C_29
REMARK   10  A    between atoms: O_9  and  C_32
REMARK   11  A    between atoms: O_10  and  C_33
REMARK   12  A    between atoms: N_17  and  C_27
REMARK   13  A    between atoms: N_18  and  C_31
REMARK   14  A    between atoms: N_22  and  C_41
REMARK   15  A    between atoms: C_26  and  C_32
REMARK   16  A    between atoms: C_30  and  C_33
REMARK   17  A    between atoms: C_39  and  C_44
REMARK                            x       y       z     vdW  Elec       q    Type
REMARK                         _______ _______ _______ _____ _____    ______ ____
ROOT
ATOM      1  P   UNL     1       4.102   1.346  -1.657  0.00  0.00    +0.000 P 
ATOM      2  O   UNL     1       5.393   1.747  -1.003  0.00  0.00    +0.000 OA
ENDROOT
BRANCH   1   3
ATOM      3  O   UNL     1       4.152   1.335  -3.274  0.00  0.00    +0.000 OA
ATOM      4  H   UNL     1       4.920   0.920  -3.722  0.00  0.00    +0.000 HD
ENDBRANCH   1   3
BRANCH   1   5
ATOM      5  O   UNL     1       2.839   2.293  -1.301  0.00  0.00    +0.000 OA
BRANCH   5   6
ATOM      6  C   UNL     1       1.566   2.016  -1.858  0.00  0.00    +0.000 C 
BRANCH   6  10
ATOM      7  O   UNL     1      -0.729   2.743  -1.893  0.00  0.00    +0.000 OA
ATOM      8  C   UNL     1       0.430   3.055   0.163  0.00  0.00    +0.000 C 
ATOM      9  C   UNL     1      -0.700   2.068   0.377  0.00  0.00    +0.000 C 
ATOM     10  C   UNL     1       0.577   3.058  -1.356  0.00  0.00    +0.000 C 
ATOM     11  C   UNL     1      -1.603   2.380  -0.807  0.00  0.00    +0.000 C 
BRANCH  11  12
ATOM     12  N   UNL     1      -2.458   1.268  -1.213  0.00  0.00    +0.000 N 
ATOM     13  N   UNL     1      -3.096  -0.602  -2.247  0.00  0.00    +0.000 NA
ATOM     14  N   UNL     1      -4.484   1.768   0.030  0.00  0.00    +0.000 NA
ATOM     15  N   UNL     1      -6.213   0.096  -0.383  0.00  0.00    +0.000 NA
ATOM     16  C   UNL     1      -3.743   1.033  -0.812  0.00  0.00    +0.000 A 
ATOM     17  C   UNL     1      -2.115   0.259  -2.074  0.00  0.00    +0.000 A 
ATOM     18  C   UNL     1      -4.119  -0.130  -1.464  0.00  0.00    +0.000 A 
ATOM     19  C   UNL     1      -5.408  -0.597  -1.224  0.00  0.00    +0.000 A 
ATOM     20  C   UNL     1      -5.709   1.219   0.183  0.00  0.00    +0.000 A 
BRANCH  19  21
ATOM     21  N   UNL     1      -5.873  -1.770  -1.842  0.00  0.00    +0.000 N 
ATOM     22  H   UNL     1      -6.813  -2.089  -1.651  0.00  0.00    +0.000 HD
ATOM     23  H   UNL     1      -5.274  -2.290  -2.469  0.00  0.00    +0.000 HD
ENDBRANCH  19  21
ENDBRANCH  11  12
BRANCH   8  24
ATOM     24  O   UNL     1       0.015   4.354   0.587  0.00  0.00    +0.000 OA
ATOM     25  H   UNL     1       0.746   4.968   0.399  0.00  0.00    +0.000 HD
ENDBRANCH   8  24
BRANCH   9  26
ATOM     26  O   UNL     1      -1.366   2.248   1.610  0.00  0.00    +0.000 OA
ATOM     27  H   UNL     1      -2.094   1.605   1.647  0.00  0.00    +0.000 HD
ENDBRANCH   9  26
ENDBRANCH   6  10
ENDBRANCH   5   6
ENDBRANCH   1   5
BRANCH   1  28
ATOM     28  O   UNL     1       3.606  -0.150  -1.292  0.00  0.00    +0.000 OA
BRANCH  28  29
ATOM     29  P   UNL     1       4.312  -1.604  -1.526  0.00  0.00    +0.000 P 
ATOM     30  O   UNL     1       5.562  -1.673  -0.676  0.00  0.00    +0.000 OA
ATOM     31  O   UNL     1       4.376  -1.875  -3.013  0.00  0.00    +0.000 OA
BRANCH  29  32
ATOM     32  O   UNL     1       3.162  -2.571  -0.879  0.00  0.00    +0.000 OA
BRANCH  32  33
ATOM     33  C   UNL     1       1.804  -2.358  -1.226  0.00  0.00    +0.000 C 
BRANCH  33  37
ATOM     34  O   UNL     1       1.091  -3.174   0.924  0.00  0.00    +0.000 OA
ATOM     35  C   UNL     1      -0.547  -3.224  -0.801  0.00  0.00    +0.000 C 
ATOM     36  C   UNL     1      -0.996  -2.260   0.278  0.00  0.00    +0.000 C 
ATOM     37  C   UNL     1       0.940  -3.380  -0.499  0.00  0.00    +0.000 C 
ATOM     38  C   UNL     1      -0.166  -2.723   1.462  0.00  0.00    +0.000 C 
BRANCH  38  39
ATOM     39  N   UNL     1       0.005  -1.620   2.441  0.00  0.00    +0.000 N 
ATOM     40  C   UNL     1       1.029  -0.769   2.284  0.00  0.00    +0.000 A 
ATOM     41  C   UNL     1      -0.870  -1.511   3.450  0.00  0.00    +0.000 A 
ATOM     42  C   UNL     1       1.213   0.271   3.183  0.00  0.00    +0.000 A 
ATOM     43  C   UNL     1      -0.735  -0.489   4.380  0.00  0.00    +0.000 A 
ATOM     44  C   UNL     1       0.319   0.409   4.241  0.00  0.00    +0.000 A 
BRANCH  42  47
ATOM     45  O   UNL     1       2.511   2.128   3.828  0.00  0.00    +0.000 OA
ATOM     46  N   UNL     1       3.177   1.005   1.942  0.00  0.00    +0.000 N 
ATOM     47  C   UNL     1       2.319   1.199   3.022  0.00  0.00    +0.000 C 
ATOM     48  H   UNL     1       3.961   1.636   1.809  0.00  0.00    +0.000 HD
ATOM     49  H   UNL     1       3.093   0.276   1.245  0.00  0.00    +0.000 HD
ENDBRANCH  42  47
ENDBRANCH  38  39
BRANCH  35  50
ATOM     50  O   UNL     1      -1.190  -4.484  -0.611  0.00  0.00    +0.000 OA
ATOM     51  H   UNL     1      -0.845  -5.091  -1.289  0.00  0.00    +0.000 HD
ENDBRANCH  35  50
BRANCH  36  52
ATOM     52  O   UNL     1      -2.382  -2.333   0.544  0.00  0.00    +0.000 OA
ATOM     53  H   UNL     1      -2.846  -2.271  -0.308  0.00  0.00    +0.000 HD
ENDBRANCH  36  52
ENDBRANCH  33  37
ENDBRANCH  32  33
ENDBRANCH  29  32
ENDBRANCH  28  29
ENDBRANCH   1  28
TORSDOF 17
