REMARK  Name = 9548634
REMARK  16 active torsions:
REMARK  status: ('A' for Active; 'I' for Inactive)
REMARK    1  A    between atoms: S_1  and  C_19
REMARK    2  A    between atoms: S_1  and  C_21
REMARK    3  A    between atoms: S_2  and  C_25
REMARK    4  A    between atoms: S_2  and  C_26
REMARK    5  A    between atoms: S_3  and  O_9
REMARK    6  A    between atoms: S_3  and  O_11
REMARK    7  A    between atoms: O_5  and  C_15
REMARK    8  A    between atoms: O_6  and  C_16
REMARK    9  A    between atoms: O_7  and  C_17
REMARK   10  A    between atoms: O_8  and  C_20
REMARK   11  A    between atoms: O_9  and  N_14
REMARK   12  A    between atoms: C_18  and  C_20
REMARK   13  A    between atoms: C_21  and  C_22
REMARK   14  A    between atoms: C_22  and  C_23
REMARK   15  A    between atoms: C_23  and  C_24
REMARK   16  A    between atoms: C_24  and  C_25
REMARK                            x       y       z     vdW  Elec       q    Type
REMARK                         _______ _______ _______ _____ _____    ______ ____
ROOT
ATOM      1  S   UNL     1       1.290   1.376   2.090  0.00  0.00    +0.000 S 
ENDROOT
BRANCH   1   7
ATOM      2  O   UNL     1       1.463  -0.507   0.201  0.00  0.00    +0.000 OA
ATOM      3  C   UNL     1       4.297  -0.323  -0.215  0.00  0.00    +0.000 C 
ATOM      4  C   UNL     1       3.467  -1.493  -0.745  0.00  0.00    +0.000 C 
ATOM      5  C   UNL     1       3.602   0.368   0.962  0.00  0.00    +0.000 C 
ATOM      6  C   UNL     1       2.020  -1.059  -0.993  0.00  0.00    +0.000 C 
ATOM      7  C   UNL     1       2.139   0.676   0.628  0.00  0.00    +0.000 C 
BRANCH   3   8
ATOM      8  O   UNL     1       5.562  -0.806   0.243  0.00  0.00    +0.000 OA
ATOM      9  H   UNL     1       5.400  -1.464   0.941  0.00  0.00    +0.000 HD
ENDBRANCH   3   8
BRANCH   4  10
ATOM     10  O   UNL     1       4.027  -1.959  -1.970  0.00  0.00    +0.000 OA
ATOM     11  H   UNL     1       3.994  -1.229  -2.612  0.00  0.00    +0.000 HD
ENDBRANCH   4  10
BRANCH   5  12
ATOM     12  O   UNL     1       4.294   1.585   1.243  0.00  0.00    +0.000 OA
ATOM     13  H   UNL     1       4.221   2.160   0.463  0.00  0.00    +0.000 HD
ENDBRANCH   5  12
BRANCH   6  14
ATOM     14  C   UNL     1       1.142  -2.235  -1.407  0.00  0.00    +0.000 C 
BRANCH  14  15
ATOM     15  O   UNL     1      -0.178  -1.763  -1.607  0.00  0.00    +0.000 OA
ATOM     16  H   UNL     1      -0.723  -2.529  -1.858  0.00  0.00    +0.000 HD
ENDBRANCH  14  15
ENDBRANCH   6  14
ENDBRANCH   1   7
BRANCH   1  18
ATOM     17  N   UNL     1      -0.504   1.902   0.199  0.00  0.00    +0.000 NA
ATOM     18  C   UNL     1      -0.339   1.636   1.457  0.00  0.00    +0.000 C 
BRANCH  17  19
ATOM     19  O   UNL     1      -1.854   2.069  -0.116  0.00  0.00    +0.000 OA
BRANCH  19  20
ATOM     20  S   UNL     1      -2.061   2.405  -1.700  0.00  0.00    +0.000 S 
ATOM     21  O   UNL     1      -1.528   1.300  -2.474  0.00  0.00    +0.000 OA
ATOM     22  O   UNL     1      -1.613   3.764  -1.942  0.00  0.00    +0.000 OA
BRANCH  20  23
ATOM     23  O   UNL     1      -3.683   2.383  -1.862  0.00  0.00    +0.000 OA
ATOM     24  H   UNL     1      -4.019   2.564  -2.771  0.00  0.00    +0.000 HD
ENDBRANCH  20  23
ENDBRANCH  19  20
ENDBRANCH  17  19
BRANCH  18  25
ATOM     25  C   UNL     1      -1.441   1.523   2.496  0.00  0.00    +0.000 C 
BRANCH  25  26
ATOM     26  C   UNL     1      -1.980   0.096   2.631  0.00  0.00    +0.000 C 
BRANCH  26  27
ATOM     27  C   UNL     1      -2.513  -0.474   1.314  0.00  0.00    +0.000 C 
BRANCH  27  28
ATOM     28  C   UNL     1      -3.011  -1.902   1.495  0.00  0.00    +0.000 C 
BRANCH  28  29
ATOM     29  S   UNL     1      -3.618  -2.571  -0.085  0.00  0.00    +0.000 S 
ATOM     30  O   UNL     1      -4.863  -1.817  -0.433  0.00  0.00    +0.000 OA
ATOM     31  C   UNL     1      -4.117  -4.174   0.589  0.00  0.00    +0.000 C 
ENDBRANCH  28  29
ENDBRANCH  27  28
ENDBRANCH  26  27
ENDBRANCH  25  26
ENDBRANCH  18  25
ENDBRANCH   1  18
TORSDOF 15
