REMARK  Name = 13769
REMARK  2 active torsions:
REMARK  status: ('A' for Active; 'I' for Inactive)
REMARK    1  A    between atoms: C_7  and  C_15
REMARK    2  A    between atoms: C_8  and  C_16
REMARK                            x       y       z     vdW  Elec       q    Type
REMARK                         _______ _______ _______ _____ _____    ______ ____
ROOT
ATOM      1  O   UNL     1      -3.667   0.900   0.648  0.00  0.00    +0.000 OA
ATOM      2  O   UNL     1      -5.469  -0.101   1.555  0.00  0.00    +0.000 OA
ATOM      3  O   UNL     1       5.520  -0.353   1.540  0.00  0.00    +0.000 OA
ATOM      4  C   UNL     1      -0.371  -0.624  -0.542  0.00  0.00    +0.000 C 
ATOM      5  C   UNL     1       0.541   0.540  -0.033  0.00  0.00    +0.000 C 
ATOM      6  C   UNL     1      -1.783  -0.532   0.099  0.00  0.00    +0.000 C 
ATOM      7  C   UNL     1      -2.464   0.822  -0.164  0.00  0.00    +0.000 C 
ATOM      8  C   UNL     1       2.009   0.462  -0.601  0.00  0.00    +0.000 C 
ATOM      9  C   UNL     1      -0.150   1.901  -0.273  0.00  0.00    +0.000 C 
ATOM     10  C   UNL     1      -1.548   1.950   0.338  0.00  0.00    +0.000 C 
ATOM     11  C   UNL     1       0.286  -1.990  -0.267  0.00  0.00    +0.000 C 
ATOM     12  C   UNL     1      -2.722  -1.669  -0.310  0.00  0.00    +0.000 C 
ATOM     13  C   UNL     1       2.542  -0.947  -0.332  0.00  0.00    +0.000 C 
ATOM     14  C   UNL     1       1.695  -2.083  -0.840  0.00  0.00    +0.000 C 
ATOM     15  C   UNL     1      -2.861   1.082  -1.627  0.00  0.00    +0.000 C 
ATOM     16  C   UNL     1       2.070   0.744  -2.119  0.00  0.00    +0.000 C 
ATOM     17  C   UNL     1       2.889   1.516   0.059  0.00  0.00    +0.000 C 
ATOM     18  C   UNL     1      -4.187  -1.403   0.015  0.00  0.00    +0.000 C 
ATOM     19  C   UNL     1      -4.486  -0.164   0.821  0.00  0.00    +0.000 C 
ATOM     20  C   UNL     1       3.666  -1.203   0.357  0.00  0.00    +0.000 C 
ATOM     21  C   UNL     1       4.007   1.268   0.748  0.00  0.00    +0.000 C 
ATOM     22  C   UNL     1       4.484  -0.115   0.928  0.00  0.00    +0.000 C 
ENDROOT
TORSDOF 0
