REMARK  Name = 448940
REMARK  4 active torsions:
REMARK  status: ('A' for Active; 'I' for Inactive)
REMARK    1  A    between atoms: N_6  and  C_20
REMARK    2  A    between atoms: N_7  and  C_18
REMARK    3  A    between atoms: C_8  and  C_12
REMARK    4  A    between atoms: C_18  and  C_21
REMARK                            x       y       z     vdW  Elec       q    Type
REMARK                         _______ _______ _______ _____ _____    ______ ____
ROOT
ATOM      1  O   UNL     1       2.299  -2.368   1.061  0.00  0.00    +0.000 OA
ATOM      2  O   UNL     1       4.114   0.518   1.558  0.00  0.00    +0.000 OA
ATOM      3  N   UNL     1       3.092  -0.178  -0.424  0.00  0.00    +0.000 N 
ATOM      4  C   UNL     1       1.849  -2.303  -0.298  0.00  0.00    +0.000 C 
ATOM      5  C   UNL     1       2.673  -1.351  -1.176  0.00  0.00    +0.000 C 
ATOM      6  C   UNL     1       3.580  -1.809   1.288  0.00  0.00    +0.000 C 
ATOM      7  C   UNL     1       3.625  -0.358   0.850  0.00  0.00    +0.000 C 
ENDROOT
BRANCH   4  15
ATOM      8  S   UNL     1      -3.739   0.446   0.913  0.00  0.00    +0.000 S 
ATOM      9  O   UNL     1      -3.636   1.674   0.147  0.00  0.00    +0.000 OA
ATOM     10  O   UNL     1      -4.789   0.249   1.891  0.00  0.00    +0.000 OA
ATOM     11  N   UNL     1      -3.693  -0.908  -0.164  0.00  0.00    +0.000 N 
ATOM     12  C   UNL     1      -1.480  -0.745   0.650  0.00  0.00    +0.000 A 
ATOM     13  C   UNL     1      -2.144   0.131   1.666  0.00  0.00    +0.000 C 
ATOM     14  C   UNL     1      -2.313  -1.257  -0.351  0.00  0.00    +0.000 A 
ATOM     15  C   UNL     1       0.378  -1.934  -0.306  0.00  0.00    +0.000 A 
ATOM     16  C   UNL     1      -0.129  -1.077   0.672  0.00  0.00    +0.000 A 
ATOM     17  C   UNL     1      -1.825  -2.144  -1.304  0.00  0.00    +0.000 A 
ATOM     18  C   UNL     1      -0.467  -2.468  -1.286  0.00  0.00    +0.000 A 
ATOM     19  C   UNL     1      -4.604  -0.897  -1.325  0.00  0.00    +0.000 C 
ENDBRANCH   4  15
BRANCH   3  20
ATOM     20  C   UNL     1       3.086   1.114  -1.085  0.00  0.00    +0.000 C 
BRANCH  20  21
ATOM     21  C   UNL     1       1.836   1.894  -0.778  0.00  0.00    +0.000 A 
ATOM     22  C   UNL     1       0.725   1.755  -1.599  0.00  0.00    +0.000 A 
ATOM     23  C   UNL     1       1.811   2.742   0.320  0.00  0.00    +0.000 A 
ATOM     24  C   UNL     1      -0.434   2.478  -1.315  0.00  0.00    +0.000 A 
ATOM     25  C   UNL     1       0.652   3.465   0.604  0.00  0.00    +0.000 A 
ATOM     26  C   UNL     1      -0.470   3.333  -0.213  0.00  0.00    +0.000 A 
ENDBRANCH  20  21
ENDBRANCH   3  20
TORSDOF 3
