REMARK  Name = 5951796
REMARK  4 active torsions:
REMARK  status: ('A' for Active; 'I' for Inactive)
REMARK    1  A    between atoms: O_3  and  C_21
REMARK    2  A    between atoms: C_8  and  C_9
REMARK    3  A    between atoms: C_10  and  C_15
REMARK    4  A    between atoms: C_16  and  C_21
REMARK                            x       y       z     vdW  Elec       q    Type
REMARK                         _______ _______ _______ _____ _____    ______ ____
ROOT
ATOM      1  O   UNL     1       0.583  -0.940   0.006  0.00  0.00    +0.000 OA
ATOM      2  C   UNL     1      -0.550  -1.685  -0.005  0.00  0.00    +0.000 A 
ATOM      3  C   UNL     1       1.619  -1.819   0.002  0.00  0.00    +0.000 A 
ATOM      4  C   UNL     1      -0.259  -3.024  -0.015  0.00  0.00    +0.000 A 
ATOM      5  C   UNL     1       1.154  -3.114  -0.011  0.00  0.00    +0.000 A 
ENDROOT
BRANCH   3  10
ATOM      6  S   UNL     1       2.487   1.321  -0.020  0.00  0.00    +0.000 S 
ATOM      7  O   UNL     1       5.779  -0.584   0.033  0.00  0.00    +0.000 OA
ATOM      8  N   UNL     1       5.062   1.620   0.003  0.00  0.00    +0.000 NA
ATOM      9  N   UNL     1       3.798   3.645  -0.030  0.00  0.00    +0.000 N 
ATOM     10  C   UNL     1       2.967  -1.393   0.011  0.00  0.00    +0.000 C 
ATOM     11  C   UNL     1       3.440  -0.104   0.004  0.00  0.00    +0.000 C 
ATOM     12  C   UNL     1       4.883   0.249   0.015  0.00  0.00    +0.000 C 
ATOM     13  C   UNL     1       3.951   2.291  -0.015  0.00  0.00    +0.000 C 
ATOM     14  H   UNL     1       4.599   4.266  -0.028  0.00  0.00    +0.000 HD
ATOM     15  H   UNL     1       2.878   4.071  -0.043  0.00  0.00    +0.000 HD
ENDBRANCH   3  10
BRANCH   2  16
ATOM     16  C   UNL     1      -1.779  -0.930  -0.003  0.00  0.00    +0.000 A 
ATOM     17  C   UNL     1      -3.006  -1.594  -0.014  0.00  0.00    +0.000 A 
ATOM     18  C   UNL     1      -1.741   0.464   0.010  0.00  0.00    +0.000 A 
ATOM     19  C   UNL     1      -4.156   0.531   0.003  0.00  0.00    +0.000 A 
ATOM     20  C   UNL     1      -4.194  -0.864  -0.011  0.00  0.00    +0.000 A 
ATOM     21  C   UNL     1      -2.930   1.195   0.013  0.00  0.00    +0.000 A 
BRANCH  19  23
ATOM     22  O   UNL     1      -6.533   0.809  -0.002  0.00  0.00    +0.000 OA
ATOM     23  C   UNL     1      -5.395   1.292   0.006  0.00  0.00    +0.000 C 
BRANCH  23  24
ATOM     24  O   UNL     1      -5.181   2.636   0.021  0.00  0.00    +0.000 OA
ATOM     25  H   UNL     1      -6.022   3.140   0.024  0.00  0.00    +0.000 HD
ENDBRANCH  23  24
ENDBRANCH  19  23
ENDBRANCH   2  16
TORSDOF 4
