REMARK  Name = 9863791
REMARK  5 active torsions:
REMARK  status: ('A' for Active; 'I' for Inactive)
REMARK    1  A    between atoms: O_1  and  C_21
REMARK    2  A    between atoms: N_4  and  C_15
REMARK    3  A    between atoms: C_15  and  C_18
REMARK    4  A    between atoms: C_16  and  C_21
REMARK    5  A    between atoms: C_24  and  C_27
REMARK                            x       y       z     vdW  Elec       q    Type
REMARK                         _______ _______ _______ _____ _____    ______ ____
ROOT
ATOM      1  N   UNL     1      -0.919  -0.043  -0.788  0.00  0.00    +0.000 N 
ATOM      2  C   UNL     1      -1.706   1.079  -0.780  0.00  0.00    +0.000 A 
ATOM      3  C   UNL     1      -2.903   0.758  -0.167  0.00  0.00    +0.000 A 
ATOM      4  C   UNL     1      -1.247   2.371  -1.360  0.00  0.00    +0.000 C 
ATOM      5  C   UNL     1      -4.042   1.698   0.044  0.00  0.00    +0.000 C 
ATOM      6  C   UNL     1      -1.378   3.529  -0.370  0.00  0.00    +0.000 C 
ATOM      7  C   UNL     1      -3.639   2.986   0.765  0.00  0.00    +0.000 C 
ATOM      8  C   UNL     1      -2.827  -0.622   0.209  0.00  0.00    +0.000 A 
ATOM      9  C   UNL     1      -2.821   3.961  -0.089  0.00  0.00    +0.000 C 
ATOM     10  C   UNL     1      -1.575  -1.093  -0.192  0.00  0.00    +0.000 A 
ATOM     11  C   UNL     1      -1.157  -2.412   0.019  0.00  0.00    +0.000 A 
ATOM     12  C   UNL     1      -3.705  -1.519   0.854  0.00  0.00    +0.000 A 
ATOM     13  C   UNL     1      -2.046  -3.279   0.660  0.00  0.00    +0.000 A 
ATOM     14  C   UNL     1      -3.301  -2.841   1.072  0.00  0.00    +0.000 A 
ENDROOT
BRANCH  11  16
ATOM     15  O   UNL     1       1.170  -2.892   0.293  0.00  0.00    +0.000 OA
ATOM     16  C   UNL     1       0.142  -2.910  -0.395  0.00  0.00    +0.000 C 
BRANCH  16  17
ATOM     17  O   UNL     1       0.129  -3.421  -1.657  0.00  0.00    +0.000 OA
ATOM     18  H   UNL     1       1.012  -3.753  -1.925  0.00  0.00    +0.000 HD
ENDBRANCH  16  17
ENDBRANCH  11  16
BRANCH   1  19
ATOM     19  C   UNL     1       0.416  -0.114  -1.352  0.00  0.00    +0.000 C 
BRANCH  19  20
ATOM     20  C   UNL     1       1.464   0.224  -0.326  0.00  0.00    +0.000 A 
ATOM     21  C   UNL     1       2.804   0.207  -0.686  0.00  0.00    +0.000 A 
ATOM     22  C   UNL     1       1.076   0.547   0.967  0.00  0.00    +0.000 A 
ATOM     23  C   UNL     1       3.776   0.519   0.265  0.00  0.00    +0.000 A 
ATOM     24  C   UNL     1       2.047   0.859   1.919  0.00  0.00    +0.000 A 
ATOM     25  C   UNL     1       3.397   0.845   1.568  0.00  0.00    +0.000 A 
BRANCH  23  28
ATOM     26  O   UNL     1       5.550   0.234  -1.257  0.00  0.00    +0.000 OA
ATOM     27  N   UNL     1       6.112   0.823   0.886  0.00  0.00    +0.000 N 
ATOM     28  C   UNL     1       5.183   0.505  -0.100  0.00  0.00    +0.000 C 
ATOM     29  H   UNL     1       5.902   1.059   1.847  0.00  0.00    +0.000 HD
ATOM     30  H   UNL     1       7.100   0.827   0.655  0.00  0.00    +0.000 HD
ENDBRANCH  23  28
ENDBRANCH  19  20
ENDBRANCH   1  19
TORSDOF 5
