REMARK  Name = 3519
REMARK  3 active torsions:
REMARK  status: ('A' for Active; 'I' for Inactive)
REMARK    1  A    between atoms: N_4  and  C_13
REMARK    2  A    between atoms: C_7  and  C_8
REMARK    3  A    between atoms: C_8  and  C_13
REMARK                            x       y       z     vdW  Elec       q    Type
REMARK                         _______ _______ _______ _____ _____    ______ ____
ROOT
ATOM      1  O   UNL     1      -0.833   0.563   1.611  0.00  0.00    +0.000 OA
ATOM      2  C   UNL     1      -1.250   0.614   0.456  0.00  0.00    +0.000 C 
ENDROOT
BRANCH   2   3
ATOM      3  N   UNL     1      -2.538   0.942   0.089  0.00  0.00    +0.000 NA
ATOM      4  N   UNL     1      -4.733   0.105  -0.435  0.00  0.00    +0.000 N 
ATOM      5  N   UNL     1      -3.052  -1.330   0.132  0.00  0.00    +0.000 N 
ATOM      6  C   UNL     1      -3.410  -0.018  -0.074  0.00  0.00    +0.000 C 
ATOM      7  H   UNL     1      -5.333  -0.706  -0.535  0.00  0.00    +0.000 HD
ATOM      8  H   UNL     1      -5.143   1.015  -0.616  0.00  0.00    +0.000 HD
ATOM      9  H   UNL     1      -3.727  -2.077   0.005  0.00  0.00    +0.000 HD
ATOM     10  H   UNL     1      -2.121  -1.611   0.417  0.00  0.00    +0.000 HD
ENDBRANCH   2   3
BRANCH   2  11
ATOM     11  C   UNL     1      -0.356   0.380  -0.747  0.00  0.00    +0.000 C 
BRANCH  11  14
ATOM     12 CL   UNL     1       0.327  -2.568  -0.348  0.00  0.00    +0.000 Cl
ATOM     13 CL   UNL     1       1.558   2.742  -0.469  0.00  0.00    +0.000 Cl
ATOM     14  C   UNL     1       1.068   0.059  -0.377  0.00  0.00    +0.000 A 
ATOM     15  C   UNL     1       1.448  -1.265  -0.181  0.00  0.00    +0.000 A 
ATOM     16  C   UNL     1       1.993   1.088  -0.234  0.00  0.00    +0.000 A 
ATOM     17  C   UNL     1       2.767  -1.563   0.161  0.00  0.00    +0.000 A 
ATOM     18  C   UNL     1       3.312   0.790   0.109  0.00  0.00    +0.000 A 
ATOM     19  C   UNL     1       3.699  -0.536   0.306  0.00  0.00    +0.000 A 
ENDBRANCH  11  14
ENDBRANCH   2  11
TORSDOF 3
