REMARK  Name = 6013
REMARK  3 active torsions:
REMARK  status: ('A' for Active; 'I' for Inactive)
REMARK    1  A    between atoms: O_1  and  C_10
REMARK    2  A    between atoms: C_4  and  C_16
REMARK    3  A    between atoms: C_7  and  C_18
REMARK                            x       y       z     vdW  Elec       q    Type
REMARK                         _______ _______ _______ _____ _____    ______ ____
ROOT
ATOM      1  O   UNL     1       5.593  -0.143   0.967  0.00  0.00    +0.000 OA
ATOM      2  C   UNL     1      -1.999  -0.736   0.356  0.00  0.00    +0.000 C 
ATOM      3  C   UNL     1      -2.781   0.550   0.027  0.00  0.00    +0.000 C 
ATOM      4  C   UNL     1      -0.621  -0.777  -0.313  0.00  0.00    +0.000 C 
ATOM      5  C   UNL     1       0.214   0.446   0.182  0.00  0.00    +0.000 C 
ATOM      6  C   UNL     1       1.673   0.472  -0.417  0.00  0.00    +0.000 C 
ATOM      7  C   UNL     1      -1.990   1.742   0.581  0.00  0.00    +0.000 C 
ATOM      8  C   UNL     1      -0.560   1.783   0.014  0.00  0.00    +0.000 C 
ATOM      9  C   UNL     1      -4.093   0.244   0.774  0.00  0.00    +0.000 C 
ATOM     10  C   UNL     1      -3.002  -1.848   0.063  0.00  0.00    +0.000 C 
ATOM     11  C   UNL     1       0.117  -2.083   0.007  0.00  0.00    +0.000 C 
ATOM     12  C   UNL     1      -4.359  -1.244   0.468  0.00  0.00    +0.000 C 
ATOM     13  C   UNL     1       2.327  -0.904  -0.237  0.00  0.00    +0.000 C 
ATOM     14  C   UNL     1       1.499  -2.105  -0.632  0.00  0.00    +0.000 C 
ATOM     15  C   UNL     1      -3.059   0.769  -1.482  0.00  0.00    +0.000 C 
ATOM     16  C   UNL     1       2.494   1.554   0.343  0.00  0.00    +0.000 C 
ATOM     17  C   UNL     1       1.673   0.812  -1.925  0.00  0.00    +0.000 C 
ATOM     18  C   UNL     1       3.996   1.437   0.137  0.00  0.00    +0.000 C 
ATOM     19  C   UNL     1       3.576  -1.089   0.221  0.00  0.00    +0.000 C 
ATOM     20  C   UNL     1       4.470   0.057   0.507  0.00  0.00    +0.000 C 
ENDROOT
BRANCH   9  21
ATOM     21  O   UNL     1      -5.169   1.064   0.361  0.00  0.00    +0.000 OA
ATOM     22  H   UNL     1      -5.448   0.793  -0.529  0.00  0.00    +0.000 HD
ENDBRANCH   9  21
TORSDOF 1
