REMARK  Name = 9865442
REMARK  7 active torsions:
REMARK  status: ('A' for Active; 'I' for Inactive)
REMARK    1  A    between atoms: O_2  and  C_11
REMARK    2  A    between atoms: O_3  and  C_13
REMARK    3  A    between atoms: O_4  and  C_21
REMARK    4  A    between atoms: O_4  and  C_27
REMARK    5  A    between atoms: C_7  and  C_18
REMARK    6  A    between atoms: C_11  and  C_21
REMARK    7  A    between atoms: C_15  and  C_22
REMARK                            x       y       z     vdW  Elec       q    Type
REMARK                         _______ _______ _______ _____ _____    ______ ____
ROOT
ATOM      1  O   UNL     1       6.233   0.794   1.637  0.00  0.00    +0.000 OA
ATOM      2  C   UNL     1      -1.711  -0.327  -0.177  0.00  0.00    +0.000 C 
ATOM      3  C   UNL     1      -0.656  -1.386   0.213  0.00  0.00    +0.000 C 
ATOM      4  C   UNL     1       0.704  -1.180  -0.470  0.00  0.00    +0.000 C 
ATOM      5  C   UNL     1       1.268   0.226  -0.057  0.00  0.00    +0.000 C 
ATOM      6  C   UNL     1      -2.927  -0.874   0.621  0.00  0.00    +0.000 C 
ATOM      7  C   UNL     1      -1.172   1.048   0.266  0.00  0.00    +0.000 C 
ATOM      8  C   UNL     1       0.229   1.365  -0.304  0.00  0.00    +0.000 C 
ATOM      9  C   UNL     1      -1.391  -2.709   0.011  0.00  0.00    +0.000 C 
ATOM     10  C   UNL     1       2.720   0.477  -0.626  0.00  0.00    +0.000 C 
ATOM     11  C   UNL     1      -2.841  -2.407   0.441  0.00  0.00    +0.000 C 
ATOM     12  C   UNL     1       1.678  -2.306  -0.080  0.00  0.00    +0.000 C 
ATOM     13  C   UNL     1      -2.045  -0.325  -1.695  0.00  0.00    +0.000 C 
ATOM     14  C   UNL     1       3.080  -2.076  -0.630  0.00  0.00    +0.000 C 
ATOM     15  C   UNL     1       3.586  -0.719  -0.213  0.00  0.00    +0.000 C 
ATOM     16  C   UNL     1       2.780   0.604  -2.165  0.00  0.00    +0.000 C 
ATOM     17  C   UNL     1       3.280   1.778  -0.071  0.00  0.00    +0.000 C 
ATOM     18  C   UNL     1       4.708  -0.611   0.515  0.00  0.00    +0.000 C 
ATOM     19  C   UNL     1       4.396   1.892   0.656  0.00  0.00    +0.000 C 
ATOM     20  C   UNL     1       5.197   0.700   0.987  0.00  0.00    +0.000 C 
ENDROOT
BRANCH   6  21
ATOM     21  O   UNL     1      -2.822  -0.554   2.006  0.00  0.00    +0.000 OA
ATOM     22  H   UNL     1      -3.511  -1.045   2.486  0.00  0.00    +0.000 HD
ENDBRANCH   6  21
BRANCH   8  23
ATOM     23  O   UNL     1       0.121   1.674  -1.687  0.00  0.00    +0.000 OA
ATOM     24  H   UNL     1      -0.497   2.419  -1.778  0.00  0.00    +0.000 HD
ENDBRANCH   8  23
BRANCH   6  26
ATOM     25  O   UNL     1      -5.178  -0.977  -0.228  0.00  0.00    +0.000 OA
ATOM     26  C   UNL     1      -4.251  -0.307   0.208  0.00  0.00    +0.000 C 
BRANCH  26  27
ATOM     27  O   UNL     1      -4.248   1.043   0.398  0.00  0.00    +0.000 OA
BRANCH  27  29
ATOM     28 CL   UNL     1      -5.277   3.443   0.399  0.00  0.00    +0.000 Cl
ATOM     29  C   UNL     1      -5.460   1.715   0.044  0.00  0.00    +0.000 C 
ENDBRANCH  27  29
ENDBRANCH  26  27
ENDBRANCH   6  26
TORSDOF 5
