REMARK  Name = 104741
REMARK  18 active torsions:
REMARK  status: ('A' for Active; 'I' for Inactive)
REMARK    1  A    between atoms: S_1  and  C_36
REMARK    2  A    between atoms: S_1  and  C_37
REMARK    3  A    between atoms: O_7  and  C_15
REMARK    4  A    between atoms: O_8  and  C_30
REMARK    5  A    between atoms: C_11  and  C_20
REMARK    6  A    between atoms: C_17  and  C_23
REMARK    7  A    between atoms: C_23  and  C_25
REMARK    8  A    between atoms: C_25  and  C_28
REMARK    9  A    between atoms: C_28  and  C_31
REMARK   10  A    between atoms: C_31  and  C_32
REMARK   11  A    between atoms: C_32  and  C_33
REMARK   12  A    between atoms: C_33  and  C_34
REMARK   13  A    between atoms: C_34  and  C_35
REMARK   14  A    between atoms: C_35  and  C_36
REMARK   15  A    between atoms: C_37  and  C_38
REMARK   16  A    between atoms: C_38  and  C_39
REMARK   17  A    between atoms: C_39  and  C_40
REMARK   18  A    between atoms: C_40  and  C_41
REMARK                            x       y       z     vdW  Elec       q    Type
REMARK                         _______ _______ _______ _____ _____    ______ ____
ROOT
ATOM      1  C   UNL     1       6.670   2.028  -0.059  0.00  0.00    +0.000 C 
ATOM      2  C   UNL     1       8.008   2.611   0.443  0.00  0.00    +0.000 C 
ATOM      3  C   UNL     1       6.777   0.539  -0.396  0.00  0.00    +0.000 C 
ATOM      4  C   UNL     1       7.155  -0.236   0.904  0.00  0.00    +0.000 C 
ATOM      5  C   UNL     1       8.386   1.883   1.740  0.00  0.00    +0.000 C 
ATOM      6  C   UNL     1       7.584   4.082   0.624  0.00  0.00    +0.000 C 
ATOM      7  C   UNL     1       6.240   3.012  -1.143  0.00  0.00    +0.000 C 
ATOM      8  C   UNL     1       5.518  -0.056  -1.058  0.00  0.00    +0.000 C 
ATOM      9  C   UNL     1       8.441   0.355   1.546  0.00  0.00    +0.000 C 
ATOM     10  C   UNL     1       6.722   4.377  -0.619  0.00  0.00    +0.000 C 
ATOM     11  C   UNL     1       9.184   2.510  -0.561  0.00  0.00    +0.000 C 
ATOM     12  C   UNL     1       7.198  -1.743   0.667  0.00  0.00    +0.000 A 
ATOM     13  C   UNL     1       5.831  -1.498  -1.486  0.00  0.00    +0.000 C 
ATOM     14  C   UNL     1       6.538  -2.324  -0.437  0.00  0.00    +0.000 A 
ATOM     15  C   UNL     1       7.820  -2.599   1.595  0.00  0.00    +0.000 A 
ATOM     16  C   UNL     1       6.569  -3.719  -0.617  0.00  0.00    +0.000 A 
ATOM     17  C   UNL     1       7.833  -3.983   1.410  0.00  0.00    +0.000 A 
ATOM     18  C   UNL     1       7.212  -4.543   0.301  0.00  0.00    +0.000 A 
ENDROOT
BRANCH   6  19
ATOM     19  O   UNL     1       8.683   4.967   0.722  0.00  0.00    +0.000 OA
ATOM     20  H   UNL     1       8.327   5.872   0.745  0.00  0.00    +0.000 HD
ENDBRANCH   6  19
BRANCH  18  21
ATOM     21  O   UNL     1       7.228  -5.891   0.117  0.00  0.00    +0.000 OA
ATOM     22  H   UNL     1       6.748  -6.103  -0.702  0.00  0.00    +0.000 HD
ENDBRANCH  18  21
BRANCH   8  23
ATOM     23  C   UNL     1       4.248   0.003  -0.199  0.00  0.00    +0.000 C 
BRANCH  23  24
ATOM     24  C   UNL     1       2.998  -0.007  -1.071  0.00  0.00    +0.000 C 
BRANCH  24  25
ATOM     25  C   UNL     1       1.736   0.082  -0.210  0.00  0.00    +0.000 C 
BRANCH  25  26
ATOM     26  C   UNL     1       0.438  -0.012  -1.018  0.00  0.00    +0.000 C 
BRANCH  26  27
ATOM     27  C   UNL     1      -0.859   0.016  -0.201  0.00  0.00    +0.000 C 
BRANCH  27  28
ATOM     28  C   UNL     1      -2.119  -0.104  -1.062  0.00  0.00    +0.000 C 
BRANCH  28  29
ATOM     29  C   UNL     1      -3.414  -0.088  -0.243  0.00  0.00    +0.000 C 
BRANCH  29  30
ATOM     30  C   UNL     1      -4.678  -0.124  -1.110  0.00  0.00    +0.000 C 
BRANCH  30  31
ATOM     31  C   UNL     1      -5.962  -0.029  -0.293  0.00  0.00    +0.000 C 
BRANCH  31  32
ATOM     32  S   UNL     1      -7.444  -0.037  -1.348  0.00  0.00    +0.000 S 
ATOM     33  O   UNL     1      -7.564  -1.411  -1.931  0.00  0.00    +0.000 OA
BRANCH  32  34
ATOM     34  C   UNL     1      -8.626   0.087   0.015  0.00  0.00    +0.000 C 
BRANCH  34  35
ATOM     35  C   UNL     1     -10.069   0.110  -0.479  0.00  0.00    +0.000 C 
BRANCH  35  36
ATOM     36  C   UNL     1     -11.091   0.186   0.663  0.00  0.00    +0.000 C 
BRANCH  36  39
ATOM     37  F   UNL     1     -12.734  -0.944  -0.594  0.00  0.00    +0.000 F 
ATOM     38  F   UNL     1     -12.698   1.233  -0.706  0.00  0.00    +0.000 F 
ATOM     39  C   UNL     1     -12.521   0.181   0.134  0.00  0.00    +0.000 C 
BRANCH  39  43
ATOM     40  F   UNL     1     -13.419   1.381   1.959  0.00  0.00    +0.000 F 
ATOM     41  F   UNL     1     -13.459  -0.799   2.067  0.00  0.00    +0.000 F 
ATOM     42  F   UNL     1     -14.803   0.252   0.707  0.00  0.00    +0.000 F 
ATOM     43  C   UNL     1     -13.557   0.255   1.228  0.00  0.00    +0.000 C 
ENDBRANCH  39  43
ENDBRANCH  36  39
ENDBRANCH  35  36
ENDBRANCH  34  35
ENDBRANCH  32  34
ENDBRANCH  31  32
ENDBRANCH  30  31
ENDBRANCH  29  30
ENDBRANCH  28  29
ENDBRANCH  27  28
ENDBRANCH  26  27
ENDBRANCH  25  26
ENDBRANCH  24  25
ENDBRANCH  23  24
ENDBRANCH   8  23
TORSDOF 17
