REMARK  Name = 6540478
REMARK  7 active torsions:
REMARK  status: ('A' for Active; 'I' for Inactive)
REMARK    1  A    between atoms: O_1  and  C_9
REMARK    2  A    between atoms: O_1  and  C_25
REMARK    3  A    between atoms: O_3  and  N_4
REMARK    4  A    between atoms: C_5  and  C_16
REMARK    5  A    between atoms: C_9  and  C_20
REMARK    6  A    between atoms: C_16  and  C_21
REMARK    7  A    between atoms: C_25  and  C_27
REMARK                            x       y       z     vdW  Elec       q    Type
REMARK                         _______ _______ _______ _____ _____    ______ ____
ROOT
ATOM      1  N   UNL     1       6.261  -0.635  -1.095  0.00  0.00    +0.000 NA
ATOM      2  C   UNL     1      -1.661  -0.075   0.467  0.00  0.00    +0.000 C 
ATOM      3  C   UNL     1      -0.820   0.976  -0.295  0.00  0.00    +0.000 C 
ATOM      4  C   UNL     1       0.541   1.235   0.357  0.00  0.00    +0.000 C 
ATOM      5  C   UNL     1       1.346  -0.109   0.396  0.00  0.00    +0.000 C 
ATOM      6  C   UNL     1      -2.985  -0.026  -0.358  0.00  0.00    +0.000 C 
ATOM      7  C   UNL     1      -0.883  -1.405   0.465  0.00  0.00    +0.000 C 
ATOM      8  C   UNL     1      -1.784   2.146  -0.471  0.00  0.00    +0.000 C 
ATOM      9  C   UNL     1       0.533  -1.249   1.051  0.00  0.00    +0.000 C 
ATOM     10  C   UNL     1      -3.173   1.492  -0.628  0.00  0.00    +0.000 C 
ATOM     11  C   UNL     1       2.719   0.143   1.078  0.00  0.00    +0.000 C 
ATOM     12  C   UNL     1       1.331   2.338  -0.373  0.00  0.00    +0.000 C 
ATOM     13  C   UNL     1       2.729   2.531   0.223  0.00  0.00    +0.000 C 
ATOM     14  C   UNL     1       3.440   1.205   0.266  0.00  0.00    +0.000 C 
ATOM     15  C   UNL     1       3.606  -1.094   1.296  0.00  0.00    +0.000 C 
ATOM     16  C   UNL     1       4.314  -1.530   0.026  0.00  0.00    +0.000 C 
ATOM     17  C   UNL     1       4.565   0.989  -0.434  0.00  0.00    +0.000 C 
ATOM     18  C   UNL     1       5.129  -0.381  -0.523  0.00  0.00    +0.000 C 
ENDROOT
BRANCH   1  19
ATOM     19  O   UNL     1       6.497  -2.007  -1.007  0.00  0.00    +0.000 OA
ATOM     20  H   UNL     1       7.354  -2.088  -1.458  0.00  0.00    +0.000 HD
ENDBRANCH   1  19
BRANCH   2  21
ATOM     21  C   UNL     1      -1.949   0.316   1.946  0.00  0.00    +0.000 C 
ATOM     22  C   UNL     1      -2.741  -0.768   2.628  0.00  0.00    +0.000 C 
ENDBRANCH   2  21
BRANCH   6  23
ATOM     23  C   UNL     1      -2.899  -0.750  -1.642  0.00  0.00    +0.000 C 
ATOM     24  C   UNL     1      -2.829  -1.338  -2.686  0.00  0.00    +0.000 C 
ENDBRANCH   6  23
BRANCH   6  25
ATOM     25  O   UNL     1      -4.092  -0.562   0.351  0.00  0.00    +0.000 OA
BRANCH  25  27
ATOM     26  O   UNL     1      -5.513   0.064  -1.359  0.00  0.00    +0.000 OA
ATOM     27  C   UNL     1      -5.306  -0.450  -0.268  0.00  0.00    +0.000 C 
ATOM     28  C   UNL     1      -6.375  -1.055   0.591  0.00  0.00    +0.000 C 
ENDBRANCH  25  27
ENDBRANCH   6  25
TORSDOF 5
