REMARK  Name = 9642
REMARK  10 active torsions:
REMARK  status: ('A' for Active; 'I' for Inactive)
REMARK    1  A    between atoms: O_5  and  C_18
REMARK    2  A    between atoms: O_7  and  C_28
REMARK    3  A    between atoms: O_7  and  C_34
REMARK    4  A    between atoms: C_10  and  C_21
REMARK    5  A    between atoms: C_13  and  C_23
REMARK    6  A    between atoms: C_19  and  C_26
REMARK    7  A    between atoms: C_23  and  C_28
REMARK    8  A    between atoms: C_24  and  C_29
REMARK    9  A    between atoms: C_24  and  C_30
REMARK   10  A    between atoms: C_34  and  C_35
REMARK                            x       y       z     vdW  Elec       q    Type
REMARK                         _______ _______ _______ _____ _____    ______ ____
ROOT
ATOM      1  F   UNL     1       1.906  -0.173  -1.188  0.00  0.00    +0.000 F 
ATOM      2  F   UNL     1       4.728   2.465   0.784  0.00  0.00    +0.000 F 
ATOM      3  O   UNL     1      -2.327   1.005  -1.133  0.00  0.00    +0.000 OA
ATOM      4  O   UNL     1      -2.447   3.167  -0.219  0.00  0.00    +0.000 OA
ATOM      5  O   UNL     1       6.615  -0.968  -2.164  0.00  0.00    +0.000 OA
ATOM      6  C   UNL     1      -1.016   0.073   0.750  0.00  0.00    +0.000 C 
ATOM      7  C   UNL     1       0.070   1.147   0.513  0.00  0.00    +0.000 C 
ATOM      8  C   UNL     1       1.470   0.703   0.956  0.00  0.00    +0.000 C 
ATOM      9  C   UNL     1      -2.267   0.860   0.283  0.00  0.00    +0.000 C 
ATOM     10  C   UNL     1       1.881  -0.572   0.140  0.00  0.00    +0.000 C 
ATOM     11  C   UNL     1      -2.051   2.277   0.821  0.00  0.00    +0.000 C 
ATOM     12  C   UNL     1      -0.541   2.414   1.116  0.00  0.00    +0.000 C 
ATOM     13  C   UNL     1      -0.639  -1.155  -0.101  0.00  0.00    +0.000 C 
ATOM     14  C   UNL     1       0.786  -1.680   0.191  0.00  0.00    +0.000 C 
ATOM     15  C   UNL     1       3.356  -1.034   0.469  0.00  0.00    +0.000 C 
ATOM     16  C   UNL     1       2.483   1.841   0.753  0.00  0.00    +0.000 C 
ATOM     17  C   UNL     1      -1.178  -0.320   2.244  0.00  0.00    +0.000 C 
ATOM     18  C   UNL     1       3.909   1.409   1.067  0.00  0.00    +0.000 C 
ATOM     19  C   UNL     1      -2.635   2.378  -1.395  0.00  0.00    +0.000 C 
ATOM     20  C   UNL     1       4.275   0.180   0.272  0.00  0.00    +0.000 C 
ATOM     21  C   UNL     1       3.547  -1.548   1.915  0.00  0.00    +0.000 C 
ATOM     22  C   UNL     1       3.759  -2.185  -0.443  0.00  0.00    +0.000 C 
ATOM     23  C   UNL     1      -4.091   2.480  -1.834  0.00  0.00    +0.000 C 
ATOM     24  C   UNL     1      -1.712   2.905  -2.490  0.00  0.00    +0.000 C 
ATOM     25  C   UNL     1       5.316   0.192  -0.575  0.00  0.00    +0.000 C 
ATOM     26  C   UNL     1       4.793  -2.175  -1.289  0.00  0.00    +0.000 C 
ATOM     27  C   UNL     1       5.654  -0.984  -1.403  0.00  0.00    +0.000 C 
ENDROOT
BRANCH  14  28
ATOM     28  O   UNL     1       0.798  -2.369   1.432  0.00  0.00    +0.000 OA
ATOM     29  H   UNL     1       1.222  -3.231   1.286  0.00  0.00    +0.000 HD
ENDBRANCH  14  28
BRANCH   9  31
ATOM     30  O   UNL     1      -4.371   0.842   1.403  0.00  0.00    +0.000 OA
ATOM     31  C   UNL     1      -3.569   0.237   0.694  0.00  0.00    +0.000 C 
BRANCH  31  32
ATOM     32  C   UNL     1      -3.830  -1.165   0.187  0.00  0.00    +0.000 C 
BRANCH  32  33
ATOM     33  O   UNL     1      -5.214  -1.381   0.006  0.00  0.00    +0.000 OA
BRANCH  33  35
ATOM     34  O   UNL     1      -4.813  -3.539  -0.713  0.00  0.00    +0.000 OA
ATOM     35  C   UNL     1      -5.579  -2.621  -0.452  0.00  0.00    +0.000 C 
ATOM     36  C   UNL     1      -7.068  -2.704  -0.594  0.00  0.00    +0.000 C 
ENDBRANCH  33  35
ENDBRANCH  32  33
ENDBRANCH  31  32
ENDBRANCH   9  31
TORSDOF 5
