REMARK  Name = 20055090
REMARK  12 active torsions:
REMARK  status: ('A' for Active; 'I' for Inactive)
REMARK    1  A    between atoms: O_2  and  C_10
REMARK    2  A    between atoms: O_2  and  C_29
REMARK    3  A    between atoms: O_3  and  C_20
REMARK    4  A    between atoms: O_4  and  C_27
REMARK    5  A    between atoms: O_4  and  C_32
REMARK    6  A    between atoms: N_6  and  C_24
REMARK    7  A    between atoms: C_13  and  C_20
REMARK    8  A    between atoms: C_20  and  C_23
REMARK    9  A    between atoms: C_20  and  C_26
REMARK   10  A    between atoms: C_23  and  C_30
REMARK   11  A    between atoms: C_30  and  C_31
REMARK   12  A    between atoms: C_32  and  C_33
REMARK                            x       y       z     vdW  Elec       q    Type
REMARK                         _______ _______ _______ _____ _____    ______ ____
ROOT
ATOM      1  O   UNL     1      -0.998  -1.366   1.132  0.00  0.00    +0.000 OA
ATOM      2  N   UNL     1      -0.420   3.860   0.353  0.00  0.00    +0.000 NA
ATOM      3  C   UNL     1      -0.480   1.002   0.762  0.00  0.00    +0.000 C 
ATOM      4  C   UNL     1       0.229   1.631  -0.472  0.00  0.00    +0.000 C 
ATOM      5  C   UNL     1       0.087  -0.385   1.131  0.00  0.00    +0.000 C 
ATOM      6  C   UNL     1       1.234  -0.715   0.127  0.00  0.00    +0.000 C 
ATOM      7  C   UNL     1      -0.579   2.930  -0.790  0.00  0.00    +0.000 C 
ATOM      8  C   UNL     1       1.737   1.798  -0.125  0.00  0.00    +0.000 C 
ATOM      9  C   UNL     1       2.325   0.406   0.306  0.00  0.00    +0.000 C 
ATOM     10  C   UNL     1      -0.533   1.962   1.964  0.00  0.00    +0.000 C 
ATOM     11  C   UNL     1      -1.840   0.608   0.322  0.00  0.00    +0.000 A 
ATOM     12  C   UNL     1       0.249   0.609  -1.623  0.00  0.00    +0.000 C 
ATOM     13  C   UNL     1      -2.095   2.616  -1.136  0.00  0.00    +0.000 C 
ATOM     14  C   UNL     1       0.729  -0.604  -1.298  0.00  0.00    +0.000 C 
ATOM     15  C   UNL     1      -1.032   3.366   1.591  0.00  0.00    +0.000 C 
ATOM     16  C   UNL     1      -2.657   1.359  -0.507  0.00  0.00    +0.000 A 
ATOM     17  C   UNL     1      -2.093  -0.711   0.624  0.00  0.00    +0.000 A 
ATOM     18  C   UNL     1      -0.847   5.222   0.053  0.00  0.00    +0.000 C 
ATOM     19  C   UNL     1      -3.888   0.802  -0.853  0.00  0.00    +0.000 A 
ATOM     20  C   UNL     1      -3.298  -1.287   0.284  0.00  0.00    +0.000 A 
ATOM     21  C   UNL     1      -4.215  -0.504  -0.433  0.00  0.00    +0.000 A 
ENDROOT
BRANCH   6  22
ATOM     22  O   UNL     1       1.772  -1.997   0.393  0.00  0.00    +0.000 OA
ATOM     23  C   UNL     1       1.823  -2.268   1.790  0.00  0.00    +0.000 C 
ENDBRANCH   6  22
BRANCH   9  24
ATOM     24  C   UNL     1       3.634   0.113  -0.434  0.00  0.00    +0.000 C 
ATOM     25  C   UNL     1       4.644   1.232  -0.173  0.00  0.00    +0.000 C 
BRANCH  24  26
ATOM     26  O   UNL     1       3.348   0.080  -1.835  0.00  0.00    +0.000 OA
ATOM     27  H   UNL     1       4.178  -0.100  -2.307  0.00  0.00    +0.000 HD
ENDBRANCH  24  26
BRANCH  24  28
ATOM     28  C   UNL     1       4.168  -1.272  -0.017  0.00  0.00    +0.000 C 
BRANCH  28  29
ATOM     29  C   UNL     1       5.676  -1.461  -0.221  0.00  0.00    +0.000 C 
ATOM     30  C   UNL     1       6.137  -2.818   0.289  0.00  0.00    +0.000 C 
ENDBRANCH  28  29
ENDBRANCH  24  28
ENDBRANCH   9  24
BRANCH  20  31
ATOM     31  O   UNL     1      -3.577  -2.579   0.584  0.00  0.00    +0.000 OA
BRANCH  31  33
ATOM     32  O   UNL     1      -2.581  -3.225  -1.434  0.00  0.00    +0.000 OA
ATOM     33  C   UNL     1      -3.154  -3.503  -0.388  0.00  0.00    +0.000 C 
ATOM     34  C   UNL     1      -3.507  -4.899   0.034  0.00  0.00    +0.000 C 
ENDBRANCH  31  33
ENDBRANCH  20  31
TORSDOF 7
