REMARK  Name = 13765
REMARK  4 active torsions:
REMARK  status: ('A' for Active; 'I' for Inactive)
REMARK    1  A    between atoms: O_1  and  C_6
REMARK    2  A    between atoms: C_2  and  C_13
REMARK    3  A    between atoms: C_6  and  C_14
REMARK    4  A    between atoms: C_14  and  C_20
REMARK                            x       y       z     vdW  Elec       q    Type
REMARK                         _______ _______ _______ _____ _____    ______ ____
ROOT
ATOM      1  C   UNL     1       1.887  -0.410  -0.566  0.00  0.00    +0.000 C 
ATOM      2  C   UNL     1       1.112   0.756   0.085  0.00  0.00    +0.000 C 
ATOM      3  C   UNL     1      -0.318   0.890  -0.446  0.00  0.00    +0.000 C 
ATOM      4  C   UNL     1      -1.095  -0.439  -0.154  0.00  0.00    +0.000 C 
ATOM      5  C   UNL     1       3.297  -0.209   0.073  0.00  0.00    +0.000 C 
ATOM      6  C   UNL     1       1.146  -1.714  -0.227  0.00  0.00    +0.000 C 
ATOM      7  C   UNL     1       2.060   1.942  -0.065  0.00  0.00    +0.000 C 
ATOM      8  C   UNL     1      -0.327  -1.677  -0.673  0.00  0.00    +0.000 C 
ATOM      9  C   UNL     1       3.468   1.333   0.075  0.00  0.00    +0.000 C 
ATOM     10  C   UNL     1      -2.540  -0.323  -0.719  0.00  0.00    +0.000 C 
ATOM     11  C   UNL     1      -1.048   2.104   0.162  0.00  0.00    +0.000 C 
ATOM     12  C   UNL     1       2.001  -0.293  -2.115  0.00  0.00    +0.000 C 
ATOM     13  C   UNL     1      -2.499   2.190  -0.313  0.00  0.00    +0.000 C 
ATOM     14  C   UNL     1      -3.193   0.880  -0.057  0.00  0.00    +0.000 C 
ATOM     15  C   UNL     1      -3.412  -1.588  -0.585  0.00  0.00    +0.000 C 
ATOM     16  C   UNL     1      -4.016  -1.728   0.807  0.00  0.00    +0.000 C 
ATOM     17  C   UNL     1      -4.258   0.782   0.756  0.00  0.00    +0.000 C 
ATOM     18  C   UNL     1      -4.893  -0.521   1.137  0.00  0.00    +0.000 C 
ENDROOT
BRANCH   5  19
ATOM     19  O   UNL     1       4.328  -0.790  -0.721  0.00  0.00    +0.000 OA
ATOM     20  H   UNL     1       5.151  -0.290  -0.587  0.00  0.00    +0.000 HD
ENDBRANCH   5  19
BRANCH   5  21
ATOM     21  C   UNL     1       3.469  -0.768   1.491  0.00  0.00    +0.000 C 
ATOM     22  C   UNL     1       4.830  -0.418   2.054  0.00  0.00    +0.000 C 
ENDBRANCH   5  21
TORSDOF 2
