REMARK  Name = 636403
REMARK  15 active torsions:
REMARK  status: ('A' for Active; 'I' for Inactive)
REMARK    1  A    between atoms: O_1  and  C_24
REMARK    2  A    between atoms: O_1  and  C_38
REMARK    3  A    between atoms: O_3  and  C_37
REMARK    4  A    between atoms: O_6  and  C_41
REMARK    5  A    between atoms: C_8  and  C_23
REMARK    6  A    between atoms: C_9  and  C_25
REMARK    7  A    between atoms: C_11  and  C_27
REMARK    8  A    between atoms: C_15  and  C_33
REMARK    9  A    between atoms: C_15  and  C_34
REMARK   10  A    between atoms: C_18  and  C_35
REMARK   11  A    between atoms: C_31  and  C_36
REMARK   12  A    between atoms: C_31  and  C_37
REMARK   13  A    between atoms: C_38  and  C_39
REMARK   14  A    between atoms: C_39  and  C_40
REMARK   15  A    between atoms: C_40  and  C_41
REMARK                            x       y       z     vdW  Elec       q    Type
REMARK                         _______ _______ _______ _____ _____    ______ ____
ROOT
ATOM      1  O   UNL     1       0.086   2.015  -1.163  0.00  0.00    +0.000 OA
ATOM      2  C   UNL     1      -0.753  -1.433  -0.255  0.00  0.00    +0.000 C 
ATOM      3  C   UNL     1       1.711  -0.310  -0.358  0.00  0.00    +0.000 C 
ATOM      4  C   UNL     1       0.156  -0.156  -0.045  0.00  0.00    +0.000 C 
ATOM      5  C   UNL     1      -2.220  -1.142   0.398  0.00  0.00    +0.000 C 
ATOM      6  C   UNL     1       2.226  -1.585   0.417  0.00  0.00    +0.000 C 
ATOM      7  C   UNL     1      -0.061  -2.655   0.413  0.00  0.00    +0.000 C 
ATOM      8  C   UNL     1       1.412  -2.836   0.038  0.00  0.00    +0.000 C 
ATOM      9  C   UNL     1       3.785  -1.800   0.447  0.00  0.00    +0.000 C 
ATOM     10  C   UNL     1      -2.788   0.174  -0.156  0.00  0.00    +0.000 C 
ATOM     11  C   UNL     1      -4.306   0.333  -0.270  0.00  0.00    +0.000 C 
ATOM     12  C   UNL     1      -4.963  -0.809  -1.110  0.00  0.00    +0.000 C 
ATOM     13  C   UNL     1      -3.249  -2.292   0.138  0.00  0.00    +0.000 C 
ATOM     14  C   UNL     1       2.482   0.916   0.232  0.00  0.00    +0.000 C 
ATOM     15  C   UNL     1      -4.124  -2.115  -1.107  0.00  0.00    +0.000 C 
ATOM     16  C   UNL     1      -0.525   1.070  -0.668  0.00  0.00    +0.000 C 
ATOM     17  C   UNL     1      -0.908  -1.778  -1.762  0.00  0.00    +0.000 C 
ATOM     18  C   UNL     1       4.448  -0.498   0.983  0.00  0.00    +0.000 C 
ATOM     19  C   UNL     1       1.978  -0.362  -1.882  0.00  0.00    +0.000 C 
ATOM     20  C   UNL     1       4.001   0.760   0.249  0.00  0.00    +0.000 C 
ATOM     21  C   UNL     1      -2.110  -1.003   1.948  0.00  0.00    +0.000 C 
ATOM     22  C   UNL     1      -2.005   1.157  -0.631  0.00  0.00    +0.000 C 
ATOM     23  C   UNL     1      -5.005   0.537   1.090  0.00  0.00    +0.000 C 
ATOM     24  C   UNL     1      -6.391  -1.129  -0.589  0.00  0.00    +0.000 C 
ATOM     25  C   UNL     1      -6.495   0.915   0.934  0.00  0.00    +0.000 C 
ATOM     26  C   UNL     1      -7.180   0.123  -0.199  0.00  0.00    +0.000 C 
ATOM     27  C   UNL     1       4.386  -2.221  -0.909  0.00  0.00    +0.000 C 
ATOM     28  C   UNL     1       4.145  -2.936   1.445  0.00  0.00    +0.000 C 
ATOM     29  C   UNL     1      -5.072  -0.346  -2.586  0.00  0.00    +0.000 C 
ATOM     30  C   UNL     1      -7.221   0.678   2.268  0.00  0.00    +0.000 C 
ENDROOT
BRANCH  25  32
ATOM     31  O   UNL     1      -5.616   3.136   0.498  0.00  0.00    +0.000 OA
ATOM     32  C   UNL     1      -6.577   2.393   0.636  0.00  0.00    +0.000 C 
BRANCH  32  33
ATOM     33  O   UNL     1      -7.869   2.792   0.544  0.00  0.00    +0.000 OA
ATOM     34  H   UNL     1      -7.943   3.752   0.352  0.00  0.00    +0.000 HD
ENDBRANCH  32  33
ENDBRANCH  25  32
BRANCH  18  35
ATOM     35  O   UNL     1       5.871  -0.592   0.908  0.00  0.00    +0.000 OA
BRANCH  35  37
ATOM     36  O   UNL     1       6.188   1.231   2.285  0.00  0.00    +0.000 OA
ATOM     37  C   UNL     1       6.561   0.488   1.388  0.00  0.00    +0.000 C 
BRANCH  37  38
ATOM     38  C   UNL     1       7.863   0.616   0.626  0.00  0.00    +0.000 C 
BRANCH  38  39
ATOM     39  C   UNL     1       8.036   1.976  -0.039  0.00  0.00    +0.000 C 
BRANCH  39  41
ATOM     40  O   UNL     1       6.181   3.165  -1.029  0.00  0.00    +0.000 OA
ATOM     41  C   UNL     1       6.961   2.223  -1.068  0.00  0.00    +0.000 C 
BRANCH  41  42
ATOM     42  O   UNL     1       6.964   1.298  -2.059  0.00  0.00    +0.000 OA
ATOM     43  H   UNL     1       6.264   1.472  -2.724  0.00  0.00    +0.000 HD
ENDBRANCH  41  42
ENDBRANCH  39  41
ENDBRANCH  38  39
ENDBRANCH  37  38
ENDBRANCH  35  37
ENDBRANCH  18  35
TORSDOF 8
