REMARK  Name = 104772
REMARK  19 active torsions:
REMARK  status: ('A' for Active; 'I' for Inactive)
REMARK    1  A    between atoms: O_1  and  C_10
REMARK    2  A    between atoms: O_2  and  C_25
REMARK    3  A    between atoms: N_4  and  C_34
REMARK    4  A    between atoms: N_4  and  C_35
REMARK    5  A    between atoms: C_6  and  C_15
REMARK    6  A    between atoms: C_12  and  C_18
REMARK    7  A    between atoms: C_18  and  C_20
REMARK    8  A    between atoms: C_20  and  C_23
REMARK    9  A    between atoms: C_23  and  C_26
REMARK   10  A    between atoms: C_26  and  C_27
REMARK   11  A    between atoms: C_27  and  C_28
REMARK   12  A    between atoms: C_28  and  C_29
REMARK   13  A    between atoms: C_29  and  C_30
REMARK   14  A    between atoms: C_30  and  C_31
REMARK   15  A    between atoms: C_31  and  C_32
REMARK   16  A    between atoms: C_32  and  C_33
REMARK   17  A    between atoms: C_34  and  C_36
REMARK   18  A    between atoms: C_36  and  C_37
REMARK   19  A    between atoms: C_37  and  C_38
REMARK                            x       y       z     vdW  Elec       q    Type
REMARK                         _______ _______ _______ _____ _____    ______ ____
ROOT
ATOM      1  C   UNL     1       3.770  -1.863   0.391  0.00  0.00    +0.000 C 
ATOM      2  C   UNL     1       5.239  -2.267   0.635  0.00  0.00    +0.000 C 
ATOM      3  C   UNL     1       3.556  -0.352   0.514  0.00  0.00    +0.000 C 
ATOM      4  C   UNL     1       4.415   0.359  -0.577  0.00  0.00    +0.000 C 
ATOM      5  C   UNL     1       6.102  -1.601  -0.445  0.00  0.00    +0.000 C 
ATOM      6  C   UNL     1       5.101  -3.796   0.505  0.00  0.00    +0.000 C 
ATOM      7  C   UNL     1       2.988  -2.807   1.299  0.00  0.00    +0.000 C 
ATOM      8  C   UNL     1       2.080   0.089   0.443  0.00  0.00    +0.000 C 
ATOM      9  C   UNL     1       5.905  -0.073  -0.477  0.00  0.00    +0.000 C 
ATOM     10  C   UNL     1       3.794  -4.118   1.257  0.00  0.00    +0.000 C 
ATOM     11  C   UNL     1       5.796  -1.896   2.034  0.00  0.00    +0.000 C 
ATOM     12  C   UNL     1       4.189   1.868  -0.573  0.00  0.00    +0.000 A 
ATOM     13  C   UNL     1       2.010   1.593   0.746  0.00  0.00    +0.000 C 
ATOM     14  C   UNL     1       3.036   2.429   0.018  0.00  0.00    +0.000 A 
ATOM     15  C   UNL     1       5.080   2.730  -1.238  0.00  0.00    +0.000 A 
ATOM     16  C   UNL     1       2.837   3.821  -0.018  0.00  0.00    +0.000 A 
ATOM     17  C   UNL     1       4.865   4.109  -1.276  0.00  0.00    +0.000 A 
ATOM     18  C   UNL     1       3.747   4.656  -0.661  0.00  0.00    +0.000 A 
ENDROOT
BRANCH   6  19
ATOM     19  O   UNL     1       6.202  -4.501   1.043  0.00  0.00    +0.000 OA
ATOM     20  H   UNL     1       5.993  -5.450   0.998  0.00  0.00    +0.000 HD
ENDBRANCH   6  19
BRANCH  18  21
ATOM     21  O   UNL     1       3.537   6.000  -0.692  0.00  0.00    +0.000 OA
ATOM     22  H   UNL     1       2.713   6.202  -0.217  0.00  0.00    +0.000 HD
ENDBRANCH  18  21
BRANCH   8  23
ATOM     23  C   UNL     1       1.370  -0.243  -0.874  0.00  0.00    +0.000 C 
BRANCH  23  24
ATOM     24  C   UNL     1      -0.136  -0.358  -0.670  0.00  0.00    +0.000 C 
BRANCH  24  25
ATOM     25  C   UNL     1      -0.838  -0.719  -1.980  0.00  0.00    +0.000 C 
BRANCH  25  26
ATOM     26  C   UNL     1      -2.348  -0.870  -1.778  0.00  0.00    +0.000 C 
BRANCH  26  27
ATOM     27  C   UNL     1      -3.045  -1.263  -3.083  0.00  0.00    +0.000 C 
BRANCH  27  28
ATOM     28  C   UNL     1      -4.568  -1.357  -2.952  0.00  0.00    +0.000 C 
BRANCH  28  29
ATOM     29  C   UNL     1      -5.025  -2.443  -1.975  0.00  0.00    +0.000 C 
BRANCH  29  30
ATOM     30  C   UNL     1      -6.549  -2.578  -1.888  0.00  0.00    +0.000 C 
BRANCH  30  31
ATOM     31  C   UNL     1      -7.304  -1.319  -1.450  0.00  0.00    +0.000 C 
BRANCH  31  32
ATOM     32  C   UNL     1      -6.854  -0.780  -0.091  0.00  0.00    +0.000 C 
BRANCH  32  35
ATOM     33  O   UNL     1      -8.594   0.852  -0.337  0.00  0.00    +0.000 OA
ATOM     34  N   UNL     1      -7.329   0.969   1.604  0.00  0.00    +0.000 N 
ATOM     35  C   UNL     1      -7.678   0.416   0.367  0.00  0.00    +0.000 C 
ATOM     36  C   UNL     1      -8.027   2.120   2.173  0.00  0.00    +0.000 C 
BRANCH  34  37
ATOM     37  C   UNL     1      -6.243   0.437   2.418  0.00  0.00    +0.000 C 
BRANCH  37  38
ATOM     38  C   UNL     1      -4.903   1.092   2.101  0.00  0.00    +0.000 C 
BRANCH  38  39
ATOM     39  C   UNL     1      -3.756   0.518   2.934  0.00  0.00    +0.000 C 
ATOM     40  C   UNL     1      -2.424   1.147   2.554  0.00  0.00    +0.000 C 
ENDBRANCH  38  39
ENDBRANCH  37  38
ENDBRANCH  34  37
ENDBRANCH  32  35
ENDBRANCH  31  32
ENDBRANCH  30  31
ENDBRANCH  29  30
ENDBRANCH  28  29
ENDBRANCH  27  28
ENDBRANCH  26  27
ENDBRANCH  25  26
ENDBRANCH  24  25
ENDBRANCH  23  24
ENDBRANCH   8  23
TORSDOF 16
