REMARK  Name = 242332
REMARK  4 active torsions:
REMARK  status: ('A' for Active; 'I' for Inactive)
REMARK    1  A    between atoms: O_1  and  C_13
REMARK    2  A    between atoms: O_2  and  C_21
REMARK    3  A    between atoms: C_6  and  C_18
REMARK    4  A    between atoms: C_7  and  C_19
REMARK                            x       y       z     vdW  Elec       q    Type
REMARK                         _______ _______ _______ _____ _____    ______ ____
ROOT
ATOM      1  C   UNL     1       0.163  -0.435  -0.305  0.00  0.00    +0.000 C 
ATOM      2  C   UNL     1      -0.650   0.792   0.225  0.00  0.00    +0.000 C 
ATOM      3  C   UNL     1      -2.067   0.723  -0.354  0.00  0.00    +0.000 C 
ATOM      4  C   UNL     1       1.653  -0.413   0.200  0.00  0.00    +0.000 C 
ATOM      5  C   UNL     1      -2.813  -0.565   0.048  0.00  0.00    +0.000 C 
ATOM      6  C   UNL     1       2.275   0.953  -0.238  0.00  0.00    +0.000 C 
ATOM      7  C   UNL     1      -0.580  -1.776  -0.059  0.00  0.00    +0.000 C 
ATOM      8  C   UNL     1      -2.045  -1.761  -0.532  0.00  0.00    +0.000 C 
ATOM      9  C   UNL     1       0.039   2.116  -0.134  0.00  0.00    +0.000 C 
ATOM     10  C   UNL     1      -3.064   1.831  -0.021  0.00  0.00    +0.000 C 
ATOM     11  C   UNL     1      -4.171  -0.284  -0.627  0.00  0.00    +0.000 C 
ATOM     12  C   UNL     1       1.498   2.153   0.314  0.00  0.00    +0.000 C 
ATOM     13  C   UNL     1       2.478  -1.545  -0.477  0.00  0.00    +0.000 C 
ATOM     14  C   UNL     1      -4.436   1.206  -0.336  0.00  0.00    +0.000 C 
ATOM     15  C   UNL     1       3.771   1.058   0.082  0.00  0.00    +0.000 C 
ATOM     16  C   UNL     1       1.717  -0.614   1.736  0.00  0.00    +0.000 C 
ATOM     17  C   UNL     1      -2.989  -0.757   1.575  0.00  0.00    +0.000 C 
ATOM     18  C   UNL     1       3.981  -1.451  -0.207  0.00  0.00    +0.000 C 
ATOM     19  C   UNL     1       4.553  -0.083  -0.567  0.00  0.00    +0.000 C 
ENDROOT
BRANCH  11  20
ATOM     20  O   UNL     1      -5.224  -1.115  -0.177  0.00  0.00    +0.000 OA
ATOM     21  H   UNL     1      -5.447  -0.867   0.736  0.00  0.00    +0.000 HD
ENDBRANCH  11  20
BRANCH  19  22
ATOM     22  O   UNL     1       5.912  -0.034  -0.146  0.00  0.00    +0.000 OA
ATOM     23  H   UNL     1       5.931  -0.126   0.821  0.00  0.00    +0.000 HD
ENDBRANCH  19  22
TORSDOF 2
