REMARK  Name = 5288149
REMARK  14 active torsions:
REMARK  status: ('A' for Active; 'I' for Inactive)
REMARK    1  A    between atoms: O_1  and  C_24
REMARK    2  A    between atoms: O_2  and  C_25
REMARK    3  A    between atoms: O_3  and  C_28
REMARK    4  A    between atoms: C_4  and  C_12
REMARK    5  A    between atoms: C_6  and  C_11
REMARK    6  A    between atoms: C_11  and  C_15
REMARK    7  A    between atoms: C_11  and  C_17
REMARK    8  A    between atoms: C_16  and  C_18
REMARK    9  A    between atoms: C_19  and  C_21
REMARK   10  A    between atoms: C_27  and  C_28
REMARK   11  A    between atoms: C_28  and  C_30
REMARK   12  A    between atoms: C_28  and  C_31
REMARK   13  A    between atoms: C_30  and  C_32
REMARK   14  A    between atoms: C_31  and  C_33
REMARK                            x       y       z     vdW  Elec       q    Type
REMARK                         _______ _______ _______ _____ _____    ______ ____
ROOT
ATOM      1  C   UNL     1      -0.033   1.669  -0.231  0.00  0.00    +0.000 C 
ATOM      2  C   UNL     1       0.769   0.497   0.389  0.00  0.00    +0.000 C 
ATOM      3  C   UNL     1      -1.402   0.970  -0.417  0.00  0.00    +0.000 C 
ATOM      4  C   UNL     1       0.433  -0.681  -0.526  0.00  0.00    +0.000 C 
ATOM      5  C   UNL     1      -1.034  -0.441  -0.929  0.00  0.00    +0.000 C 
ATOM      6  C   UNL     1      -0.048   2.837   0.776  0.00  0.00    +0.000 C 
ATOM      7  C   UNL     1       2.185   0.904   0.694  0.00  0.00    +0.000 C 
ATOM      8  C   UNL     1       0.543   2.157  -1.585  0.00  0.00    +0.000 C 
ATOM      9  C   UNL     1       1.377   3.267   1.170  0.00  0.00    +0.000 C 
ATOM     10  C   UNL     1       2.262   2.095   1.627  0.00  0.00    +0.000 C 
ATOM     11  C   UNL     1       3.281   0.299   0.217  0.00  0.00    +0.000 C 
ENDROOT
BRANCH  11  12
ATOM     12  C   UNL     1       4.621   0.719   0.543  0.00  0.00    +0.000 C 
ATOM     13  C   UNL     1       5.720   0.113   0.065  0.00  0.00    +0.000 C 
ATOM     14  C   UNL     1       7.112   0.554   0.458  0.00  0.00    +0.000 C 
ATOM     15  C   UNL     1       5.662  -1.038  -0.837  0.00  0.00    +0.000 C 
ATOM     16  C   UNL     1       7.989  -0.615   0.921  0.00  0.00    +0.000 C 
ATOM     17  C   UNL     1       6.508  -2.213  -0.384  0.00  0.00    +0.000 C 
ATOM     18  C   UNL     1       7.946  -1.777  -0.071  0.00  0.00    +0.000 C 
ATOM     19  C   UNL     1       4.944  -1.009  -1.972  0.00  0.00    +0.000 C 
BRANCH  16  20
ATOM     20  O   UNL     1       7.548  -1.076   2.197  0.00  0.00    +0.000 OA
ATOM     21  H   UNL     1       8.140  -1.798   2.469  0.00  0.00    +0.000 HD
ENDBRANCH  16  20
BRANCH  17  22
ATOM     22  O   UNL     1       6.578  -3.249  -1.361  0.00  0.00    +0.000 OA
ATOM     23  H   UNL     1       5.702  -3.669  -1.406  0.00  0.00    +0.000 HD
ENDBRANCH  17  22
ENDBRANCH  11  12
BRANCH   3  24
ATOM     24  C   UNL     1      -2.410   1.681  -1.309  0.00  0.00    +0.000 C 
ATOM     25  C   UNL     1      -2.735   3.068  -0.754  0.00  0.00    +0.000 C 
BRANCH  24  26
ATOM     26  C   UNL     1      -3.670   0.860  -1.429  0.00  0.00    +0.000 C 
ATOM     27  C   UNL     1      -4.446   0.535  -0.384  0.00  0.00    +0.000 C 
BRANCH  27  28
ATOM     28  C   UNL     1      -5.652  -0.252  -0.509  0.00  0.00    +0.000 C 
ATOM     29  C   UNL     1      -6.426  -0.575   0.540  0.00  0.00    +0.000 C 
BRANCH  29  30
ATOM     30  C   UNL     1      -7.707  -1.394   0.499  0.00  0.00    +0.000 C 
BRANCH  30  31
ATOM     31  O   UNL     1      -7.962  -1.833  -0.838  0.00  0.00    +0.000 OA
ATOM     32  H   UNL     1      -8.062  -1.061  -1.417  0.00  0.00    +0.000 HD
ENDBRANCH  30  31
BRANCH  30  33
ATOM     33  C   UNL     1      -7.493  -2.642   1.390  0.00  0.00    +0.000 C 
ATOM     34  C   UNL     1      -6.353  -3.561   0.965  0.00  0.00    +0.000 C 
ENDBRANCH  30  33
BRANCH  30  35
ATOM     35  C   UNL     1      -8.905  -0.541   0.981  0.00  0.00    +0.000 C 
ATOM     36  C   UNL     1      -9.204   0.672   0.102  0.00  0.00    +0.000 C 
ENDBRANCH  30  35
ENDBRANCH  29  30
ENDBRANCH  27  28
ENDBRANCH  24  26
ENDBRANCH   3  24
TORSDOF 10
