REMARK  Name = 5289547
REMARK  8 active torsions:
REMARK  status: ('A' for Active; 'I' for Inactive)
REMARK    1  A    between atoms: O_1  and  C_22
REMARK    2  A    between atoms: O_2  and  C_23
REMARK    3  A    between atoms: C_3  and  C_11
REMARK    4  A    between atoms: C_4  and  C_9
REMARK    5  A    between atoms: C_9  and  C_14
REMARK    6  A    between atoms: C_9  and  C_15
REMARK    7  A    between atoms: C_14  and  C_17
REMARK    8  A    between atoms: C_16  and  C_18
REMARK                            x       y       z     vdW  Elec       q    Type
REMARK                         _______ _______ _______ _____ _____    ______ ____
ROOT
ATOM      1  C   UNL     1       2.907   0.284   0.061  0.00  0.00    +0.000 C 
ATOM      2  C   UNL     1       3.900  -0.792  -0.447  0.00  0.00    +0.000 C 
ATOM      3  C   UNL     1       1.610  -0.228  -0.613  0.00  0.00    +0.000 C 
ATOM      4  C   UNL     1       3.115  -2.115  -0.329  0.00  0.00    +0.000 C 
ATOM      5  C   UNL     1       1.625  -1.734  -0.333  0.00  0.00    +0.000 C 
ATOM      6  C   UNL     1       3.226   1.715  -0.434  0.00  0.00    +0.000 C 
ATOM      7  C   UNL     1       0.415   0.615  -0.249  0.00  0.00    +0.000 C 
ATOM      8  C   UNL     1       2.824   0.290   1.609  0.00  0.00    +0.000 C 
ATOM      9  C   UNL     1       1.987   2.489  -0.925  0.00  0.00    +0.000 C 
ATOM     10  C   UNL     1       0.682   2.106  -0.215  0.00  0.00    +0.000 C 
ATOM     11  C   UNL     1      -0.803   0.123   0.019  0.00  0.00    +0.000 C 
ENDROOT
BRANCH  11  12
ATOM     12  C   UNL     1      -1.933   0.953   0.354  0.00  0.00    +0.000 C 
ATOM     13  C   UNL     1      -3.152   0.463   0.623  0.00  0.00    +0.000 C 
ATOM     14  C   UNL     1      -4.326   1.349   0.973  0.00  0.00    +0.000 C 
ATOM     15  C   UNL     1      -3.459  -1.012   0.569  0.00  0.00    +0.000 C 
ATOM     16  C   UNL     1      -5.545   1.051   0.086  0.00  0.00    +0.000 C 
ATOM     17  C   UNL     1      -4.647  -1.296  -0.359  0.00  0.00    +0.000 C 
ATOM     18  C   UNL     1      -5.837  -0.435   0.028  0.00  0.00    +0.000 C 
ATOM     19  C   UNL     1      -7.054  -0.911   0.338  0.00  0.00    +0.000 C 
BRANCH  16  20
ATOM     20  O   UNL     1      -5.286   1.545  -1.229  0.00  0.00    +0.000 OA
ATOM     21  H   UNL     1      -5.129   2.502  -1.157  0.00  0.00    +0.000 HD
ENDBRANCH  16  20
BRANCH  17  22
ATOM     22  O   UNL     1      -4.930  -2.690  -0.289  0.00  0.00    +0.000 OA
ATOM     23  H   UNL     1      -5.081  -2.925   0.643  0.00  0.00    +0.000 HD
ENDBRANCH  17  22
ENDBRANCH  11  12
BRANCH   2  24
ATOM     24  C   UNL     1       5.256  -0.845   0.244  0.00  0.00    +0.000 C 
ATOM     25  C   UNL     1       6.098  -1.984  -0.338  0.00  0.00    +0.000 C 
BRANCH  24  26
ATOM     26  C   UNL     1       5.966   0.518   0.124  0.00  0.00    +0.000 C 
ATOM     27  C   UNL     1       7.362   0.541   0.730  0.00  0.00    +0.000 C 
ENDBRANCH  24  26
ENDBRANCH   2  24
TORSDOF 5
