REMARK  Name = 16739648
REMARK  6 active torsions:
REMARK  status: ('A' for Active; 'I' for Inactive)
REMARK    1  A    between atoms: O_1  and  C_11
REMARK    2  A    between atoms: O_2  and  C_13
REMARK    3  A    between atoms: O_3  and  C_22
REMARK    4  A    between atoms: C_5  and  C_16
REMARK    5  A    between atoms: C_8  and  C_19
REMARK    6  A    between atoms: C_11  and  C_23
REMARK                            x       y       z     vdW  Elec       q    Type
REMARK                         _______ _______ _______ _____ _____    ______ ____
ROOT
ATOM      1  C   UNL     1       1.687   0.680   0.150  0.00  0.00    +0.000 C 
ATOM      2  C   UNL     1       2.433  -0.491  -0.528  0.00  0.00    +0.000 C 
ATOM      3  C   UNL     1       0.208   0.793  -0.276  0.00  0.00    +0.000 C 
ATOM      4  C   UNL     1      -0.518  -0.551   0.041  0.00  0.00    +0.000 C 
ATOM      5  C   UNL     1      -2.038  -0.518  -0.395  0.00  0.00    +0.000 C 
ATOM      6  C   UNL     1       1.741  -1.800  -0.113  0.00  0.00    +0.000 C 
ATOM      7  C   UNL     1       0.250  -1.794  -0.485  0.00  0.00    +0.000 C 
ATOM      8  C   UNL     1       3.878  -0.268   0.010  0.00  0.00    +0.000 C 
ATOM      9  C   UNL     1       2.622   1.868  -0.074  0.00  0.00    +0.000 C 
ATOM     10  C   UNL     1      -0.500   1.960   0.444  0.00  0.00    +0.000 C 
ATOM     11  C   UNL     1       4.043   1.270  -0.072  0.00  0.00    +0.000 C 
ATOM     12  C   UNL     1      -2.699   0.789   0.055  0.00  0.00    +0.000 C 
ATOM     13  C   UNL     1       2.439  -0.402  -2.083  0.00  0.00    +0.000 C 
ATOM     14  C   UNL     1      -2.766  -1.722   0.278  0.00  0.00    +0.000 C 
ATOM     15  C   UNL     1      -1.994   1.865   0.441  0.00  0.00    +0.000 C 
ATOM     16  C   UNL     1      -2.188  -0.623  -1.931  0.00  0.00    +0.000 C 
ATOM     17  C   UNL     1      -4.210   0.842   0.049  0.00  0.00    +0.000 C 
ATOM     18  C   UNL     1      -4.290  -1.669   0.193  0.00  0.00    +0.000 C 
ATOM     19  C   UNL     1      -4.825  -0.359   0.760  0.00  0.00    +0.000 C 
ENDROOT
BRANCH   8  20
ATOM     20  O   UNL     1       4.844  -0.915  -0.808  0.00  0.00    +0.000 OA
ATOM     21  H   UNL     1       5.725  -0.601  -0.542  0.00  0.00    +0.000 HD
ENDBRANCH   8  20
BRANCH  10  22
ATOM     22  O   UNL     1      -0.168   3.188  -0.206  0.00  0.00    +0.000 OA
ATOM     23  H   UNL     1      -0.506   3.917   0.342  0.00  0.00    +0.000 HD
ENDBRANCH  10  22
BRANCH  19  24
ATOM     24  O   UNL     1      -6.241  -0.323   0.619  0.00  0.00    +0.000 OA
ATOM     25  H   UNL     1      -6.553   0.517   0.997  0.00  0.00    +0.000 HD
ENDBRANCH  19  24
BRANCH   8  26
ATOM     26  C   UNL     1       4.069  -0.725   1.401  0.00  0.00    +0.000 C 
ATOM     27  C   UNL     1       4.223  -1.096   2.532  0.00  0.00    +0.000 C 
ENDBRANCH   8  26
TORSDOF 4
