REMARK  Name = 444679
REMARK  11 active torsions:
REMARK  status: ('A' for Active; 'I' for Inactive)
REMARK    1  A    between atoms: O_1  and  C_21
REMARK    2  A    between atoms: C_2  and  C_12
REMARK    3  A    between atoms: C_4  and  C_13
REMARK    4  A    between atoms: C_9  and  C_17
REMARK    5  A    between atoms: C_13  and  C_22
REMARK    6  A    between atoms: C_13  and  C_23
REMARK    7  A    between atoms: C_24  and  C_25
REMARK    8  A    between atoms: C_25  and  C_26
REMARK    9  A    between atoms: C_25  and  C_27
REMARK   10  A    between atoms: C_26  and  C_28
REMARK   11  A    between atoms: C_26  and  C_29
REMARK                            x       y       z     vdW  Elec       q    Type
REMARK                         _______ _______ _______ _____ _____    ______ ____
ROOT
ATOM      1  C   UNL     1      -0.409   0.334  -0.100  0.00  0.00    +0.000 C 
ATOM      2  C   UNL     1       0.353  -0.864   0.500  0.00  0.00    +0.000 C 
ATOM      3  C   UNL     1      -1.828   0.042   0.446  0.00  0.00    +0.000 C 
ATOM      4  C   UNL     1       2.556   0.448   0.429  0.00  0.00    +0.000 C 
ATOM      5  C   UNL     1       0.226   1.616   0.465  0.00  0.00    +0.000 C 
ATOM      6  C   UNL     1       1.819  -0.866   0.150  0.00  0.00    +0.000 C 
ATOM      7  C   UNL     1      -0.555  -2.055   0.183  0.00  0.00    +0.000 C 
ATOM      8  C   UNL     1       4.035   0.510  -0.171  0.00  0.00    +0.000 C 
ATOM      9  C   UNL     1      -1.981  -1.487   0.283  0.00  0.00    +0.000 C 
ATOM     10  C   UNL     1       1.712   1.712   0.086  0.00  0.00    +0.000 C 
ATOM     11  C   UNL     1      -0.389   0.355  -1.648  0.00  0.00    +0.000 C 
ATOM     12  C   UNL     1       4.668  -0.883  -0.286  0.00  0.00    +0.000 C 
ATOM     13  C   UNL     1       4.886   1.407   0.776  0.00  0.00    +0.000 C 
ATOM     14  C   UNL     1       2.483  -1.969  -0.226  0.00  0.00    +0.000 C 
ATOM     15  C   UNL     1       4.053   1.109  -1.599  0.00  0.00    +0.000 C 
ATOM     16  C   UNL     1       3.918  -1.996  -0.322  0.00  0.00    +0.000 C 
ATOM     17  C   UNL     1       6.169  -0.970  -0.430  0.00  0.00    +0.000 C 
ATOM     18  C   UNL     1       6.388   1.356   0.507  0.00  0.00    +0.000 C 
ATOM     19  C   UNL     1       6.902  -0.080   0.569  0.00  0.00    +0.000 C 
ENDROOT
BRANCH  19  20
ATOM     20  O   UNL     1       8.291  -0.101   0.259  0.00  0.00    +0.000 OA
ATOM     21  H   UNL     1       8.745   0.466   0.906  0.00  0.00    +0.000 HD
ENDBRANCH  19  20
BRANCH   3  22
ATOM     22  C   UNL     1      -2.971   0.822  -0.189  0.00  0.00    +0.000 C 
ATOM     23  C   UNL     1      -2.771   2.328  -0.002  0.00  0.00    +0.000 C 
BRANCH  22  24
ATOM     24  C   UNL     1      -4.291   0.400   0.408  0.00  0.00    +0.000 C 
ATOM     25  C   UNL     1      -5.292  -0.143  -0.302  0.00  0.00    +0.000 C 
BRANCH  25  26
ATOM     26  C   UNL     1      -6.610  -0.579   0.299  0.00  0.00    +0.000 C 
ATOM     27  C   UNL     1      -6.737  -2.096   0.118  0.00  0.00    +0.000 C 
BRANCH  26  28
ATOM     28  C   UNL     1      -7.803   0.197  -0.328  0.00  0.00    +0.000 C 
ATOM     29  C   UNL     1      -7.675   1.713  -0.131  0.00  0.00    +0.000 C 
ATOM     30  C   UNL     1      -9.148  -0.262   0.255  0.00  0.00    +0.000 C 
ENDBRANCH  26  28
ENDBRANCH  25  26
ENDBRANCH  22  24
ENDBRANCH   3  22
TORSDOF 5
