REMARK  Name = 
REMARK  28 active torsions:
REMARK  status: ('A' for Active; 'I' for Inactive)
REMARK    1  A    between atoms: C_1  and  C_2
REMARK    2  A    between atoms: C_2  and  C_3
REMARK    3  A    between atoms: C_4  and  C_5
REMARK    4  A    between atoms: C_5  and  C_6
REMARK    5  A    between atoms: C_6  and  C_7
REMARK    6  A    between atoms: C_7  and  C_8
REMARK    7  A    between atoms: C_7  and  O_9
REMARK    8  A    between atoms: C_7  and  C_21
REMARK    9  A    between atoms: O_9  and  C_10
REMARK   10  A    between atoms: C_12  and  C_13
REMARK   11  A    between atoms: C_13  and  O_14
REMARK   12  A    between atoms: C_15  and  O_16
REMARK   13  A    between atoms: C_17  and  O_18
REMARK   14  A    between atoms: C_19  and  O_20
REMARK   15  A    between atoms: C_24  and  C_25
REMARK   16  A    between atoms: C_27  and  O_28
REMARK   17  A    between atoms: C_31  and  C_32
REMARK   18  A    between atoms: C_35  and  O_36
REMARK   19  A    between atoms: C_37  and  C_38
REMARK   20  A    between atoms: C_37  and  C_39
REMARK   21  A    between atoms: C_41  and  O_42
REMARK   22  A    between atoms: O_42  and  C_43
REMARK   23  A    between atoms: C_45  and  C_46
REMARK   24  A    between atoms: C_46  and  O_47
REMARK   25  A    between atoms: C_48  and  O_49
REMARK   26  A    between atoms: C_50  and  O_51
REMARK   27  A    between atoms: C_52  and  O_53
REMARK   28  A    between atoms: C_55  and  C_56
REMARK                            x       y       z     vdW  Elec       q    Type
REMARK                         _______ _______ _______ _____ _____    ______ ____
ROOT
ATOM      1  C   UNL     1      -2.306  -0.567  -0.921  0.00  0.00    +0.000 C 
ATOM      2  C   UNL     1      -1.785  -1.591  -2.077  0.00  0.00    +0.000 C 
ATOM      3  C   UNL     1      -0.313  -1.147  -2.214  0.00  0.00    +0.000 C 
ATOM      4  C   UNL     1      -0.137  -0.171  -1.058  0.00  0.00    +0.000 C 
ATOM      5  C   UNL     1      -0.356  -0.809   0.219  0.00  0.00    +0.000 C 
ATOM      6  C   UNL     1      -1.393   0.672  -1.595  0.00  0.00    +0.000 C 
ATOM      7  C   UNL     1      -1.557   1.715  -0.264  0.00  0.00    +0.000 C 
ATOM      8  C   UNL     1      -0.097   2.443  -0.283  0.00  0.00    +0.000 C 
ATOM      9  C   UNL     1       0.902   1.308   0.309  0.00  0.00    +0.000 C 
ATOM     10  C   UNL     1       2.154   2.339   0.346  0.00  0.00    +0.000 C 
ATOM     11  C   UNL     1       1.986   3.470  -0.467  0.00  0.00    +0.000 C 
ATOM     12  C   UNL     1       2.177   2.552   1.872  0.00  0.00    +0.000 C 
ATOM     13  C   UNL     1       3.426   2.035   2.465  0.00  0.00    +0.000 C 
ATOM     14  C   UNL     1       4.736   2.857   1.887  0.00  0.00    +0.000 C 
ATOM     15  C   UNL     1       4.497   2.652   0.273  0.00  0.00    +0.000 C 
ATOM     16  C   UNL     1       5.889   2.193  -0.039  0.00  0.00    +0.000 C 
ATOM     17  C   UNL     1       4.329   3.766  -0.502  0.00  0.00    +0.000 C 
ATOM     18  C   UNL     1       3.469   1.426   0.247  0.00  0.00    +0.000 C 
ATOM     19  C   UNL     1       3.472   1.117  -1.424  0.00  0.00    +0.000 C 
ATOM     20  C   UNL     1       2.330  -0.042  -1.209  0.00  0.00    +0.000 C 
ATOM     21  C   UNL     1       1.096   0.677  -1.180  0.00  0.00    +0.000 C 
ATOM     22  C   UNL     1       1.025   1.619  -2.283  0.00  0.00    +0.000 C 
ENDROOT
BRANCH   1  23
ATOM     23  C   UNL     1      -3.752  -0.293  -1.556  0.00  0.00    +0.000 C 
ATOM     24  C   UNL     1      -4.173  -1.370  -2.452  0.00  0.00    +0.000 C 
BRANCH  23  25
ATOM     25  C   UNL     1      -4.067   1.014  -1.992  0.00  0.00    +0.000 C 
BRANCH  25  26
ATOM     26  C   UNL     1      -5.331   1.595  -1.349  0.00  0.00    +0.000 C 
BRANCH  26  30
ATOM     27  C   UNL     1      -5.735   5.293  -0.905  0.00  0.00    +0.000 C 
ATOM     28  C   UNL     1      -4.906   4.074  -1.032  0.00  0.00    +0.000 C 
ATOM     29  C   UNL     1      -3.637   3.940  -0.374  0.00  0.00    +0.000 C 
ATOM     30  C   UNL     1      -5.521   3.030  -1.605  0.00  0.00    +0.000 C 
ENDBRANCH  26  30
ENDBRANCH  25  26
ENDBRANCH  23  25
BRANCH  23  31
ATOM     31  O   UNL     1      -4.441  -0.323  -0.301  0.00  0.00    +0.000 OA
BRANCH  31  32
ATOM     32  C   UNL     1      -4.094  -1.728   0.204  0.00  0.00    +0.000 C 
ATOM     33  O   UNL     1      -5.569  -2.141   0.131  0.00  0.00    +0.000 OA
ATOM     34  C   UNL     1      -5.137  -3.414   0.855  0.00  0.00    +0.000 C 
ATOM     35  C   UNL     1      -6.024  -2.545   2.085  0.00  0.00    +0.000 C 
ATOM     36  C   UNL     1      -4.445  -2.404   2.721  0.00  0.00    +0.000 C 
ATOM     37  C   UNL     1      -4.021  -1.061   1.779  0.00  0.00    +0.000 C 
BRANCH  35  38
ATOM     38  O   UNL     1      -6.357  -3.757   2.912  0.00  0.00    +0.000 OA
ATOM     39  H   UNL     1      -5.588  -4.347   2.944  0.00  0.00    +0.000 HD
ENDBRANCH  35  38
BRANCH  36  40
ATOM     40  O   UNL     1      -4.820  -1.476   3.861  0.00  0.00    +0.000 OA
ATOM     41  H   UNL     1      -5.375  -0.755   3.523  0.00  0.00    +0.000 HD
ENDBRANCH  36  40
BRANCH  37  42
ATOM     42  O   UNL     1      -2.600  -1.567   1.844  0.00  0.00    +0.000 OA
ATOM     43  H   UNL     1      -2.579  -2.503   1.592  0.00  0.00    +0.000 HD
ENDBRANCH  37  42
BRANCH  34  44
ATOM     44  C   UNL     1      -6.374  -4.451   0.429  0.00  0.00    +0.000 C 
BRANCH  44  45
ATOM     45  O   UNL     1      -6.518  -4.335  -0.980  0.00  0.00    +0.000 OA
ATOM     46  H   UNL     1      -6.714  -3.413  -1.209  0.00  0.00    +0.000 HD
ENDBRANCH  44  45
ENDBRANCH  34  44
ENDBRANCH  31  32
ENDBRANCH  23  31
ENDBRANCH   1  23
BRANCH   7  47
ATOM     47  O   UNL     1      -2.059   2.802  -1.195  0.00  0.00    +0.000 OA
ATOM     48  H   UNL     1      -1.449   2.894  -1.944  0.00  0.00    +0.000 HD
ENDBRANCH   7  47
BRANCH  14  49
ATOM     49  O   UNL     1       3.984   4.176   1.886  0.00  0.00    +0.000 OA
ATOM     50  H   UNL     1       3.131   4.061   1.439  0.00  0.00    +0.000 HD
ENDBRANCH  14  49
BRANCH  19  51
ATOM     51  O   UNL     1       4.560   0.062  -1.426  0.00  0.00    +0.000 OA
BRANCH  51  52
ATOM     52  C   UNL     1       4.304  -0.708  -0.140  0.00  0.00    +0.000 C 
ATOM     53  O   UNL     1       5.772  -1.012   0.048  0.00  0.00    +0.000 OA
ATOM     54  C   UNL     1       5.257  -1.850   1.185  0.00  0.00    +0.000 C 
ATOM     55  C   UNL     1       6.016  -3.136   0.393  0.00  0.00    +0.000 C 
ATOM     56  C   UNL     1       5.215  -3.104  -1.105  0.00  0.00    +0.000 C 
ATOM     57  C   UNL     1       3.830  -2.162  -0.917  0.00  0.00    +0.000 C 
BRANCH  55  58
ATOM     58  O   UNL     1       5.074  -4.153   0.973  0.00  0.00    +0.000 OA
ATOM     59  H   UNL     1       4.159  -3.865   0.831  0.00  0.00    +0.000 HD
ENDBRANCH  55  58
BRANCH  56  60
ATOM     60  O   UNL     1       6.073  -2.046  -1.766  0.00  0.00    +0.000 OA
ATOM     61  H   UNL     1       6.093  -1.252  -1.209  0.00  0.00    +0.000 HD
ENDBRANCH  56  60
BRANCH  57  62
ATOM     62  O   UNL     1       3.312  -2.842   0.325  0.00  0.00    +0.000 OA
ATOM     63  H   UNL     1       4.003  -2.842   1.006  0.00  0.00    +0.000 HD
ENDBRANCH  57  62
BRANCH  54  64
ATOM     64  C   UNL     1       6.600  -1.558   2.087  0.00  0.00    +0.000 C 
BRANCH  64  65
ATOM     65  O   UNL     1       6.044  -1.064   3.273  0.00  0.00    +0.000 OA
ATOM     66  H   UNL     1       5.492  -0.291   3.074  0.00  0.00    +0.000 HD
ENDBRANCH  64  65
ENDBRANCH  54  64
ENDBRANCH  51  52
ENDBRANCH  19  51
TORSDOF 20
