REMARK  Name = 247304
REMARK  4 active torsions:
REMARK  status: ('A' for Active; 'I' for Inactive)
REMARK    1  A    between atoms: O_1  and  C_8
REMARK    2  A    between atoms: O_2  and  C_20
REMARK    3  A    between atoms: O_3  and  C_21
REMARK    4  A    between atoms: C_4  and  C_14
REMARK                            x       y       z     vdW  Elec       q    Type
REMARK                         _______ _______ _______ _____ _____    ______ ____
ROOT
ATOM      1  C   UNL     1       2.853   0.642   0.154  0.00  0.00    +0.000 C 
ATOM      2  C   UNL     1       2.252  -0.670  -0.389  0.00  0.00    +0.000 C 
ATOM      3  C   UNL     1       0.794  -0.854   0.029  0.00  0.00    +0.000 C 
ATOM      4  C   UNL     1      -0.045   0.320  -0.561  0.00  0.00    +0.000 C 
ATOM      5  C   UNL     1       4.294   0.491  -0.368  0.00  0.00    +0.000 C 
ATOM      6  C   UNL     1       2.067   1.812  -0.449  0.00  0.00    +0.000 C 
ATOM      7  C   UNL     1       3.283  -1.724   0.009  0.00  0.00    +0.000 C 
ATOM      8  C   UNL     1       0.556   1.695  -0.166  0.00  0.00    +0.000 C 
ATOM      9  C   UNL     1       4.631  -0.991  -0.111  0.00  0.00    +0.000 C 
ATOM     10  C   UNL     1       0.205  -2.179  -0.458  0.00  0.00    +0.000 C 
ATOM     11  C   UNL     1       2.850   0.767   1.700  0.00  0.00    +0.000 C 
ATOM     12  C   UNL     1      -1.530   0.150  -0.250  0.00  0.00    +0.000 A 
ATOM     13  C   UNL     1      -1.198  -2.363   0.112  0.00  0.00    +0.000 C 
ATOM     14  C   UNL     1      -2.063  -1.129   0.024  0.00  0.00    +0.000 A 
ATOM     15  C   UNL     1      -2.417   1.239  -0.315  0.00  0.00    +0.000 A 
ATOM     16  C   UNL     1      -3.439  -1.275   0.275  0.00  0.00    +0.000 A 
ATOM     17  C   UNL     1      -3.783   1.078  -0.072  0.00  0.00    +0.000 A 
ATOM     18  C   UNL     1      -4.293  -0.178   0.228  0.00  0.00    +0.000 A 
ENDROOT
BRANCH   5  19
ATOM     19  O   UNL     1       5.210   1.357   0.275  0.00  0.00    +0.000 OA
ATOM     20  H   UNL     1       6.099   1.135  -0.051  0.00  0.00    +0.000 HD
ENDBRANCH   5  19
BRANCH  17  21
ATOM     21  O   UNL     1      -4.605   2.162  -0.137  0.00  0.00    +0.000 OA
ATOM     22  H   UNL     1      -4.078   2.950  -0.356  0.00  0.00    +0.000 HD
ENDBRANCH  17  21
BRANCH  18  23
ATOM     23  O   UNL     1      -5.622  -0.349   0.471  0.00  0.00    +0.000 OA
ATOM     24  H   UNL     1      -6.061   0.516   0.394  0.00  0.00    +0.000 HD
ENDBRANCH  18  23
TORSDOF 3
