REMARK  Name = 92109
REMARK  4 active torsions:
REMARK  status: ('A' for Active; 'I' for Inactive)
REMARK    1  A    between atoms: O_2  and  C_17
REMARK    2  A    between atoms: O_4  and  C_22
REMARK    3  A    between atoms: C_10  and  C_22
REMARK    4  A    between atoms: C_11  and  C_23
REMARK                            x       y       z     vdW  Elec       q    Type
REMARK                         _______ _______ _______ _____ _____    ______ ____
ROOT
ATOM      1  O   UNL     1      -0.808  -1.577   0.648  0.00  0.00    +0.000 OA
ATOM      2  O   UNL     1      -2.210  -1.286   2.452  0.00  0.00    +0.000 OA
ATOM      3  C   UNL     1       1.337   0.370   0.102  0.00  0.00    +0.000 C 
ATOM      4  C   UNL     1      -0.614  -0.890  -0.601  0.00  0.00    +0.000 C 
ATOM      5  C   UNL     1       0.862  -0.688  -0.944  0.00  0.00    +0.000 C 
ATOM      6  C   UNL     1      -1.099   0.527  -0.325  0.00  0.00    +0.000 C 
ATOM      7  C   UNL     1       0.090   1.250   0.363  0.00  0.00    +0.000 C 
ATOM      8  C   UNL     1      -2.342   0.193   0.498  0.00  0.00    +0.000 C 
ATOM      9  C   UNL     1       1.842  -0.278   1.406  0.00  0.00    +0.000 C 
ATOM     10  C   UNL     1       2.639   1.050  -0.373  0.00  0.00    +0.000 C 
ATOM     11  C   UNL     1       1.723  -1.958  -1.043  0.00  0.00    +0.000 C 
ATOM     12  C   UNL     1       3.082  -1.013   0.915  0.00  0.00    +0.000 C 
ATOM     13  C   UNL     1      -1.486  -1.543  -1.680  0.00  0.00    +0.000 C 
ATOM     14  C   UNL     1      -3.442  -0.411  -0.424  0.00  0.00    +0.000 C 
ATOM     15  C   UNL     1       2.615  -2.265   0.166  0.00  0.00    +0.000 C 
ATOM     16  C   UNL     1       3.688   0.027  -0.001  0.00  0.00    +0.000 C 
ATOM     17  C   UNL     1      -2.959  -1.632  -1.239  0.00  0.00    +0.000 C 
ATOM     18  C   UNL     1      -1.809  -0.944   1.351  0.00  0.00    +0.000 C 
ATOM     19  C   UNL     1      -2.866   1.363   1.321  0.00  0.00    +0.000 C 
ATOM     20  C   UNL     1       4.961   0.050  -0.411  0.00  0.00    +0.000 C 
ENDROOT
BRANCH  14  21
ATOM     21  O   UNL     1      -3.943   0.584  -1.317  0.00  0.00    +0.000 OA
ATOM     22  H   UNL     1      -3.299   0.707  -2.033  0.00  0.00    +0.000 HD
ENDBRANCH  14  21
BRANCH   7  24
ATOM     23  O   UNL     1       0.428   2.876  -1.395  0.00  0.00    +0.000 OA
ATOM     24  C   UNL     1       0.223   2.627  -0.217  0.00  0.00    +0.000 C 
BRANCH  24  25
ATOM     25  O   UNL     1       0.088   3.568   0.750  0.00  0.00    +0.000 OA
ATOM     26  H   UNL     1       0.173   4.477   0.390  0.00  0.00    +0.000 HD
ENDBRANCH  24  25
ENDBRANCH   7  24
TORSDOF 3
