REMARK  Name = 312145
REMARK  8 active torsions:
REMARK  status: ('A' for Active; 'I' for Inactive)
REMARK    1  A    between atoms: O_1  and  C_15
REMARK    2  A    between atoms: O_1  and  C_29
REMARK    3  A    between atoms: O_6  and  C_26
REMARK    4  A    between atoms: O_6  and  C_31
REMARK    5  A    between atoms: C_9  and  C_19
REMARK    6  A    between atoms: C_13  and  C_24
REMARK    7  A    between atoms: C_21  and  C_26
REMARK    8  A    between atoms: C_29  and  C_30
REMARK                            x       y       z     vdW  Elec       q    Type
REMARK                         _______ _______ _______ _____ _____    ______ ____
ROOT
ATOM      1  O   UNL     1       3.483  -0.995   0.800  0.00  0.00    +0.000 OA
ATOM      2  O   UNL     1       2.288   3.200  -0.440  0.00  0.00    +0.000 OA
ATOM      3  O   UNL     1      -5.537  -0.139  -0.131  0.00  0.00    +0.000 OA
ATOM      4  O   UNL     1      -0.538   3.445  -0.951  0.00  0.00    +0.000 OA
ATOM      5  O   UNL     1       5.345   0.338   0.799  0.00  0.00    +0.000 OA
ATOM      6  C   UNL     1      -3.197   0.331   0.334  0.00  0.00    +0.000 C 
ATOM      7  C   UNL     1      -2.333   1.162  -0.645  0.00  0.00    +0.000 C 
ATOM      8  C   UNL     1      -0.328   0.036   0.332  0.00  0.00    +0.000 C 
ATOM      9  C   UNL     1      -2.700  -1.102   0.242  0.00  0.00    +0.000 C 
ATOM     10  C   UNL     1       1.147  -0.033   0.855  0.00  0.00    +0.000 C 
ATOM     11  C   UNL     1      -0.878   1.161  -0.234  0.00  0.00    +0.000 C 
ATOM     12  C   UNL     1      -1.212  -1.193   0.640  0.00  0.00    +0.000 C 
ATOM     13  C   UNL     1      -3.165   2.435  -0.836  0.00  0.00    +0.000 C 
ATOM     14  C   UNL     1      -4.566   0.595  -0.261  0.00  0.00    +0.000 C 
ATOM     15  C   UNL     1      -4.594   1.906  -1.018  0.00  0.00    +0.000 C 
ATOM     16  C   UNL     1      -3.232   0.837   1.788  0.00  0.00    +0.000 C 
ATOM     17  C   UNL     1       1.868   1.188   0.428  0.00  0.00    +0.000 A 
ATOM     18  C   UNL     1       2.076  -1.199   0.352  0.00  0.00    +0.000 C 
ATOM     19  C   UNL     1      -0.057   2.425  -0.477  0.00  0.00    +0.000 C 
ATOM     20  C   UNL     1       1.321   2.293  -0.139  0.00  0.00    +0.000 A 
ATOM     21  C   UNL     1       1.113  -0.059   2.406  0.00  0.00    +0.000 C 
ATOM     22  C   UNL     1       3.257   1.317   0.344  0.00  0.00    +0.000 A 
ATOM     23  C   UNL     1       4.135   0.221   0.659  0.00  0.00    +0.000 C 
ATOM     24  C   UNL     1       3.483   2.592  -0.124  0.00  0.00    +0.000 A 
ENDROOT
BRANCH  12  25
ATOM     25  O   UNL     1      -0.680  -2.380   0.058  0.00  0.00    +0.000 OA
BRANCH  25  27
ATOM     26  O   UNL     1      -2.087  -3.762   1.261  0.00  0.00    +0.000 OA
ATOM     27  C   UNL     1      -1.398  -3.521   0.279  0.00  0.00    +0.000 C 
ATOM     28  C   UNL     1      -1.223  -4.462  -0.874  0.00  0.00    +0.000 C 
ENDBRANCH  25  27
ENDBRANCH  12  25
BRANCH  18  29
ATOM     29  C   UNL     1       2.116  -1.411  -1.167  0.00  0.00    +0.000 C 
BRANCH  29  30
ATOM     30  O   UNL     1       2.999  -2.480  -1.441  0.00  0.00    +0.000 OA
ATOM     31  C   UNL     1       3.094  -2.743  -2.838  0.00  0.00    +0.000 C 
ENDBRANCH  29  30
ENDBRANCH  18  29
TORSDOF 4
