REMARK  Name = 148189
REMARK  6 active torsions:
REMARK  status: ('A' for Active; 'I' for Inactive)
REMARK    1  A    between atoms: O_1  and  C_7
REMARK    2  A    between atoms: O_3  and  C_17
REMARK    3  A    between atoms: C_7  and  C_11
REMARK    4  A    between atoms: C_8  and  C_13
REMARK    5  A    between atoms: C_14  and  C_17
REMARK    6  A    between atoms: C_16  and  C_18
REMARK                            x       y       z     vdW  Elec       q    Type
REMARK                         _______ _______ _______ _____ _____    ______ ____
ROOT
ATOM      1  O   UNL     1      -1.486  -2.734  -0.114  0.00  0.00    +0.000 OA
ATOM      2  C   UNL     1      -1.715   0.879  -0.191  0.00  0.00    +0.000 C 
ATOM      3  C   UNL     1      -2.776   1.954  -0.357  0.00  0.00    +0.000 C 
ATOM      4  C   UNL     1      -2.300   1.208  -1.564  0.00  0.00    +0.000 C 
ATOM      5  C   UNL     1      -2.116  -0.457   0.460  0.00  0.00    +0.000 C 
ATOM      6  C   UNL     1      -0.243   1.237  -0.056  0.00  0.00    +0.000 C 
ATOM      7  C   UNL     1       0.685   0.254  -0.121  0.00  0.00    +0.000 C 
ATOM      8  C   UNL     1      -1.148  -1.563   0.035  0.00  0.00    +0.000 C 
ATOM      9  C   UNL     1      -2.134  -0.341   1.987  0.00  0.00    +0.000 C 
ATOM     10  C   UNL     1       0.256  -1.140  -0.146  0.00  0.00    +0.000 C 
ATOM     11  C   UNL     1       0.083   2.693   0.156  0.00  0.00    +0.000 C 
ATOM     12  C   UNL     1       2.150   0.242  -0.174  0.00  0.00    +0.000 C 
ATOM     13  C   UNL     1       1.343  -1.913  -0.225  0.00  0.00    +0.000 C 
ATOM     14  C   UNL     1       2.521  -1.058  -0.252  0.00  0.00    +0.000 C 
ATOM     15  C   UNL     1       3.875  -1.668  -0.346  0.00  0.00    +0.000 C 
ENDROOT
BRANCH   5  16
ATOM     16  O   UNL     1      -3.415  -0.866   0.035  0.00  0.00    +0.000 OA
ATOM     17  H   UNL     1      -3.662  -1.663   0.535  0.00  0.00    +0.000 HD
ENDBRANCH   5  16
BRANCH  12  18
ATOM     18  C   UNL     1       3.037   1.434  -0.221  0.00  0.00    +0.000 C 
BRANCH  18  19
ATOM     19  O   UNL     1       3.385   1.839   1.095  0.00  0.00    +0.000 OA
ATOM     20  H   UNL     1       3.833   1.093   1.528  0.00  0.00    +0.000 HD
ENDBRANCH  18  19
ENDBRANCH  12  18
TORSDOF 3
