REMARK  Name = 25015
REMARK  2 active torsions:
REMARK  status: ('A' for Active; 'I' for Inactive)
REMARK    1  A    between atoms: O_1  and  C_6
REMARK    2  A    between atoms: C_4  and  C_12
REMARK                            x       y       z     vdW  Elec       q    Type
REMARK                         _______ _______ _______ _____ _____    ______ ____
ROOT
ATOM      1  O   UNL     1      -5.790  -0.128   0.078  0.00  0.00    +0.000 OA
ATOM      2  C   UNL     1       1.930   0.685   0.319  0.00  0.00    +0.000 C 
ATOM      3  C   UNL     1       2.662  -0.572  -0.201  0.00  0.00    +0.000 C 
ATOM      4  C   UNL     1       0.529   0.822  -0.284  0.00  0.00    +0.000 C 
ATOM      5  C   UNL     1       3.994  -0.398   0.555  0.00  0.00    +0.000 C 
ATOM      6  C   UNL     1       2.954   1.798   0.129  0.00  0.00    +0.000 C 
ATOM      7  C   UNL     1       4.296   1.112   0.441  0.00  0.00    +0.000 C 
ATOM      8  C   UNL     1      -0.298  -0.443   0.022  0.00  0.00    +0.000 C 
ATOM      9  C   UNL     1      -0.173   2.072   0.255  0.00  0.00    +0.000 C 
ATOM     10  C   UNL     1       1.817  -1.758   0.175  0.00  0.00    +0.000 C 
ATOM     11  C   UNL     1       2.878  -0.624  -1.731  0.00  0.00    +0.000 C 
ATOM     12  C   UNL     1       0.476  -1.672   0.266  0.00  0.00    +0.000 C 
ATOM     13  C   UNL     1      -1.653  -0.379   0.119  0.00  0.00    +0.000 C 
ATOM     14  C   UNL     1      -1.584   2.153  -0.308  0.00  0.00    +0.000 C 
ATOM     15  C   UNL     1      -2.379   0.888  -0.088  0.00  0.00    +0.000 C 
ATOM     16  C   UNL     1      -2.533  -1.554   0.512  0.00  0.00    +0.000 C 
ATOM     17  C   UNL     1      -3.721   0.977  -0.096  0.00  0.00    +0.000 C 
ATOM     18  C   UNL     1      -3.888  -1.562  -0.184  0.00  0.00    +0.000 C 
ATOM     19  C   UNL     1      -4.571  -0.232  -0.024  0.00  0.00    +0.000 C 
ENDROOT
BRANCH   5  20
ATOM     20  O   UNL     1       5.055  -1.185   0.046  0.00  0.00    +0.000 OA
ATOM     21  H   UNL     1       4.780  -2.117   0.102  0.00  0.00    +0.000 HD
ENDBRANCH   5  20
TORSDOF 1
