REMARK  Name = 31402
REMARK  5 active torsions:
REMARK  status: ('A' for Active; 'I' for Inactive)
REMARK    1  A    between atoms: O_1  and  C_21
REMARK    2  A    between atoms: C_6  and  C_18
REMARK    3  A    between atoms: C_7  and  C_19
REMARK    4  A    between atoms: C_12  and  C_22
REMARK    5  A    between atoms: C_22  and  C_23
REMARK                            x       y       z     vdW  Elec       q    Type
REMARK                         _______ _______ _______ _____ _____    ______ ____
ROOT
ATOM      1  C   UNL     1      -0.868   0.306   0.316  0.00  0.00    +0.000 C 
ATOM      2  C   UNL     1      -0.095  -1.053   0.318  0.00  0.00    +0.000 C 
ATOM      3  C   UNL     1       1.209  -0.877  -0.470  0.00  0.00    +0.000 C 
ATOM      4  C   UNL     1       2.132   0.206   0.129  0.00  0.00    +0.000 C 
ATOM      5  C   UNL     1      -2.247   0.200   1.071  0.00  0.00    +0.000 C 
ATOM      6  C   UNL     1      -3.086  -0.973   0.461  0.00  0.00    +0.000 C 
ATOM      7  C   UNL     1       0.030   1.481   0.786  0.00  0.00    +0.000 C 
ATOM      8  C   UNL     1       1.387   1.546   0.061  0.00  0.00    +0.000 C 
ATOM      9  C   UNL     1      -0.952  -2.183  -0.265  0.00  0.00    +0.000 C 
ATOM     10  C   UNL     1       3.328   0.080  -0.841  0.00  0.00    +0.000 C 
ATOM     11  C   UNL     1       2.137  -2.074  -0.646  0.00  0.00    +0.000 C 
ATOM     12  C   UNL     1      -2.304  -2.297   0.433  0.00  0.00    +0.000 C 
ATOM     13  C   UNL     1      -3.082   1.510   0.969  0.00  0.00    +0.000 C 
ATOM     14  C   UNL     1       3.476  -1.440  -1.064  0.00  0.00    +0.000 C 
ATOM     15  C   UNL     1      -3.632  -0.648  -0.945  0.00  0.00    +0.000 C 
ATOM     16  C   UNL     1       2.568  -0.076   1.591  0.00  0.00    +0.000 C 
ATOM     17  C   UNL     1      -2.033  -0.056   2.586  0.00  0.00    +0.000 C 
ATOM     18  C   UNL     1      -3.587   1.816  -0.435  0.00  0.00    +0.000 C 
ATOM     19  C   UNL     1      -4.416   0.659  -0.979  0.00  0.00    +0.000 C 
ENDROOT
BRANCH  10  21
ATOM     20  O   UNL     1       5.394   0.091   0.350  0.00  0.00    +0.000 OA
ATOM     21  C   UNL     1       4.593   0.711  -0.348  0.00  0.00    +0.000 C 
ATOM     22  C   UNL     1       4.838   2.139  -0.753  0.00  0.00    +0.000 C 
ENDBRANCH  10  21
BRANCH  19  23
ATOM     23  O   UNL     1      -4.790   0.931  -2.325  0.00  0.00    +0.000 OA
ATOM     24  H   UNL     1      -3.978   1.044  -2.847  0.00  0.00    +0.000 HD
ENDBRANCH  19  23
TORSDOF 2
