REMARK  Name = 16401639
REMARK  17 active torsions:
REMARK  status: ('A' for Active; 'I' for Inactive)
REMARK    1  A    between atoms: O_1  and  C_19
REMARK    2  A    between atoms: O_1  and  C_34
REMARK    3  A    between atoms: O_2  and  C_32
REMARK    4  A    between atoms: O_5  and  C_35
REMARK    5  A    between atoms: O_5  and  C_40
REMARK    6  A    between atoms: O_6  and  C_36
REMARK    7  A    between atoms: O_7  and  C_38
REMARK    8  A    between atoms: O_9  and  C_39
REMARK    9  A    between atoms: O_10  and  C_41
REMARK   10  A    between atoms: O_11  and  C_42
REMARK   11  A    between atoms: O_12  and  C_44
REMARK   12  A    between atoms: O_13  and  C_45
REMARK   13  A    between atoms: C_16  and  C_28
REMARK   14  A    between atoms: C_24  and  C_31
REMARK   15  A    between atoms: C_24  and  C_32
REMARK   16  A    between atoms: C_37  and  C_39
REMARK   17  A    between atoms: C_43  and  C_45
REMARK                            x       y       z     vdW  Elec       q    Type
REMARK                         _______ _______ _______ _____ _____    ______ ____
ROOT
ATOM      1  O   UNL     1      -0.391   1.929   1.475  0.00  0.00    +0.000 OA
ATOM      2  C   UNL     1      -0.950   0.934   0.621  0.00  0.00    +0.000 C 
ATOM      3  C   UNL     1      -2.369   1.322   0.204  0.00  0.00    +0.000 C 
ATOM      4  C   UNL     1      -2.404   2.720  -0.414  0.00  0.00    +0.000 C 
ATOM      5  C   UNL     1      -0.269   3.198   0.831  0.00  0.00    +0.000 C 
ATOM      6  C   UNL     1      -1.655   3.729   0.456  0.00  0.00    +0.000 C 
ENDROOT
BRANCH   4   7
ATOM      7  O   UNL     1      -3.760   3.155  -0.528  0.00  0.00    +0.000 OA
ATOM      8  H   UNL     1      -4.133   3.220   0.368  0.00  0.00    +0.000 HD
ENDBRANCH   4   7
BRANCH   6   9
ATOM      9  O   UNL     1      -1.513   4.954  -0.259  0.00  0.00    +0.000 OA
ATOM     10  H   UNL     1      -0.985   4.777  -1.056  0.00  0.00    +0.000 HD
ENDBRANCH   6   9
BRANCH   2  11
ATOM     11  O   UNL     1      -1.021  -0.312   1.313  0.00  0.00    +0.000 OA
BRANCH  11  17
ATOM     12  C   UNL     1       2.491  -1.291   1.544  0.00  0.00    +0.000 C 
ATOM     13  C   UNL     1       2.769  -2.038   0.190  0.00  0.00    +0.000 C 
ATOM     14  C   UNL     1       3.769  -1.318  -0.816  0.00  0.00    +0.000 C 
ATOM     15  C   UNL     1       5.031  -0.833  -0.023  0.00  0.00    +0.000 C 
ATOM     16  C   UNL     1       1.403  -0.218   1.389  0.00  0.00    +0.000 C 
ATOM     17  C   UNL     1       0.160  -1.073   1.148  0.00  0.00    +0.000 C 
ATOM     18  C   UNL     1       3.780  -0.749   2.168  0.00  0.00    +0.000 C 
ATOM     19  C   UNL     1       1.464  -2.558  -0.478  0.00  0.00    +0.000 C 
ATOM     20  C   UNL     1       1.787  -2.247   2.560  0.00  0.00    +0.000 C 
ATOM     21  C   UNL     1       4.647   0.034   1.192  0.00  0.00    +0.000 C 
ATOM     22  C   UNL     1       6.162  -0.206  -0.911  0.00  0.00    +0.000 C 
ATOM     23  C   UNL     1       4.225  -2.365  -1.892  0.00  0.00    +0.000 C 
ATOM     24  C   UNL     1       0.220  -1.687  -0.254  0.00  0.00    +0.000 C 
ATOM     25  C   UNL     1       0.323  -2.129   2.214  0.00  0.00    +0.000 C 
ATOM     26  C   UNL     1       3.089  -0.151  -1.571  0.00  0.00    +0.000 C 
ATOM     27  C   UNL     1       6.250  -0.885  -2.298  0.00  0.00    +0.000 C 
ATOM     28  C   UNL     1       5.704  -2.304  -2.280  0.00  0.00    +0.000 C 
ATOM     29  C   UNL     1       7.525  -0.358  -0.200  0.00  0.00    +0.000 C 
ATOM     30  C   UNL     1      -0.653  -2.828   2.805  0.00  0.00    +0.000 C 
BRANCH  22  32
ATOM     31  O   UNL     1       4.996   1.915  -0.700  0.00  0.00    +0.000 OA
ATOM     32  C   UNL     1       5.957   1.279  -1.108  0.00  0.00    +0.000 C 
BRANCH  32  33
ATOM     33  O   UNL     1       6.987   1.816  -1.805  0.00  0.00    +0.000 OA
ATOM     34  H   UNL     1       6.872   2.780  -1.945  0.00  0.00    +0.000 HD
ENDBRANCH  32  33
ENDBRANCH  22  32
ENDBRANCH  11  17
ENDBRANCH   2  11
BRANCH   3  35
ATOM     35  O   UNL     1      -2.830   0.369  -0.753  0.00  0.00    +0.000 OA
BRANCH  35  37
ATOM     36  O   UNL     1      -4.540  -0.851   0.262  0.00  0.00    +0.000 OA
ATOM     37  C   UNL     1      -4.243   0.189  -0.666  0.00  0.00    +0.000 C 
ATOM     38  C   UNL     1      -4.758  -0.174  -2.059  0.00  0.00    +0.000 C 
ATOM     39  C   UNL     1      -6.244  -0.532  -2.027  0.00  0.00    +0.000 C 
ATOM     40  C   UNL     1      -5.944  -1.065   0.415  0.00  0.00    +0.000 C 
ATOM     41  C   UNL     1      -6.549  -1.532  -0.912  0.00  0.00    +0.000 C 
BRANCH  38  42
ATOM     42  O   UNL     1      -4.560   0.950  -2.916  0.00  0.00    +0.000 OA
ATOM     43  H   UNL     1      -5.062   1.699  -2.552  0.00  0.00    +0.000 HD
ENDBRANCH  38  42
BRANCH  39  44
ATOM     44  O   UNL     1      -6.616  -1.130  -3.270  0.00  0.00    +0.000 OA
ATOM     45  H   UNL     1      -6.071  -1.925  -3.399  0.00  0.00    +0.000 HD
ENDBRANCH  39  44
BRANCH  41  46
ATOM     46  O   UNL     1      -7.961  -1.660  -0.767  0.00  0.00    +0.000 OA
ATOM     47  H   UNL     1      -8.317  -0.792  -0.512  0.00  0.00    +0.000 HD
ENDBRANCH  41  46
BRANCH  40  48
ATOM     48  C   UNL     1      -6.135  -2.103   1.517  0.00  0.00    +0.000 C 
BRANCH  48  49
ATOM     49  O   UNL     1      -5.544  -1.610   2.706  0.00  0.00    +0.000 OA
ATOM     50  H   UNL     1      -5.671  -2.288   3.392  0.00  0.00    +0.000 HD
ENDBRANCH  48  49
ENDBRANCH  40  48
ENDBRANCH  35  37
ENDBRANCH   3  35
BRANCH   5  51
ATOM     51  C   UNL     1       0.453   4.135   1.794  0.00  0.00    +0.000 C 
BRANCH  51  52
ATOM     52  O   UNL     1       1.717   3.578   2.104  0.00  0.00    +0.000 OA
ATOM     53  H   UNL     1       2.156   4.187   2.721  0.00  0.00    +0.000 HD
ENDBRANCH  51  52
ENDBRANCH   5  51
TORSDOF 15
