REMARK  Name = 71587784
REMARK  11 active torsions:
REMARK  status: ('A' for Active; 'I' for Inactive)
REMARK    1  A    between atoms: O_1  and  C_10
REMARK    2  A    between atoms: O_2  and  C_12
REMARK    3  A    between atoms: C_8  and  C_14
REMARK    4  A    between atoms: C_8  and  C_15
REMARK    5  A    between atoms: C_9  and  C_17
REMARK    6  A    between atoms: C_13  and  C_18
REMARK    7  A    between atoms: C_22  and  C_27
REMARK    8  A    between atoms: C_25  and  C_28
REMARK    9  A    between atoms: C_27  and  C_29
REMARK   10  A    between atoms: C_30  and  C_31
REMARK   11  A    between atoms: C_33  and  C_34
REMARK                            x       y       z     vdW  Elec       q    Type
REMARK                         _______ _______ _______ _____ _____    ______ ____
ROOT
ATOM      1  O   UNL     1       2.750  -0.475   0.997  0.00  0.00    +0.000 OA
ATOM      2  O   UNL     1      -1.066  -0.264  -0.101  0.00  0.00    +0.000 OA
ATOM      3  O   UNL     1       0.014  -1.092   1.758  0.00  0.00    +0.000 OA
ATOM      4  C   UNL     1       3.152  -2.492  -0.292  0.00  0.00    +0.000 C 
ATOM      5  C   UNL     1       4.959  -0.558   0.060  0.00  0.00    +0.000 C 
ATOM      6  C   UNL     1       1.661  -2.879   0.018  0.00  0.00    +0.000 C 
ATOM      7  C   UNL     1       3.538  -1.108   0.290  0.00  0.00    +0.000 C 
ATOM      8  C   UNL     1       5.107   0.580  -0.979  0.00  0.00    +0.000 C 
ATOM      9  C   UNL     1       4.136   1.790  -0.906  0.00  0.00    +0.000 C 
ATOM     10  C   UNL     1       3.369  -2.516  -1.814  0.00  0.00    +0.000 C 
ATOM     11  C   UNL     1       4.067  -3.557   0.357  0.00  0.00    +0.000 C 
ATOM     12  C   UNL     1       0.556  -1.921  -0.480  0.00  0.00    +0.000 C 
ATOM     13  C   UNL     1       5.523  -0.129   1.421  0.00  0.00    +0.000 C 
ATOM     14  C   UNL     1       4.665   2.933  -1.787  0.00  0.00    +0.000 C 
ATOM     15  C   UNL     1       2.733   1.467  -1.362  0.00  0.00    +0.000 C 
ATOM     16  C   UNL     1      -0.160  -1.058   0.549  0.00  0.00    +0.000 C 
ATOM     17  C   UNL     1       1.587   1.979  -0.889  0.00  0.00    +0.000 C 
ATOM     18  C   UNL     1      -1.970   0.534   0.698  0.00  0.00    +0.000 C 
ATOM     19  C   UNL     1       1.415   3.045   0.154  0.00  0.00    +0.000 C 
ATOM     20  C   UNL     1      -1.449   1.974   0.829  0.00  0.00    +0.000 C 
ATOM     21  C   UNL     1       0.966   2.509   1.494  0.00  0.00    +0.000 C 
ATOM     22  C   UNL     1      -0.277   2.067   1.768  0.00  0.00    +0.000 C 
ATOM     23  C   UNL     1       2.011   2.536   2.578  0.00  0.00    +0.000 C 
ENDROOT
BRANCH  18  24
ATOM     24  C   UNL     1      -3.289   0.530  -0.010  0.00  0.00    +0.000 C 
ATOM     25  C   UNL     1      -3.253   1.117  -1.394  0.00  0.00    +0.000 C 
ATOM     26  C   UNL     1      -4.385   0.040   0.601  0.00  0.00    +0.000 C 
BRANCH  26  29
ATOM     27  O   UNL     1      -7.488   0.383  -1.164  0.00  0.00    +0.000 OA
ATOM     28  N   UNL     1      -6.194   0.814  -0.894  0.00  0.00    +0.000 NA
ATOM     29  C   UNL     1      -5.730  -0.041   0.022  0.00  0.00    +0.000 A 
ATOM     30  C   UNL     1      -6.676  -1.022   0.365  0.00  0.00    +0.000 A 
ATOM     31  C   UNL     1      -7.763  -0.711  -0.408  0.00  0.00    +0.000 A 
ATOM     32  C   UNL     1      -9.098  -1.300  -0.570  0.00  0.00    +0.000 C 
ENDBRANCH  26  29
ENDBRANCH  18  24
BRANCH   6  33
ATOM     33  O   UNL     1       1.490  -3.216   1.393  0.00  0.00    +0.000 OA
ATOM     34  H   UNL     1       1.729  -2.435   1.920  0.00  0.00    +0.000 HD
ENDBRANCH   6  33
BRANCH   8  35
ATOM     35  O   UNL     1       5.098   0.042  -2.304  0.00  0.00    +0.000 OA
ATOM     36  H   UNL     1       5.831  -0.593  -2.368  0.00  0.00    +0.000 HD
ENDBRANCH   8  35
TORSDOF 4
