REMARK  Name = 10025615
REMARK  14 active torsions:
REMARK  status: ('A' for Active; 'I' for Inactive)
REMARK    1  A    between atoms: O_1  and  C_28
REMARK    2  A    between atoms: O_2  and  C_29
REMARK    3  A    between atoms: C_3  and  C_11
REMARK    4  A    between atoms: C_4  and  C_9
REMARK    5  A    between atoms: C_9  and  C_14
REMARK    6  A    between atoms: C_9  and  C_15
REMARK    7  A    between atoms: C_14  and  C_16
REMARK    8  A    between atoms: C_16  and  C_18
REMARK    9  A    between atoms: C_17  and  C_19
REMARK   10  A    between atoms: C_18  and  C_20
REMARK   11  A    between atoms: C_18  and  C_21
REMARK   12  A    between atoms: C_20  and  C_23
REMARK   13  A    between atoms: C_20  and  C_24
REMARK   14  A    between atoms: C_21  and  C_25
REMARK                            x       y       z     vdW  Elec       q    Type
REMARK                         _______ _______ _______ _____ _____    ______ ____
ROOT
ATOM      1  C   UNL     1       0.792  -1.380   0.022  0.00  0.00    +0.000 C 
ATOM      2  C   UNL     1       2.050  -1.103   0.880  0.00  0.00    +0.000 C 
ATOM      3  C   UNL     1      -0.292  -1.295   1.124  0.00  0.00    +0.000 C 
ATOM      4  C   UNL     1       1.608   0.028   1.837  0.00  0.00    +0.000 C 
ATOM      5  C   UNL     1       0.069  -0.012   1.875  0.00  0.00    +0.000 C 
ATOM      6  C   UNL     1       0.745  -2.790  -0.602  0.00  0.00    +0.000 C 
ATOM      7  C   UNL     1      -1.666  -1.541   0.561  0.00  0.00    +0.000 C 
ATOM      8  C   UNL     1       0.619  -0.314  -1.091  0.00  0.00    +0.000 C 
ATOM      9  C   UNL     1      -0.654  -3.123  -1.151  0.00  0.00    +0.000 C 
ATOM     10  C   UNL     1      -1.781  -2.882  -0.133  0.00  0.00    +0.000 C 
ATOM     11  C   UNL     1      -2.700  -0.692   0.652  0.00  0.00    +0.000 C 
ENDROOT
BRANCH  11  12
ATOM     12  C   UNL     1      -4.003  -0.973   0.104  0.00  0.00    +0.000 C 
ATOM     13  C   UNL     1      -5.039  -0.124   0.194  0.00  0.00    +0.000 C 
ATOM     14  C   UNL     1      -6.377  -0.432  -0.429  0.00  0.00    +0.000 C 
ATOM     15  C   UNL     1      -4.947   1.174   0.859  0.00  0.00    +0.000 C 
ATOM     16  C   UNL     1      -6.897   0.726  -1.285  0.00  0.00    +0.000 C 
ATOM     17  C   UNL     1      -5.512   2.345   0.089  0.00  0.00    +0.000 C 
ATOM     18  C   UNL     1      -6.896   2.036  -0.489  0.00  0.00    +0.000 C 
ATOM     19  C   UNL     1      -4.447   1.320   2.097  0.00  0.00    +0.000 C 
BRANCH  16  20
ATOM     20  O   UNL     1      -8.225   0.422  -1.700  0.00  0.00    +0.000 OA
ATOM     21  H   UNL     1      -8.540   1.167  -2.240  0.00  0.00    +0.000 HD
ENDBRANCH  16  20
BRANCH  17  22
ATOM     22  O   UNL     1      -4.609   2.659  -0.973  0.00  0.00    +0.000 OA
ATOM     23  H   UNL     1      -4.978   3.418  -1.456  0.00  0.00    +0.000 HD
ENDBRANCH  17  22
ENDBRANCH  11  12
BRANCH   2  24
ATOM     24  C   UNL     1       3.328  -0.773   0.122  0.00  0.00    +0.000 C 
ATOM     25  C   UNL     1       3.663  -1.908  -0.846  0.00  0.00    +0.000 C 
BRANCH  24  26
ATOM     26  C   UNL     1       4.468  -0.498   1.121  0.00  0.00    +0.000 C 
BRANCH  26  27
ATOM     27  C   UNL     1       5.853  -0.239   0.506  0.00  0.00    +0.000 C 
BRANCH  27  28
ATOM     28  C   UNL     1       5.986   1.028  -0.378  0.00  0.00    +0.000 C 
BRANCH  28  29
ATOM     29  C   UNL     1       7.393   1.142  -1.047  0.00  0.00    +0.000 C 
ATOM     30  C   UNL     1       8.532   1.406  -0.059  0.00  0.00    +0.000 C 
ATOM     31  C   UNL     1       7.730  -0.086  -1.903  0.00  0.00    +0.000 C 
ENDBRANCH  28  29
BRANCH  28  32
ATOM     32  C   UNL     1       5.591   2.293   0.423  0.00  0.00    +0.000 C 
ATOM     33  C   UNL     1       5.619   3.585  -0.384  0.00  0.00    +0.000 C 
ENDBRANCH  28  32
ENDBRANCH  27  28
ENDBRANCH  26  27
ENDBRANCH  24  26
ENDBRANCH   2  24
TORSDOF 9
