REMARK  Name = 102210
REMARK  4 active torsions:
REMARK  status: ('A' for Active; 'I' for Inactive)
REMARK    1  A    between atoms: O_1  and  C_8
REMARK    2  A    between atoms: C_4  and  C_15
REMARK    3  A    between atoms: C_8  and  C_19
REMARK    4  A    between atoms: C_19  and  C_22
REMARK                            x       y       z     vdW  Elec       q    Type
REMARK                         _______ _______ _______ _____ _____    ______ ____
ROOT
ATOM      1  O   UNL     1       6.361   0.313   0.764  0.00  0.00    +0.000 OA
ATOM      2  C   UNL     1      -2.042   0.299  -0.197  0.00  0.00    +0.000 C 
ATOM      3  C   UNL     1      -1.194  -0.923   0.229  0.00  0.00    +0.000 C 
ATOM      4  C   UNL     1       0.217  -0.905  -0.366  0.00  0.00    +0.000 C 
ATOM      5  C   UNL     1       0.951   0.383   0.109  0.00  0.00    +0.000 C 
ATOM      6  C   UNL     1      -3.388  -0.075   0.477  0.00  0.00    +0.000 C 
ATOM      7  C   UNL     1      -1.338   1.558   0.334  0.00  0.00    +0.000 C 
ATOM      8  C   UNL     1      -2.102  -2.110  -0.076  0.00  0.00    +0.000 C 
ATOM      9  C   UNL     1       0.115   1.658  -0.165  0.00  0.00    +0.000 C 
ATOM     10  C   UNL     1      -3.522  -1.596   0.236  0.00  0.00    +0.000 C 
ATOM     11  C   UNL     1       2.386   0.467  -0.496  0.00  0.00    +0.000 C 
ATOM     12  C   UNL     1       1.026  -2.144   0.039  0.00  0.00    +0.000 C 
ATOM     13  C   UNL     1      -2.226   0.418  -1.735  0.00  0.00    +0.000 C 
ATOM     14  C   UNL     1       2.418  -2.107  -0.583  0.00  0.00    +0.000 C 
ATOM     15  C   UNL     1       3.155  -0.829  -0.268  0.00  0.00    +0.000 C 
ATOM     16  C   UNL     1       3.140   1.687   0.072  0.00  0.00    +0.000 C 
ATOM     17  C   UNL     1       4.629   1.644  -0.224  0.00  0.00    +0.000 C 
ATOM     18  C   UNL     1       4.430  -0.879   0.147  0.00  0.00    +0.000 C 
ATOM     19  C   UNL     1       5.224   0.362   0.300  0.00  0.00    +0.000 C 
ENDROOT
BRANCH   6  21
ATOM     20  O   UNL     1      -4.437   1.870  -0.425  0.00  0.00    +0.000 OA
ATOM     21  C   UNL     1      -4.561   0.713  -0.027  0.00  0.00    +0.000 C 
ATOM     22  C   UNL     1      -5.895   0.018  -0.024  0.00  0.00    +0.000 C 
ENDBRANCH   6  21
BRANCH   6  23
ATOM     23  O   UNL     1      -3.346   0.178   1.878  0.00  0.00    +0.000 OA
ATOM     24  H   UNL     1      -3.304   1.139   2.018  0.00  0.00    +0.000 HD
ENDBRANCH   6  23
TORSDOF 2
