REMARK  Name = 441853
REMARK  11 active torsions:
REMARK  status: ('A' for Active; 'I' for Inactive)
REMARK    1  A    between atoms: O_1  and  C_10
REMARK    2  A    between atoms: O_2  and  C_15
REMARK    3  A    between atoms: O_3  and  C_27
REMARK    4  A    between atoms: O_3  and  C_32
REMARK    5  A    between atoms: O_8  and  C_35
REMARK    6  A    between atoms: O_8  and  C_39
REMARK    7  A    between atoms: O_9  and  C_37
REMARK    8  A    between atoms: C_12  and  C_25
REMARK    9  A    between atoms: C_14  and  C_28
REMARK   10  A    between atoms: C_16  and  C_29
REMARK   11  A    between atoms: C_36  and  C_38
REMARK                            x       y       z     vdW  Elec       q    Type
REMARK                         _______ _______ _______ _____ _____    ______ ____
ROOT
ATOM      1  C   UNL     1      -3.046  -1.365   1.173  0.00  0.00    +0.000 C 
ATOM      2  C   UNL     1      -1.732  -1.829   0.471  0.00  0.00    +0.000 C 
ATOM      3  C   UNL     1      -4.134  -0.799   0.182  0.00  0.00    +0.000 C 
ATOM      4  C   UNL     1      -1.208  -0.784  -0.549  0.00  0.00    +0.000 C 
ATOM      5  C   UNL     1       0.153  -1.201  -1.212  0.00  0.00    +0.000 C 
ATOM      6  C   UNL     1       1.208  -1.607  -0.135  0.00  0.00    +0.000 C 
ATOM      7  C   UNL     1      -4.272   0.699   0.606  0.00  0.00    +0.000 C 
ATOM      8  C   UNL     1      -3.690  -0.931  -1.287  0.00  0.00    +0.000 C 
ATOM      9  C   UNL     1      -2.290  -0.401  -1.588  0.00  0.00    +0.000 C 
ATOM     10  C   UNL     1      -2.831  -0.251   2.227  0.00  0.00    +0.000 C 
ATOM     11  C   UNL     1      -0.658  -2.235   1.499  0.00  0.00    +0.000 C 
ATOM     12  C   UNL     1       0.654  -2.652   0.850  0.00  0.00    +0.000 C 
ATOM     13  C   UNL     1      -4.045   0.658   2.113  0.00  0.00    +0.000 C 
ATOM     14  C   UNL     1       0.737  -0.076  -2.113  0.00  0.00    +0.000 C 
ATOM     15  C   UNL     1       1.740  -0.370   0.637  0.00  0.00    +0.000 C 
ATOM     16  C   UNL     1      -5.489  -1.542   0.315  0.00  0.00    +0.000 C 
ATOM     17  C   UNL     1       1.245   1.135  -1.333  0.00  0.00    +0.000 C 
ATOM     18  C   UNL     1       2.267   0.744  -0.272  0.00  0.00    +0.000 C 
ENDROOT
BRANCH   7  21
ATOM     19  O   UNL     1      -6.984   2.665  -1.019  0.00  0.00    +0.000 OA
ATOM     20  O   UNL     1      -8.759   2.486   0.434  0.00  0.00    +0.000 OA
ATOM     21  C   UNL     1      -5.534   1.398   0.220  0.00  0.00    +0.000 C 
ATOM     22  C   UNL     1      -5.641   2.170  -1.035  0.00  0.00    +0.000 C 
ATOM     23  C   UNL     1      -6.675   1.429   0.902  0.00  0.00    +0.000 C 
ATOM     24  C   UNL     1      -7.609   2.238   0.117  0.00  0.00    +0.000 C 
ENDBRANCH   7  21
BRANCH   1  25
ATOM     25  O   UNL     1      -3.561  -2.490   1.901  0.00  0.00    +0.000 OA
ATOM     26  H   UNL     1      -4.251  -2.181   2.512  0.00  0.00    +0.000 HD
ENDBRANCH   1  25
BRANCH   6  27
ATOM     27  O   UNL     1       2.330  -2.212  -0.798  0.00  0.00    +0.000 OA
ATOM     28  H   UNL     1       2.784  -1.542  -1.334  0.00  0.00    +0.000 HD
ENDBRANCH   6  27
BRANCH   5  30
ATOM     29  O   UNL     1       0.139  -2.369  -3.336  0.00  0.00    +0.000 OA
ATOM     30  C   UNL     1      -0.100  -2.385  -2.133  0.00  0.00    +0.000 C 
ENDBRANCH   5  30
BRANCH  18  31
ATOM     31  O   UNL     1       3.469   0.336  -0.919  0.00  0.00    +0.000 OA
BRANCH  31  33
ATOM     32  O   UNL     1       5.085   1.962  -0.447  0.00  0.00    +0.000 OA
ATOM     33  C   UNL     1       4.615   0.651  -0.134  0.00  0.00    +0.000 C 
ATOM     34  C   UNL     1       5.695  -0.388  -0.444  0.00  0.00    +0.000 C 
ATOM     35  C   UNL     1       6.990  -0.066   0.296  0.00  0.00    +0.000 C 
ATOM     36  C   UNL     1       6.232   2.342   0.323  0.00  0.00    +0.000 C 
ATOM     37  C   UNL     1       7.396   1.385   0.025  0.00  0.00    +0.000 C 
ATOM     38  C   UNL     1       6.563   3.785  -0.043  0.00  0.00    +0.000 C 
BRANCH  35  39
ATOM     39  O   UNL     1       6.787  -0.247   1.698  0.00  0.00    +0.000 OA
ATOM     40  C   UNL     1       6.412  -1.583   1.997  0.00  0.00    +0.000 C 
ENDBRANCH  35  39
BRANCH  37  41
ATOM     41  O   UNL     1       8.539   1.699   0.810  0.00  0.00    +0.000 OA
ATOM     42  H   UNL     1       9.242   1.071   0.571  0.00  0.00    +0.000 HD
ENDBRANCH  37  41
ENDBRANCH  31  33
ENDBRANCH  18  31
TORSDOF 8
