REMARK  Name = 244809
REMARK  5 active torsions:
REMARK  status: ('A' for Active; 'I' for Inactive)
REMARK    1  A    between atoms: O_1  and  C_8
REMARK    2  A    between atoms: O_2  and  C_11
REMARK    3  A    between atoms: O_3  and  C_21
REMARK    4  A    between atoms: O_3  and  C_22
REMARK    5  A    between atoms: C_4  and  C_14
REMARK                            x       y       z     vdW  Elec       q    Type
REMARK                         _______ _______ _______ _____ _____    ______ ____
ROOT
ATOM      1  C   UNL     1      -2.672   0.892  -0.446  0.00  0.00    +0.000 C 
ATOM      2  C   UNL     1      -2.152  -0.430   0.163  0.00  0.00    +0.000 C 
ATOM      3  C   UNL     1      -0.674  -0.669  -0.154  0.00  0.00    +0.000 C 
ATOM      4  C   UNL     1       0.167   0.486   0.468  0.00  0.00    +0.000 C 
ATOM      5  C   UNL     1      -4.170   0.784  -0.079  0.00  0.00    +0.000 C 
ATOM      6  C   UNL     1      -1.881   2.041   0.197  0.00  0.00    +0.000 C 
ATOM      7  C   UNL     1      -3.179  -1.476  -0.273  0.00  0.00    +0.000 C 
ATOM      8  C   UNL     1      -4.501  -0.693  -0.391  0.00  0.00    +0.000 C 
ATOM      9  C   UNL     1      -0.360   1.873   0.013  0.00  0.00    +0.000 C 
ATOM     10  C   UNL     1      -0.163  -2.004   0.392  0.00  0.00    +0.000 C 
ATOM     11  C   UNL     1      -2.546   0.981  -1.988  0.00  0.00    +0.000 C 
ATOM     12  C   UNL     1       1.661   0.261   0.254  0.00  0.00    +0.000 A 
ATOM     13  C   UNL     1       1.267  -2.245  -0.083  0.00  0.00    +0.000 C 
ATOM     14  C   UNL     1       2.167  -1.040   0.038  0.00  0.00    +0.000 A 
ATOM     15  C   UNL     1       2.579   1.322   0.354  0.00  0.00    +0.000 A 
ATOM     16  C   UNL     1       3.550  -1.237  -0.122  0.00  0.00    +0.000 A 
ATOM     17  C   UNL     1       3.951   1.111   0.202  0.00  0.00    +0.000 A 
ATOM     18  C   UNL     1       4.437  -0.167  -0.041  0.00  0.00    +0.000 A 
ENDROOT
BRANCH   5  19
ATOM     19  O   UNL     1      -4.390   1.039   1.305  0.00  0.00    +0.000 OA
ATOM     20  H   UNL     1      -3.974   0.346   1.840  0.00  0.00    +0.000 HD
ENDBRANCH   5  19
BRANCH   8  21
ATOM     21  O   UNL     1      -5.486  -1.222   0.480  0.00  0.00    +0.000 OA
ATOM     22  H   UNL     1      -5.120  -1.240   1.380  0.00  0.00    +0.000 HD
ENDBRANCH   8  21
BRANCH  18  23
ATOM     23  O   UNL     1       5.772  -0.374  -0.194  0.00  0.00    +0.000 OA
ATOM     24  C   UNL     1       6.623   0.767  -0.093  0.00  0.00    +0.000 C 
ENDBRANCH  18  23
TORSDOF 3
