REMARK  Name = 13313
REMARK  3 active torsions:
REMARK  status: ('A' for Active; 'I' for Inactive)
REMARK    1  A    between atoms: O_1  and  C_6
REMARK    2  A    between atoms: C_4  and  C_12
REMARK    3  A    between atoms: C_6  and  C_17
REMARK                            x       y       z     vdW  Elec       q    Type
REMARK                         _______ _______ _______ _____ _____    ______ ____
ROOT
ATOM      1  O   UNL     1      -5.926   0.585  -0.773  0.00  0.00    +0.000 OA
ATOM      2  C   UNL     1       1.463  -0.766  -0.297  0.00  0.00    +0.000 C 
ATOM      3  C   UNL     1       2.335   0.059   0.684  0.00  0.00    +0.000 C 
ATOM      4  C   UNL     1       0.113  -1.136   0.321  0.00  0.00    +0.000 C 
ATOM      5  C   UNL     1       3.608   0.249  -0.190  0.00  0.00    +0.000 C 
ATOM      6  C   UNL     1       2.411  -1.853  -0.785  0.00  0.00    +0.000 C 
ATOM      7  C   UNL     1       3.781  -1.142  -0.861  0.00  0.00    +0.000 C 
ATOM      8  C   UNL     1      -0.650   0.165   0.651  0.00  0.00    +0.000 C 
ATOM      9  C   UNL     1      -0.690  -2.077  -0.583  0.00  0.00    +0.000 C 
ATOM     10  C   UNL     1       1.540   1.272   1.100  0.00  0.00    +0.000 C 
ATOM     11  C   UNL     1       2.694  -0.683   2.002  0.00  0.00    +0.000 C 
ATOM     12  C   UNL     1       0.193   1.288   1.093  0.00  0.00    +0.000 C 
ATOM     13  C   UNL     1      -1.998   0.248   0.510  0.00  0.00    +0.000 C 
ATOM     14  C   UNL     1      -2.097  -2.240  -0.023  0.00  0.00    +0.000 C 
ATOM     15  C   UNL     1      -2.788  -0.900   0.033  0.00  0.00    +0.000 C 
ATOM     16  C   UNL     1      -2.836   1.471   0.839  0.00  0.00    +0.000 C 
ATOM     17  C   UNL     1      -4.064  -0.798  -0.377  0.00  0.00    +0.000 C 
ATOM     18  C   UNL     1      -3.907   1.746  -0.208  0.00  0.00    +0.000 C 
ATOM     19  C   UNL     1      -4.742   0.517  -0.451  0.00  0.00    +0.000 C 
ENDROOT
BRANCH   5  20
ATOM     20  O   UNL     1       4.765   0.538   0.585  0.00  0.00    +0.000 OA
ATOM     21  H   UNL     1       5.541   0.482   0.002  0.00  0.00    +0.000 HD
ENDBRANCH   5  20
BRANCH   5  22
ATOM     22  C   UNL     1       3.459   1.301  -1.217  0.00  0.00    +0.000 C 
ATOM     23  C   UNL     1       3.338   2.156  -2.051  0.00  0.00    +0.000 C 
ENDBRANCH   5  22
TORSDOF 2
