REMARK  Name = 
REMARK  22 active torsions:
REMARK  status: ('A' for Active; 'I' for Inactive)
REMARK    1  A    between atoms: C_1  and  C_2
REMARK    2  A    between atoms: C_2  and  C_3
REMARK    3  A    between atoms: C_7  and  C_8
REMARK    4  A    between atoms: C_16  and  C_17
REMARK    5  A    between atoms: C_16  and  C_18
REMARK    6  A    between atoms: C_18  and  O_20
REMARK    7  A    between atoms: C_23  and  C_24
REMARK    8  A    between atoms: C_27  and  C_28
REMARK    9  A    between atoms: C_29  and  C_30
REMARK   10  A    between atoms: C_33  and  O_34
REMARK   11  A    between atoms: O_34  and  C_35
REMARK   12  A    between atoms: C_37  and  C_38
REMARK   13  A    between atoms: C_38  and  O_40
REMARK   14  A    between atoms: C_41  and  O_42
REMARK   15  A    between atoms: C_43  and  O_44
REMARK   16  A    between atoms: C_45  and  O_46
REMARK   17  A    between atoms: O_46  and  C_47
REMARK   18  A    between atoms: C_49  and  C_50
REMARK   19  A    between atoms: C_50  and  O_52
REMARK   20  A    between atoms: C_53  and  O_54
REMARK   21  A    between atoms: C_55  and  O_56
REMARK   22  A    between atoms: C_57  and  O_58
REMARK                            x       y       z     vdW  Elec       q    Type
REMARK                         _______ _______ _______ _____ _____    ______ ____
ROOT
ATOM      1  C   UNL     1      -0.714   2.189  -0.355  0.00  0.00    +0.000 C 
ATOM      2  C   UNL     1      -0.873   2.033   0.480  0.00  0.00    +0.000 C 
ATOM      3  C   UNL     1      -1.397   3.244   1.247  0.00  0.00    +0.000 C 
ATOM      4  C   UNL     1       0.523   1.659   1.197  0.00  0.00    +0.000 C 
ATOM      5  C   UNL     1       1.288   2.876   0.418  0.00  0.00    +0.000 C 
ATOM      6  C   UNL     1       2.705   2.705   0.907  0.00  0.00    +0.000 C 
ATOM      7  C   UNL     1       3.283   1.476   0.327  0.00  0.00    +0.000 C 
ATOM      8  C   UNL     1       3.633   1.437  -1.071  0.00  0.00    +0.000 C 
ATOM      9  C   UNL     1       2.426   0.196   0.853  0.00  0.00    +0.000 C 
ATOM     10  C   UNL     1       3.015  -0.780  -0.280  0.00  0.00    +0.000 C 
ATOM     11  O   UNL     1       2.373  -1.875  -0.333  0.00  0.00    +0.000 OA
ATOM     12  C   UNL     1       4.467  -0.904  -0.058  0.00  0.00    +0.000 C 
ATOM     13  C   UNL     1       5.261   0.104   0.320  0.00  0.00    +0.000 C 
ATOM     14  C   UNL     1       6.214   0.663  -0.856  0.00  0.00    +0.000 C 
ATOM     15  C   UNL     1       7.151  -0.657  -0.927  0.00  0.00    +0.000 C 
ATOM     16  C   UNL     1       7.804  -1.103   0.231  0.00  0.00    +0.000 C 
ATOM     17  C   UNL     1       7.293  -2.509   0.574  0.00  0.00    +0.000 C 
ATOM     18  C   UNL     1       7.842  -0.388   1.518  0.00  0.00    +0.000 C 
ATOM     19  C   UNL     1       7.303   0.967   1.442  0.00  0.00    +0.000 C 
ATOM     20  C   UNL     1       7.198   1.523   0.119  0.00  0.00    +0.000 C 
ATOM     21  C   UNL     1       8.459   1.788  -0.635  0.00  0.00    +0.000 C 
ATOM     22  C   UNL     1       6.325   2.778   0.222  0.00  0.00    +0.000 C 
ATOM     23  C   UNL     1       5.293   2.446   1.249  0.00  0.00    +0.000 C 
ATOM     24  C   UNL     1       4.578   1.167   1.091  0.00  0.00    +0.000 C 
ATOM     25  C   UNL     1       4.253   0.652   2.491  0.00  0.00    +0.000 C 
ATOM     26  C   UNL     1       1.018   0.553   0.107  0.00  0.00    +0.000 C 
ATOM     27  C   UNL     1       1.114   1.005  -1.208  0.00  0.00    +0.000 C 
ATOM     28  C   UNL     1       0.140  -0.611   0.429  0.00  0.00    +0.000 C 
ATOM     29  C   UNL     1      -0.845  -0.260   1.438  0.00  0.00    +0.000 C 
ATOM     30  C   UNL     1      -1.937   0.821   0.839  0.00  0.00    +0.000 C 
ENDROOT
BRANCH  16  31
ATOM     31  C   UNL     1       9.242  -1.362  -0.138  0.00  0.00    +0.000 C 
ATOM     32  O   UNL     1       9.447  -2.256  -1.014  0.00  0.00    +0.000 OA
BRANCH  31  33
ATOM     33  O   UNL     1      10.298  -1.077   0.696  0.00  0.00    +0.000 OA
ATOM     34  H   UNL     1      10.205  -0.425   1.363  0.00  0.00    +0.000 HD
ENDBRANCH  31  33
ENDBRANCH  16  31
BRANCH  30  35
ATOM     35  O   UNL     1      -1.825   0.386  -0.580  0.00  0.00    +0.000 OA
BRANCH  35  36
ATOM     36  C   UNL     1      -2.692  -0.799  -0.854  0.00  0.00    +0.000 C 
ATOM     37  O   UNL     1      -3.128  -1.193   0.541  0.00  0.00    +0.000 OA
ATOM     38  C   UNL     1      -4.105  -2.252   0.028  0.00  0.00    +0.000 C 
ATOM     39  C   UNL     1      -3.540  -2.343  -1.587  0.00  0.00    +0.000 C 
ATOM     40  C   UNL     1      -4.543  -1.145  -2.262  0.00  0.00    +0.000 C 
ATOM     41  C   UNL     1      -4.098   0.145  -1.232  0.00  0.00    +0.000 C 
BRANCH  38  42
ATOM     42  C   UNL     1      -3.151  -3.458   0.470  0.00  0.00    +0.000 C 
ATOM     43  O   UNL     1      -3.841  -4.412   0.865  0.00  0.00    +0.000 OA
BRANCH  42  44
ATOM     44  O   UNL     1      -1.845  -3.435   0.149  0.00  0.00    +0.000 OA
ATOM     45  H   UNL     1      -1.448  -2.636  -0.138  0.00  0.00    +0.000 HD
ENDBRANCH  42  44
ENDBRANCH  38  42
BRANCH  39  46
ATOM     46  O   UNL     1      -4.559  -3.387  -1.904  0.00  0.00    +0.000 OA
ATOM     47  H   UNL     1      -5.430  -3.094  -1.594  0.00  0.00    +0.000 HD
ENDBRANCH  39  46
BRANCH  40  48
ATOM     48  O   UNL     1      -3.461  -0.778  -3.234  0.00  0.00    +0.000 OA
ATOM     49  H   UNL     1      -2.624  -0.660  -2.757  0.00  0.00    +0.000 HD
ENDBRANCH  40  48
BRANCH  41  50
ATOM     50  O   UNL     1      -5.076  -0.313  -0.221  0.00  0.00    +0.000 OA
BRANCH  50  51
ATOM     51  C   UNL     1      -5.477   0.926   0.559  0.00  0.00    +0.000 C 
ATOM     52  O   UNL     1      -6.102   0.202   1.673  0.00  0.00    +0.000 OA
ATOM     53  C   UNL     1      -7.241  -0.706   1.633  0.00  0.00    +0.000 C 
ATOM     54  C   UNL     1      -8.530   0.410   1.372  0.00  0.00    +0.000 C 
ATOM     55  C   UNL     1      -7.612   1.822   1.222  0.00  0.00    +0.000 C 
ATOM     56  C   UNL     1      -6.970   1.236  -0.246  0.00  0.00    +0.000 C 
BRANCH  53  57
ATOM     57  C   UNL     1      -7.254  -1.234   0.101  0.00  0.00    +0.000 C 
ATOM     58  O   UNL     1      -6.760  -2.416   0.227  0.00  0.00    +0.000 OA
BRANCH  57  59
ATOM     59  O   UNL     1      -8.517  -1.425  -0.476  0.00  0.00    +0.000 OA
ATOM     60  H   UNL     1      -9.064  -0.687  -0.661  0.00  0.00    +0.000 HD
ENDBRANCH  57  59
ENDBRANCH  53  57
BRANCH  54  61
ATOM     61  O   UNL     1      -8.664   0.558   2.857  0.00  0.00    +0.000 OA
ATOM     62  H   UNL     1      -7.791   0.725   3.246  0.00  0.00    +0.000 HD
ENDBRANCH  54  61
BRANCH  55  63
ATOM     63  O   UNL     1      -8.727   2.524   0.500  0.00  0.00    +0.000 OA
ATOM     64  H   UNL     1      -9.101   1.932  -0.170  0.00  0.00    +0.000 HD
ENDBRANCH  55  63
BRANCH  56  65
ATOM     65  O   UNL     1      -6.462   2.585  -0.633  0.00  0.00    +0.000 OA
ATOM     66  H   UNL     1      -6.030   3.000   0.130  0.00  0.00    +0.000 HD
ENDBRANCH  56  65
ENDBRANCH  50  51
ENDBRANCH  41  50
ENDBRANCH  35  36
ENDBRANCH  30  35
TORSDOF 15
