REMARK  Name = 93057
REMARK  4 active torsions:
REMARK  status: ('A' for Active; 'I' for Inactive)
REMARK    1  A    between atoms: C_3  and  C_12
REMARK    2  A    between atoms: C_5  and  C_14
REMARK    3  A    between atoms: C_5  and  C_15
REMARK    4  A    between atoms: C_15  and  C_20
REMARK                            x       y       z     vdW  Elec       q    Type
REMARK                         _______ _______ _______ _____ _____    ______ ____
ROOT
ATOM      1  O   UNL     1      -6.072  -0.554   1.148  0.00  0.00    +0.000 OA
ATOM      2  C   UNL     1       2.011  -0.199  -0.304  0.00  0.00    +0.000 C 
ATOM      3  C   UNL     1       1.048   0.896   0.214  0.00  0.00    +0.000 C 
ATOM      4  C   UNL     1       3.199  -0.038   0.703  0.00  0.00    +0.000 C 
ATOM      5  C   UNL     1      -0.216   1.070  -0.643  0.00  0.00    +0.000 C 
ATOM      6  C   UNL     1       1.959   2.103   0.409  0.00  0.00    +0.000 C 
ATOM      7  C   UNL     1       3.291   1.503   0.898  0.00  0.00    +0.000 C 
ATOM      8  C   UNL     1       1.239  -1.530  -0.274  0.00  0.00    +0.000 C 
ATOM      9  C   UNL     1      -0.956  -0.279  -0.732  0.00  0.00    +0.000 C 
ATOM     10  C   UNL     1      -0.061  -1.460  -1.097  0.00  0.00    +0.000 C 
ATOM     11  C   UNL     1       2.501   0.075  -1.758  0.00  0.00    +0.000 C 
ATOM     12  C   UNL     1      -1.083   2.211  -0.081  0.00  0.00    +0.000 C 
ATOM     13  C   UNL     1       3.001  -0.730   2.062  0.00  0.00    +0.000 C 
ATOM     14  C   UNL     1      -2.294  -0.373  -0.529  0.00  0.00    +0.000 C 
ATOM     15  C   UNL     1      -2.494   2.144  -0.642  0.00  0.00    +0.000 C 
ATOM     16  C   UNL     1      -3.112   0.821  -0.277  0.00  0.00    +0.000 C 
ATOM     17  C   UNL     1      -3.108  -1.649  -0.602  0.00  0.00    +0.000 C 
ATOM     18  C   UNL     1      -4.347   0.768   0.248  0.00  0.00    +0.000 C 
ATOM     19  C   UNL     1      -4.085  -1.762   0.563  0.00  0.00    +0.000 C 
ATOM     20  C   UNL     1      -4.941  -0.524   0.670  0.00  0.00    +0.000 C 
ENDROOT
BRANCH   4  22
ATOM     21  O   UNL     1       5.458   0.153  -0.065  0.00  0.00    +0.000 OA
ATOM     22  C   UNL     1       4.498  -0.581   0.165  0.00  0.00    +0.000 C 
ATOM     23  C   UNL     1       4.564  -2.065  -0.074  0.00  0.00    +0.000 C 
ENDBRANCH   4  22
TORSDOF 1
