REMARK  Name = 9416
REMARK  10 active torsions:
REMARK  status: ('A' for Active; 'I' for Inactive)
REMARK    1  A    between atoms: O_1  and  C_11
REMARK    2  A    between atoms: O_1  and  C_23
REMARK    3  A    between atoms: C_5  and  C_16
REMARK    4  A    between atoms: C_8  and  C_19
REMARK    5  A    between atoms: C_23  and  C_24
REMARK    6  A    between atoms: C_24  and  C_25
REMARK    7  A    between atoms: C_25  and  C_26
REMARK    8  A    between atoms: C_26  and  C_27
REMARK    9  A    between atoms: C_27  and  C_28
REMARK   10  A    between atoms: C_28  and  C_29
REMARK                            x       y       z     vdW  Elec       q    Type
REMARK                         _______ _______ _______ _____ _____    ______ ____
ROOT
ATOM      1  O   UNL     1       8.137   0.753   1.268  0.00  0.00    +0.000 OA
ATOM      2  C   UNL     1       0.826  -1.153   0.142  0.00  0.00    +0.000 C 
ATOM      3  C   UNL     1      -0.142  -0.023  -0.257  0.00  0.00    +0.000 C 
ATOM      4  C   UNL     1       2.233  -0.955  -0.429  0.00  0.00    +0.000 C 
ATOM      5  C   UNL     1       2.807   0.395   0.106  0.00  0.00    +0.000 C 
ATOM      6  C   UNL     1       4.278   0.675  -0.392  0.00  0.00    +0.000 C 
ATOM      7  C   UNL     1       0.389   1.288   0.335  0.00  0.00    +0.000 C 
ATOM      8  C   UNL     1       1.827   1.578  -0.132  0.00  0.00    +0.000 C 
ATOM      9  C   UNL     1      -1.431  -0.552   0.402  0.00  0.00    +0.000 C 
ATOM     10  C   UNL     1       0.054  -2.423  -0.205  0.00  0.00    +0.000 C 
ATOM     11  C   UNL     1       3.163  -2.112  -0.043  0.00  0.00    +0.000 C 
ATOM     12  C   UNL     1      -1.412  -2.063   0.098  0.00  0.00    +0.000 C 
ATOM     13  C   UNL     1       5.146  -0.567  -0.149  0.00  0.00    +0.000 C 
ATOM     14  C   UNL     1      -0.347   0.144  -1.784  0.00  0.00    +0.000 C 
ATOM     15  C   UNL     1       4.569  -1.893  -0.585  0.00  0.00    +0.000 C 
ATOM     16  C   UNL     1       4.843   1.884   0.410  0.00  0.00    +0.000 C 
ATOM     17  C   UNL     1       4.325   1.009  -1.900  0.00  0.00    +0.000 C 
ATOM     18  C   UNL     1       6.354   2.030   0.310  0.00  0.00    +0.000 C 
ATOM     19  C   UNL     1       6.373  -0.531   0.397  0.00  0.00    +0.000 C 
ATOM     20  C   UNL     1       7.032   0.753   0.729  0.00  0.00    +0.000 C 
ENDROOT
BRANCH   9  21
ATOM     21  O   UNL     1      -2.601   0.068  -0.095  0.00  0.00    +0.000 OA
BRANCH  21  23
ATOM     22  O   UNL     1      -3.908  -1.294   1.230  0.00  0.00    +0.000 OA
ATOM     23  C   UNL     1      -3.792  -0.399   0.405  0.00  0.00    +0.000 C 
BRANCH  23  24
ATOM     24  C   UNL     1      -4.936   0.385  -0.198  0.00  0.00    +0.000 C 
BRANCH  24  25
ATOM     25  C   UNL     1      -6.300  -0.007   0.371  0.00  0.00    +0.000 C 
BRANCH  25  26
ATOM     26  C   UNL     1      -7.447   0.791  -0.257  0.00  0.00    +0.000 C 
BRANCH  26  27
ATOM     27  C   UNL     1      -8.800   0.358   0.310  0.00  0.00    +0.000 C 
BRANCH  27  28
ATOM     28  C   UNL     1      -9.948   1.133  -0.336  0.00  0.00    +0.000 C 
ATOM     29  C   UNL     1     -11.292   0.728   0.249  0.00  0.00    +0.000 C 
ENDBRANCH  27  28
ENDBRANCH  26  27
ENDBRANCH  25  26
ENDBRANCH  24  25
ENDBRANCH  23  24
ENDBRANCH  21  23
ENDBRANCH   9  21
TORSDOF 7
