REMARK  Name = 91667979
REMARK  3 active torsions:
REMARK  status: ('A' for Active; 'I' for Inactive)
REMARK    1  A    between atoms: O_1  and  C_10
REMARK    2  A    between atoms: C_4  and  C_16
REMARK    3  A    between atoms: C_7  and  C_18
REMARK                            x       y       z     vdW  Elec       q    Type
REMARK                         _______ _______ _______ _____ _____    ______ ____
ROOT
ATOM      1  O   UNL     1       5.594   0.144  -0.966  0.00  0.00    +0.000 OA
ATOM      2  C   UNL     1      -1.999   0.734  -0.356  0.00  0.00    +0.000 C 
ATOM      3  C   UNL     1      -2.780  -0.552  -0.026  0.00  0.00    +0.000 C 
ATOM      4  C   UNL     1      -0.621   0.776   0.312  0.00  0.00    +0.000 C 
ATOM      5  C   UNL     1       0.215  -0.446  -0.182  0.00  0.00    +0.000 C 
ATOM      6  C   UNL     1       1.674  -0.472   0.417  0.00  0.00    +0.000 C 
ATOM      7  C   UNL     1      -1.989  -1.743  -0.581  0.00  0.00    +0.000 C 
ATOM      8  C   UNL     1      -0.558  -1.784  -0.015  0.00  0.00    +0.000 C 
ATOM      9  C   UNL     1      -4.093  -0.246  -0.773  0.00  0.00    +0.000 C 
ATOM     10  C   UNL     1      -3.002   1.846  -0.062  0.00  0.00    +0.000 C 
ATOM     11  C   UNL     1       0.116   2.083  -0.007  0.00  0.00    +0.000 C 
ATOM     12  C   UNL     1      -4.359   1.240  -0.466  0.00  0.00    +0.000 C 
ATOM     13  C   UNL     1       2.327   0.905   0.237  0.00  0.00    +0.000 C 
ATOM     14  C   UNL     1       1.499   2.105   0.632  0.00  0.00    +0.000 C 
ATOM     15  C   UNL     1      -3.057  -0.772   1.483  0.00  0.00    +0.000 C 
ATOM     16  C   UNL     1       2.496  -1.554  -0.344  0.00  0.00    +0.000 C 
ATOM     17  C   UNL     1       1.674  -0.812   1.925  0.00  0.00    +0.000 C 
ATOM     18  C   UNL     1       3.998  -1.436  -0.137  0.00  0.00    +0.000 C 
ATOM     19  C   UNL     1       3.576   1.090  -0.222  0.00  0.00    +0.000 C 
ATOM     20  C   UNL     1       4.471  -0.055  -0.506  0.00  0.00    +0.000 C 
ATOM     21  H   UNL     1       0.209   2.209  -1.093  0.00  0.00    +0.000 HD
ATOM     22  H   UNL     1       1.998   3.042   0.355  0.00  0.00    +0.000 HD
ATOM     23  H   UNL     1       2.183  -2.561  -0.044  0.00  0.00    +0.000 HD
ATOM     24  H   UNL     1       4.284  -1.641   0.899  0.00  0.00    +0.000 HD
ENDROOT
BRANCH   9  25
ATOM     25  O   UNL     1      -5.183  -1.049  -0.363  0.00  0.00    +0.000 OA
ATOM     26  H   UNL     1      -5.974  -0.729  -0.829  0.00  0.00    +0.000 HD
ENDBRANCH   9  25
TORSDOF 1
