REMARK  Name = 5282494
REMARK  12 active torsions:
REMARK  status: ('A' for Active; 'I' for Inactive)
REMARK    1  A    between atoms: O_1  and  C_11
REMARK    2  A    between atoms: O_1  and  C_28
REMARK    3  A    between atoms: O_2  and  C_14
REMARK    4  A    between atoms: O_4  and  C_27
REMARK    5  A    between atoms: C_7  and  C_18
REMARK    6  A    between atoms: C_11  and  C_23
REMARK    7  A    between atoms: C_13  and  C_22
REMARK    8  A    between atoms: C_23  and  C_27
REMARK    9  A    between atoms: C_28  and  C_29
REMARK   10  A    between atoms: C_29  and  C_30
REMARK   11  A    between atoms: C_30  and  C_31
REMARK   12  A    between atoms: C_31  and  C_32
REMARK                            x       y       z     vdW  Elec       q    Type
REMARK                         _______ _______ _______ _____ _____    ______ ____
ROOT
ATOM      1  O   UNL     1      -6.708  -2.834  -0.626  0.00  0.00    +0.000 OA
ATOM      2  C   UNL     1       0.603   1.340   0.096  0.00  0.00    +0.000 C 
ATOM      3  C   UNL     1      -0.092   0.457   1.155  0.00  0.00    +0.000 C 
ATOM      4  C   UNL     1      -1.624   0.573   1.143  0.00  0.00    +0.000 C 
ATOM      5  C   UNL     1      -2.151   0.139  -0.264  0.00  0.00    +0.000 C 
ATOM      6  C   UNL     1       2.086   1.029   0.438  0.00  0.00    +0.000 C 
ATOM      7  C   UNL     1       0.115   0.870  -1.290  0.00  0.00    +0.000 C 
ATOM      8  C   UNL     1      -3.732   0.118  -0.350  0.00  0.00    +0.000 C 
ATOM      9  C   UNL     1      -1.423   0.882  -1.427  0.00  0.00    +0.000 C 
ATOM     10  C   UNL     1       0.662   0.786   2.441  0.00  0.00    +0.000 C 
ATOM     11  C   UNL     1       2.121   0.992   1.983  0.00  0.00    +0.000 C 
ATOM     12  C   UNL     1      -2.236  -0.315   2.239  0.00  0.00    +0.000 C 
ATOM     13  C   UNL     1       0.332   2.857   0.290  0.00  0.00    +0.000 C 
ATOM     14  C   UNL     1      -4.292  -0.668   0.843  0.00  0.00    +0.000 C 
ATOM     15  C   UNL     1      -3.756  -0.291   2.203  0.00  0.00    +0.000 C 
ATOM     16  C   UNL     1      -4.133  -0.580  -1.682  0.00  0.00    +0.000 C 
ATOM     17  C   UNL     1      -4.372   1.524  -0.309  0.00  0.00    +0.000 C 
ATOM     18  C   UNL     1      -5.586  -1.025  -1.723  0.00  0.00    +0.000 C 
ATOM     19  C   UNL     1      -5.234  -1.621   0.743  0.00  0.00    +0.000 C 
ATOM     20  C   UNL     1      -5.888  -1.921  -0.551  0.00  0.00    +0.000 C 
ENDROOT
BRANCH   9  21
ATOM     21  O   UNL     1      -1.875   2.224  -1.548  0.00  0.00    +0.000 OA
ATOM     22  H   UNL     1      -1.433   2.618  -2.319  0.00  0.00    +0.000 HD
ENDBRANCH   9  21
BRANCH   6  24
ATOM     23  O   UNL     1       3.799   2.682   0.549  0.00  0.00    +0.000 OA
ATOM     24  C   UNL     1       3.061   1.999  -0.160  0.00  0.00    +0.000 C 
BRANCH  24  25
ATOM     25  C   UNL     1       3.080   2.086  -1.671  0.00  0.00    +0.000 C 
BRANCH  25  26
ATOM     26  O   UNL     1       4.371   2.421  -2.135  0.00  0.00    +0.000 OA
ATOM     27  H   UNL     1       4.963   1.683  -1.911  0.00  0.00    +0.000 HD
ENDBRANCH  25  26
ENDBRANCH  24  25
ENDBRANCH   6  24
BRANCH   6  28
ATOM     28  O   UNL     1       2.477  -0.243  -0.071  0.00  0.00    +0.000 OA
BRANCH  28  30
ATOM     29  O   UNL     1       4.553  -0.008   0.907  0.00  0.00    +0.000 OA
ATOM     30  C   UNL     1       3.748  -0.644   0.241  0.00  0.00    +0.000 C 
BRANCH  30  31
ATOM     31  C   UNL     1       4.002  -2.005  -0.369  0.00  0.00    +0.000 C 
BRANCH  31  32
ATOM     32  C   UNL     1       5.415  -2.507  -0.079  0.00  0.00    +0.000 C 
BRANCH  32  33
ATOM     33  C   UNL     1       5.642  -3.899  -0.668  0.00  0.00    +0.000 C 
ATOM     34  C   UNL     1       7.035  -4.418  -0.349  0.00  0.00    +0.000 C 
ENDBRANCH  32  33
ENDBRANCH  31  32
ENDBRANCH  30  31
ENDBRANCH  28  30
ENDBRANCH   6  28
TORSDOF 9
