REMARK  Name = 443881
REMARK  10 active torsions:
REMARK  status: ('A' for Active; 'I' for Inactive)
REMARK    1  A    between atoms: O_1  and  C_9
REMARK    2  A    between atoms: O_1  and  C_25
REMARK    3  A    between atoms: C_5  and  C_16
REMARK    4  A    between atoms: C_9  and  C_20
REMARK    5  A    between atoms: C_20  and  C_23
REMARK    6  A    between atoms: C_25  and  C_26
REMARK    7  A    between atoms: C_26  and  C_27
REMARK    8  A    between atoms: C_27  and  C_28
REMARK    9  A    between atoms: C_28  and  C_29
REMARK   10  A    between atoms: C_29  and  C_30
REMARK                            x       y       z     vdW  Elec       q    Type
REMARK                         _______ _______ _______ _____ _____    ______ ____
ROOT
ATOM      1  O   UNL     1       6.982   1.326  -0.999  0.00  0.00    +0.000 OA
ATOM      2  C   UNL     1      -0.872  -1.565   0.222  0.00  0.00    +0.000 C 
ATOM      3  C   UNL     1      -0.262  -0.326   0.919  0.00  0.00    +0.000 C 
ATOM      4  C   UNL     1       1.251  -0.443   1.128  0.00  0.00    +0.000 C 
ATOM      5  C   UNL     1       1.942  -0.608  -0.257  0.00  0.00    +0.000 C 
ATOM      6  C   UNL     1      -2.370  -1.169   0.257  0.00  0.00    +0.000 C 
ATOM      7  C   UNL     1      -0.225  -1.679  -1.168  0.00  0.00    +0.000 C 
ATOM      8  C   UNL     1      -1.157  -0.127   2.139  0.00  0.00    +0.000 C 
ATOM      9  C   UNL     1       1.310  -1.756  -1.084  0.00  0.00    +0.000 C 
ATOM     10  C   UNL     1      -2.563  -0.534   1.652  0.00  0.00    +0.000 C 
ATOM     11  C   UNL     1       3.485  -0.764  -0.099  0.00  0.00    +0.000 C 
ATOM     12  C   UNL     1       1.826   0.780   1.853  0.00  0.00    +0.000 C 
ATOM     13  C   UNL     1      -0.648  -2.887   1.007  0.00  0.00    +0.000 C 
ATOM     14  C   UNL     1       3.328   0.627   2.062  0.00  0.00    +0.000 C 
ATOM     15  C   UNL     1       4.062   0.341   0.776  0.00  0.00    +0.000 C 
ATOM     16  C   UNL     1       4.167  -0.814  -1.482  0.00  0.00    +0.000 C 
ATOM     17  C   UNL     1       5.673  -0.642  -1.398  0.00  0.00    +0.000 C 
ATOM     18  C   UNL     1       5.182   1.021   0.481  0.00  0.00    +0.000 C 
ATOM     19  C   UNL     1       6.009   0.643  -0.688  0.00  0.00    +0.000 C 
ENDROOT
BRANCH   6  21
ATOM     20  O   UNL     1      -4.137  -2.672   0.818  0.00  0.00    +0.000 OA
ATOM     21  C   UNL     1      -3.308  -2.308  -0.014  0.00  0.00    +0.000 C 
ATOM     22  C   UNL     1      -3.185  -2.982  -1.353  0.00  0.00    +0.000 C 
ENDBRANCH   6  21
BRANCH   6  23
ATOM     23  O   UNL     1      -2.666  -0.201  -0.746  0.00  0.00    +0.000 OA
BRANCH  23  25
ATOM     24  O   UNL     1      -4.838  -0.059   0.020  0.00  0.00    +0.000 OA
ATOM     25  C   UNL     1      -3.950   0.276  -0.752  0.00  0.00    +0.000 C 
BRANCH  25  26
ATOM     26  C   UNL     1      -4.090   1.312  -1.845  0.00  0.00    +0.000 C 
BRANCH  26  27
ATOM     27  C   UNL     1      -3.088   2.459  -1.720  0.00  0.00    +0.000 C 
BRANCH  27  28
ATOM     28  C   UNL     1      -3.226   3.216  -0.395  0.00  0.00    +0.000 C 
BRANCH  28  29
ATOM     29  C   UNL     1      -2.235   4.376  -0.314  0.00  0.00    +0.000 C 
ATOM     30  C   UNL     1      -2.397   5.159   0.980  0.00  0.00    +0.000 C 
ENDBRANCH  28  29
ENDBRANCH  27  28
ENDBRANCH  26  27
ENDBRANCH  25  26
ENDBRANCH  23  25
ENDBRANCH   6  23
TORSDOF 7
