REMARK  Name = 57410862
REMARK  15 active torsions:
REMARK  status: ('A' for Active; 'I' for Inactive)
REMARK    1  A    between atoms: O_1  and  C_16
REMARK    2  A    between atoms: O_3  and  C_23
REMARK    3  A    between atoms: O_3  and  C_29
REMARK    4  A    between atoms: O_4  and  C_22
REMARK    5  A    between atoms: O_5  and  C_27
REMARK    6  A    between atoms: C_11  and  C_18
REMARK    7  A    between atoms: C_11  and  C_19
REMARK    8  A    between atoms: C_15  and  C_24
REMARK    9  A    between atoms: C_25  and  C_27
REMARK   10  A    between atoms: C_26  and  C_28
REMARK   11  A    between atoms: C_29  and  C_30
REMARK   12  A    between atoms: C_31  and  C_33
REMARK   13  A    between atoms: C_32  and  C_34
REMARK   14  A    between atoms: C_33  and  C_35
REMARK   15  A    between atoms: C_34  and  C_36
REMARK                            x       y       z     vdW  Elec       q    Type
REMARK                         _______ _______ _______ _____ _____    ______ ____
ROOT
ATOM      1  O   UNL     1      -3.458   0.813  -1.866  0.00  0.00    +0.000 OA
ATOM      2  C   UNL     1      -3.824  -1.712  -0.362  0.00  0.00    +0.000 C 
ATOM      3  C   UNL     1      -2.800  -2.614  -1.042  0.00  0.00    +0.000 C 
ATOM      4  C   UNL     1      -3.545  -3.086   0.182  0.00  0.00    +0.000 C 
ATOM      5  C   UNL     1      -3.197  -0.476   0.159  0.00  0.00    +0.000 C 
ATOM      6  C   UNL     1      -1.298  -2.359  -0.925  0.00  0.00    +0.000 C 
ATOM      7  C   UNL     1      -1.198   0.334  -1.148  0.00  0.00    +0.000 C 
ATOM      8  C   UNL     1      -0.734  -1.095  -1.660  0.00  0.00    +0.000 C 
ATOM      9  C   UNL     1      -0.627   0.884   0.228  0.00  0.00    +0.000 C 
ATOM     10  C   UNL     1      -2.698   0.304  -1.044  0.00  0.00    +0.000 C 
ATOM     11  C   UNL     1      -4.596  -4.123  -0.036  0.00  0.00    +0.000 C 
ATOM     12  C   UNL     1      -2.872  -3.221   1.506  0.00  0.00    +0.000 C 
ATOM     13  C   UNL     1      -3.803   0.547   1.031  0.00  0.00    +0.000 C 
ATOM     14  C   UNL     1      -0.755   1.448  -2.072  0.00  0.00    +0.000 C 
ATOM     15  C   UNL     1      -1.591   1.899   1.026  0.00  0.00    +0.000 C 
ATOM     16  C   UNL     1       0.652   1.665  -0.213  0.00  0.00    +0.000 C 
ATOM     17  C   UNL     1      -0.973  -1.283  -3.174  0.00  0.00    +0.000 C 
ATOM     18  C   UNL     1      -3.061   1.605   1.432  0.00  0.00    +0.000 C 
ATOM     19  C   UNL     1       0.265   2.156  -1.571  0.00  0.00    +0.000 C 
ATOM     20  C   UNL     1       0.985   3.276  -2.231  0.00  0.00    +0.000 C 
ENDROOT
BRANCH   9  21
ATOM     21  O   UNL     1      -0.221  -0.165   1.101  0.00  0.00    +0.000 OA
ATOM     22  H   UNL     1      -0.791  -0.174   1.887  0.00  0.00    +0.000 HD
ENDBRANCH   9  21
BRANCH  15  23
ATOM     23  O   UNL     1      -0.886   2.280   2.222  0.00  0.00    +0.000 OA
ATOM     24  H   UNL     1      -0.924   1.535   2.845  0.00  0.00    +0.000 HD
ENDBRANCH  15  23
BRANCH  16  25
ATOM     25  O   UNL     1       1.789   0.823  -0.357  0.00  0.00    +0.000 OA
BRANCH  25  27
ATOM     26  O   UNL     1       2.497   1.374   1.763  0.00  0.00    +0.000 OA
ATOM     27  C   UNL     1       2.633   0.770   0.711  0.00  0.00    +0.000 C 
BRANCH  27  30
ATOM     28  O   UNL     1       5.441  -1.587   0.739  0.00  0.00    +0.000 OA
ATOM     29  N   UNL     1       5.406  -1.322  -0.625  0.00  0.00    +0.000 NA
ATOM     30  C   UNL     1       3.774  -0.139   0.434  0.00  0.00    +0.000 A 
ATOM     31  C   UNL     1       4.465  -0.876   1.359  0.00  0.00    +0.000 A 
ATOM     32  C   UNL     1       4.402  -0.455  -0.783  0.00  0.00    +0.000 A 
BRANCH  31  33
ATOM     33  C   UNL     1       4.364  -1.043   2.815  0.00  0.00    +0.000 C 
ATOM     34  C   UNL     1       3.692  -2.360   3.226  0.00  0.00    +0.000 C 
ENDBRANCH  31  33
BRANCH  32  35
ATOM     35  C   UNL     1       4.080   0.048  -2.129  0.00  0.00    +0.000 C 
ATOM     36  C   UNL     1       5.060   1.122  -2.618  0.00  0.00    +0.000 C 
ENDBRANCH  32  35
ENDBRANCH  27  30
ENDBRANCH  25  27
ENDBRANCH  16  25
BRANCH  18  37
ATOM     37  C   UNL     1      -3.709   2.663   2.293  0.00  0.00    +0.000 C 
BRANCH  37  38
ATOM     38  O   UNL     1      -3.657   3.906   1.626  0.00  0.00    +0.000 OA
ATOM     39  H   UNL     1      -4.067   4.565   2.211  0.00  0.00    +0.000 HD
ENDBRANCH  37  38
ENDBRANCH  18  37
TORSDOF 9
