REMARK  Name = 24798742
REMARK  0 active torsions:
REMARK  status: ('A' for Active; 'I' for Inactive)
REMARK                            x       y       z     vdW  Elec       q    Type
REMARK                         _______ _______ _______ _____ _____    ______ ____
ROOT
ATOM      1 CL   UNL     1      -0.788   2.723  -0.370  0.00  0.00    +0.000 Cl
ATOM      2  N   UNL     1       0.390  -0.295   0.231  0.00  0.00    +0.000 N 
ATOM      3  N   UNL     1       3.871  -0.925  -1.139  0.00  0.00    +0.000 N 
ATOM      4  N   UNL     1       4.510   0.613   0.354  0.00  0.00    +0.000 NA
ATOM      5  N   UNL     1      -1.256  -2.003   0.366  0.00  0.00    +0.000 NA
ATOM      6  N   UNL     1      -4.126   0.751  -0.342  0.00  0.00    +0.000 N 
ATOM      7  N   UNL     1      -3.635  -1.571   0.084  0.00  0.00    +0.000 NA
ATOM      8  C   UNL     1       0.933   0.310   1.477  0.00  0.00    +0.000 C 
ATOM      9  C   UNL     1       1.337  -0.901  -0.746  0.00  0.00    +0.000 C 
ATOM     10  C   UNL     1       2.200   1.168   1.247  0.00  0.00    +0.000 C 
ATOM     11  C   UNL     1       2.739  -0.486  -0.525  0.00  0.00    +0.000 A 
ATOM     12  C   UNL     1       3.155   0.451   0.384  0.00  0.00    +0.000 A 
ATOM     13  C   UNL     1      -0.953  -0.698   0.177  0.00  0.00    +0.000 A 
ATOM     14  C   UNL     1      -1.977   0.217  -0.064  0.00  0.00    +0.000 A 
ATOM     15  C   UNL     1      -3.271  -0.290  -0.095  0.00  0.00    +0.000 A 
ATOM     16  C   UNL     1       4.914  -0.233  -0.574  0.00  0.00    +0.000 A 
ATOM     17  C   UNL     1      -2.074   1.612  -0.302  0.00  0.00    +0.000 A 
ATOM     18  C   UNL     1      -3.409   1.913  -0.470  0.00  0.00    +0.000 A 
ATOM     19  C   UNL     1      -2.561  -2.354   0.308  0.00  0.00    +0.000 A 
ATOM     20  H   UNL     1       3.937  -1.623  -1.868  0.00  0.00    +0.000 HD
ATOM     21  H   UNL     1      -5.131   0.674  -0.418  0.00  0.00    +0.000 HD
ENDROOT
TORSDOF 0
