REMARK  Name = 
REMARK  30 active torsions:
REMARK  status: ('A' for Active; 'I' for Inactive)
REMARK    1  A    between atoms: C_1  and  C_2
REMARK    2  A    between atoms: C_5  and  C_6
REMARK    3  A    between atoms: C_6  and  O_8
REMARK    4  A    between atoms: O_8  and  C_9
REMARK    5  A    between atoms: C_11  and  C_12
REMARK    6  A    between atoms: C_12  and  O_13
REMARK    7  A    between atoms: O_13  and  C_14
REMARK    8  A    between atoms: C_16  and  C_17
REMARK    9  A    between atoms: C_17  and  O_18
REMARK   10  A    between atoms: C_19  and  O_20
REMARK   11  A    between atoms: O_20  and  C_21
REMARK   12  A    between atoms: C_23  and  C_24
REMARK   13  A    between atoms: C_25  and  O_26
REMARK   14  A    between atoms: C_27  and  O_28
REMARK   15  A    between atoms: C_29  and  O_30
REMARK   16  A    between atoms: C_31  and  O_32
REMARK   17  A    between atoms: C_33  and  O_34
REMARK   18  A    between atoms: C_35  and  O_36
REMARK   19  A    between atoms: C_37  and  O_38
REMARK   20  A    between atoms: C_39  and  O_40
REMARK   21  A    between atoms: C_43  and  C_44
REMARK   22  A    between atoms: C_49  and  C_50
REMARK   23  A    between atoms: C_52  and  O_53
REMARK   24  A    between atoms: C_54  and  O_55
REMARK   25  A    between atoms: C_56  and  C_57
REMARK   26  A    between atoms: C_56  and  C_58
REMARK   27  A    between atoms: C_58  and  O_59
REMARK   28  A    between atoms: C_61  and  O_62
REMARK   29  A    between atoms: C_64  and  C_65
REMARK   30  A    between atoms: C_67  and  C_68
REMARK                            x       y       z     vdW  Elec       q    Type
REMARK                         _______ _______ _______ _____ _____    ______ ____
ROOT
ATOM      1  C   UNL     1       0.397  -3.742   0.000  0.00  0.00    +0.000 C 
ATOM      2  O   UNL     1      -0.806  -2.846   0.000  0.00  0.00    +0.000 OA
ATOM      3  C   UNL     1      -2.183  -3.439   0.000  0.00  0.00    +0.000 C 
ATOM      4  C   UNL     1      -2.358  -4.929   0.000  0.00  0.00    +0.000 C 
ATOM      5  C   UNL     1      -1.155  -5.825   0.000  0.00  0.00    +0.000 C 
ATOM      6  C   UNL     1       0.222  -5.232   0.000  0.00  0.00    +0.000 C 
ENDROOT
BRANCH   4   7
ATOM      7  O   UNL     1      -3.736  -5.523   0.000  0.00  0.00    +0.000 OA
ATOM      8  H   UNL     1      -4.513  -4.943   0.000  0.00  0.00    +0.000 HD
ENDBRANCH   4   7
BRANCH   5   9
ATOM      9  O   UNL     1      -1.330  -7.315   0.000  0.00  0.00    +0.000 OA
ATOM     10  H   UNL     1      -2.221  -7.699   0.000  0.00  0.00    +0.000 HD
ENDBRANCH   5   9
BRANCH   6  11
ATOM     11  O   UNL     1       1.425  -6.128   0.000  0.00  0.00    +0.000 OA
ATOM     12  H   UNL     1       1.312  -7.091   0.000  0.00  0.00    +0.000 HD
ENDBRANCH   6  11
BRANCH   1  13
ATOM     13  O   UNL     1       1.775  -3.148   0.000  0.00  0.00    +0.000 OA
BRANCH  13  14
ATOM     14  C   UNL     1       2.977  -4.045   0.000  0.00  0.00    +0.000 C 
ATOM     15  O   UNL     1       2.803  -5.534   0.000  0.00  0.00    +0.000 OA
BRANCH  14  20
ATOM     16  C   UNL     1       7.963  -6.139   0.000  0.00  0.00    +0.000 C 
ATOM     17  C   UNL     1       6.761  -5.243   0.000  0.00  0.00    +0.000 C 
ATOM     18  C   UNL     1       5.383  -5.837   0.000  0.00  0.00    +0.000 C 
ATOM     19  C   UNL     1       4.180  -4.941   0.000  0.00  0.00    +0.000 C 
ATOM     20  C   UNL     1       4.355  -3.451   0.000  0.00  0.00    +0.000 C 
ATOM     21  C   UNL     1       3.152  -2.555   0.000  0.00  0.00    +0.000 C 
ATOM     22  C   UNL     1       3.327  -1.065   0.000  0.00  0.00    +0.000 C 
ATOM     23  C   UNL     1       4.705  -0.471   0.000  0.00  0.00    +0.000 C 
ATOM     24  C   UNL     1       3.849   0.016   0.000  0.00  0.00    +0.000 C 
ATOM     25  C   UNL     1       5.907  -1.367   0.000  0.00  0.00    +0.000 C 
ATOM     26  C   UNL     1       7.285  -0.774   0.000  0.00  0.00    +0.000 C 
ATOM     27  C   UNL     1       7.460   0.716   0.000  0.00  0.00    +0.000 C 
ATOM     28  C   UNL     1       6.257   1.612   0.000  0.00  0.00    +0.000 C 
ATOM     29  C   UNL     1       6.431   3.102   0.000  0.00  0.00    +0.000 C 
ATOM     30  C   UNL     1       7.634   2.206   0.000  0.00  0.00    +0.000 C 
ATOM     31  C   UNL     1       7.809   3.695   0.000  0.00  0.00    +0.000 C 
ATOM     32  C   UNL     1       7.984   5.185   0.000  0.00  0.00    +0.000 C 
ATOM     33  C   UNL     1       6.781   6.081   0.000  0.00  0.00    +0.000 C 
ATOM     34  C   UNL     1       5.403   5.488   0.000  0.00  0.00    +0.000 C 
ATOM     35  C   UNL     1       3.906   5.401   0.000  0.00  0.00    +0.000 C 
ATOM     36  C   UNL     1       5.229   3.998   0.000  0.00  0.00    +0.000 C 
ATOM     37  C   UNL     1       3.851   3.405   0.000  0.00  0.00    +0.000 C 
ATOM     38  C   UNL     1       3.676   1.915   0.000  0.00  0.00    +0.000 C 
ATOM     39  C   UNL     1       4.879   1.018   0.000  0.00  0.00    +0.000 C 
ATOM     40  C   UNL     1       3.935   0.742   0.000  0.00  0.00    +0.000 C 
ATOM     41  C   UNL     1       5.733  -2.857   0.000  0.00  0.00    +0.000 C 
ATOM     42  C   UNL     1       6.935  -3.753   0.000  0.00  0.00    +0.000 C 
ATOM     43  C   UNL     1       8.313  -3.160   0.000  0.00  0.00    +0.000 C 
BRANCH  32  44
ATOM     44  O   UNL     1       9.361   5.779   0.000  0.00  0.00    +0.000 OA
ATOM     45  H   UNL     1      10.139   5.199   0.000  0.00  0.00    +0.000 HD
ENDBRANCH  32  44
BRANCH  33  46
ATOM     46  O   UNL     1       6.956   7.571   0.000  0.00  0.00    +0.000 OA
ATOM     47  H   UNL     1       7.846   7.955   0.000  0.00  0.00    +0.000 HD
ENDBRANCH  33  46
BRANCH  37  48
ATOM     48  O   UNL     1       2.648   4.301   0.000  0.00  0.00    +0.000 OA
ATOM     49  H   UNL     1       2.761   5.264   0.000  0.00  0.00    +0.000 HD
ENDBRANCH  37  48
BRANCH  34  50
ATOM     50  C   UNL     1       5.058   6.947   0.000  0.00  0.00    +0.000 C 
BRANCH  50  51
ATOM     51  O   UNL     1       3.621   7.378   0.000  0.00  0.00    +0.000 OA
ATOM     52  H   UNL     1       3.398   8.322   0.000  0.00  0.00    +0.000 HD
ENDBRANCH  50  51
ENDBRANCH  34  50
ENDBRANCH  14  20
ENDBRANCH  13  14
ENDBRANCH   1  13
BRANCH   3  53
ATOM     53  C   UNL     1      -3.386  -2.543   0.000  0.00  0.00    +0.000 C 
BRANCH  53  54
ATOM     54  O   UNL     1      -3.211  -1.053   0.000  0.00  0.00    +0.000 OA
BRANCH  54  55
ATOM     55  C   UNL     1      -4.414  -0.157   0.000  0.00  0.00    +0.000 C 
ATOM     56  O   UNL     1      -4.239   1.333   0.000  0.00  0.00    +0.000 OA
ATOM     57  C   UNL     1      -5.442   2.229   0.000  0.00  0.00    +0.000 C 
ATOM     58  C   UNL     1      -6.820   1.635   0.000  0.00  0.00    +0.000 C 
ATOM     59  C   UNL     1      -6.995   0.146   0.000  0.00  0.00    +0.000 C 
ATOM     60  C   UNL     1      -5.792  -0.751   0.000  0.00  0.00    +0.000 C 
BRANCH  59  61
ATOM     61  O   UNL     1      -8.372  -0.448   0.000  0.00  0.00    +0.000 OA
ATOM     62  H   UNL     1      -9.150   0.132   0.000  0.00  0.00    +0.000 HD
ENDBRANCH  59  61
BRANCH  60  63
ATOM     63  O   UNL     1      -5.967  -2.240   0.000  0.00  0.00    +0.000 OA
ATOM     64  H   UNL     1      -6.857  -2.624   0.000  0.00  0.00    +0.000 HD
ENDBRANCH  60  63
BRANCH  57  65
ATOM     65  C   UNL     1      -5.268   3.719   0.000  0.00  0.00    +0.000 C 
BRANCH  65  66
ATOM     66  O   UNL     1      -3.890   4.312   0.000  0.00  0.00    +0.000 OA
ATOM     67  H   UNL     1      -3.112   3.733   0.000  0.00  0.00    +0.000 HD
ENDBRANCH  65  66
ENDBRANCH  57  65
BRANCH  58  68
ATOM     68  O   UNL     1      -8.023   2.532   0.000  0.00  0.00    +0.000 OA
BRANCH  68  69
ATOM     69  C   UNL     1      -9.400   1.938   0.000  0.00  0.00    +0.000 C 
ATOM     70  O   UNL     1      -9.575   0.448   0.000  0.00  0.00    +0.000 OA
ATOM     71  C   UNL     1     -10.953  -0.145   0.000  0.00  0.00    +0.000 C 
ATOM     72  C   UNL     1     -11.127  -1.635   0.000  0.00  0.00    +0.000 C 
ATOM     73  C   UNL     1     -12.155   0.751   0.000  0.00  0.00    +0.000 C 
ATOM     74  C   UNL     1     -11.981   2.241   0.000  0.00  0.00    +0.000 C 
ATOM     75  C   UNL     1     -10.603   2.834   0.000  0.00  0.00    +0.000 C 
BRANCH  73  76
ATOM     76  O   UNL     1     -13.533   0.157   0.000  0.00  0.00    +0.000 OA
ATOM     77  H   UNL     1     -14.311   0.737   0.000  0.00  0.00    +0.000 HD
ENDBRANCH  73  76
BRANCH  74  78
ATOM     78  O   UNL     1     -13.184   3.137   0.000  0.00  0.00    +0.000 OA
ATOM     79  H   UNL     1     -13.071   4.100   0.000  0.00  0.00    +0.000 HD
ENDBRANCH  74  78
BRANCH  75  80
ATOM     80  O   UNL     1     -10.428   4.324   0.000  0.00  0.00    +0.000 OA
ATOM     81  H   UNL     1      -9.538   4.708   0.000  0.00  0.00    +0.000 HD
ENDBRANCH  75  80
ENDBRANCH  68  69
ENDBRANCH  58  68
ENDBRANCH  54  55
ENDBRANCH  53  54
ENDBRANCH   3  53
TORSDOF 23
