REMARK  Name = 24762195
REMARK  3 active torsions:
REMARK  status: ('A' for Active; 'I' for Inactive)
REMARK    1  A    between atoms: N_3  and  C_12
REMARK    2  A    between atoms: C_7  and  C_12
REMARK    3  A    between atoms: C_7  and  C_13
REMARK                            x       y       z     vdW  Elec       q    Type
REMARK                         _______ _______ _______ _____ _____    ______ ____
ROOT
ATOM      1  N   UNL     1      -1.004   0.179  -0.421  0.00  0.00    +0.000 N 
ATOM      2  N   UNL     1      -2.332  -1.762  -0.800  0.00  0.00    +0.000 NA
ATOM      3  N   UNL     1      -5.497   0.161   0.815  0.00  0.00    +0.000 N 
ATOM      4  N   UNL     1      -4.686  -1.875  -0.191  0.00  0.00    +0.000 NA
ATOM      5  C   UNL     1       1.677   1.410  -0.576  0.00  0.00    +0.000 C 
ATOM      6  C   UNL     1       0.626   1.784   0.507  0.00  0.00    +0.000 C 
ATOM      7  C   UNL     1       0.845   1.002  -1.825  0.00  0.00    +0.000 C 
ATOM      8  C   UNL     1      -0.363   0.653   0.809  0.00  0.00    +0.000 C 
ATOM      9  C   UNL     1      -0.116  -0.154  -1.542  0.00  0.00    +0.000 C 
ATOM     10  C   UNL     1      -2.230  -0.493  -0.341  0.00  0.00    +0.000 A 
ATOM     11  C   UNL     1      -3.349   0.130   0.209  0.00  0.00    +0.000 A 
ATOM     12  C   UNL     1      -4.521  -0.615   0.247  0.00  0.00    +0.000 A 
ATOM     13  C   UNL     1      -3.645   1.396   0.777  0.00  0.00    +0.000 A 
ATOM     14  C   UNL     1      -3.537  -2.366  -0.698  0.00  0.00    +0.000 A 
ATOM     15  C   UNL     1      -4.975   1.386   1.141  0.00  0.00    +0.000 A 
ATOM     16  H   UNL     1      -6.454  -0.126   0.970  0.00  0.00    +0.000 HD
ENDROOT
BRANCH   5  18
ATOM     17 CL   UNL     1       5.673  -2.811   1.111  0.00  0.00    +0.000 Cl
ATOM     18  C   UNL     1       2.695   0.335  -0.146  0.00  0.00    +0.000 A 
ATOM     19  C   UNL     1       3.063   0.220   1.194  0.00  0.00    +0.000 A 
ATOM     20  C   UNL     1       3.247  -0.523  -1.098  0.00  0.00    +0.000 A 
ATOM     21  C   UNL     1       3.984  -0.753   1.583  0.00  0.00    +0.000 A 
ATOM     22  C   UNL     1       4.168  -1.496  -0.709  0.00  0.00    +0.000 A 
ATOM     23  C   UNL     1       4.536  -1.611   0.632  0.00  0.00    +0.000 A 
ENDBRANCH   5  18
BRANCH   5  24
ATOM     24  C   UNL     1       2.486   2.682  -0.916  0.00  0.00    +0.000 C 
BRANCH  24  25
ATOM     25  N   UNL     1       3.257   3.122   0.234  0.00  0.00    +0.000 NA
ATOM     26  H   UNL     1       3.849   3.907  -0.038  0.00  0.00    +0.000 HD
ATOM     27  H   UNL     1       2.637   3.485   0.956  0.00  0.00    +0.000 HD
ENDBRANCH  24  25
ENDBRANCH   5  24
TORSDOF 3
