REMARK  Name = 12594
REMARK  5 active torsions:
REMARK  status: ('A' for Active; 'I' for Inactive)
REMARK    1  A    between atoms: S_1  and  O_3
REMARK    2  A    between atoms: S_1  and  O_4
REMARK    3  A    between atoms: O_3  and  C_25
REMARK    4  A    between atoms: C_10  and  C_21
REMARK    5  A    between atoms: C_11  and  C_22
REMARK                            x       y       z     vdW  Elec       q    Type
REMARK                         _______ _______ _______ _____ _____    ______ ____
ROOT
ATOM      1  O   UNL     1      -6.250   0.549   0.799  0.00  0.00    +0.000 OA
ATOM      2  C   UNL     1      -1.036   0.594   0.272  0.00  0.00    +0.000 C 
ATOM      3  C   UNL     1      -1.694  -0.692  -0.314  0.00  0.00    +0.000 C 
ATOM      4  C   UNL     1      -3.110  -0.831   0.249  0.00  0.00    +0.000 C 
ATOM      5  C   UNL     1      -3.993   0.383  -0.096  0.00  0.00    +0.000 C 
ATOM      6  C   UNL     1       0.418   0.815  -0.307  0.00  0.00    +0.000 C 
ATOM      7  C   UNL     1      -1.957   1.845   0.174  0.00  0.00    +0.000 C 
ATOM      8  C   UNL     1      -3.408   1.595   0.621  0.00  0.00    +0.000 C 
ATOM      9  C   UNL     1      -3.960  -2.037  -0.136  0.00  0.00    +0.000 C 
ATOM     10  C   UNL     1      -0.843  -1.923   0.029  0.00  0.00    +0.000 C 
ATOM     11  C   UNL     1       1.207  -0.502  -0.311  0.00  0.00    +0.000 C 
ATOM     12  C   UNL     1       1.152   1.848   0.599  0.00  0.00    +0.000 C 
ATOM     13  C   UNL     1      -5.313  -0.149   0.434  0.00  0.00    +0.000 C 
ATOM     14  C   UNL     1      -5.341  -1.668   0.425  0.00  0.00    +0.000 C 
ATOM     15  C   UNL     1       0.626  -1.703  -0.146  0.00  0.00    +0.000 C 
ATOM     16  C   UNL     1      -4.200   0.658  -1.597  0.00  0.00    +0.000 C 
ATOM     17  C   UNL     1       0.372   1.348  -1.759  0.00  0.00    +0.000 C 
ATOM     18  C   UNL     1       2.703  -0.409  -0.506  0.00  0.00    +0.000 C 
ATOM     19  C   UNL     1       2.653   1.963   0.334  0.00  0.00    +0.000 C 
ATOM     20  C   UNL     1       3.338   0.604   0.441  0.00  0.00    +0.000 C 
ENDROOT
BRANCH  20  21
ATOM     21  O   UNL     1       4.715   0.738   0.105  0.00  0.00    +0.000 OA
BRANCH  21  22
ATOM     22  S   UNL     1       5.695  -0.566   0.174  0.00  0.00    +0.000 S 
ATOM     23  O   UNL     1       5.678  -1.051   1.542  0.00  0.00    +0.000 OA
ATOM     24  O   UNL     1       5.369  -1.461  -0.920  0.00  0.00    +0.000 OA
BRANCH  22  25
ATOM     25  O   UNL     1       7.178   0.053  -0.109  0.00  0.00    +0.000 OA
ATOM     26  H   UNL     1       7.239   0.665  -0.880  0.00  0.00    +0.000 HD
ENDBRANCH  22  25
ENDBRANCH  21  22
ENDBRANCH  20  21
TORSDOF 3
