REMARK  Name = 146797
REMARK  6 active torsions:
REMARK  status: ('A' for Active; 'I' for Inactive)
REMARK    1  A    between atoms: O_1  and  C_15
REMARK    2  A    between atoms: C_4  and  C_5
REMARK    3  A    between atoms: C_5  and  C_11
REMARK    4  A    between atoms: C_5  and  C_12
REMARK    5  A    between atoms: C_5  and  C_13
REMARK    6  A    between atoms: C_8  and  C_14
REMARK                            x       y       z     vdW  Elec       q    Type
REMARK                         _______ _______ _______ _____ _____    ______ ____
ROOT
ATOM      1  O   UNL     1      -0.085   2.071  -0.046  0.00  0.00    +0.000 OA
ATOM      2  O   UNL     1      -2.620   2.805   0.002  0.00  0.00    +0.000 OA
ATOM      3  C   UNL     1      -0.604  -0.263  -0.020  0.00  0.00    +0.000 C 
ATOM      4  C   UNL     1      -1.608  -1.163  -0.015  0.00  0.00    +0.000 C 
ATOM      5  C   UNL     1      -0.933   1.190  -0.025  0.00  0.00    +0.000 C 
ATOM      6  C   UNL     1      -3.035  -0.773  -0.000  0.00  0.00    +0.000 A 
ATOM      7  C   UNL     1      -2.371   1.610  -0.005  0.00  0.00    +0.000 C 
ATOM      8  C   UNL     1      -3.413   0.576   0.005  0.00  0.00    +0.000 A 
ATOM      9  C   UNL     1      -4.060  -1.736   0.010  0.00  0.00    +0.000 A 
ATOM     10  C   UNL     1      -4.760   0.960   0.020  0.00  0.00    +0.000 A 
ATOM     11  C   UNL     1      -5.406  -1.359   0.025  0.00  0.00    +0.000 A 
ATOM     12  C   UNL     1      -5.755  -0.012   0.030  0.00  0.00    +0.000 A 
ENDROOT
BRANCH   3  16
ATOM     13  C   UNL     1       3.710   0.276   0.002  0.00  0.00    +0.000 C 
ATOM     14  C   UNL     1       3.048  -0.289  -1.261  0.00  0.00    +0.000 C 
ATOM     15  C   UNL     1       3.027  -0.266   1.264  0.00  0.00    +0.000 C 
ATOM     16  C   UNL     1       0.862  -0.567  -0.013  0.00  0.00    +0.000 C 
ATOM     17  C   UNL     1       1.543  -0.024  -1.276  0.00  0.00    +0.000 C 
ATOM     18  C   UNL     1       1.522  -0.003   1.250  0.00  0.00    +0.000 C 
BRANCH  13  19
ATOM     19  C   UNL     1       5.204  -0.044   0.017  0.00  0.00    +0.000 C 
ATOM     20  C   UNL     1       5.853   0.566   1.270  0.00  0.00    +0.000 C 
ATOM     21  C   UNL     1       5.409  -1.568   0.032  0.00  0.00    +0.000 C 
ATOM     22  C   UNL     1       5.873   0.544  -1.237  0.00  0.00    +0.000 C 
ENDBRANCH  13  19
ENDBRANCH   3  16
BRANCH   4  23
ATOM     23  O   UNL     1      -1.401  -2.530  -0.029  0.00  0.00    +0.000 OA
ATOM     24  H   UNL     1      -0.456  -2.731  -0.083  0.00  0.00    +0.000 HD
ENDBRANCH   4  23
TORSDOF 3
