REMARK  Name = 13789
REMARK  2 active torsions:
REMARK  status: ('A' for Active; 'I' for Inactive)
REMARK    1  A    between atoms: C_4  and  C_15
REMARK    2  A    between atoms: C_13  and  C_20
REMARK                            x       y       z     vdW  Elec       q    Type
REMARK                         _______ _______ _______ _____ _____    ______ ____
ROOT
ATOM      1  O   UNL     1      -4.435  -0.064   0.458  0.00  0.00    +0.000 OA
ATOM      2  O   UNL     1      -5.870  -1.833   0.214  0.00  0.00    +0.000 OA
ATOM      3  O   UNL     1       6.470  -0.664  -0.923  0.00  0.00    +0.000 OA
ATOM      4  C   UNL     1      -1.952   0.059   0.422  0.00  0.00    +0.000 C 
ATOM      5  C   UNL     1      -1.023   1.160  -0.147  0.00  0.00    +0.000 C 
ATOM      6  C   UNL     1      -3.303   0.466  -0.250  0.00  0.00    +0.000 C 
ATOM      7  C   UNL     1       0.399   1.089   0.431  0.00  0.00    +0.000 C 
ATOM      8  C   UNL     1       1.006  -0.299   0.051  0.00  0.00    +0.000 C 
ATOM      9  C   UNL     1      -1.351  -1.312   0.062  0.00  0.00    +0.000 C 
ATOM     10  C   UNL     1      -1.829   2.441   0.052  0.00  0.00    +0.000 C 
ATOM     11  C   UNL     1      -3.294   2.013  -0.143  0.00  0.00    +0.000 C 
ATOM     12  C   UNL     1       0.106  -1.457   0.545  0.00  0.00    +0.000 C 
ATOM     13  C   UNL     1       2.520  -0.404   0.458  0.00  0.00    +0.000 C 
ATOM     14  C   UNL     1      -3.536   0.001  -1.685  0.00  0.00    +0.000 C 
ATOM     15  C   UNL     1      -2.117   0.121   1.971  0.00  0.00    +0.000 C 
ATOM     16  C   UNL     1       1.294   2.203  -0.043  0.00  0.00    +0.000 C 
ATOM     17  C   UNL     1       3.286   0.759  -0.191  0.00  0.00    +0.000 C 
ATOM     18  C   UNL     1       3.107  -1.743  -0.062  0.00  0.00    +0.000 C 
ATOM     19  C   UNL     1      -4.271  -1.311  -1.523  0.00  0.00    +0.000 C 
ATOM     20  C   UNL     1       2.704  -0.329   1.992  0.00  0.00    +0.000 C 
ATOM     21  C   UNL     1       2.591   2.031  -0.329  0.00  0.00    +0.000 C 
ATOM     22  C   UNL     1      -4.968  -1.128  -0.212  0.00  0.00    +0.000 C 
ATOM     23  C   UNL     1       4.623  -1.826   0.055  0.00  0.00    +0.000 C 
ATOM     24  C   UNL     1       4.544   0.649  -0.651  0.00  0.00    +0.000 C 
ATOM     25  C   UNL     1       5.299  -0.622  -0.551  0.00  0.00    +0.000 C 
ENDROOT
TORSDOF 0
