REMARK  Name = 9846332
REMARK  8 active torsions:
REMARK  status: ('A' for Active; 'I' for Inactive)
REMARK    1  A    between atoms: O_4  and  C_13
REMARK    2  A    between atoms: O_5  and  C_17
REMARK    3  A    between atoms: O_7  and  C_28
REMARK    4  A    between atoms: C_9  and  C_20
REMARK    5  A    between atoms: C_13  and  C_23
REMARK    6  A    between atoms: C_16  and  C_24
REMARK    7  A    between atoms: C_18  and  C_25
REMARK    8  A    between atoms: C_23  and  C_28
REMARK                            x       y       z     vdW  Elec       q    Type
REMARK                         _______ _______ _______ _____ _____    ______ ____
ROOT
ATOM      1 CL   UNL     1      -5.035   2.990  -1.014  0.00  0.00    +0.000 Cl
ATOM      2  F   UNL     1      -1.087   0.236  -1.206  0.00  0.00    +0.000 F 
ATOM      3  F   UNL     1      -3.045  -3.333   0.247  0.00  0.00    +0.000 F 
ATOM      4  O   UNL     1      -5.949   0.196  -1.486  0.00  0.00    +0.000 OA
ATOM      5  C   UNL     1       2.095   0.178   0.303  0.00  0.00    +0.000 C 
ATOM      6  C   UNL     1       1.205  -1.021  -0.090  0.00  0.00    +0.000 C 
ATOM      7  C   UNL     1      -0.178  -1.001   0.580  0.00  0.00    +0.000 C 
ATOM      8  C   UNL     1      -0.935   0.309   0.172  0.00  0.00    +0.000 C 
ATOM      9  C   UNL     1       3.392  -0.204  -0.470  0.00  0.00    +0.000 C 
ATOM     10  C   UNL     1       2.106  -2.235   0.134  0.00  0.00    +0.000 C 
ATOM     11  C   UNL     1       1.368   1.456  -0.163  0.00  0.00    +0.000 C 
ATOM     12  C   UNL     1       3.531  -1.736  -0.220  0.00  0.00    +0.000 C 
ATOM     13  C   UNL     1      -0.069   1.586   0.392  0.00  0.00    +0.000 C 
ATOM     14  C   UNL     1      -2.403   0.348   0.756  0.00  0.00    +0.000 C 
ATOM     15  C   UNL     1      -0.982  -2.250   0.181  0.00  0.00    +0.000 C 
ATOM     16  C   UNL     1       2.393   0.249   1.827  0.00  0.00    +0.000 C 
ATOM     17  C   UNL     1      -2.404  -2.226   0.726  0.00  0.00    +0.000 C 
ATOM     18  C   UNL     1      -3.101  -0.950   0.327  0.00  0.00    +0.000 C 
ATOM     19  C   UNL     1       4.131  -2.520  -1.384  0.00  0.00    +0.000 C 
ATOM     20  C   UNL     1      -2.470   0.430   2.299  0.00  0.00    +0.000 C 
ATOM     21  C   UNL     1      -3.142   1.573   0.234  0.00  0.00    +0.000 C 
ATOM     22  C   UNL     1      -4.234  -0.980  -0.392  0.00  0.00    +0.000 C 
ATOM     23  C   UNL     1      -4.269   1.543  -0.484  0.00  0.00    +0.000 C 
ATOM     24  C   UNL     1      -4.907   0.258  -0.841  0.00  0.00    +0.000 C 
ENDROOT
BRANCH   9  25
ATOM     25  O   UNL     1       3.284   0.056  -1.865  0.00  0.00    +0.000 OA
ATOM     26  H   UNL     1       2.615  -0.525  -2.259  0.00  0.00    +0.000 HD
ENDBRANCH   9  25
BRANCH  13  27
ATOM     27  O   UNL     1       0.002   1.969   1.755  0.00  0.00    +0.000 OA
ATOM     28  H   UNL     1       0.493   2.807   1.806  0.00  0.00    +0.000 HD
ENDBRANCH  13  27
BRANCH   9  30
ATOM     29  O   UNL     1       5.588  -0.043   0.443  0.00  0.00    +0.000 OA
ATOM     30  C   UNL     1       4.621   0.543  -0.041  0.00  0.00    +0.000 C 
BRANCH  30  31
ATOM     31  C   UNL     1       4.597   2.044  -0.238  0.00  0.00    +0.000 C 
BRANCH  31  32
ATOM     32  O   UNL     1       5.898   2.536  -0.482  0.00  0.00    +0.000 OA
ATOM     33  H   UNL     1       6.195   2.168  -1.331  0.00  0.00    +0.000 HD
ENDBRANCH  31  32
ENDBRANCH  30  31
ENDBRANCH   9  30
TORSDOF 5
