REMARK  Name = 76971566
REMARK  15 active torsions:
REMARK  status: ('A' for Active; 'I' for Inactive)
REMARK    1  A    between atoms: O_1  and  C_14
REMARK    2  A    between atoms: O_1  and  C_26
REMARK    3  A    between atoms: O_4  and  C_32
REMARK    4  A    between atoms: N_5  and  N_6
REMARK    5  A    between atoms: C_8  and  C_19
REMARK    6  A    between atoms: C_11  and  C_22
REMARK    7  A    between atoms: C_26  and  C_27
REMARK    8  A    between atoms: C_27  and  C_28
REMARK    9  A    between atoms: C_28  and  C_29
REMARK   10  A    between atoms: C_29  and  C_31
REMARK   11  A    between atoms: C_30  and  C_32
REMARK   12  A    between atoms: C_31  and  C_33
REMARK   13  A    between atoms: C_32  and  C_34
REMARK   14  A    between atoms: C_32  and  C_35
REMARK   15  A    between atoms: C_33  and  C_36
REMARK                            x       y       z     vdW  Elec       q    Type
REMARK                         _______ _______ _______ _____ _____    ______ ____
ROOT
ATOM      1  N   UNL     1       3.886   1.518  -0.841  0.00  0.00    +0.000 NA
ATOM      2  C   UNL     1      -3.782   2.008  -0.942  0.00  0.00    +0.000 C 
ATOM      3  C   UNL     1      -4.547   1.195   0.121  0.00  0.00    +0.000 C 
ATOM      4  C   UNL     1      -2.451   2.558  -0.421  0.00  0.00    +0.000 C 
ATOM      5  C   UNL     1      -1.552   1.360   0.021  0.00  0.00    +0.000 C 
ATOM      6  C   UNL     1      -0.132   1.817   0.535  0.00  0.00    +0.000 C 
ATOM      7  C   UNL     1      -3.690  -0.020   0.496  0.00  0.00    +0.000 C 
ATOM      8  C   UNL     1      -2.296   0.403   0.994  0.00  0.00    +0.000 C 
ATOM      9  C   UNL     1      -5.817   0.862  -0.688  0.00  0.00    +0.000 C 
ATOM     10  C   UNL     1      -4.833   2.980  -1.472  0.00  0.00    +0.000 C 
ATOM     11  C   UNL     1      -1.732   3.391  -1.489  0.00  0.00    +0.000 C 
ATOM     12  C   UNL     1      -6.144   2.173  -1.432  0.00  0.00    +0.000 C 
ATOM     13  C   UNL     1       0.491   2.786  -0.479  0.00  0.00    +0.000 C 
ATOM     14  C   UNL     1      -4.907   1.989   1.403  0.00  0.00    +0.000 C 
ATOM     15  C   UNL     1      -0.393   3.905  -0.978  0.00  0.00    +0.000 C 
ATOM     16  C   UNL     1       0.763   0.552   0.690  0.00  0.00    +0.000 C 
ATOM     17  C   UNL     1      -0.217   2.538   1.900  0.00  0.00    +0.000 C 
ATOM     18  C   UNL     1       2.246   0.870   0.807  0.00  0.00    +0.000 C 
ATOM     19  C   UNL     1       1.757   2.702  -0.922  0.00  0.00    +0.000 C 
ATOM     20  C   UNL     1       2.691   1.690  -0.376  0.00  0.00    +0.000 C 
ENDROOT
BRANCH   1  22
ATOM     21  O   UNL     1       5.784   0.034  -2.102  0.00  0.00    +0.000 OA
ATOM     22  N   UNL     1       4.572   0.544  -0.206  0.00  0.00    +0.000 N 
ATOM     23  C   UNL     1       5.527  -0.171  -0.916  0.00  0.00    +0.000 C 
ATOM     24  H   UNL     1       4.485   0.455   0.800  0.00  0.00    +0.000 HD
BRANCH  23  25
ATOM     25  C   UNL     1       6.273  -1.216  -0.063  0.00  0.00    +0.000 C 
BRANCH  25  26
ATOM     26  C   UNL     1       7.327  -2.008  -0.841  0.00  0.00    +0.000 A 
ATOM     27  C   UNL     1       7.129  -3.364  -1.100  0.00  0.00    +0.000 A 
ATOM     28  C   UNL     1       8.485  -1.374  -1.290  0.00  0.00    +0.000 A 
ATOM     29  C   UNL     1       8.089  -4.086  -1.809  0.00  0.00    +0.000 A 
ATOM     30  C   UNL     1       9.445  -2.096  -1.999  0.00  0.00    +0.000 A 
ATOM     31  C   UNL     1       9.247  -3.452  -2.258  0.00  0.00    +0.000 A 
ENDBRANCH  25  26
BRANCH  25  32
ATOM     32  C   UNL     1       6.884  -0.637   1.219  0.00  0.00    +0.000 A 
ATOM     33  C   UNL     1       6.853  -1.375   2.402  0.00  0.00    +0.000 A 
ATOM     34  C   UNL     1       7.471   0.628   1.202  0.00  0.00    +0.000 A 
ATOM     35  C   UNL     1       7.409  -0.848   3.568  0.00  0.00    +0.000 A 
ATOM     36  C   UNL     1       8.027   1.155   2.368  0.00  0.00    +0.000 A 
ATOM     37  C   UNL     1       7.996   0.417   3.551  0.00  0.00    +0.000 A 
ENDBRANCH  25  32
BRANCH  25  38
ATOM     38  O   UNL     1       5.167  -2.090   0.246  0.00  0.00    +0.000 OA
ATOM     39  H   UNL     1       4.633  -1.682   0.950  0.00  0.00    +0.000 HD
ENDBRANCH  25  38
ENDBRANCH  23  25
ENDBRANCH   1  22
BRANCH   9  40
ATOM     40  O   UNL     1      -6.901   0.404   0.097  0.00  0.00    +0.000 OA
BRANCH  40  42
ATOM     41  O   UNL     1      -7.718  -0.795  -1.696  0.00  0.00    +0.000 OA
ATOM     42  C   UNL     1      -7.793  -0.429  -0.531  0.00  0.00    +0.000 C 
BRANCH  42  43
ATOM     43  C   UNL     1      -8.866  -0.853   0.447  0.00  0.00    +0.000 C 
BRANCH  43  44
ATOM     44  C   UNL     1      -9.855  -1.858  -0.143  0.00  0.00    +0.000 C 
BRANCH  44  45
ATOM     45  C   UNL     1     -10.939  -2.269   0.859  0.00  0.00    +0.000 C 
BRANCH  45  46
ATOM     46  C   UNL     1     -11.930  -3.253   0.232  0.00  0.00    +0.000 C 
BRANCH  46  47
ATOM     47  C   UNL     1     -13.028  -3.642   1.222  0.00  0.00    +0.000 C 
ATOM     48  C   UNL     1     -13.996  -4.645   0.613  0.00  0.00    +0.000 C 
ENDBRANCH  46  47
ENDBRANCH  45  46
ENDBRANCH  44  45
ENDBRANCH  43  44
ENDBRANCH  42  43
ENDBRANCH  40  42
ENDBRANCH   9  40
TORSDOF 12
