REMARK  Name = 26133
REMARK  11 active torsions:
REMARK  status: ('A' for Active; 'I' for Inactive)
REMARK    1  A    between atoms: O_1  and  C_11
REMARK    2  A    between atoms: O_1  and  C_28
REMARK    3  A    between atoms: O_2  and  C_14
REMARK    4  A    between atoms: O_4  and  C_27
REMARK    5  A    between atoms: C_7  and  C_18
REMARK    6  A    between atoms: C_11  and  C_23
REMARK    7  A    between atoms: C_13  and  C_22
REMARK    8  A    between atoms: C_23  and  C_27
REMARK    9  A    between atoms: C_28  and  C_29
REMARK   10  A    between atoms: C_29  and  C_30
REMARK   11  A    between atoms: C_30  and  C_31
REMARK                            x       y       z     vdW  Elec       q    Type
REMARK                         _______ _______ _______ _____ _____    ______ ____
ROOT
ATOM      1  O   UNL     1      -6.739  -2.313  -0.711  0.00  0.00    +0.000 OA
ATOM      2  C   UNL     1       0.940   1.107   0.135  0.00  0.00    +0.000 C 
ATOM      3  C   UNL     1       0.170   0.242   1.157  0.00  0.00    +0.000 C 
ATOM      4  C   UNL     1      -1.343   0.503   1.167  0.00  0.00    +0.000 C 
ATOM      5  C   UNL     1      -1.918   0.192  -0.254  0.00  0.00    +0.000 C 
ATOM      6  C   UNL     1       2.389   0.640   0.445  0.00  0.00    +0.000 C 
ATOM      7  C   UNL     1       0.402   0.755  -1.267  0.00  0.00    +0.000 C 
ATOM      8  C   UNL     1      -3.494   0.326  -0.324  0.00  0.00    +0.000 C 
ATOM      9  C   UNL     1      -1.130   0.920  -1.387  0.00  0.00    +0.000 C 
ATOM     10  C   UNL     1       0.960   0.434   2.449  0.00  0.00    +0.000 C 
ATOM     11  C   UNL     1       2.429   0.523   1.986  0.00  0.00    +0.000 C 
ATOM     12  C   UNL     1      -2.030  -0.375   2.225  0.00  0.00    +0.000 C 
ATOM     13  C   UNL     1       0.816   2.632   0.405  0.00  0.00    +0.000 C 
ATOM     14  C   UNL     1      -4.119  -0.462   0.836  0.00  0.00    +0.000 C 
ATOM     15  C   UNL     1      -3.541  -0.206   2.206  0.00  0.00    +0.000 C 
ATOM     16  C   UNL     1      -3.968  -0.265  -1.684  0.00  0.00    +0.000 C 
ATOM     17  C   UNL     1      -3.997   1.783  -0.207  0.00  0.00    +0.000 C 
ATOM     18  C   UNL     1      -5.457  -0.567  -1.730  0.00  0.00    +0.000 C 
ATOM     19  C   UNL     1      -5.148  -1.315   0.700  0.00  0.00    +0.000 C 
ATOM     20  C   UNL     1      -5.836  -1.487  -0.600  0.00  0.00    +0.000 C 
ENDROOT
BRANCH   9  21
ATOM     21  O   UNL     1      -1.452   2.302  -1.437  0.00  0.00    +0.000 OA
ATOM     22  H   UNL     1      -0.980   2.691  -2.193  0.00  0.00    +0.000 HD
ENDBRANCH   9  21
BRANCH   6  24
ATOM     23  O   UNL     1       4.253   2.115   0.618  0.00  0.00    +0.000 OA
ATOM     24  C   UNL     1       3.449   1.542  -0.116  0.00  0.00    +0.000 C 
BRANCH  24  25
ATOM     25  C   UNL     1       3.466   1.701  -1.621  0.00  0.00    +0.000 C 
BRANCH  25  26
ATOM     26  O   UNL     1       4.780   1.934  -2.082  0.00  0.00    +0.000 OA
ATOM     27  H   UNL     1       5.301   1.133  -1.900  0.00  0.00    +0.000 HD
ENDBRANCH  25  26
ENDBRANCH  24  25
ENDBRANCH   6  24
BRANCH   6  28
ATOM     28  O   UNL     1       2.654  -0.637  -0.130  0.00  0.00    +0.000 OA
BRANCH  28  30
ATOM     29  O   UNL     1       4.749  -0.648   0.836  0.00  0.00    +0.000 OA
ATOM     30  C   UNL     1       3.883  -1.171   0.148  0.00  0.00    +0.000 C 
BRANCH  30  31
ATOM     31  C   UNL     1       4.004  -2.516  -0.531  0.00  0.00    +0.000 C 
BRANCH  31  32
ATOM     32  C   UNL     1       5.365  -3.161  -0.284  0.00  0.00    +0.000 C 
ATOM     33  C   UNL     1       5.463  -4.527  -0.945  0.00  0.00    +0.000 C 
ENDBRANCH  31  32
ENDBRANCH  30  31
ENDBRANCH  28  30
ENDBRANCH   6  28
TORSDOF 8
