REMARK  Name = 93055
REMARK  13 active torsions:
REMARK  status: ('A' for Active; 'I' for Inactive)
REMARK    1  A    between atoms: O_1  and  C_11
REMARK    2  A    between atoms: O_2  and  C_14
REMARK    3  A    between atoms: O_4  and  C_25
REMARK    4  A    between atoms: O_4  and  C_28
REMARK    5  A    between atoms: C_7  and  C_18
REMARK    6  A    between atoms: C_11  and  C_21
REMARK    7  A    between atoms: C_15  and  C_22
REMARK    8  A    between atoms: C_21  and  C_25
REMARK    9  A    between atoms: C_28  and  C_29
REMARK   10  A    between atoms: C_29  and  C_30
REMARK   11  A    between atoms: C_30  and  C_31
REMARK   12  A    between atoms: C_30  and  C_32
REMARK   13  A    between atoms: C_30  and  C_33
REMARK                            x       y       z     vdW  Elec       q    Type
REMARK                         _______ _______ _______ _____ _____    ______ ____
ROOT
ATOM      1  O   UNL     1       7.386  -2.005  -1.644  0.00  0.00    +0.000 OA
ATOM      2  C   UNL     1      -0.042   1.002   0.210  0.00  0.00    +0.000 C 
ATOM      3  C   UNL     1       1.252   1.777  -0.127  0.00  0.00    +0.000 C 
ATOM      4  C   UNL     1       2.506   1.202   0.548  0.00  0.00    +0.000 C 
ATOM      5  C   UNL     1       2.702  -0.280   0.068  0.00  0.00    +0.000 C 
ATOM      6  C   UNL     1      -1.069   1.875  -0.562  0.00  0.00    +0.000 C 
ATOM      7  C   UNL     1       0.139  -0.443  -0.298  0.00  0.00    +0.000 C 
ATOM      8  C   UNL     1       0.872   3.231   0.138  0.00  0.00    +0.000 C 
ATOM      9  C   UNL     1       1.406  -1.130   0.258  0.00  0.00    +0.000 C 
ATOM     10  C   UNL     1       4.037  -0.916   0.627  0.00  0.00    +0.000 C 
ATOM     11  C   UNL     1      -0.602   3.326  -0.307  0.00  0.00    +0.000 C 
ATOM     12  C   UNL     1       3.738   2.062   0.215  0.00  0.00    +0.000 C 
ATOM     13  C   UNL     1      -0.386   1.013   1.726  0.00  0.00    +0.000 C 
ATOM     14  C   UNL     1       5.029   1.460   0.755  0.00  0.00    +0.000 C 
ATOM     15  C   UNL     1       5.182   0.040   0.273  0.00  0.00    +0.000 C 
ATOM     16  C   UNL     1       4.041  -1.126   2.158  0.00  0.00    +0.000 C 
ATOM     17  C   UNL     1       4.257  -2.290   0.010  0.00  0.00    +0.000 C 
ATOM     18  C   UNL     1       6.250  -0.314  -0.457  0.00  0.00    +0.000 C 
ATOM     19  C   UNL     1       5.318  -2.648  -0.720  0.00  0.00    +0.000 C 
ATOM     20  C   UNL     1       6.399  -1.683  -0.992  0.00  0.00    +0.000 C 
ENDROOT
BRANCH   6  21
ATOM     21  O   UNL     1      -1.029   1.604  -1.960  0.00  0.00    +0.000 OA
ATOM     22  H   UNL     1      -1.503   2.315  -2.426  0.00  0.00    +0.000 HD
ENDBRANCH   6  21
BRANCH   9  23
ATOM     23  O   UNL     1       1.205  -1.465   1.624  0.00  0.00    +0.000 OA
ATOM     24  H   UNL     1       0.418  -2.033   1.678  0.00  0.00    +0.000 HD
ENDBRANCH   9  23
BRANCH   6  26
ATOM     25  O   UNL     1      -3.028   2.278   0.731  0.00  0.00    +0.000 OA
ATOM     26  C   UNL     1      -2.499   1.642  -0.179  0.00  0.00    +0.000 C 
BRANCH  26  27
ATOM     27  C   UNL     1      -3.243   0.589  -0.973  0.00  0.00    +0.000 C 
BRANCH  27  28
ATOM     28  O   UNL     1      -4.577   0.477  -0.524  0.00  0.00    +0.000 OA
BRANCH  28  30
ATOM     29  O   UNL     1      -4.988  -1.171  -2.087  0.00  0.00    +0.000 OA
ATOM     30  C   UNL     1      -5.357  -0.450  -1.169  0.00  0.00    +0.000 C 
BRANCH  30  31
ATOM     31  C   UNL     1      -6.752  -0.476  -0.585  0.00  0.00    +0.000 C 
BRANCH  31  32
ATOM     32  C   UNL     1      -6.963  -1.529   0.525  0.00  0.00    +0.000 C 
ATOM     33  C   UNL     1      -8.441  -1.477   0.959  0.00  0.00    +0.000 C 
ATOM     34  C   UNL     1      -6.083  -1.230   1.749  0.00  0.00    +0.000 C 
ATOM     35  C   UNL     1      -6.656  -2.946   0.011  0.00  0.00    +0.000 C 
ENDBRANCH  31  32
ENDBRANCH  30  31
ENDBRANCH  28  30
ENDBRANCH  27  28
ENDBRANCH  26  27
ENDBRANCH   6  26
TORSDOF 8
