REMARK  Name = 5284538
REMARK  6 active torsions:
REMARK  status: ('A' for Active; 'I' for Inactive)
REMARK    1  A    between atoms: C_5  and  C_16
REMARK    2  A    between atoms: C_8  and  C_19
REMARK    3  A    between atoms: C_14  and  C_22
REMARK    4  A    between atoms: C_19  and  C_25
REMARK    5  A    between atoms: C_20  and  C_26
REMARK    6  A    between atoms: C_20  and  C_27
REMARK                            x       y       z     vdW  Elec       q    Type
REMARK                         _______ _______ _______ _____ _____    ______ ____
ROOT
ATOM      1  O   UNL     1      -2.612  -0.189  -0.920  0.00  0.00    +0.000 OA
ATOM      2  O   UNL     1      -3.461   0.305   1.210  0.00  0.00    +0.000 OA
ATOM      3  O   UNL     1       5.914   2.137  -1.056  0.00  0.00    +0.000 OA
ATOM      4  C   UNL     1      -0.943  -1.809  -0.091  0.00  0.00    +0.000 C 
ATOM      5  C   UNL     1      -0.333  -0.715   0.819  0.00  0.00    +0.000 C 
ATOM      6  C   UNL     1       1.150  -0.947   1.123  0.00  0.00    +0.000 C 
ATOM      7  C   UNL     1      -2.418  -1.343  -0.108  0.00  0.00    +0.000 C 
ATOM      8  C   UNL     1       1.941  -0.943  -0.235  0.00  0.00    +0.000 C 
ATOM      9  C   UNL     1      -1.325  -0.617   1.979  0.00  0.00    +0.000 C 
ATOM     10  C   UNL     1      -2.696  -0.889   1.323  0.00  0.00    +0.000 C 
ATOM     11  C   UNL     1      -0.198  -1.758  -1.434  0.00  0.00    +0.000 C 
ATOM     12  C   UNL     1       1.323  -1.933  -1.256  0.00  0.00    +0.000 C 
ATOM     13  C   UNL     1       3.486  -1.117  -0.006  0.00  0.00    +0.000 C 
ATOM     14  C   UNL     1       1.701   0.109   2.101  0.00  0.00    +0.000 C 
ATOM     15  C   UNL     1      -0.843  -3.238   0.508  0.00  0.00    +0.000 C 
ATOM     16  C   UNL     1       3.892   0.009   0.954  0.00  0.00    +0.000 C 
ATOM     17  C   UNL     1       3.213  -0.011   2.301  0.00  0.00    +0.000 C 
ATOM     18  C   UNL     1      -3.310   0.787  -0.132  0.00  0.00    +0.000 C 
ATOM     19  C   UNL     1       4.319  -1.029  -1.316  0.00  0.00    +0.000 C 
ATOM     20  C   UNL     1       3.824  -2.502   0.603  0.00  0.00    +0.000 C 
ATOM     21  C   UNL     1       4.476   0.386  -1.842  0.00  0.00    +0.000 C 
ATOM     22  C   UNL     1       4.678   1.046   0.621  0.00  0.00    +0.000 C 
ATOM     23  C   UNL     1      -4.708   0.971  -0.722  0.00  0.00    +0.000 C 
ATOM     24  C   UNL     1       5.117   1.243  -0.780  0.00  0.00    +0.000 C 
ENDROOT
BRANCH  18  25
ATOM     25  C   UNL     1      -2.558   2.111  -0.153  0.00  0.00    +0.000 A 
ATOM     26  C   UNL     1      -2.643   2.978   0.936  0.00  0.00    +0.000 A 
ATOM     27  C   UNL     1      -1.786   2.457  -1.262  0.00  0.00    +0.000 A 
ATOM     28  C   UNL     1      -1.956   4.192   0.917  0.00  0.00    +0.000 A 
ATOM     29  C   UNL     1      -1.097   3.670  -1.281  0.00  0.00    +0.000 A 
ATOM     30  C   UNL     1      -1.183   4.538  -0.192  0.00  0.00    +0.000 A 
ENDBRANCH  18  25
BRANCH   7  32
ATOM     31  O   UNL     1      -3.935  -3.171   0.125  0.00  0.00    +0.000 OA
ATOM     32  C   UNL     1      -3.383  -2.367  -0.626  0.00  0.00    +0.000 C 
ATOM     33  C   UNL     1      -3.647  -2.361  -2.107  0.00  0.00    +0.000 C 
ENDBRANCH   7  32
TORSDOF 2
