REMARK  Name = 155143
REMARK  13 active torsions:
REMARK  status: ('A' for Active; 'I' for Inactive)
REMARK    1  A    between atoms: O_1  and  C_11
REMARK    2  A    between atoms: O_1  and  C_23
REMARK    3  A    between atoms: C_5  and  C_16
REMARK    4  A    between atoms: C_8  and  C_19
REMARK    5  A    between atoms: C_23  and  C_24
REMARK    6  A    between atoms: C_24  and  C_25
REMARK    7  A    between atoms: C_25  and  C_26
REMARK    8  A    between atoms: C_26  and  C_27
REMARK    9  A    between atoms: C_27  and  C_28
REMARK   10  A    between atoms: C_28  and  C_29
REMARK   11  A    between atoms: C_29  and  C_30
REMARK   12  A    between atoms: C_30  and  C_31
REMARK   13  A    between atoms: C_31  and  C_32
REMARK                            x       y       z     vdW  Elec       q    Type
REMARK                         _______ _______ _______ _____ _____    ______ ____
ROOT
ATOM      1  O   UNL     1       9.443  -0.787  -1.222  0.00  0.00    +0.000 OA
ATOM      2  C   UNL     1       2.135   1.146  -0.119  0.00  0.00    +0.000 C 
ATOM      3  C   UNL     1       1.151   0.011   0.224  0.00  0.00    +0.000 C 
ATOM      4  C   UNL     1       3.533   0.912   0.463  0.00  0.00    +0.000 C 
ATOM      5  C   UNL     1       4.101  -0.422  -0.116  0.00  0.00    +0.000 C 
ATOM      6  C   UNL     1       5.563  -0.735   0.389  0.00  0.00    +0.000 C 
ATOM      7  C   UNL     1       1.678  -1.282  -0.411  0.00  0.00    +0.000 C 
ATOM      8  C   UNL     1       3.107  -1.603   0.063  0.00  0.00    +0.000 C 
ATOM      9  C   UNL     1      -0.123   0.579  -0.430  0.00  0.00    +0.000 C 
ATOM     10  C   UNL     1       1.371   2.410   0.268  0.00  0.00    +0.000 C 
ATOM     11  C   UNL     1       4.478   2.074   0.134  0.00  0.00    +0.000 C 
ATOM     12  C   UNL     1      -0.094   2.076  -0.068  0.00  0.00    +0.000 C 
ATOM     13  C   UNL     1       6.445   0.506   0.206  0.00  0.00    +0.000 C 
ATOM     14  C   UNL     1       0.924  -0.212   1.741  0.00  0.00    +0.000 C 
ATOM     15  C   UNL     1       5.875   1.821   0.685  0.00  0.00    +0.000 C 
ATOM     16  C   UNL     1       6.127  -1.918  -0.451  0.00  0.00    +0.000 C 
ATOM     17  C   UNL     1       5.586  -1.127   1.884  0.00  0.00    +0.000 C 
ATOM     18  C   UNL     1       7.635  -2.082  -0.337  0.00  0.00    +0.000 C 
ATOM     19  C   UNL     1       7.679   0.479  -0.325  0.00  0.00    +0.000 C 
ATOM     20  C   UNL     1       8.331  -0.797  -0.698  0.00  0.00    +0.000 C 
ENDROOT
BRANCH   9  21
ATOM     21  O   UNL     1      -1.305  -0.049   0.026  0.00  0.00    +0.000 OA
BRANCH  21  23
ATOM     22  O   UNL     1      -2.588   1.376  -1.261  0.00  0.00    +0.000 OA
ATOM     23  C   UNL     1      -2.483   0.448  -0.469  0.00  0.00    +0.000 C 
BRANCH  23  24
ATOM     24  C   UNL     1      -3.658  -0.293   0.114  0.00  0.00    +0.000 C 
BRANCH  24  25
ATOM     25  C   UNL     1      -4.971   0.297  -0.388  0.00  0.00    +0.000 C 
BRANCH  25  26
ATOM     26  C   UNL     1      -6.173  -0.470   0.163  0.00  0.00    +0.000 C 
BRANCH  26  27
ATOM     27  C   UNL     1      -7.488   0.102  -0.367  0.00  0.00    +0.000 C 
BRANCH  27  28
ATOM     28  C   UNL     1      -8.693  -0.645   0.211  0.00  0.00    +0.000 C 
BRANCH  28  29
ATOM     29  C   UNL     1     -10.008  -0.050  -0.297  0.00  0.00    +0.000 C 
BRANCH  29  30
ATOM     30  C   UNL     1     -11.250  -0.741   0.276  0.00  0.00    +0.000 C 
BRANCH  30  31
ATOM     31  C   UNL     1     -12.564  -0.130  -0.212  0.00  0.00    +0.000 C 
ATOM     32  C   UNL     1     -13.764  -0.895   0.327  0.00  0.00    +0.000 C 
ENDBRANCH  30  31
ENDBRANCH  29  30
ENDBRANCH  28  29
ENDBRANCH  27  28
ENDBRANCH  26  27
ENDBRANCH  25  26
ENDBRANCH  24  25
ENDBRANCH  23  24
ENDBRANCH  21  23
ENDBRANCH   9  21
TORSDOF 10
