REMARK  Name = 14743
REMARK  7 active torsions:
REMARK  status: ('A' for Active; 'I' for Inactive)
REMARK    1  A    between atoms: O_1  and  C_11
REMARK    2  A    between atoms: O_1  and  C_23
REMARK    3  A    between atoms: C_5  and  C_16
REMARK    4  A    between atoms: C_8  and  C_19
REMARK    5  A    between atoms: C_23  and  C_24
REMARK    6  A    between atoms: C_24  and  C_25
REMARK    7  A    between atoms: C_25  and  C_26
REMARK                            x       y       z     vdW  Elec       q    Type
REMARK                         _______ _______ _______ _____ _____    ______ ____
ROOT
ATOM      1  O   UNL     1       8.592   0.945   1.046  0.00  0.00    +0.000 OA
ATOM      2  C   UNL     1       1.335  -1.267   0.160  0.00  0.00    +0.000 C 
ATOM      3  C   UNL     1       0.292  -0.167  -0.112  0.00  0.00    +0.000 C 
ATOM      4  C   UNL     1       2.698  -0.957  -0.467  0.00  0.00    +0.000 C 
ATOM      5  C   UNL     1       3.232   0.383   0.131  0.00  0.00    +0.000 C 
ATOM      6  C   UNL     1       4.658   0.773  -0.419  0.00  0.00    +0.000 C 
ATOM      7  C   UNL     1       0.788   1.129   0.542  0.00  0.00    +0.000 C 
ATOM      8  C   UNL     1       2.183   1.525   0.025  0.00  0.00    +0.000 C 
ATOM      9  C   UNL     1      -0.931  -0.806   0.573  0.00  0.00    +0.000 C 
ATOM     10  C   UNL     1       0.609  -2.551  -0.236  0.00  0.00    +0.000 C 
ATOM     11  C   UNL     1       3.703  -2.087  -0.209  0.00  0.00    +0.000 C 
ATOM     12  C   UNL     1      -0.854  -2.291   0.164  0.00  0.00    +0.000 C 
ATOM     13  C   UNL     1       5.598  -0.434  -0.307  0.00  0.00    +0.000 C 
ATOM     14  C   UNL     1      -0.003   0.090  -1.611  0.00  0.00    +0.000 C 
ATOM     15  C   UNL     1       5.066  -1.757  -0.804  0.00  0.00    +0.000 C 
ATOM     16  C   UNL     1       5.205   1.954   0.434  0.00  0.00    +0.000 C 
ATOM     17  C   UNL     1       4.608   1.208  -1.901  0.00  0.00    +0.000 C 
ATOM     18  C   UNL     1       6.699   2.187   0.269  0.00  0.00    +0.000 C 
ATOM     19  C   UNL     1       6.850  -0.369   0.178  0.00  0.00    +0.000 C 
ATOM     20  C   UNL     1       7.462   0.923   0.564  0.00  0.00    +0.000 C 
ENDROOT
BRANCH   9  21
ATOM     21  O   UNL     1      -2.156  -0.217   0.180  0.00  0.00    +0.000 OA
BRANCH  21  23
ATOM     22  O   UNL     1      -3.322  -1.733   1.471  0.00  0.00    +0.000 OA
ATOM     23  C   UNL     1      -3.294  -0.780   0.705  0.00  0.00    +0.000 C 
BRANCH  23  24
ATOM     24  C   UNL     1      -4.507  -0.040   0.189  0.00  0.00    +0.000 C 
BRANCH  24  25
ATOM     25  C   UNL     1      -5.806  -0.603   0.764  0.00  0.00    +0.000 C 
BRANCH  25  26
ATOM     26  C   UNL     1      -7.012   0.141   0.250  0.00  0.00    +0.000 A 
ATOM     27  C   UNL     1      -7.479   1.246   0.946  0.00  0.00    +0.000 A 
ATOM     28  C   UNL     1      -7.636  -0.290  -0.912  0.00  0.00    +0.000 A 
ATOM     29  C   UNL     1      -8.595   1.935   0.470  0.00  0.00    +0.000 A 
ATOM     30  C   UNL     1      -8.752   0.399  -1.387  0.00  0.00    +0.000 A 
ATOM     31  C   UNL     1      -9.231   1.511  -0.696  0.00  0.00    +0.000 A 
ENDBRANCH  25  26
ENDBRANCH  24  25
ENDBRANCH  23  24
ENDBRANCH  21  23
ENDBRANCH   9  21
TORSDOF 5
