REMARK  Name = 445015
REMARK  17 active torsions:
REMARK  status: ('A' for Active; 'I' for Inactive)
REMARK    1  A    between atoms: P_1  and  O_3
REMARK    2  A    between atoms: P_1  and  O_4
REMARK    3  A    between atoms: P_1  and  C_23
REMARK    4  A    between atoms: O_2  and  N_7
REMARK    5  A    between atoms: O_2  and  C_20
REMARK    6  A    between atoms: C_8  and  C_10
REMARK    7  A    between atoms: C_8  and  C_12
REMARK    8  A    between atoms: C_9  and  C_11
REMARK    9  A    between atoms: C_9  and  C_13
REMARK   10  A    between atoms: C_10  and  C_14
REMARK   11  A    between atoms: C_11  and  C_15
REMARK   12  A    between atoms: C_13  and  C_16
REMARK   13  A    between atoms: C_14  and  C_18
REMARK   14  A    between atoms: C_17  and  C_20
REMARK   15  A    between atoms: C_19  and  C_21
REMARK   16  A    between atoms: C_19  and  C_22
REMARK   17  A    between atoms: C_23  and  C_24
REMARK                            x       y       z     vdW  Elec       q    Type
REMARK                         _______ _______ _______ _____ _____    ______ ____
ROOT
ATOM      1  C   UNL     1      -3.585   2.065  -0.161  0.00  0.00    +0.000 C 
ATOM      2  C   UNL     1      -2.440   1.897  -0.850  0.00  0.00    +0.000 C 
ATOM      3  C   UNL     1      -3.627   2.984   1.032  0.00  0.00    +0.000 C 
ENDROOT
BRANCH   1   4
ATOM      4  C   UNL     1      -4.900   1.402  -0.508  0.00  0.00    +0.000 C 
BRANCH   4   5
ATOM      5  C   UNL     1      -5.097   0.083   0.248  0.00  0.00    +0.000 C 
BRANCH   5   7
ATOM      6  C   UNL     1      -3.137  -1.536   0.637  0.00  0.00    +0.000 C 
ATOM      7  C   UNL     1      -4.055  -0.929  -0.141  0.00  0.00    +0.000 C 
ATOM      8  C   UNL     1      -3.078  -1.212   2.109  0.00  0.00    +0.000 C 
BRANCH   6   9
ATOM      9  C   UNL     1      -2.085  -2.510   0.149  0.00  0.00    +0.000 C 
BRANCH   9  10
ATOM     10  C   UNL     1      -0.805  -1.843  -0.375  0.00  0.00    +0.000 C 
BRANCH  10  11
ATOM     11  C   UNL     1       0.157  -2.825  -0.983  0.00  0.00    +0.000 C 
ATOM     12  C   UNL     1       1.161  -3.491  -0.381  0.00  0.00    +0.000 C 
ATOM     13  C   UNL     1       2.088  -4.462  -1.053  0.00  0.00    +0.000 C 
ATOM     14  C   UNL     1       1.437  -3.289   1.085  0.00  0.00    +0.000 C 
ENDBRANCH  10  11
ENDBRANCH   9  10
ENDBRANCH   6   9
ENDBRANCH   5   7
ENDBRANCH   4   5
ENDBRANCH   1   4
BRANCH   2  15
ATOM     15  C   UNL     1      -1.118   2.539  -0.576  0.00  0.00    +0.000 C 
BRANCH  15  16
ATOM     16  O   UNL     1      -0.088   1.641  -0.970  0.00  0.00    +0.000 OA
BRANCH  16  18
ATOM     17  O   UNL     1       2.111   0.162  -0.438  0.00  0.00    +0.000 OA
ATOM     18  N   UNL     1       1.153   2.250  -0.710  0.00  0.00    +0.000 N 
ATOM     19  C   UNL     1       2.180   1.388  -0.411  0.00  0.00    +0.000 C 
ATOM     20  H   UNL     1       1.190   3.262  -0.644  0.00  0.00    +0.000 HD
BRANCH  19  21
ATOM     21  C   UNL     1       3.443   2.120  -0.039  0.00  0.00    +0.000 C 
BRANCH  21  22
ATOM     22  P   UNL     1       4.818   1.036   0.394  0.00  0.00    +0.000 P 
ATOM     23  O   UNL     1       5.224   0.114  -0.704  0.00  0.00    +0.000 OA
BRANCH  22  24
ATOM     24  O   UNL     1       5.940   2.077   0.896  0.00  0.00    +0.000 OA
ATOM     25  H   UNL     1       6.818   1.737   1.171  0.00  0.00    +0.000 HD
ENDBRANCH  22  24
BRANCH  22  26
ATOM     26  O   UNL     1       4.301   0.339   1.750  0.00  0.00    +0.000 OA
ATOM     27  H   UNL     1       4.867  -0.333   2.187  0.00  0.00    +0.000 HD
ENDBRANCH  22  26
ENDBRANCH  21  22
ENDBRANCH  19  21
ENDBRANCH  16  18
ENDBRANCH  15  16
ENDBRANCH   2  15
TORSDOF 13
