REMARK  Name = 735
REMARK  22 active torsions:
REMARK  status: ('A' for Active; 'I' for Inactive)
REMARK    1  A    between atoms: P_1  and  O_3
REMARK    2  A    between atoms: P_1  and  O_4
REMARK    3  A    between atoms: P_1  and  O_5
REMARK    4  A    between atoms: P_2  and  O_4
REMARK    5  A    between atoms: P_2  and  O_7
REMARK    6  A    between atoms: P_2  and  O_8
REMARK    7  A    between atoms: O_3  and  C_27
REMARK    8  A    between atoms: C_10  and  C_11
REMARK    9  A    between atoms: C_10  and  C_12
REMARK   10  A    between atoms: C_11  and  C_17
REMARK   11  A    between atoms: C_12  and  C_21
REMARK   12  A    between atoms: C_13  and  C_16
REMARK   13  A    between atoms: C_13  and  C_18
REMARK   14  A    between atoms: C_14  and  C_15
REMARK   15  A    between atoms: C_14  and  C_22
REMARK   16  A    between atoms: C_15  and  C_19
REMARK   17  A    between atoms: C_16  and  C_20
REMARK   18  A    between atoms: C_19  and  C_23
REMARK   19  A    between atoms: C_20  and  C_25
REMARK   20  A    between atoms: C_24  and  C_27
REMARK   21  A    between atoms: C_26  and  C_28
REMARK   22  A    between atoms: C_26  and  C_29
REMARK                            x       y       z     vdW  Elec       q    Type
REMARK                         _______ _______ _______ _____ _____    ______ ____
ROOT
ATOM      1  C   UNL     1       2.923   3.150  -1.123  0.00  0.00    +0.000 C 
ENDROOT
BRANCH   1   2
ATOM      2  C   UNL     1       1.644   2.540  -0.596  0.00  0.00    +0.000 C 
ATOM      3  C   UNL     1       0.756   1.867  -1.352  0.00  0.00    +0.000 C 
ATOM      4  C   UNL     1       1.391   2.749   0.873  0.00  0.00    +0.000 C 
BRANCH   3   5
ATOM      5  C   UNL     1      -0.534   1.256  -0.906  0.00  0.00    +0.000 C 
BRANCH   5   6
ATOM      6  O   UNL     1      -1.565   2.226  -1.044  0.00  0.00    +0.000 OA
BRANCH   6   7
ATOM      7  P   UNL     1      -3.109   1.754  -1.112  0.00  0.00    +0.000 P 
ATOM      8  O   UNL     1      -4.098   2.874  -1.259  0.00  0.00    +0.000 OA
BRANCH   7   9
ATOM      9  O   UNL     1      -3.149   0.667  -2.310  0.00  0.00    +0.000 OA
ATOM     10  H   UNL     1      -4.019   0.333  -2.618  0.00  0.00    +0.000 HD
ENDBRANCH   7   9
BRANCH   7  11
ATOM     11  O   UNL     1      -3.320   0.853   0.213  0.00  0.00    +0.000 OA
BRANCH  11  12
ATOM     12  P   UNL     1      -3.289   1.248   1.780  0.00  0.00    +0.000 P 
ATOM     13  O   UNL     1      -1.990   1.828   2.254  0.00  0.00    +0.000 OA
BRANCH  12  14
ATOM     14  O   UNL     1      -4.577   2.211   1.947  0.00  0.00    +0.000 OA
ATOM     15  H   UNL     1      -4.732   2.651   2.810  0.00  0.00    +0.000 HD
ENDBRANCH  12  14
BRANCH  12  16
ATOM     16  O   UNL     1      -3.742  -0.120   2.512  0.00  0.00    +0.000 OA
ATOM     17  H   UNL     1      -3.719  -0.165   3.491  0.00  0.00    +0.000 HD
ENDBRANCH  12  16
ENDBRANCH  11  12
ENDBRANCH   7  11
ENDBRANCH   6   7
ENDBRANCH   5   6
ENDBRANCH   3   5
ENDBRANCH   1   2
BRANCH   1  18
ATOM     18  C   UNL     1       4.159   2.624  -0.381  0.00  0.00    +0.000 C 
BRANCH  18  20
ATOM     19  C   UNL     1       4.835   0.237   0.263  0.00  0.00    +0.000 C 
ATOM     20  C   UNL     1       4.323   1.144  -0.593  0.00  0.00    +0.000 C 
ATOM     21  C   UNL     1       5.325   0.676   1.619  0.00  0.00    +0.000 C 
BRANCH  19  22
ATOM     22  C   UNL     1       5.016  -1.235  -0.042  0.00  0.00    +0.000 C 
BRANCH  22  23
ATOM     23  C   UNL     1       4.237  -2.178   0.885  0.00  0.00    +0.000 C 
BRANCH  23  25
ATOM     24  C   UNL     1       1.853  -2.552   0.035  0.00  0.00    +0.000 C 
ATOM     25  C   UNL     1       2.751  -1.948   0.839  0.00  0.00    +0.000 C 
ATOM     26  C   UNL     1       2.306  -3.588  -0.960  0.00  0.00    +0.000 C 
BRANCH  24  27
ATOM     27  C   UNL     1       0.375  -2.228   0.011  0.00  0.00    +0.000 C 
BRANCH  27  28
ATOM     28  C   UNL     1      -0.539  -3.385   0.442  0.00  0.00    +0.000 C 
BRANCH  28  29
ATOM     29  C   UNL     1      -1.992  -3.004   0.491  0.00  0.00    +0.000 C 
ATOM     30  C   UNL     1      -2.931  -3.165  -0.461  0.00  0.00    +0.000 C 
ATOM     31  C   UNL     1      -4.347  -2.715  -0.214  0.00  0.00    +0.000 C 
ATOM     32  C   UNL     1      -2.710  -3.783  -1.812  0.00  0.00    +0.000 C 
ENDBRANCH  28  29
ENDBRANCH  27  28
ENDBRANCH  24  27
ENDBRANCH  23  25
ENDBRANCH  22  23
ENDBRANCH  19  22
ENDBRANCH  18  20
ENDBRANCH   1  18
TORSDOF 17
