REMARK  Name = 
REMARK  26 active torsions:
REMARK  status: ('A' for Active; 'I' for Inactive)
REMARK    1  A    between atoms: C_1  and  C_2
REMARK    2  A    between atoms: C_2  and  C_3
REMARK    3  A    between atoms: C_4  and  C_5
REMARK    4  A    between atoms: C_5  and  C_6
REMARK    5  A    between atoms: C_6  and  C_7
REMARK    6  A    between atoms: C_7  and  C_8
REMARK    7  A    between atoms: C_9  and  C_10
REMARK    8  A    between atoms: C_11  and  C_12
REMARK    9  A    between atoms: C_12  and  C_13
REMARK   10  A    between atoms: C_14  and  C_15
REMARK   11  A    between atoms: C_16  and  C_17
REMARK   12  A    between atoms: C_17  and  C_18
REMARK   13  A    between atoms: C_19  and  C_20
REMARK   14  A    between atoms: C_21  and  C_22
REMARK   15  A    between atoms: C_23  and  C_24
REMARK   16  A    between atoms: C_23  and  C_25
REMARK   17  A    between atoms: C_26  and  C_27
REMARK   18  A    between atoms: C_28  and  C_29
REMARK   19  A    between atoms: C_28  and  C_30
REMARK   20  A    between atoms: C_31  and  C_32
REMARK   21  A    between atoms: C_33  and  C_34
REMARK   22  A    between atoms: C_33  and  C_35
REMARK   23  A    between atoms: C_35  and  C_36
REMARK   24  A    between atoms: C_36  and  C_37
REMARK   25  A    between atoms: C_38  and  C_39
REMARK   26  A    between atoms: C_38  and  C_40
REMARK                            x       y       z     vdW  Elec       q    Type
REMARK                         _______ _______ _______ _____ _____    ______ ____
ROOT
ATOM      1  C   UNL     1       0.758   0.457   0.938  0.00  0.00    +0.000 C 
ATOM      2  C   UNL     1       0.580  -0.841   1.189  0.00  0.00    +0.000 C 
ENDROOT
BRANCH   1   5
ATOM      3  C   UNL     1      -0.811   2.229   0.292  0.00  0.00    +0.000 C 
ATOM      4  C   UNL     1       0.092   2.568  -0.851  0.00  0.00    +0.000 C 
ATOM      5  C   UNL     1      -0.294   1.415   1.214  0.00  0.00    +0.000 C 
BRANCH   3   7
ATOM      6  C   UNL     1      -2.888   1.631  -0.682  0.00  0.00    +0.000 C 
ATOM      7  C   UNL     1      -2.261   2.431   0.179  0.00  0.00    +0.000 C 
BRANCH   6  10
ATOM      8  C   UNL     1      -4.815   3.082  -0.873  0.00  0.00    +0.000 C 
ATOM      9  C   UNL     1      -4.173   3.892   0.200  0.00  0.00    +0.000 C 
ATOM     10  C   UNL     1      -4.214   1.940  -1.188  0.00  0.00    +0.000 C 
BRANCH   8  12
ATOM     11  C   UNL     1      -7.051   2.967   0.121  0.00  0.00    +0.000 C 
ATOM     12  C   UNL     1      -6.281   3.072  -0.937  0.00  0.00    +0.000 C 
BRANCH  11  15
ATOM     13  C   UNL     1      -8.141   1.015   1.052  0.00  0.00    +0.000 C 
ATOM     14  C   UNL     1      -7.176   1.147   2.184  0.00  0.00    +0.000 C 
ATOM     15  C   UNL     1      -8.190   2.043   0.203  0.00  0.00    +0.000 C 
BRANCH  13  16
ATOM     16  C   UNL     1      -8.659  -0.330   0.725  0.00  0.00    +0.000 C 
BRANCH  16  17
ATOM     17  C   UNL     1     -10.120  -0.327   0.356  0.00  0.00    +0.000 C 
BRANCH  17  21
ATOM     18  C   UNL     1     -12.716  -0.894  -0.584  0.00  0.00    +0.000 C 
ATOM     19  C   UNL     1     -11.626  -1.899  -0.745  0.00  0.00    +0.000 C 
ATOM     20  C   UNL     1     -11.887  -3.265  -0.205  0.00  0.00    +0.000 C 
ATOM     21  C   UNL     1     -10.379  -1.438  -0.614  0.00  0.00    +0.000 C 
ENDBRANCH  17  21
ENDBRANCH  16  17
ENDBRANCH  13  16
ENDBRANCH  11  15
ENDBRANCH   8  12
ENDBRANCH   6  10
ENDBRANCH   3   7
ENDBRANCH   1   5
BRANCH   2  22
ATOM     22  C   UNL     1       1.706  -1.715   0.892  0.00  0.00    +0.000 C 
ATOM     23  C   UNL     1       1.590  -2.926   0.380  0.00  0.00    +0.000 C 
ATOM     24  C   UNL     1       0.295  -3.629   0.643  0.00  0.00    +0.000 C 
BRANCH  23  25
ATOM     25  C   UNL     1       2.370  -3.383  -0.777  0.00  0.00    +0.000 C 
ATOM     26  C   UNL     1       3.630  -3.734  -0.719  0.00  0.00    +0.000 C 
BRANCH  26  27
ATOM     27  C   UNL     1       4.675  -3.175  -1.590  0.00  0.00    +0.000 C 
ATOM     28  C   UNL     1       5.740  -2.597  -1.056  0.00  0.00    +0.000 C 
ATOM     29  C   UNL     1       6.320  -3.293   0.136  0.00  0.00    +0.000 C 
BRANCH  28  30
ATOM     30  C   UNL     1       6.246  -1.292  -1.499  0.00  0.00    +0.000 C 
ATOM     31  C   UNL     1       5.861  -0.250  -0.795  0.00  0.00    +0.000 C 
BRANCH  31  32
ATOM     32  C   UNL     1       6.628   0.961  -0.609  0.00  0.00    +0.000 C 
ATOM     33  C   UNL     1       7.474   1.026   0.418  0.00  0.00    +0.000 C 
ATOM     34  C   UNL     1       7.246   0.234   1.655  0.00  0.00    +0.000 C 
BRANCH  33  35
ATOM     35  C   UNL     1       8.259   2.295   0.525  0.00  0.00    +0.000 C 
BRANCH  35  36
ATOM     36  C   UNL     1       9.699   1.961   0.162  0.00  0.00    +0.000 C 
BRANCH  36  37
ATOM     37  C   UNL     1      10.027   0.572   0.586  0.00  0.00    +0.000 C 
ATOM     38  C   UNL     1      10.645  -0.291  -0.230  0.00  0.00    +0.000 C 
ATOM     39  C   UNL     1      10.112  -0.467  -1.610  0.00  0.00    +0.000 C 
ATOM     40  C   UNL     1      11.726  -1.191   0.281  0.00  0.00    +0.000 C 
ENDBRANCH  36  37
ENDBRANCH  35  36
ENDBRANCH  33  35
ENDBRANCH  31  32
ENDBRANCH  28  30
ENDBRANCH  26  27
ENDBRANCH  23  25
ENDBRANCH   2  22
TORSDOF 16
