REMARK  Name = 
REMARK  29 active torsions:
REMARK  status: ('A' for Active; 'I' for Inactive)
REMARK    1  A    between atoms: C_1  and  C_2
REMARK    2  A    between atoms: C_2  and  C_3
REMARK    3  A    between atoms: C_4  and  C_5
REMARK    4  A    between atoms: C_5  and  C_6
REMARK    5  A    between atoms: C_6  and  C_7
REMARK    6  A    between atoms: C_7  and  C_8
REMARK    7  A    between atoms: C_9  and  C_10
REMARK    8  A    between atoms: C_10  and  C_11
REMARK    9  A    between atoms: C_11  and  C_12
REMARK   10  A    between atoms: C_12  and  C_13
REMARK   11  A    between atoms: C_14  and  C_15
REMARK   12  A    between atoms: C_15  and  C_16
REMARK   13  A    between atoms: C_16  and  C_17
REMARK   14  A    between atoms: C_17  and  C_18
REMARK   15  A    between atoms: C_19  and  C_20
REMARK   16  A    between atoms: C_20  and  C_21
REMARK   17  A    between atoms: C_21  and  C_22
REMARK   18  A    between atoms: C_22  and  C_23
REMARK   19  A    between atoms: C_24  and  C_25
REMARK   20  A    between atoms: C_25  and  C_26
REMARK   21  A    between atoms: C_26  and  C_27
REMARK   22  A    between atoms: C_27  and  C_28
REMARK   23  A    between atoms: C_29  and  C_30
REMARK   24  A    between atoms: C_30  and  C_31
REMARK   25  A    between atoms: C_31  and  C_32
REMARK   26  A    between atoms: C_32  and  C_33
REMARK   27  A    between atoms: C_34  and  C_35
REMARK   28  A    between atoms: C_35  and  C_36
REMARK   29  A    between atoms: C_37  and  C_38
REMARK                            x       y       z     vdW  Elec       q    Type
REMARK                         _______ _______ _______ _____ _____    ______ ____
ROOT
ATOM      1  C   UNL     1       0.685   1.433  -0.915  0.00  0.00    +0.000 C 
ATOM      2  C   UNL     1      -0.456   1.850  -1.773  0.00  0.00    +0.000 C 
ATOM      3  C   UNL     1       0.419   0.925   0.272  0.00  0.00    +0.000 C 
ENDROOT
BRANCH   1   4
ATOM      4  C   UNL     1       2.073   1.281  -1.443  0.00  0.00    +0.000 C 
BRANCH   4   5
ATOM      5  C   UNL     1       2.486  -0.165  -1.385  0.00  0.00    +0.000 C 
BRANCH   5   8
ATOM      6  C   UNL     1       4.551  -0.636  -0.259  0.00  0.00    +0.000 C 
ATOM      7  C   UNL     1       4.216   0.277   0.875  0.00  0.00    +0.000 C 
ATOM      8  C   UNL     1       3.952  -0.358  -1.423  0.00  0.00    +0.000 C 
BRANCH   6   9
ATOM      9  C   UNL     1       5.841  -1.358  -0.197  0.00  0.00    +0.000 C 
BRANCH   9  10
ATOM     10  C   UNL     1       5.822  -2.624  -1.038  0.00  0.00    +0.000 C 
BRANCH  10  13
ATOM     11  C   UNL     1       7.792  -1.845  -2.175  0.00  0.00    +0.000 C 
ATOM     12  C   UNL     1       8.676  -2.638  -1.260  0.00  0.00    +0.000 C 
ATOM     13  C   UNL     1       6.544  -2.310  -2.314  0.00  0.00    +0.000 C 
BRANCH  11  14
ATOM     14  C   UNL     1       8.390  -1.152  -3.362  0.00  0.00    +0.000 C 
BRANCH  14  15
ATOM     15  C   UNL     1       9.342  -0.059  -2.964  0.00  0.00    +0.000 C 
BRANCH  15  18
ATOM     16  C   UNL     1       9.577   0.825  -0.699  0.00  0.00    +0.000 C 
ATOM     17  C   UNL     1       8.833   2.045  -1.113  0.00  0.00    +0.000 C 
ATOM     18  C   UNL     1       9.790  -0.164  -1.557  0.00  0.00    +0.000 C 
BRANCH  16  19
ATOM     19  C   UNL     1      10.095   0.688   0.684  0.00  0.00    +0.000 C 
BRANCH  19  20
ATOM     20  C   UNL     1      11.561   1.013   0.785  0.00  0.00    +0.000 C 
BRANCH  20  24
ATOM     21  C   UNL     1      13.490  -0.973   0.070  0.00  0.00    +0.000 C 
ATOM     22  C   UNL     1      13.158   0.114  -0.889  0.00  0.00    +0.000 C 
ATOM     23  C   UNL     1      14.142   0.419  -1.956  0.00  0.00    +0.000 C 
ATOM     24  C   UNL     1      12.251   0.998  -0.523  0.00  0.00    +0.000 C 
ENDBRANCH  20  24
ENDBRANCH  19  20
ENDBRANCH  16  19
ENDBRANCH  15  18
ENDBRANCH  14  15
ENDBRANCH  11  14
ENDBRANCH  10  13
ENDBRANCH   9  10
ENDBRANCH   6   9
ENDBRANCH   5   8
ENDBRANCH   4   5
ENDBRANCH   1   4
BRANCH   3  25
ATOM     25  C   UNL     1      -0.930   0.503   0.723  0.00  0.00    +0.000 C 
BRANCH  25  26
ATOM     26  C   UNL     1      -0.760  -0.872   1.361  0.00  0.00    +0.000 C 
BRANCH  26  27
ATOM     27  C   UNL     1      -1.672  -1.788   0.603  0.00  0.00    +0.000 C 
ATOM     28  C   UNL     1      -1.335  -2.023  -0.839  0.00  0.00    +0.000 C 
ATOM     29  C   UNL     1      -2.909  -2.053   0.972  0.00  0.00    +0.000 C 
BRANCH  29  30
ATOM     30  C   UNL     1      -4.078  -2.010   0.033  0.00  0.00    +0.000 C 
BRANCH  30  31
ATOM     31  C   UNL     1      -4.640  -0.597   0.142  0.00  0.00    +0.000 C 
BRANCH  31  32
ATOM     32  C   UNL     1      -5.162  -0.372   1.526  0.00  0.00    +0.000 C 
ATOM     33  C   UNL     1      -4.338   0.259   2.600  0.00  0.00    +0.000 C 
ATOM     34  C   UNL     1      -6.388  -0.766   1.895  0.00  0.00    +0.000 C 
BRANCH  34  35
ATOM     35  C   UNL     1      -7.208   0.123   2.781  0.00  0.00    +0.000 C 
BRANCH  35  36
ATOM     36  C   UNL     1      -8.455   0.422   2.010  0.00  0.00    +0.000 C 
ATOM     37  C   UNL     1      -8.304   1.014   0.825  0.00  0.00    +0.000 C 
ATOM     38  C   UNL     1      -7.371   2.171   0.787  0.00  0.00    +0.000 C 
ATOM     39  C   UNL     1      -9.433   0.934  -0.111  0.00  0.00    +0.000 C 
ATOM     40  O   UNL     1      -9.323   1.476  -1.230  0.00  0.00    +0.000 OA
ATOM     41  C   UNL     1     -10.679   0.256   0.245  0.00  0.00    +0.000 A 
ATOM     42  C   UNL     1     -11.813   0.307  -0.527  0.00  0.00    +0.000 A 
ATOM     43  C   UNL     1     -13.043   0.368   0.113  0.00  0.00    +0.000 A 
ATOM     44  C   UNL     1     -13.225  -0.135   1.391  0.00  0.00    +0.000 A 
ATOM     45  C   UNL     1     -12.077  -0.463   2.098  0.00  0.00    +0.000 A 
ATOM     46  C   UNL     1     -10.833  -0.247   1.531  0.00  0.00    +0.000 A 
ATOM     47  C   UNL     1      -9.615  -0.428   2.308  0.00  0.00    +0.000 C 
ATOM     48  O   UNL     1      -9.636  -1.158   3.328  0.00  0.00    +0.000 OA
ENDBRANCH  35  36
ENDBRANCH  34  35
ENDBRANCH  31  32
ENDBRANCH  30  31
ENDBRANCH  29  30
ENDBRANCH  26  27
ENDBRANCH  25  26
ENDBRANCH   3  25
TORSDOF 20
