REMARK  Name = 10174045
REMARK  18 active torsions:
REMARK  status: ('A' for Active; 'I' for Inactive)
REMARK    1  A    between atoms: O_2  and  C_17
REMARK    2  A    between atoms: O_2  and  C_27
REMARK    3  A    between atoms: O_3  and  C_18
REMARK    4  A    between atoms: O_5  and  C_34
REMARK    5  A    between atoms: C_7  and  C_14
REMARK    6  A    between atoms: C_7  and  C_15
REMARK    7  A    between atoms: C_11  and  C_16
REMARK    8  A    between atoms: C_21  and  C_22
REMARK    9  A    between atoms: C_22  and  C_23
REMARK   10  A    between atoms: C_22  and  C_24
REMARK   11  A    between atoms: C_22  and  C_25
REMARK   12  A    between atoms: C_23  and  C_26
REMARK   13  A    between atoms: C_26  and  C_28
REMARK   14  A    between atoms: C_27  and  C_29
REMARK   15  A    between atoms: C_28  and  C_30
REMARK   16  A    between atoms: C_30  and  C_31
REMARK   17  A    between atoms: C_31  and  C_33
REMARK   18  A    between atoms: C_32  and  C_34
REMARK                            x       y       z     vdW  Elec       q    Type
REMARK                         _______ _______ _______ _____ _____    ______ ____
ROOT
ATOM      1  C   UNL     1       0.488  -1.177   0.735  0.00  0.00    +0.000 A 
ATOM      2  C   UNL     1       0.153  -0.008   1.418  0.00  0.00    +0.000 A 
ATOM      3  C   UNL     1      -0.469  -2.175   0.551  0.00  0.00    +0.000 A 
ATOM      4  C   UNL     1      -1.138   0.163   1.917  0.00  0.00    +0.000 A 
ATOM      5  C   UNL     1      -1.760  -2.005   1.050  0.00  0.00    +0.000 A 
ATOM      6  C   UNL     1      -2.050  -0.842   1.716  0.00  0.00    +0.000 A 
ENDROOT
BRANCH   1  12
ATOM      7  O   UNL     1       4.750  -3.600   0.351  0.00  0.00    +0.000 OA
ATOM      8  C   UNL     1       3.289  -1.288  -1.968  0.00  0.00    +0.000 C 
ATOM      9  C   UNL     1       1.857  -1.446  -1.356  0.00  0.00    +0.000 C 
ATOM     10  C   UNL     1       3.441  -2.799  -1.620  0.00  0.00    +0.000 C 
ATOM     11  C   UNL     1       1.919  -2.882  -1.973  0.00  0.00    +0.000 C 
ATOM     12  C   UNL     1       1.892  -1.363   0.192  0.00  0.00    +0.000 C 
ATOM     13  C   UNL     1       2.628  -2.571   0.818  0.00  0.00    +0.000 C 
ATOM     14  C   UNL     1       3.748  -3.042  -0.099  0.00  0.00    +0.000 C 
ATOM     15  C   UNL     1       4.248  -0.309  -1.321  0.00  0.00    +0.000 C 
ATOM     16  C   UNL     1       3.292  -0.987  -3.463  0.00  0.00    +0.000 C 
ENDBRANCH   1  12
BRANCH   6  17
ATOM     17  C   UNL     1      -3.475  -0.654   2.268  0.00  0.00    +0.000 C 
ATOM     18  C   UNL     1      -3.741  -1.764   3.317  0.00  0.00    +0.000 C 
ATOM     19  C   UNL     1      -3.690   0.693   3.001  0.00  0.00    +0.000 C 
BRANCH  17  20
ATOM     20  C   UNL     1      -4.545  -0.792   1.137  0.00  0.00    +0.000 C 
BRANCH  20  21
ATOM     21  C   UNL     1      -4.461   0.270   0.029  0.00  0.00    +0.000 C 
BRANCH  21  22
ATOM     22  C   UNL     1      -5.581   0.146  -1.011  0.00  0.00    +0.000 C 
BRANCH  22  23
ATOM     23  C   UNL     1      -5.489   1.185  -2.131  0.00  0.00    +0.000 C 
BRANCH  23  24
ATOM     24  C   UNL     1      -6.623   1.010  -3.142  0.00  0.00    +0.000 C 
ATOM     25  C   UNL     1      -6.520   2.019  -4.275  0.00  0.00    +0.000 C 
ENDBRANCH  23  24
ENDBRANCH  22  23
ENDBRANCH  21  22
ENDBRANCH  20  21
ENDBRANCH  17  20
ENDBRANCH   6  17
BRANCH   3  26
ATOM     26  O   UNL     1      -0.160  -3.324  -0.114  0.00  0.00    +0.000 OA
ATOM     27  H   UNL     1      -0.946  -3.896  -0.144  0.00  0.00    +0.000 HD
ENDBRANCH   3  26
BRANCH   2  28
ATOM     28  O   UNL     1       1.074   0.979   1.606  0.00  0.00    +0.000 OA
BRANCH  28  30
ATOM     29  O   UNL     1       0.400   1.943  -0.416  0.00  0.00    +0.000 OA
ATOM     30  C   UNL     1       1.104   1.932   0.582  0.00  0.00    +0.000 C 
BRANCH  30  31
ATOM     31  C   UNL     1       2.141   2.936   0.912  0.00  0.00    +0.000 C 
ATOM     32  C   UNL     1       2.357   3.956   0.073  0.00  0.00    +0.000 C 
BRANCH  32  34
ATOM     33  O   UNL     1       4.102   4.961   1.394  0.00  0.00    +0.000 OA
ATOM     34  C   UNL     1       3.391   4.955   0.403  0.00  0.00    +0.000 C 
BRANCH  34  35
ATOM     35  O   UNL     1       3.431   5.881  -0.583  0.00  0.00    +0.000 OA
ATOM     36  H   UNL     1       4.106   6.572  -0.411  0.00  0.00    +0.000 HD
ENDBRANCH  34  35
ENDBRANCH  32  34
ENDBRANCH  30  31
ENDBRANCH  28  30
ENDBRANCH   2  28
TORSDOF 13
