REMARK  Name = 5288173
REMARK  12 active torsions:
REMARK  status: ('A' for Active; 'I' for Inactive)
REMARK    1  A    between atoms: N_2  and  C_23
REMARK    2  A    between atoms: C_3  and  C_9
REMARK    3  A    between atoms: C_3  and  C_10
REMARK    4  A    between atoms: C_6  and  C_11
REMARK    5  A    between atoms: C_8  and  C_12
REMARK    6  A    between atoms: C_13  and  C_14
REMARK    7  A    between atoms: C_14  and  C_15
REMARK    8  A    between atoms: C_16  and  C_17
REMARK    9  A    between atoms: C_18  and  C_19
REMARK   10  A    between atoms: C_19  and  C_21
REMARK   11  A    between atoms: C_20  and  C_22
REMARK   12  A    between atoms: C_23  and  C_24
REMARK                            x       y       z     vdW  Elec       q    Type
REMARK                         _______ _______ _______ _____ _____    ______ ____
ROOT
ATOM      1  C   UNL     1      -0.653  -0.966  -0.532  0.00  0.00    +0.000 C 
ATOM      2  C   UNL     1      -0.113  -1.909  -1.582  0.00  0.00    +0.000 C 
ATOM      3  C   UNL     1       0.217  -0.178   0.136  0.00  0.00    +0.000 C 
ENDROOT
BRANCH   1   5
ATOM      4  C   UNL     1      -2.869   0.111  -0.086  0.00  0.00    +0.000 C 
ATOM      5  C   UNL     1      -2.099  -0.966  -0.306  0.00  0.00    +0.000 C 
BRANCH   4   9
ATOM      6  C   UNL     1      -5.147   1.125  -0.567  0.00  0.00    +0.000 C 
ATOM      7  C   UNL     1      -6.611   1.138  -0.046  0.00  0.00    +0.000 C 
ATOM      8  C   UNL     1      -7.192  -0.260   0.070  0.00  0.00    +0.000 C 
ATOM      9  C   UNL     1      -4.304   0.033   0.132  0.00  0.00    +0.000 C 
ATOM     10  C   UNL     1      -6.369  -1.088   1.044  0.00  0.00    +0.000 C 
ATOM     11  C   UNL     1      -4.868  -0.949   0.880  0.00  0.00    +0.000 C 
ATOM     12  C   UNL     1      -4.590   2.546  -0.308  0.00  0.00    +0.000 C 
ATOM     13  C   UNL     1      -5.159   0.872  -2.092  0.00  0.00    +0.000 C 
ATOM     14  C   UNL     1      -4.121  -2.020   1.640  0.00  0.00    +0.000 C 
ENDBRANCH   4   9
ENDBRANCH   1   5
BRANCH   3  15
ATOM     15  C   UNL     1       1.658  -0.101  -0.011  0.00  0.00    +0.000 C 
ATOM     16  C   UNL     1       2.417   0.732   0.720  0.00  0.00    +0.000 C 
BRANCH  16  17
ATOM     17  C   UNL     1       3.859   0.858   0.580  0.00  0.00    +0.000 C 
ATOM     18  C   UNL     1       4.729  -0.151   0.381  0.00  0.00    +0.000 C 
ATOM     19  C   UNL     1       4.351   2.278   0.691  0.00  0.00    +0.000 C 
BRANCH  18  22
ATOM     20  O   UNL     1       6.849   0.871   0.806  0.00  0.00    +0.000 OA
ATOM     21  N   UNL     1       6.734  -0.966  -0.611  0.00  0.00    +0.000 N 
ATOM     22  C   UNL     1       6.209  -0.008   0.239  0.00  0.00    +0.000 C 
ATOM     23  H   UNL     1       6.118  -1.650  -1.042  0.00  0.00    +0.000 HD
BRANCH  21  24
ATOM     24  C   UNL     1       8.140  -1.044  -0.939  0.00  0.00    +0.000 C 
ATOM     25  C   UNL     1       8.933   0.041  -0.239  0.00  0.00    +0.000 C 
ENDBRANCH  21  24
ENDBRANCH  18  22
ENDBRANCH  16  17
ENDBRANCH   3  15
TORSDOF 6
