REMARK  Name = 6438583
REMARK  12 active torsions:
REMARK  status: ('A' for Active; 'I' for Inactive)
REMARK    1  A    between atoms: O_1  and  C_8
REMARK    2  A    between atoms: O_2  and  C_23
REMARK    3  A    between atoms: C_4  and  C_10
REMARK    4  A    between atoms: C_5  and  C_11
REMARK    5  A    between atoms: C_6  and  C_12
REMARK    6  A    between atoms: C_7  and  C_13
REMARK    7  A    between atoms: C_14  and  C_15
REMARK    8  A    between atoms: C_15  and  C_16
REMARK    9  A    between atoms: C_17  and  C_18
REMARK   10  A    between atoms: C_19  and  C_20
REMARK   11  A    between atoms: C_20  and  C_21
REMARK   12  A    between atoms: C_22  and  C_23
REMARK                            x       y       z     vdW  Elec       q    Type
REMARK                         _______ _______ _______ _____ _____    ______ ____
ROOT
ATOM      1  C   UNL     1      -2.059   0.238   0.940  0.00  0.00    +0.000 C 
ATOM      2  C   UNL     1      -0.910   0.167   0.247  0.00  0.00    +0.000 C 
ENDROOT
BRANCH   1   4
ATOM      3  C   UNL     1      -4.065  -0.982   0.159  0.00  0.00    +0.000 A 
ATOM      4  C   UNL     1      -3.405   0.226   0.341  0.00  0.00    +0.000 A 
ATOM      5  C   UNL     1      -5.339  -0.991  -0.408  0.00  0.00    +0.000 A 
ATOM      6  C   UNL     1      -3.995   1.425  -0.035  0.00  0.00    +0.000 A 
ATOM      7  C   UNL     1      -5.941   0.208  -0.789  0.00  0.00    +0.000 A 
ATOM      8  C   UNL     1      -5.269   1.417  -0.602  0.00  0.00    +0.000 A 
ATOM      9  C   UNL     1      -3.430  -2.277   0.564  0.00  0.00    +0.000 C 
ATOM     10  C   UNL     1      -6.068  -2.281  -0.613  0.00  0.00    +0.000 C 
ATOM     11  C   UNL     1      -3.308   2.741   0.147  0.00  0.00    +0.000 C 
BRANCH   7  12
ATOM     12  O   UNL     1      -7.186   0.220  -1.345  0.00  0.00    +0.000 OA
ATOM     13  H   UNL     1      -7.438   1.138  -1.543  0.00  0.00    +0.000 HD
ENDBRANCH   7  12
ENDBRANCH   1   4
BRANCH   2  14
ATOM     14  C   UNL     1       0.424   0.170   0.845  0.00  0.00    +0.000 C 
ATOM     15  C   UNL     1       0.391   0.216   2.350  0.00  0.00    +0.000 C 
ATOM     16  C   UNL     1       1.532   0.095   0.079  0.00  0.00    +0.000 C 
BRANCH  16  17
ATOM     17  C   UNL     1       2.910   0.064   0.530  0.00  0.00    +0.000 C 
ATOM     18  C   UNL     1       3.948  -0.012  -0.321  0.00  0.00    +0.000 C 
BRANCH  18  19
ATOM     19  C   UNL     1       5.372  -0.055   0.030  0.00  0.00    +0.000 C 
ATOM     20  C   UNL     1       5.725   0.017   1.494  0.00  0.00    +0.000 C 
ATOM     21  C   UNL     1       6.268  -0.132  -0.975  0.00  0.00    +0.000 C 
BRANCH  21  23
ATOM     22  O   UNL     1       8.365  -0.640   0.117  0.00  0.00    +0.000 OA
ATOM     23  C   UNL     1       7.739  -0.184  -0.823  0.00  0.00    +0.000 C 
BRANCH  23  24
ATOM     24  O   UNL     1       8.301   0.347  -1.935  0.00  0.00    +0.000 OA
ATOM     25  H   UNL     1       9.281   0.331  -1.894  0.00  0.00    +0.000 HD
ENDBRANCH  23  24
ENDBRANCH  21  23
ENDBRANCH  18  19
ENDBRANCH  16  17
ENDBRANCH   2  14
TORSDOF 7
