REMARK  Name = 6434217
REMARK  5 active torsions:
REMARK  status: ('A' for Active; 'I' for Inactive)
REMARK    1  A    between atoms: C_2  and  C_9
REMARK    2  A    between atoms: C_2  and  C_10
REMARK    3  A    between atoms: C_3  and  C_11
REMARK    4  A    between atoms: C_12  and  C_13
REMARK    5  A    between atoms: C_18  and  C_19
REMARK                            x       y       z     vdW  Elec       q    Type
REMARK                         _______ _______ _______ _____ _____    ______ ____
ROOT
ATOM      1  O   UNL     1      -2.306   2.328  -0.729  0.00  0.00    +0.000 OA
ATOM      2  C   UNL     1      -2.231  -1.147  -0.299  0.00  0.00    +0.000 C 
ATOM      3  C   UNL     1      -3.012   0.129   0.145  0.00  0.00    +0.000 C 
ATOM      4  C   UNL     1      -0.936  -0.724   0.455  0.00  0.00    +0.000 C 
ATOM      5  C   UNL     1      -2.857   0.122   1.688  0.00  0.00    +0.000 C 
ATOM      6  C   UNL     1      -1.441  -0.479   1.897  0.00  0.00    +0.000 C 
ATOM      7  C   UNL     1      -0.665   0.649  -0.127  0.00  0.00    +0.000 C 
ATOM      8  C   UNL     1      -2.039   1.214  -0.317  0.00  0.00    +0.000 C 
ATOM      9  C   UNL     1      -2.052  -1.297  -1.827  0.00  0.00    +0.000 C 
ATOM     10  C   UNL     1      -2.830  -2.478   0.201  0.00  0.00    +0.000 C 
ATOM     11  C   UNL     1      -4.426   0.300  -0.355  0.00  0.00    +0.000 C 
ATOM     12  C   UNL     1       0.478   1.248  -0.453  0.00  0.00    +0.000 C 
ENDROOT
BRANCH  12  13
ATOM     13  C   UNL     1       1.833   0.693  -0.266  0.00  0.00    +0.000 A 
ATOM     14  C   UNL     1       2.514   0.955   0.909  0.00  0.00    +0.000 A 
ATOM     15  C   UNL     1       2.391  -0.078  -1.271  0.00  0.00    +0.000 A 
ATOM     16  C   UNL     1       3.794   0.430   1.086  0.00  0.00    +0.000 A 
ATOM     17  C   UNL     1       3.671  -0.603  -1.094  0.00  0.00    +0.000 A 
ATOM     18  C   UNL     1       4.373  -0.349   0.084  0.00  0.00    +0.000 A 
ATOM     19  C   UNL     1       5.741  -0.911   0.274  0.00  0.00    +0.000 C 
ENDBRANCH  12  13
TORSDOF 1
