REMARK  Name = 1711973
REMARK  18 active torsions:
REMARK  status: ('A' for Active; 'I' for Inactive)
REMARK    1  A    between atoms: O_1  and  C_7
REMARK    2  A    between atoms: O_1  and  C_14
REMARK    3  A    between atoms: O_2  and  C_19
REMARK    4  A    between atoms: O_2  and  C_20
REMARK    5  A    between atoms: C_4  and  C_5
REMARK    6  A    between atoms: C_4  and  C_6
REMARK    7  A    between atoms: C_5  and  C_7
REMARK    8  A    between atoms: C_6  and  C_8
REMARK    9  A    between atoms: C_7  and  C_10
REMARK   10  A    between atoms: C_7  and  C_11
REMARK   11  A    between atoms: C_8  and  C_9
REMARK   12  A    between atoms: C_8  and  C_12
REMARK   13  A    between atoms: C_9  and  C_13
REMARK   14  A    between atoms: C_15  and  C_16
REMARK   15  A    between atoms: C_16  and  C_17
REMARK   16  A    between atoms: C_18  and  C_19
REMARK   17  A    between atoms: C_20  and  C_21
REMARK   18  A    between atoms: C_20  and  C_22
REMARK                            x       y       z     vdW  Elec       q    Type
REMARK                         _______ _______ _______ _____ _____    ______ ____
ROOT
ATOM      1  C   UNL     1      -1.067   2.393   1.097  0.00  0.00    +0.000 C 
ENDROOT
BRANCH   1   2
ATOM      2  C   UNL     1      -2.090   2.884   0.051  0.00  0.00    +0.000 C 
ATOM      3  C   UNL     1      -1.481   3.940  -0.878  0.00  0.00    +0.000 C 
BRANCH   2   4
ATOM      4  C   UNL     1      -2.731   1.760  -0.789  0.00  0.00    +0.000 C 
BRANCH   4   5
ATOM      5  C   UNL     1      -3.352   0.639   0.052  0.00  0.00    +0.000 C 
BRANCH   5   6
ATOM      6  C   UNL     1      -3.952  -0.454  -0.846  0.00  0.00    +0.000 C 
BRANCH   6   7
ATOM      7  C   UNL     1      -4.620  -1.613  -0.078  0.00  0.00    +0.000 C 
ATOM      8  C   UNL     1      -3.590  -2.307   0.818  0.00  0.00    +0.000 C 
ATOM      9  C   UNL     1      -5.264  -2.638  -1.012  0.00  0.00    +0.000 C 
BRANCH   7  10
ATOM     10  O   UNL     1      -5.652  -1.093   0.763  0.00  0.00    +0.000 OA
ATOM     11  C   UNL     1      -6.650  -0.431   0.003  0.00  0.00    +0.000 C 
ENDBRANCH   7  10
ENDBRANCH   6   7
ENDBRANCH   5   6
ENDBRANCH   4   5
ENDBRANCH   2   4
ENDBRANCH   1   2
BRANCH   1  12
ATOM     12  C   UNL     1       0.137   1.677   0.546  0.00  0.00    +0.000 C 
ATOM     13  C   UNL     1       0.511   0.447   0.930  0.00  0.00    +0.000 C 
BRANCH  13  14
ATOM     14  C   UNL     1       1.668  -0.269   0.416  0.00  0.00    +0.000 C 
ATOM     15  C   UNL     1       1.402  -1.735   0.185  0.00  0.00    +0.000 C 
ATOM     16  C   UNL     1       2.880   0.247   0.139  0.00  0.00    +0.000 C 
BRANCH  16  18
ATOM     17  O   UNL     1       3.990  -1.493  -1.101  0.00  0.00    +0.000 OA
ATOM     18  C   UNL     1       4.043  -0.507  -0.386  0.00  0.00    +0.000 C 
BRANCH  18  19
ATOM     19  O   UNL     1       5.167   0.094   0.092  0.00  0.00    +0.000 OA
BRANCH  19  20
ATOM     20  C   UNL     1       6.402  -0.513  -0.302  0.00  0.00    +0.000 C 
ATOM     21  C   UNL     1       7.475   0.560  -0.408  0.00  0.00    +0.000 C 
ATOM     22  C   UNL     1       6.774  -1.589   0.706  0.00  0.00    +0.000 C 
ENDBRANCH  19  20
ENDBRANCH  18  19
ENDBRANCH  16  18
ENDBRANCH  13  14
ENDBRANCH   1  12
TORSDOF 11
