REMARK  Name = 10245972
REMARK  13 active torsions:
REMARK  status: ('A' for Active; 'I' for Inactive)
REMARK    1  A    between atoms: O_1  and  C_22
REMARK    2  A    between atoms: O_1  and  C_23
REMARK    3  A    between atoms: C_3  and  C_9
REMARK    4  A    between atoms: C_3  and  C_10
REMARK    5  A    between atoms: C_6  and  C_11
REMARK    6  A    between atoms: C_8  and  C_12
REMARK    7  A    between atoms: C_13  and  C_14
REMARK    8  A    between atoms: C_14  and  C_15
REMARK    9  A    between atoms: C_16  and  C_17
REMARK   10  A    between atoms: C_18  and  C_19
REMARK   11  A    between atoms: C_19  and  C_21
REMARK   12  A    between atoms: C_20  and  C_22
REMARK   13  A    between atoms: C_23  and  C_24
REMARK                            x       y       z     vdW  Elec       q    Type
REMARK                         _______ _______ _______ _____ _____    ______ ____
ROOT
ATOM      1  C   UNL     1      -1.276   2.503   0.285  0.00  0.00    +0.000 C 
ATOM      2  C   UNL     1      -2.092   3.749   0.520  0.00  0.00    +0.000 C 
ATOM      3  C   UNL     1       0.065   2.482   0.126  0.00  0.00    +0.000 C 
ENDROOT
BRANCH   1   5
ATOM      4  C   UNL     1      -3.325   1.052   0.361  0.00  0.00    +0.000 C 
ATOM      5  C   UNL     1      -2.001   1.229   0.226  0.00  0.00    +0.000 C 
BRANCH   4   9
ATOM      6  C   UNL     1      -5.301  -0.297  -0.490  0.00  0.00    +0.000 C 
ATOM      7  C   UNL     1      -6.046  -1.642  -0.267  0.00  0.00    +0.000 C 
ATOM      8  C   UNL     1      -5.115  -2.837  -0.359  0.00  0.00    +0.000 C 
ATOM      9  C   UNL     1      -3.964  -0.251   0.287  0.00  0.00    +0.000 C 
ATOM     10  C   UNL     1      -4.029  -2.736   0.702  0.00  0.00    +0.000 C 
ATOM     11  C   UNL     1      -3.413  -1.359   0.845  0.00  0.00    +0.000 C 
ATOM     12  C   UNL     1      -6.278   0.813  -0.035  0.00  0.00    +0.000 C 
ATOM     13  C   UNL     1      -5.026  -0.120  -2.001  0.00  0.00    +0.000 C 
ATOM     14  C   UNL     1      -2.143  -1.396   1.665  0.00  0.00    +0.000 C 
ENDBRANCH   4   9
ENDBRANCH   1   5
BRANCH   3  15
ATOM     15  C   UNL     1       0.915   1.329  -0.104  0.00  0.00    +0.000 C 
ATOM     16  C   UNL     1       2.248   1.430  -0.248  0.00  0.00    +0.000 C 
BRANCH  16  17
ATOM     17  C   UNL     1       3.192   0.333  -0.483  0.00  0.00    +0.000 C 
ATOM     18  C   UNL     1       4.503   0.626  -0.603  0.00  0.00    +0.000 C 
ATOM     19  C   UNL     1       2.628  -1.061  -0.578  0.00  0.00    +0.000 C 
BRANCH  18  20
ATOM     20  C   UNL     1       5.651  -0.306  -0.841  0.00  0.00    +0.000 C 
BRANCH  20  21
ATOM     21  O   UNL     1       6.580  -0.158   0.226  0.00  0.00    +0.000 OA
BRANCH  21  23
ATOM     22  O   UNL     1       7.954  -1.752  -0.728  0.00  0.00    +0.000 OA
ATOM     23  C   UNL     1       7.695  -0.947   0.156  0.00  0.00    +0.000 C 
ATOM     24  C   UNL     1       8.578  -0.684   1.338  0.00  0.00    +0.000 C 
ENDBRANCH  21  23
ENDBRANCH  20  21
ENDBRANCH  18  20
ENDBRANCH  16  17
ENDBRANCH   3  15
TORSDOF 7
