REMARK  Name = 
REMARK  43 active torsions:
REMARK  status: ('A' for Active; 'I' for Inactive)
REMARK    1  A    between atoms: C_3  and  C_8
REMARK    2  A    between atoms: C_5  and  C_6
REMARK    3  A    between atoms: C_6  and  N_7
REMARK    4  A    between atoms: C_6  and  C_25
REMARK    5  A    between atoms: N_9  and  C_10
REMARK    6  A    between atoms: C_10  and  C_11
REMARK    7  A    between atoms: C_10  and  C_35
REMARK    8  A    between atoms: N_12  and  C_13
REMARK    9  A    between atoms: C_13  and  C_14
REMARK   10  A    between atoms: C_13  and  C_39
REMARK   11  A    between atoms: N_15  and  C_16
REMARK   12  A    between atoms: C_16  and  C_17
REMARK   13  A    between atoms: C_16  and  C_44
REMARK   14  A    between atoms: N_18  and  C_19
REMARK   15  A    between atoms: C_22  and  C_49
REMARK   16  A    between atoms: C_25  and  C_26
REMARK   17  A    between atoms: C_25  and  C_27
REMARK   18  A    between atoms: C_27  and  C_28
REMARK   19  A    between atoms: C_35  and  C_36
REMARK   20  A    between atoms: C_36  and  C_37
REMARK   21  A    between atoms: C_36  and  C_38
REMARK   22  A    between atoms: C_39  and  C_40
REMARK   23  A    between atoms: C_40  and  C_41
REMARK   24  A    between atoms: C_41  and  O_42
REMARK   25  A    between atoms: C_44  and  C_45
REMARK   26  A    between atoms: C_44  and  C_46
REMARK   27  A    between atoms: C_45  and  C_47
REMARK   28  A    between atoms: C_49  and  C_67
REMARK   29  A    between atoms: C_50  and  C_70
REMARK   30  A    between atoms: C_54  and  C_74
REMARK   31  A    between atoms: C_58  and  C_81
REMARK   32  A    between atoms: C_62  and  C_96
REMARK   33  A    between atoms: C_67  and  C_68
REMARK   34  A    between atoms: C_68  and  N_69
REMARK   35  A    between atoms: C_70  and  C_71
REMARK   36  A    between atoms: C_70  and  C_72
REMARK   37  A    between atoms: C_72  and  C_73
REMARK   38  A    between atoms: C_74  and  C_75
REMARK   39  A    between atoms: C_81  and  C_82
REMARK   40  A    between atoms: C_87  and  C_91
REMARK   41  A    between atoms: C_91  and  C_92
REMARK   42  A    between atoms: C_96  and  C_98
REMARK   43  A    between atoms: C_98  and  O_100
REMARK                            x       y       z     vdW  Elec       q    Type
REMARK                         _______ _______ _______ _____ _____    ______ ____
ROOT
ATOM      1  C   UNL     1       1.742   1.877   0.000  0.00  0.00    +0.000 C 
ATOM      2  C   UNL     1       2.443   2.289   0.000  0.00  0.00    +0.000 C 
ATOM      3  N   UNL     1       3.144   1.877   0.000  0.00  0.00    +0.000 N 
ATOM      4  C   UNL     1       3.887   2.289   0.000  0.00  0.00    +0.000 C 
ATOM      5  C   UNL     1       4.588   1.877   0.000  0.00  0.00    +0.000 C 
ATOM      6  N   UNL     1       5.289   2.289   0.000  0.00  0.00    +0.000 N 
ATOM      7  O   UNL     1       2.443   3.115   0.000  0.00  0.00    +0.000 OA
ATOM      8  O   UNL     1       4.588   1.052   0.000  0.00  0.00    +0.000 OA
ATOM      9  C   UNL     1       1.742   1.052   0.000  0.00  0.00    +0.000 C 
ATOM     10  C   UNL     1       5.991   1.877   0.000  0.00  0.00    +0.000 C 
ATOM     11  C   UNL     1       5.991   0.639   0.000  0.00  0.00    +0.000 C 
ATOM     12  O   UNL     1       5.289   0.227   0.000  0.00  0.00    +0.000 OA
ATOM     13  N   UNL     1       6.733   0.227   0.000  0.00  0.00    +0.000 N 
ATOM     14  C   UNL     1       6.733  -0.887   0.000  0.00  0.00    +0.000 C 
ATOM     15  C   UNL     1       5.991  -1.299   0.000  0.00  0.00    +0.000 C 
ATOM     16  N   UNL     1       5.991  -2.124   0.000  0.00  0.00    +0.000 N 
ATOM     17  O   UNL     1       5.289  -0.887   0.000  0.00  0.00    +0.000 OA
ATOM     18  C   UNL     1       5.289  -2.537   0.000  0.00  0.00    +0.000 C 
ATOM     19  C   UNL     1       4.588  -2.124   0.000  0.00  0.00    +0.000 C 
ATOM     20  N   UNL     1       3.845  -2.537   0.000  0.00  0.00    +0.000 N 
ATOM     21  O   UNL     1       4.588  -1.299   0.000  0.00  0.00    +0.000 OA
ATOM     22  C   UNL     1       3.131  -2.124   0.000  0.00  0.00    +0.000 C 
ATOM     23  C   UNL     1       2.417  -2.537   0.000  0.00  0.00    +0.000 C 
ATOM     24  N   UNL     1       1.702  -2.124   0.000  0.00  0.00    +0.000 N 
ATOM     25  O   UNL     1       2.417  -3.362   0.000  0.00  0.00    +0.000 OA
ATOM     26  C   UNL     1       1.027   0.639   0.000  0.00  0.00    +0.000 C 
ATOM     27  C   UNL     1       0.988  -2.537   0.000  0.00  0.00    +0.000 C 
ATOM     28  C   UNL     1       0.273  -2.124   0.000  0.00  0.00    +0.000 C 
ATOM     29  N   UNL     1       0.273  -1.299   0.000  0.00  0.00    +0.000 N 
ATOM     30  O   UNL     1      -0.441  -2.537   0.000  0.00  0.00    +0.000 OA
ATOM     31  C   UNL     1       1.027  -0.185   0.000  0.00  0.00    +0.000 C 
ATOM     32  C   UNL     1       0.313  -0.598   0.000  0.00  0.00    +0.000 C 
ATOM     33  H   UNL     1       3.132   0.892   0.000  0.00  0.00    +0.000 HD
ATOM     34  H   UNL     1       5.289   3.274   0.000  0.00  0.00    +0.000 HD
ATOM     35  H   UNL     1       7.582   0.726   0.000  0.00  0.00    +0.000 HD
ATOM     36  H   UNL     1       6.845  -2.613   0.000  0.00  0.00    +0.000 HD
ATOM     37  H   UNL     1       3.837  -3.521   0.000  0.00  0.00    +0.000 HD
ATOM     38  H   UNL     1       1.702  -1.140   0.000  0.00  0.00    +0.000 HD
ATOM     39  H   UNL     1      -0.711  -1.272   0.000  0.00  0.00    +0.000 HD
ENDROOT
BRANCH   1  41
ATOM     40  C   UNL     1       0.298   1.877   0.000  0.00  0.00    +0.000 C 
ATOM     41  N   UNL     1       1.040   2.289   0.000  0.00  0.00    +0.000 N 
ATOM     42  O   UNL     1       0.298   1.052   0.000  0.00  0.00    +0.000 OA
ATOM     43  H   UNL     1       1.053   3.274   0.000  0.00  0.00    +0.000 HD
BRANCH  40  44
ATOM     44  C   UNL     1      -0.403   2.289   0.000  0.00  0.00    +0.000 C 
BRANCH  44  46
ATOM     45  C   UNL     1      -1.847   2.289   0.000  0.00  0.00    +0.000 C 
ATOM     46  N   UNL     1      -1.105   1.877   0.000  0.00  0.00    +0.000 N 
ATOM     47  O   UNL     1      -1.847   3.115   0.000  0.00  0.00    +0.000 OA
ATOM     48  H   UNL     1      -1.092   0.892   0.000  0.00  0.00    +0.000 HD
BRANCH  45  49
ATOM     49  C   UNL     1      -2.548   1.877   0.000  0.00  0.00    +0.000 C 
BRANCH  49  51
ATOM     50  C   UNL     1      -3.992   1.877   0.000  0.00  0.00    +0.000 C 
ATOM     51  N   UNL     1      -3.249   2.289   0.000  0.00  0.00    +0.000 N 
ATOM     52  O   UNL     1      -3.992   1.052   0.000  0.00  0.00    +0.000 OA
ATOM     53  H   UNL     1      -3.237   3.274   0.000  0.00  0.00    +0.000 HD
BRANCH  50  54
ATOM     54  C   UNL     1      -4.693   2.289   0.000  0.00  0.00    +0.000 C 
BRANCH  54  56
ATOM     55  C   UNL     1      -6.137   2.289   0.000  0.00  0.00    +0.000 C 
ATOM     56  N   UNL     1      -5.395   1.877   0.000  0.00  0.00    +0.000 N 
ATOM     57  O   UNL     1      -6.137   3.115   0.000  0.00  0.00    +0.000 OA
ATOM     58  H   UNL     1      -5.382   0.892   0.000  0.00  0.00    +0.000 HD
BRANCH  55  61
ATOM     59  S   UNL     1      -7.911   1.093   0.000  0.00  0.00    +0.000 S 
ATOM     60  C   UNL     1      -7.086   1.093   0.000  0.00  0.00    +0.000 C 
ATOM     61  C   UNL     1      -6.838   1.877   0.000  0.00  0.00    +0.000 C 
ATOM     62  N   UNL     1      -7.498   2.372   0.000  0.00  0.00    +0.000 NA
ATOM     63  C   UNL     1      -8.158   1.877   0.000  0.00  0.00    +0.000 C 
BRANCH  63  64
ATOM     64  C   UNL     1      -8.860   2.289   0.000  0.00  0.00    +0.000 C 
BRANCH  64  65
ATOM     65  N   UNL     1      -9.602   1.877   0.000  0.00  0.00    +0.000 NA
ATOM     66  H   UNL     1     -10.477   2.401   0.000  0.00  0.00    +0.000 HD
ATOM     67  H   UNL     1      -9.619   0.857   0.000  0.00  0.00    +0.000 HD
ENDBRANCH  64  65
BRANCH  64  68
ATOM     68  C   UNL     1      -8.860   3.115   0.000  0.00  0.00    +0.000 C 
ATOM     69  C   UNL     1      -8.158   3.527   0.000  0.00  0.00    +0.000 C 
BRANCH  68  70
ATOM     70  C   UNL     1      -9.561   3.527   0.000  0.00  0.00    +0.000 C 
ATOM     71  C   UNL     1      -9.561   4.352   0.000  0.00  0.00    +0.000 C 
ENDBRANCH  68  70
ENDBRANCH  64  68
ENDBRANCH  63  64
ENDBRANCH  55  61
ENDBRANCH  54  56
BRANCH  54  72
ATOM     72  C   UNL     1      -4.776   3.445   0.000  0.00  0.00    +0.000 C 
BRANCH  72  73
ATOM     73  C   UNL     1      -4.075   3.857   0.000  0.00  0.00    +0.000 C 
ATOM     74  C   UNL     1      -3.373   3.445   0.000  0.00  0.00    +0.000 C 
ATOM     75  C   UNL     1      -4.075   4.682   0.000  0.00  0.00    +0.000 C 
ENDBRANCH  72  73
ENDBRANCH  54  72
ENDBRANCH  50  54
ENDBRANCH  49  51
BRANCH  49  76
ATOM     76  C   UNL     1      -2.548   1.052   0.000  0.00  0.00    +0.000 C 
BRANCH  76  77
ATOM     77  C   UNL     1      -3.249   0.639   0.000  0.00  0.00    +0.000 C 
BRANCH  77  78
ATOM     78  C   UNL     1      -3.249  -0.185   0.000  0.00  0.00    +0.000 C 
ATOM     79  O   UNL     1      -2.548  -0.598   0.000  0.00  0.00    +0.000 OA
BRANCH  78  80
ATOM     80  O   UNL     1      -3.992  -0.598   0.000  0.00  0.00    +0.000 OA
ATOM     81  H   UNL     1      -4.796  -0.116   0.000  0.00  0.00    +0.000 HD
ENDBRANCH  78  80
ENDBRANCH  77  78
ENDBRANCH  76  77
ENDBRANCH  49  76
ENDBRANCH  45  49
ENDBRANCH  44  46
BRANCH  44  82
ATOM     82  C   UNL     1      -0.403   3.115   0.000  0.00  0.00    +0.000 C 
ATOM     83  C   UNL     1       0.298   3.527   0.000  0.00  0.00    +0.000 C 
BRANCH  82  84
ATOM     84  C   UNL     1      -1.105   3.527   0.000  0.00  0.00    +0.000 C 
ATOM     85  C   UNL     1      -1.105   4.352   0.000  0.00  0.00    +0.000 C 
ENDBRANCH  82  84
ENDBRANCH  44  82
ENDBRANCH  40  44
ENDBRANCH   1  41
BRANCH  10  86
ATOM     86  C   UNL     1       6.705   2.289   0.000  0.00  0.00    +0.000 C 
ATOM     87  C   UNL     1       7.410   1.883   0.000  0.00  0.00    +0.000 C 
BRANCH  86  88
ATOM     88  C   UNL     1       6.705   3.114   0.000  0.00  0.00    +0.000 C 
ATOM     89  C   UNL     1       7.420   3.527   0.000  0.00  0.00    +0.000 C 
ENDBRANCH  86  88
ENDBRANCH  10  86
BRANCH   4  90
ATOM     90  C   UNL     1       3.887   3.115   0.000  0.00  0.00    +0.000 C 
BRANCH  90  91
ATOM     91  C   UNL     1       4.601   3.527   0.000  0.00  0.00    +0.000 C 
BRANCH  91  92
ATOM     92  C   UNL     1       4.601   4.352   0.000  0.00  0.00    +0.000 C 
BRANCH  92  93
ATOM     93  N   UNL     1       3.887   4.764   0.000  0.00  0.00    +0.000 NA
ATOM     94  H   UNL     1       3.887   5.784   0.000  0.00  0.00    +0.000 HD
ATOM     95  H   UNL     1       3.003   4.255   0.000  0.00  0.00    +0.000 HD
ENDBRANCH  92  93
ENDBRANCH  91  92
ENDBRANCH  90  91
ENDBRANCH   4  90
BRANCH  14  96
ATOM     96  C   UNL     1       7.448  -1.299   0.000  0.00  0.00    +0.000 C 
BRANCH  96  97
ATOM     97  C   UNL     1       8.162  -0.887   0.000  0.00  0.00    +0.000 A 
ATOM     98  C   UNL     1       8.888  -1.306   0.000  0.00  0.00    +0.000 A 
ATOM     99  C   UNL     1       9.602  -0.893   0.000  0.00  0.00    +0.000 A 
ATOM    100  C   UNL     1       9.602  -0.068   0.000  0.00  0.00    +0.000 A 
ATOM    101  C   UNL     1       8.877   0.350   0.000  0.00  0.00    +0.000 A 
ATOM    102  C   UNL     1       8.162  -0.062   0.000  0.00  0.00    +0.000 A 
ENDBRANCH  96  97
ENDBRANCH  14  96
BRANCH  18 103
ATOM    103  C   UNL     1       5.289  -3.362   0.000  0.00  0.00    +0.000 C 
BRANCH 103 104
ATOM    104  C   UNL     1       6.004  -3.774   0.000  0.00  0.00    +0.000 A 
ATOM    105  N   UNL     1       6.090  -4.593   0.000  0.00  0.00    +0.000 NA
ATOM    106  C   UNL     1       6.895  -4.765   0.000  0.00  0.00    +0.000 A 
ATOM    107  N   UNL     1       7.307  -4.051   0.000  0.00  0.00    +0.000 N 
ATOM    108  C   UNL     1       6.756  -3.439   0.000  0.00  0.00    +0.000 A 
ATOM    109  H   UNL     1       8.286  -3.948   0.000  0.00  0.00    +0.000 HD
ENDBRANCH 103 104
ENDBRANCH  18 103
BRANCH  27 110
ATOM    110  C   UNL     1       0.988  -3.362   0.000  0.00  0.00    +0.000 C 
BRANCH 110 111
ATOM    111  C   UNL     1       0.273  -3.774   0.000  0.00  0.00    +0.000 C 
ATOM    112  O   UNL     1       0.273  -4.599   0.000  0.00  0.00    +0.000 OA
ATOM    113  N   UNL     1      -0.441  -3.362   0.000  0.00  0.00    +0.000 N 
ATOM    114  H   UNL     1      -0.441  -2.377   0.000  0.00  0.00    +0.000 HD
ATOM    115  H   UNL     1      -1.294  -3.854   0.000  0.00  0.00    +0.000 HD
ENDBRANCH 110 111
ENDBRANCH  27 110
BRANCH  22 116
ATOM    116  C   UNL     1       3.131  -0.969   0.000  0.00  0.00    +0.000 C 
BRANCH 116 117
ATOM    117  C   UNL     1       2.417  -0.557   0.000  0.00  0.00    +0.000 C 
ATOM    118  O   UNL     1       1.702  -0.969   0.000  0.00  0.00    +0.000 OA
BRANCH 117 119
ATOM    119  O   UNL     1       2.417   0.268   0.000  0.00  0.00    +0.000 OA
ATOM    120  H   UNL     1       3.228   0.737   0.000  0.00  0.00    +0.000 HD
ENDBRANCH 117 119
ENDBRANCH 116 117
ENDBRANCH  22 116
TORSDOF 35
