REMARK  Name = 
REMARK  37 active torsions:
REMARK  status: ('A' for Active; 'I' for Inactive)
REMARK    1  A    between atoms: C_1  and  CA_4
REMARK    2  A    between atoms: C_7  and  CA_10
REMARK    3  A    between atoms: N_9  and  CA_10
REMARK    4  A    between atoms: CA_10  and  CB_11
REMARK    5  A    between atoms: CB_11  and  CG_12
REMARK    6  A    between atoms: C_17  and  CA_20
REMARK    7  A    between atoms: N_19  and  CA_20
REMARK    8  A    between atoms: CA_20  and  CB_21
REMARK    9  A    between atoms: CB_21  and  CG_22
REMARK   10  A    between atoms: C_31  and  C_34
REMARK   11  A    between atoms: N_33  and  C_34
REMARK   12  A    between atoms: C_34  and  C_35
REMARK   13  A    between atoms: C_35  and  O_36
REMARK   14  A    between atoms: C_37  and  C_40
REMARK   15  A    between atoms: N_39  and  C_40
REMARK   16  A    between atoms: C_40  and  C_41
REMARK   17  A    between atoms: C_41  and  C_42
REMARK   18  A    between atoms: C_45  and  O_46
REMARK   19  A    between atoms: C_49  and  C_52
REMARK   20  A    between atoms: N_51  and  C_52
REMARK   21  A    between atoms: C_52  and  C_53
REMARK   22  A    between atoms: C_53  and  C_54
REMARK   23  A    between atoms: C_60  and  C_63
REMARK   24  A    between atoms: N_62  and  C_63
REMARK   25  A    between atoms: C_63  and  C_64
REMARK   26  A    between atoms: C_64  and  C_65
REMARK   27  A    between atoms: C_65  and  C_66
REMARK   28  A    between atoms: C_65  and  C_67
REMARK   29  A    between atoms: C_68  and  C_71
REMARK   30  A    between atoms: N_70  and  C_71
REMARK   31  A    between atoms: C_71  and  C_72
REMARK   32  A    between atoms: C_72  and  C_73
REMARK   33  A    between atoms: C_73  and  C_74
REMARK   34  A    between atoms: C_74  and  N_75
REMARK   35  A    between atoms: C_79  and  C_82
REMARK   36  A    between atoms: C_86  and  C_89
REMARK   37  A    between atoms: N_88  and  C_89
REMARK                            x       y       z     vdW  Elec       q    Type
REMARK                         _______ _______ _______ _____ _____    ______ ____
ROOT
ATOM      1  C   UNK A   4       0.870   0.164   0.000  0.00  0.00    +0.000 C 
ATOM      2  O   UNK A   4       0.870   0.989   0.000  0.00  0.00    +0.000 OA
ATOM      3  N   UNK A   4       1.584  -0.249   0.000  0.00  0.00    +0.000 N 
ATOM      4  H   UNK A   4       1.584  -1.233   0.000  0.00  0.00    +0.000 HD
ENDROOT
BRANCH   3   5
ATOM      5  C   UNK A   4       2.299   0.164   0.000  0.00  0.00    +0.000 C 
BRANCH   5   6
ATOM      6  C   UNK A   4       3.013  -0.249   0.000  0.00  0.00    +0.000 C 
ATOM      7  O   UNK A   4       3.013  -1.074   0.000  0.00  0.00    +0.000 OA
ATOM      8  N   UNK A   4       3.728   0.164   0.000  0.00  0.00    +0.000 N 
ATOM      9  H   UNK A   4       3.728   1.148   0.000  0.00  0.00    +0.000 HD
BRANCH   8  10
ATOM     10  C   UNK A   4       4.442  -0.249   0.000  0.00  0.00    +0.000 C 
BRANCH  10  11
ATOM     11  C   UNK A   4       5.156   0.164   0.000  0.00  0.00    +0.000 C 
ATOM     12  O   UNK A   4       5.156   0.989   0.000  0.00  0.00    +0.000 OA
ATOM     13  N   UNK A   4       5.871  -0.249   0.000  0.00  0.00    +0.000 N 
ATOM     14  H   UNK A   4       5.871  -1.233   0.000  0.00  0.00    +0.000 HD
BRANCH  13  15
ATOM     15  C   UNK A   4       6.585   0.164   0.000  0.00  0.00    +0.000 C 
BRANCH  15  16
ATOM     16  C   UNK A   4       7.300  -0.249   0.000  0.00  0.00    +0.000 C 
ATOM     17  O   UNK A   4       7.300  -1.074   0.000  0.00  0.00    +0.000 OA
ATOM     18  N   UNK A   4       8.014   0.164   0.000  0.00  0.00    +0.000 N 
ATOM     19  C   UNK A   4       8.768  -0.172   0.000  0.00  0.00    +0.000 C 
ATOM     20  C   UNK A   4       9.320   0.441   0.000  0.00  0.00    +0.000 C 
ATOM     21  C   UNK A   4       8.908   1.156   0.000  0.00  0.00    +0.000 C 
ATOM     22  C   UNK A   4       8.101   0.984   0.000  0.00  0.00    +0.000 C 
BRANCH  19  23
ATOM     23  C   UNK A   4       8.940  -0.979   0.000  0.00  0.00    +0.000 C 
ATOM     24  O   UNK A   4       9.724  -1.234   0.000  0.00  0.00    +0.000 OA
ATOM     25  N   UNK A   4       8.326  -1.531   0.000  0.00  0.00    +0.000 N 
ATOM     26  H   UNK A   4       7.390  -1.227   0.000  0.00  0.00    +0.000 HD
BRANCH  25  27
ATOM     27  C   UNK A   4       8.498  -2.338   0.000  0.00  0.00    +0.000 C 
BRANCH  27  28
ATOM     28  C   UNK A   4       7.915  -2.921   0.000  0.00  0.00    +0.000 C 
ATOM     29  O   UNK A   4       8.128  -3.718   0.000  0.00  0.00    +0.000 OA
ATOM     30  N   UNK A   4       7.118  -2.708   0.000  0.00  0.00    +0.000 N 
ATOM     31  H   UNK A   4       6.863  -1.757   0.000  0.00  0.00    +0.000 HD
ATOM     32  H   UNK A   4       6.422  -3.404   0.000  0.00  0.00    +0.000 HD
ENDBRANCH  27  28
ENDBRANCH  25  27
ENDBRANCH  19  23
ENDBRANCH  15  16
BRANCH  15  33
ATOM     33  C   UNK A   4       6.585   0.989   0.000  0.00  0.00    +0.000 C 
BRANCH  33  34
ATOM     34  C   UNK A   4       7.300   1.401   0.000  0.00  0.00    +0.000 C 
BRANCH  34  35
ATOM     35  C   UNK A   4       7.300   2.226   0.000  0.00  0.00    +0.000 C 
BRANCH  35  36
ATOM     36  N   UNK A   4       8.014   2.639   0.000  0.00  0.00    +0.000 N 
ATOM     37  C   UNK A   4       8.014   3.463   0.000  0.00  0.00    +0.000 C 
ATOM     38  N   UNK A   4       7.300   3.876   0.000  0.00  0.00    +0.000 NA
ATOM     39  N   UNK A   4       8.729   3.876   0.000  0.00  0.00    +0.000 N 
ATOM     40  H   UNK A   4       8.867   2.146   0.000  0.00  0.00    +0.000 HD
ATOM     41  H   UNK A   4       7.300   4.860   0.000  0.00  0.00    +0.000 HD
ATOM     42  H   UNK A   4       9.581   3.384   0.000  0.00  0.00    +0.000 HD
ATOM     43  H   UNK A   4       8.729   4.860   0.000  0.00  0.00    +0.000 HD
ENDBRANCH  35  36
ENDBRANCH  34  35
ENDBRANCH  33  34
ENDBRANCH  15  33
ENDBRANCH  13  15
ENDBRANCH  10  11
BRANCH  10  44
ATOM     44  C   UNK A   4       4.442  -1.074   0.000  0.00  0.00    +0.000 C 
BRANCH  44  45
ATOM     45  C   UNK A   4       5.156  -1.486   0.000  0.00  0.00    +0.000 C 
ATOM     46  C   UNK A   4       5.871  -1.074   0.000  0.00  0.00    +0.000 C 
ATOM     47  C   UNK A   4       5.156  -2.311   0.000  0.00  0.00    +0.000 C 
ENDBRANCH  44  45
ENDBRANCH  10  44
ENDBRANCH   8  10
ENDBRANCH   5   6
BRANCH   5  48
ATOM     48  C   UNK A   4       2.299   0.989   0.000  0.00  0.00    +0.000 C 
BRANCH  48  49
ATOM     49  C   UNK A   4       3.013   1.401   0.000  0.00  0.00    +0.000 A 
ATOM     50  C   UNK A   4       3.728   0.989   0.000  0.00  0.00    +0.000 A 
ATOM     51  C   UNK A   4       4.442   1.401   0.000  0.00  0.00    +0.000 A 
ATOM     52  C   UNK A   4       4.442   2.226   0.000  0.00  0.00    +0.000 A 
ATOM     53  C   UNK A   4       3.728   2.639   0.000  0.00  0.00    +0.000 A 
ATOM     54  C   UNK A   4       3.013   2.226   0.000  0.00  0.00    +0.000 A 
ATOM     55  C   UNK A   4       5.156   2.639   0.000  0.00  0.00    +0.000 A 
ATOM     56  C   UNK A   4       5.156   3.463   0.000  0.00  0.00    +0.000 A 
ATOM     57  C   UNK A   4       4.442   3.876   0.000  0.00  0.00    +0.000 A 
ATOM     58  C   UNK A   4       3.728   3.463   0.000  0.00  0.00    +0.000 A 
ENDBRANCH  48  49
ENDBRANCH   5  48
ENDBRANCH   3   5
BRANCH   1  59
ATOM     59  C   UNK A   4       0.155  -0.249   0.000  0.00  0.00    +0.000 C 
BRANCH  59  62
ATOM     60  C   UNK A   4      -1.274  -0.249   0.000  0.00  0.00    +0.000 C 
ATOM     61  O   UNK A   4      -1.274  -1.074   0.000  0.00  0.00    +0.000 OA
ATOM     62  N   UNK A   4      -0.559   0.164   0.000  0.00  0.00    +0.000 N 
ATOM     63  H   UNK A   4      -0.559   1.148   0.000  0.00  0.00    +0.000 HD
BRANCH  60  64
ATOM     64  C   UNK A   4      -1.988   0.164   0.000  0.00  0.00    +0.000 C 
BRANCH  64  67
ATOM     65  C   TRP A   3      -3.417   0.164   0.000  0.00  0.00    +0.000 C 
ATOM     66  O   TRP A   3      -3.417   0.989   0.000  0.00  0.00    +0.000 OA
ATOM     67  N   UNK A   4      -2.703  -0.249   0.000  0.00  0.00    +0.000 N 
ATOM     68  H   UNK A   4      -2.703  -1.233   0.000  0.00  0.00    +0.000 HD
BRANCH  65  69
ATOM     69  CA  TRP A   3      -4.132  -0.249   0.000  0.00  0.00    +0.000 C 
BRANCH  69  72
ATOM     70  C   HIS A   2      -5.560  -0.249   0.000  0.00  0.00    +0.000 C 
ATOM     71  O   HIS A   2      -5.560  -1.074   0.000  0.00  0.00    +0.000 OA
ATOM     72  N   TRP A   3      -4.846   0.164   0.000  0.00  0.00    +0.000 N 
ATOM     73  H   TRP A   3      -4.846   1.148   0.000  0.00  0.00    +0.000 HD
BRANCH  70  74
ATOM     74  CA  HIS A   2      -6.275   0.164   0.000  0.00  0.00    +0.000 C 
BRANCH  74  77
ATOM     75  C   GLN A   1      -7.704   0.164   0.000  0.00  0.00    +0.000 C 
ATOM     76  O   GLN A   1      -7.704   0.989   0.000  0.00  0.00    +0.000 OA
ATOM     77  N   HIS A   2      -6.989  -0.249   0.000  0.00  0.00    +0.000 N 
ATOM     78  H   HIS A   2      -6.990  -1.233   0.000  0.00  0.00    +0.000 HD
BRANCH  75  80
ATOM     79  N   GLN A   1      -8.505  -1.069   0.000  0.00  0.00    +0.000 N 
ATOM     80  CA  GLN A   1      -8.418  -0.249   0.000  0.00  0.00    +0.000 C 
ATOM     81  CB  GLN A   1      -9.172   0.086   0.000  0.00  0.00    +0.000 C 
ATOM     82  CG  GLN A   1      -9.724  -0.526   0.000  0.00  0.00    +0.000 C 
ATOM     83  CD  GLN A   1      -9.312  -1.241   0.000  0.00  0.00    +0.000 C 
ATOM     84  OE1 GLN A   1      -9.647  -1.994   0.000  0.00  0.00    +0.000 OA
ATOM     85  H   GLN A   1      -7.773  -1.728   0.000  0.00  0.00    +0.000 HD
ENDBRANCH  75  80
ENDBRANCH  74  77
BRANCH  74  86
ATOM     86  CB  HIS A   2      -6.275   0.989   0.000  0.00  0.00    +0.000 C 
BRANCH  86  87
ATOM     87  CG  HIS A   2      -5.560   1.401   0.000  0.00  0.00    +0.000 A 
ATOM     88  CD2 HIS A   2      -5.474   2.221   0.000  0.00  0.00    +0.000 A 
ATOM     89  NE2 HIS A   2      -4.667   2.393   0.000  0.00  0.00    +0.000 N 
ATOM     90  CE1 HIS A   2      -4.255   1.679   0.000  0.00  0.00    +0.000 A 
ATOM     91  ND1 HIS A   2      -4.807   1.065   0.000  0.00  0.00    +0.000 NA
ATOM     92  HE2 HIS A   2      -4.267   3.292   0.000  0.00  0.00    +0.000 HD
ENDBRANCH  86  87
ENDBRANCH  74  86
ENDBRANCH  70  74
ENDBRANCH  69  72
BRANCH  69  93
ATOM     93  CB  TRP A   3      -4.132  -1.074   0.000  0.00  0.00    +0.000 C 
BRANCH  93  94
ATOM     94  CG  TRP A   3      -3.417  -1.486   0.000  0.00  0.00    +0.000 A 
ATOM     95  CD1 TRP A   3      -2.663  -1.151   0.000  0.00  0.00    +0.000 A 
ATOM     96  NE1 TRP A   3      -2.111  -1.764   0.000  0.00  0.00    +0.000 N 
ATOM     97  CE2 TRP A   3      -2.524  -2.478   0.000  0.00  0.00    +0.000 A 
ATOM     98  CZ2 TRP A   3      -2.269  -3.263   0.000  0.00  0.00    +0.000 A 
ATOM     99  CH2 TRP A   3      -2.821  -3.876   0.000  0.00  0.00    +0.000 A 
ATOM    100  CZ3 TRP A   3      -3.628  -3.705   0.000  0.00  0.00    +0.000 A 
ATOM    101  CE3 TRP A   3      -3.883  -2.920   0.000  0.00  0.00    +0.000 A 
ATOM    102  CD2 TRP A   3      -3.331  -2.307   0.000  0.00  0.00    +0.000 A 
ATOM    103  HE1 TRP A   3      -1.132  -1.661   0.000  0.00  0.00    +0.000 HD
ENDBRANCH  93  94
ENDBRANCH  69  93
ENDBRANCH  65  69
ENDBRANCH  64  67
BRANCH  64 104
ATOM    104  C   UNK A   4      -1.988   0.989   0.000  0.00  0.00    +0.000 C 
BRANCH 104 105
ATOM    105  O   UNK A   4      -2.703   1.401   0.000  0.00  0.00    +0.000 OA
ATOM    106  H   UNK A   4      -2.703   2.371   0.000  0.00  0.00    +0.000 HD
ENDBRANCH 104 105
ENDBRANCH  64 104
ENDBRANCH  60  64
ENDBRANCH  59  62
BRANCH  59 107
ATOM    107  C   UNK A   4       0.155  -1.074   0.000  0.00  0.00    +0.000 C 
BRANCH 107 108
ATOM    108  C   UNK A   4       0.870  -1.486   0.000  0.00  0.00    +0.000 A 
ATOM    109  C   UNK A   4       0.870  -2.311   0.000  0.00  0.00    +0.000 A 
ATOM    110  C   UNK A   4       1.584  -2.724   0.000  0.00  0.00    +0.000 A 
ATOM    111  C   UNK A   4       2.299  -2.311   0.000  0.00  0.00    +0.000 A 
ATOM    112  C   UNK A   4       2.299  -1.486   0.000  0.00  0.00    +0.000 A 
ATOM    113  C   UNK A   4       1.584  -1.074   0.000  0.00  0.00    +0.000 A 
BRANCH 111 114
ATOM    114  O   UNK A   4       3.013  -2.724   0.000  0.00  0.00    +0.000 OA
ATOM    115  H   UNK A   4       3.013  -3.661   0.000  0.00  0.00    +0.000 HD
ENDBRANCH 111 114
ENDBRANCH 107 108
ENDBRANCH  59 107
ENDBRANCH   1  59
TORSDOF 35
