REMARK  Name = 
REMARK  17 active torsions:
REMARK  status: ('A' for Active; 'I' for Inactive)
REMARK    1  A    between atoms: C_1  and  C_2
REMARK    2  A    between atoms: C_2  and  C_3
REMARK    3  A    between atoms: C_2  and  C_4
REMARK    4  A    between atoms: C_2  and  N_5
REMARK    5  A    between atoms: C_6  and  C_8
REMARK    6  A    between atoms: N_17  and  C_18
REMARK    7  A    between atoms: C_18  and  C_19
REMARK    8  A    between atoms: C_19  and  O_20
REMARK    9  A    between atoms: C_19  and  C_21
REMARK   10  A    between atoms: C_21  and  C_22
REMARK   11  A    between atoms: C_21  and  N_29
REMARK   12  A    between atoms: C_22  and  C_23
REMARK   13  A    between atoms: C_30  and  C_32
REMARK   14  A    between atoms: C_32  and  C_33
REMARK   15  A    between atoms: C_32  and  N_37
REMARK   16  A    between atoms: C_33  and  C_34
REMARK   17  A    between atoms: C_38  and  C_40
REMARK                            x       y       z     vdW  Elec       q    Type
REMARK                         _______ _______ _______ _____ _____    ______ ____
ROOT
ATOM      1  C   UNL     1      -0.657   1.038   0.882  0.00  0.00    +0.000 C 
ENDROOT
BRANCH   1   2
ATOM      2  N   UNL     1       0.349  -0.005   1.464  0.00  0.00    +0.000 N 
ATOM      3  C   UNL     1       1.611   0.459   1.968  0.00  0.00    +0.000 C 
ATOM      4  O   UNL     1       1.655   1.705   2.200  0.00  0.00    +0.000 OA
ATOM      5  H   UNL     1       0.122  -0.963   1.484  0.00  0.00    +0.000 HD
BRANCH   3   6
ATOM      6  C   UNL     1       2.756  -0.044   0.939  0.00  0.00    +0.000 C 
BRANCH   6   7
ATOM      7  N   UNL     1       4.013   0.212   1.863  0.00  0.00    +0.000 N 
ATOM      8  C   UNL     1       5.066   0.797   1.090  0.00  0.00    +0.000 C 
ATOM      9  O   UNL     1       4.665   1.895   0.585  0.00  0.00    +0.000 OA
ATOM     10  H   UNL     1       4.064   0.001   2.824  0.00  0.00    +0.000 HD
BRANCH   8  11
ATOM     11  C   UNL     1       6.284   0.142   0.623  0.00  0.00    +0.000 A 
ATOM     12  C   UNL     1       6.351  -1.157   0.122  0.00  0.00    +0.000 A 
ATOM     13  C   UNL     1       6.661  -1.405  -1.214  0.00  0.00    +0.000 A 
ATOM     14  C   UNL     1       7.489  -0.485  -1.845  0.00  0.00    +0.000 A 
ATOM     15  C   UNL     1       7.864  -0.564  -3.159  0.00  0.00    +0.000 A 
ATOM     16  C   UNL     1       9.082   0.029  -3.474  0.00  0.00    +0.000 A 
ATOM     17  C   UNL     1       9.797   0.747  -2.523  0.00  0.00    +0.000 A 
ATOM     18  C   UNL     1       9.081   1.212  -1.440  0.00  0.00    +0.000 A 
ATOM     19  C   UNL     1       7.954   0.542  -1.032  0.00  0.00    +0.000 A 
ATOM     20  N   UNL     1       7.162   0.961  -0.014  0.00  0.00    +0.000 NA
ENDBRANCH   8  11
ENDBRANCH   6   7
BRANCH   6  21
ATOM     21  C   UNL     1       2.619  -1.607   1.424  0.00  0.00    +0.000 C 
BRANCH  21  22
ATOM     22  C   UNL     1       2.734  -1.592   2.901  0.00  0.00    +0.000 C 
ATOM     23  N   UNL     1       1.687  -2.249   3.620  0.00  0.00    +0.000 N 
ATOM     24  O   UNL     1       3.912  -1.826   3.317  0.00  0.00    +0.000 OA
ATOM     25  H   UNL     1       0.749  -2.115   3.355  0.00  0.00    +0.000 HD
ATOM     26  H   UNL     1       1.905  -2.835   4.381  0.00  0.00    +0.000 HD
ENDBRANCH  21  22
ENDBRANCH   6  21
ENDBRANCH   3   6
ENDBRANCH   1   2
BRANCH   1  27
ATOM     27  C   UNL     1      -1.936   0.408   1.855  0.00  0.00    +0.000 C 
BRANCH  27  28
ATOM     28  O   UNL     1      -2.092  -0.904   1.128  0.00  0.00    +0.000 OA
ATOM     29  H   UNL     1      -2.131  -0.742   0.172  0.00  0.00    +0.000 HD
ENDBRANCH  27  28
BRANCH  27  30
ATOM     30  C   UNL     1      -3.127   1.187   1.044  0.00  0.00    +0.000 C 
BRANCH  30  40
ATOM     31  C   UNL     1      -5.461   0.414   0.823  0.00  0.00    +0.000 C 
ATOM     32  C   UNL     1      -5.878  -0.696  -0.318  0.00  0.00    +0.000 C 
ATOM     33  C   UNL     1      -6.406   0.216  -1.545  0.00  0.00    +0.000 C 
ATOM     34  C   UNL     1      -5.372  -0.446  -2.610  0.00  0.00    +0.000 C 
ATOM     35  C   UNL     1      -5.772   0.122  -3.969  0.00  0.00    +0.000 C 
ATOM     36  C   UNL     1      -6.141   1.562  -3.614  0.00  0.00    +0.000 C 
ATOM     37  C   UNL     1      -5.108   2.026  -2.671  0.00  0.00    +0.000 C 
ATOM     38  C   UNL     1      -5.476   1.585  -1.157  0.00  0.00    +0.000 C 
ATOM     39  C   UNL     1      -4.107   0.751  -0.977  0.00  0.00    +0.000 C 
ATOM     40  N   UNL     1      -3.959   0.324   0.374  0.00  0.00    +0.000 NA
BRANCH  31  42
ATOM     41  N   UNL     1      -6.497  -1.498   2.106  0.00  0.00    +0.000 N 
ATOM     42  C   UNL     1      -5.303  -0.714   1.970  0.00  0.00    +0.000 C 
ATOM     43  O   UNL     1      -5.004  -0.103   3.044  0.00  0.00    +0.000 OA
ATOM     44  H   UNL     1      -7.001  -1.717   1.289  0.00  0.00    +0.000 HD
BRANCH  41  46
ATOM     45  C   UNL     1      -6.754  -1.782   3.673  0.00  0.00    +0.000 C 
ATOM     46  C   UNL     1      -7.005  -1.985   3.367  0.00  0.00    +0.000 C 
ATOM     47  C   UNL     1      -8.487  -1.617   3.413  0.00  0.00    +0.000 C 
ATOM     48  C   UNL     1      -7.017  -3.509   3.260  0.00  0.00    +0.000 C 
ENDBRANCH  41  46
ENDBRANCH  31  42
ENDBRANCH  30  40
ENDBRANCH  27  30
ENDBRANCH   1  27
BRANCH   1  49
ATOM     49  C   UNL     1      -0.937   0.166  -0.457  0.00  0.00    +0.000 C 
BRANCH  49  50
ATOM     50  C   UNL     1      -0.421   0.852  -1.622  0.00  0.00    +0.000 A 
ATOM     51  C   UNL     1       0.865   1.225  -1.899  0.00  0.00    +0.000 A 
ATOM     52  C   UNL     1       1.149   2.055  -2.970  0.00  0.00    +0.000 A 
ATOM     53  C   UNL     1       0.145   2.265  -3.908  0.00  0.00    +0.000 A 
ATOM     54  C   UNL     1      -1.020   1.514  -3.797  0.00  0.00    +0.000 A 
ATOM     55  C   UNL     1      -1.015   0.502  -2.841  0.00  0.00    +0.000 A 
ENDBRANCH  49  50
ENDBRANCH   1  49
TORSDOF 14
