REMARK  Name = 
REMARK  23 active torsions:
REMARK  status: ('A' for Active; 'I' for Inactive)
REMARK    1  A    between atoms: C_1  and  C_2
REMARK    2  A    between atoms: C_2  and  C_3
REMARK    3  A    between atoms: C_3  and  C_4
REMARK    4  A    between atoms: C_3  and  C_5
REMARK    5  A    between atoms: C_9  and  C_10
REMARK    6  A    between atoms: C_10  and  C_11
REMARK    7  A    between atoms: C_14  and  O_15
REMARK    8  A    between atoms: O_15  and  C_16
REMARK    9  A    between atoms: C_27  and  C_28
REMARK   10  A    between atoms: C_34  and  C_35
REMARK   11  A    between atoms: N_37  and  C_38
REMARK   12  A    between atoms: C_38  and  C_39
REMARK   13  A    between atoms: C_38  and  C_43
REMARK   14  A    between atoms: C_39  and  C_40
REMARK   15  A    between atoms: C_40  and  C_41
REMARK   16  A    between atoms: C_40  and  C_42
REMARK   17  A    between atoms: N_45  and  C_46
REMARK   18  A    between atoms: C_46  and  C_47
REMARK   19  A    between atoms: C_53  and  C_54
REMARK   20  A    between atoms: C_54  and  C_55
REMARK   21  A    between atoms: C_61  and  C_62
REMARK   22  A    between atoms: C_62  and  C_63
REMARK   23  A    between atoms: C_63  and  C_64
REMARK                            x       y       z     vdW  Elec       q    Type
REMARK                         _______ _______ _______ _____ _____    ______ ____
ROOT
ATOM      1  C   UNL     1      -4.836  -2.172   0.037  0.00  0.00    +0.000 C 
ATOM      2  N   UNL     1      -4.442  -1.684  -1.412  0.00  0.00    +0.000 N 
ATOM      3  C   UNL     1      -5.366  -0.762  -1.915  0.00  0.00    +0.000 C 
ATOM      4  O   UNL     1      -5.540  -0.475  -3.138  0.00  0.00    +0.000 OA
ATOM      5  C   UNL     1      -6.093   0.322  -0.968  0.00  0.00    +0.000 C 
ATOM      6  N   UNL     1      -5.218   0.044   0.305  0.00  0.00    +0.000 N 
ATOM      7  C   UNL     1      -4.528   1.102   0.908  0.00  0.00    +0.000 C 
ATOM      8  O   UNL     1      -4.228   1.172   2.103  0.00  0.00    +0.000 OA
ATOM      9  C   UNL     1      -3.507   1.585  -0.060  0.00  0.00    +0.000 C 
ATOM     10  C   UNL     1      -2.137   1.071   0.180  0.00  0.00    +0.000 C 
ATOM     11  C   UNL     1      -1.272   1.734  -0.888  0.00  0.00    +0.000 C 
ATOM     12  S   UNL     1      -0.793   0.410  -2.034  0.00  0.00    +0.000 S 
ATOM     13  C   UNL     1       0.867   0.109  -2.229  0.00  0.00    +0.000 C 
ATOM     14  C   UNL     1       1.525  -1.034  -1.249  0.00  0.00    +0.000 C 
ATOM     15  N   UNL     1       1.409  -0.154   0.049  0.00  0.00    +0.000 N 
ATOM     16  C   UNL     1       1.173  -0.763   1.253  0.00  0.00    +0.000 C 
ATOM     17  O   UNL     1       1.438  -0.214   2.359  0.00  0.00    +0.000 OA
ATOM     18  C   UNL     1       0.974  -2.346   1.415  0.00  0.00    +0.000 C 
ATOM     19  N   UNL     1      -0.236  -2.211   2.415  0.00  0.00    +0.000 N 
ATOM     20  C   UNL     1      -1.242  -1.305   2.186  0.00  0.00    +0.000 C 
ATOM     21  O   UNL     1      -2.027  -0.959   3.120  0.00  0.00    +0.000 OA
ATOM     22  C   UNL     1      -1.911  -1.671   0.766  0.00  0.00    +0.000 C 
ATOM     23  N   UNL     1      -2.978  -2.627   1.413  0.00  0.00    +0.000 N 
ATOM     24  C   UNL     1      -3.665  -3.228   0.279  0.00  0.00    +0.000 C 
ATOM     25  O   UNL     1      -3.946  -4.382   0.721  0.00  0.00    +0.000 OA
ATOM     26  H   UNL     1      -3.645  -1.991  -1.901  0.00  0.00    +0.000 HD
ATOM     27  H   UNL     1      -5.156  -0.866   0.676  0.00  0.00    +0.000 HD
ATOM     28  H   UNL     1       1.504   0.825  -0.004  0.00  0.00    +0.000 HD
ATOM     29  H   UNL     1      -0.271  -2.784   3.215  0.00  0.00    +0.000 HD
ATOM     30  H   UNL     1      -3.144  -2.784   2.370  0.00  0.00    +0.000 HD
ENDROOT
BRANCH  14  31
ATOM     31  C   UNL     1       3.014  -0.518  -1.592  0.00  0.00    +0.000 C 
ATOM     32  O   UNL     1       3.253   0.653  -1.766  0.00  0.00    +0.000 OA
ATOM     33  N   UNL     1       3.991  -1.494  -1.860  0.00  0.00    +0.000 N 
ATOM     34  C   UNL     1       4.958  -1.426  -2.857  0.00  0.00    +0.000 C 
ATOM     35  C   UNL     1       5.700  -2.705  -2.707  0.00  0.00    +0.000 C 
ATOM     36  C   UNL     1       5.702  -3.056  -1.306  0.00  0.00    +0.000 C 
ATOM     37  C   UNL     1       4.689  -2.012  -0.547  0.00  0.00    +0.000 C 
BRANCH  37  38
ATOM     38  C   UNL     1       5.728  -0.774  -0.475  0.00  0.00    +0.000 C 
ATOM     39  O   UNL     1       6.710  -0.752  -1.203  0.00  0.00    +0.000 OA
ATOM     40  N   UNL     1       5.935  -0.506   0.883  0.00  0.00    +0.000 N 
ATOM     41  H   UNL     1       5.287  -0.835   1.547  0.00  0.00    +0.000 HD
BRANCH  40  42
ATOM     42  C   UNL     1       7.187   0.310   1.361  0.00  0.00    +0.000 C 
BRANCH  42  43
ATOM     43  C   UNL     1       6.889   1.531   0.348  0.00  0.00    +0.000 C 
ATOM     44  O   UNL     1       5.760   2.056   0.457  0.00  0.00    +0.000 OA
ATOM     45  N   UNL     1       7.967   2.470   0.485  0.00  0.00    +0.000 N 
ATOM     46  H   UNL     1       8.660   2.339   1.172  0.00  0.00    +0.000 HD
BRANCH  45  47
ATOM     47  C   UNL     1       8.017   3.614  -0.403  0.00  0.00    +0.000 C 
BRANCH  47  48
ATOM     48  C   UNL     1       9.433   3.727  -0.853  0.00  0.00    +0.000 C 
ATOM     49  N   UNL     1      10.165   4.937  -0.711  0.00  0.00    +0.000 N 
ATOM     50  O   UNL     1      10.014   2.695  -1.159  0.00  0.00    +0.000 OA
ATOM     51  H   UNL     1       9.699   5.769  -0.464  0.00  0.00    +0.000 HD
ATOM     52  H   UNL     1      11.139   4.944  -0.859  0.00  0.00    +0.000 HD
ENDBRANCH  47  48
ENDBRANCH  45  47
ENDBRANCH  42  43
BRANCH  42  53
ATOM     53  C   UNL     1       8.201  -0.408   0.282  0.00  0.00    +0.000 C 
BRANCH  53  54
ATOM     54  C   UNL     1       9.493  -0.645   1.021  0.00  0.00    +0.000 C 
ATOM     55  C   UNL     1      10.590  -0.552  -0.037  0.00  0.00    +0.000 C 
ATOM     56  C   UNL     1       9.470  -2.121   1.412  0.00  0.00    +0.000 C 
ENDBRANCH  53  54
ENDBRANCH  42  53
ENDBRANCH  40  42
ENDBRANCH  37  38
ENDBRANCH  14  31
BRANCH   1  57
ATOM     57  C   UNL     1      -5.978  -3.194  -0.733  0.00  0.00    +0.000 C 
ATOM     58  C   UNL     1      -4.943  -4.178  -1.501  0.00  0.00    +0.000 C 
BRANCH  57  60
ATOM     59  C   UNL     1      -6.619  -5.240  -0.082  0.00  0.00    +0.000 C 
ATOM     60  C   UNL     1      -6.282  -4.191   0.504  0.00  0.00    +0.000 C 
ENDBRANCH  57  60
ENDBRANCH   1  57
BRANCH   5  61
ATOM     61  C   UNL     1      -5.158   1.548  -1.540  0.00  0.00    +0.000 C 
BRANCH  61  62
ATOM     62  C   UNL     1      -6.061   2.749  -1.553  0.00  0.00    +0.000 A 
ATOM     63  C   UNL     1      -6.981   3.003  -0.542  0.00  0.00    +0.000 A 
ATOM     64  C   UNL     1      -7.005   4.238   0.105  0.00  0.00    +0.000 A 
ATOM     65  C   UNL     1      -6.214   5.296  -0.322  0.00  0.00    +0.000 A 
ATOM     66  C   UNL     1      -5.328   5.064  -1.367  0.00  0.00    +0.000 A 
ATOM     67  C   UNL     1      -5.550   3.911  -2.116  0.00  0.00    +0.000 A 
BRANCH  65  68
ATOM     68  O   UNL     1      -6.593   6.600  -0.008  0.00  0.00    +0.000 OA
ATOM     69  C   UNL     1      -7.894   6.901   0.459  0.00  0.00    +0.000 C 
ENDBRANCH  65  68
ENDBRANCH  61  62
ENDBRANCH   5  61
BRANCH  18  70
ATOM     70  C   UNL     1       0.006  -2.535   0.107  0.00  0.00    +0.000 C 
BRANCH  70  71
ATOM     71  C   UNL     1       0.178  -4.023  -0.028  0.00  0.00    +0.000 C 
ATOM     72  N   UNL     1       0.221  -4.677  -1.273  0.00  0.00    +0.000 N 
ATOM     73  O   UNL     1       0.021  -4.778   0.982  0.00  0.00    +0.000 OA
ATOM     74  H   UNL     1       0.341  -4.155  -2.099  0.00  0.00    +0.000 HD
ATOM     75  H   UNL     1       0.132  -5.656  -1.318  0.00  0.00    +0.000 HD
ENDBRANCH  70  71
ENDBRANCH  18  70
BRANCH  22  76
ATOM     76  C   UNL     1      -2.925  -0.394   0.852  0.00  0.00    +0.000 C 
BRANCH  76  77
ATOM     77  C   UNL     1      -2.210   0.840   1.117  0.00  0.00    +0.000 C 
BRANCH  77  78
ATOM     78  C   UNL     1      -3.287   1.883   1.131  0.00  0.00    +0.000 C 
ATOM     79  N   UNL     1      -3.192   3.006   0.243  0.00  0.00    +0.000 N 
ATOM     80  O   UNL     1      -4.495   1.585   1.395  0.00  0.00    +0.000 OA
ATOM     81  H   UNL     1      -2.308   3.337  -0.039  0.00  0.00    +0.000 HD
ATOM     82  H   UNL     1      -4.010   3.446  -0.084  0.00  0.00    +0.000 HD
ENDBRANCH  77  78
ENDBRANCH  76  77
ENDBRANCH  22  76
TORSDOF 18
