REMARK  Name = 656949
REMARK  7 active torsions:
REMARK  status: ('A' for Active; 'I' for Inactive)
REMARK    1  A    between atoms: N_3  and  C_14
REMARK    2  A    between atoms: N_5  and  C_13
REMARK    3  A    between atoms: N_6  and  C_21
REMARK    4  A    between atoms: C_7  and  C_8
REMARK    5  A    between atoms: C_7  and  C_9
REMARK    6  A    between atoms: C_7  and  C_10
REMARK    7  A    between atoms: C_7  and  C_11
REMARK                            x       y       z     vdW  Elec       q    Type
REMARK                         _______ _______ _______ _____ _____    ______ ____
ROOT
ATOM      1  N   UNL     1       2.335   0.387   0.038  0.00  0.00    +0.000 N 
ATOM      2  N   UNL     1       3.476  -0.311  -0.095  0.00  0.00    +0.000 NA
ATOM      3  C   UNL     1       3.030  -1.528   0.052  0.00  0.00    +0.000 A 
ATOM      4  C   UNL     1       1.689  -1.686   0.272  0.00  0.00    +0.000 A 
ATOM      5  C   UNL     1       1.236  -0.389   0.260  0.00  0.00    +0.000 A 
ENDROOT
BRANCH   5   7
ATOM      6  O   UNL     1      -1.357  -1.635  -0.421  0.00  0.00    +0.000 OA
ATOM      7  N   UNL     1      -0.030   0.109   0.425  0.00  0.00    +0.000 N 
ATOM      8  N   UNL     1      -2.334   0.317   0.412  0.00  0.00    +0.000 N 
ATOM      9  C   UNL     1      -1.255  -0.522   0.084  0.00  0.00    +0.000 C 
ATOM     10  H   UNL     1      -0.112   1.063   0.757  0.00  0.00    +0.000 HD
ATOM     11  H   UNL     1      -2.102   1.215   0.828  0.00  0.00    +0.000 HD
BRANCH   8  13
ATOM     12 CL   UNL     1      -8.102  -0.718  -0.319  0.00  0.00    +0.000 Cl
ATOM     13  C   UNL     1      -3.716   0.069   0.236  0.00  0.00    +0.000 A 
ATOM     14  C   UNL     1      -4.632   1.032   0.627  0.00  0.00    +0.000 A 
ATOM     15  C   UNL     1      -4.124  -1.131  -0.322  0.00  0.00    +0.000 A 
ATOM     16  C   UNL     1      -5.995   0.787   0.454  0.00  0.00    +0.000 A 
ATOM     17  C   UNL     1      -5.486  -1.376  -0.495  0.00  0.00    +0.000 A 
ATOM     18  C   UNL     1      -6.422  -0.416  -0.107  0.00  0.00    +0.000 A 
ENDBRANCH   8  13
ENDBRANCH   5   7
BRANCH   1  19
ATOM     19  C   UNL     1       2.364   1.780  -0.056  0.00  0.00    +0.000 A 
ATOM     20  C   UNL     1       1.252   2.456  -0.538  0.00  0.00    +0.000 A 
ATOM     21  C   UNL     1       3.503   2.469   0.338  0.00  0.00    +0.000 A 
ATOM     22  C   UNL     1       1.279   3.848  -0.629  0.00  0.00    +0.000 A 
ATOM     23  C   UNL     1       3.530   3.861   0.246  0.00  0.00    +0.000 A 
ATOM     24  C   UNL     1       2.418   4.550  -0.237  0.00  0.00    +0.000 A 
ENDBRANCH   1  19
BRANCH   3  25
ATOM     25  C   UNL     1       4.058  -2.670  -0.034  0.00  0.00    +0.000 C 
ATOM     26  C   UNL     1       3.694  -3.632  -1.188  0.00  0.00    +0.000 C 
ATOM     27  C   UNL     1       4.086  -3.465   1.292  0.00  0.00    +0.000 C 
ATOM     28  C   UNL     1       5.503  -2.184  -0.294  0.00  0.00    +0.000 C 
ENDBRANCH   3  25
TORSDOF 4
