REMARK  Name = 656989
REMARK  16 active torsions:
REMARK  status: ('A' for Active; 'I' for Inactive)
REMARK    1  A    between atoms: O_5  and  C_37
REMARK    2  A    between atoms: O_5  and  C_39
REMARK    3  A    between atoms: N_8  and  C_25
REMARK    4  A    between atoms: N_10  and  C_24
REMARK    5  A    between atoms: N_11  and  C_27
REMARK    6  A    between atoms: N_14  and  C_45
REMARK    7  A    between atoms: C_15  and  C_20
REMARK    8  A    between atoms: C_21  and  C_24
REMARK    9  A    between atoms: C_23  and  C_26
REMARK   10  A    between atoms: C_27  and  C_28
REMARK   11  A    between atoms: C_27  and  C_29
REMARK   12  A    between atoms: C_29  and  C_30
REMARK   13  A    between atoms: C_30  and  C_35
REMARK   14  A    between atoms: C_30  and  C_36
REMARK   15  A    between atoms: C_39  and  C_40
REMARK   16  A    between atoms: C_46  and  C_47
REMARK                            x       y       z     vdW  Elec       q    Type
REMARK                         _______ _______ _______ _____ _____    ______ ____
ROOT
ATOM      1  N   UNL     1       0.179   3.677   0.947  0.00  0.00    +0.000 N 
ATOM      2  N   UNL     1      -1.095   3.266   1.070  0.00  0.00    +0.000 NA
ATOM      3  C   UNL     1       0.984   2.790   0.296  0.00  0.00    +0.000 A 
ATOM      4  C   UNL     1       0.182   1.723  -0.029  0.00  0.00    +0.000 A 
ATOM      5  C   UNL     1      -1.087   2.072   0.471  0.00  0.00    +0.000 A 
ATOM      6  C   UNL     1       0.560   4.960   1.489  0.00  0.00    +0.000 C 
ENDROOT
BRANCH   5   9
ATOM      7 CL   UNL     1      -2.837   2.505  -1.974  0.00  0.00    +0.000 Cl
ATOM      8 CL   UNL     1      -5.462   0.703  -2.024  0.00  0.00    +0.000 Cl
ATOM      9  C   UNL     1      -2.290   1.285   0.390  0.00  0.00    +0.000 A 
ATOM     10  C   UNL     1      -3.178   1.391  -0.681  0.00  0.00    +0.000 A 
ATOM     11  C   UNL     1      -2.555   0.394   1.429  0.00  0.00    +0.000 A 
ATOM     12  C   UNL     1      -4.330   0.605  -0.712  0.00  0.00    +0.000 A 
ATOM     13  C   UNL     1      -3.707  -0.391   1.399  0.00  0.00    +0.000 A 
ATOM     14  C   UNL     1      -4.594  -0.286   0.328  0.00  0.00    +0.000 A 
BRANCH  14  15
ATOM     15  O   UNL     1      -5.710  -1.070   0.330  0.00  0.00    +0.000 OA
BRANCH  15  16
ATOM     16  C   UNL     1      -6.612  -0.908   1.422  0.00  0.00    +0.000 C 
BRANCH  16  17
ATOM     17  C   UNL     1      -8.000  -1.249   0.965  0.00  0.00    +0.000 A 
ATOM     18  C   UNL     1      -8.467  -2.559   1.072  0.00  0.00    +0.000 A 
ATOM     19  C   UNL     1      -8.824  -0.257   0.434  0.00  0.00    +0.000 A 
ATOM     20  C   UNL     1      -9.757  -2.877   0.648  0.00  0.00    +0.000 A 
ATOM     21  C   UNL     1     -10.114  -0.574   0.010  0.00  0.00    +0.000 A 
ATOM     22  C   UNL     1     -10.581  -1.884   0.117  0.00  0.00    +0.000 A 
BRANCH  22  24
ATOM     23  O   UNL     1     -12.727  -0.148  -1.085  0.00  0.00    +0.000 OA
ATOM     24  N   UNL     1     -11.871  -2.202  -0.307  0.00  0.00    +0.000 N 
ATOM     25  C   UNL     1     -12.835  -1.349  -0.861  0.00  0.00    +0.000 C 
ATOM     26  C   UNL     1     -14.111  -2.083  -1.189  0.00  0.00    +0.000 C 
ATOM     27  H   UNL     1     -12.137  -3.179  -0.196  0.00  0.00    +0.000 HD
ENDBRANCH  22  24
ENDBRANCH  16  17
ENDBRANCH  15  16
ENDBRANCH  14  15
ENDBRANCH   5   9
BRANCH   3  30
ATOM     28  O   UNL     1       6.560   0.811  -1.616  0.00  0.00    +0.000 OA
ATOM     29  N   UNL     1       5.210   2.215  -0.351  0.00  0.00    +0.000 N 
ATOM     30  C   UNL     1       2.462   3.043   0.040  0.00  0.00    +0.000 C 
ATOM     31  C   UNL     1       3.340   2.573   1.215  0.00  0.00    +0.000 C 
ATOM     32  C   UNL     1       2.937   2.409  -1.280  0.00  0.00    +0.000 C 
ATOM     33  C   UNL     1       4.821   2.822   0.928  0.00  0.00    +0.000 C 
ATOM     34  C   UNL     1       4.427   2.663  -1.504  0.00  0.00    +0.000 C 
ATOM     35  C   UNL     1       6.242   1.295  -0.527  0.00  0.00    +0.000 C 
BRANCH  35  36
ATOM     36  C   UNL     1       6.998   0.883   0.711  0.00  0.00    +0.000 C 
BRANCH  36  38
ATOM     37  O   UNL     1       6.658  -1.987   0.563  0.00  0.00    +0.000 OA
ATOM     38  N   UNL     1       7.974  -0.094   0.284  0.00  0.00    +0.000 N 
ATOM     39  C   UNL     1       7.721  -1.457   0.245  0.00  0.00    +0.000 C 
ATOM     40  H   UNL     1       8.886   0.256   0.005  0.00  0.00    +0.000 HD
BRANCH  39  41
ATOM     41  C   UNL     1       8.922  -2.250  -0.253  0.00  0.00    +0.000 C 
BRANCH  41  42
ATOM     42  N   UNL     1       8.523  -2.904  -1.504  0.00  0.00    +0.000 NA
ATOM     43  N   UNL     1       9.167  -0.939  -2.726  0.00  0.00    +0.000 N 
ATOM     44  N   UNL     1       8.324  -2.761  -3.806  0.00  0.00    +0.000 N 
ATOM     45  C   UNL     1       8.674  -2.218  -2.592  0.00  0.00    +0.000 C 
ATOM     46  H   UNL     1       9.240  -0.509  -3.642  0.00  0.00    +0.000 HD
ATOM     47  H   UNL     1       9.453  -0.367  -1.942  0.00  0.00    +0.000 HD
ATOM     48  H   UNL     1       8.433  -2.242  -4.670  0.00  0.00    +0.000 HD
ATOM     49  H   UNL     1       7.944  -3.699  -3.870  0.00  0.00    +0.000 HD
ENDBRANCH  41  42
BRANCH  41  50
ATOM     50  C   UNL     1       9.342  -3.299   0.782  0.00  0.00    +0.000 C 
BRANCH  50  51
ATOM     51  C   UNL     1       9.678  -2.732   2.176  0.00  0.00    +0.000 C 
ATOM     52  C   UNL     1      10.832  -1.730   2.134  0.00  0.00    +0.000 C 
ATOM     53  C   UNL     1      10.025  -3.878   3.130  0.00  0.00    +0.000 C 
ENDBRANCH  50  51
ENDBRANCH  41  50
ENDBRANCH  39  41
ENDBRANCH  36  38
ENDBRANCH  35  36
ENDBRANCH   3  30
TORSDOF 12
