REMARK  Name = 1400
REMARK  7 active torsions:
REMARK  status: ('A' for Active; 'I' for Inactive)
REMARK    1  A    between atoms: N_1  and  C_6
REMARK    2  A    between atoms: N_5  and  C_14
REMARK    3  A    between atoms: C_6  and  C_8
REMARK    4  A    between atoms: C_6  and  C_9
REMARK    5  A    between atoms: C_6  and  C_10
REMARK    6  A    between atoms: C_12  and  C_13
REMARK    7  A    between atoms: C_20  and  C_21
REMARK                            x       y       z     vdW  Elec       q    Type
REMARK                         _______ _______ _______ _____ _____    ______ ____
ROOT
ATOM      1  N   UNL     1       1.772  -0.816   0.000  0.00  0.00    +0.000 N 
ATOM      2  N   UNL     1       0.548  -1.322   0.000  0.00  0.00    +0.000 NA
ATOM      3  N   UNL     1       2.985   1.270  -0.000  0.00  0.00    +0.000 NA
ATOM      4  N   UNL     1       1.444   3.161  -0.000  0.00  0.00    +0.000 NA
ATOM      5  C   UNL     1       1.874   0.516  -0.000  0.00  0.00    +0.000 A 
ATOM      6  C   UNL     1       0.565   0.963  -0.000  0.00  0.00    +0.000 A 
ATOM      7  C   UNL     1      -0.204  -0.216   0.000  0.00  0.00    +0.000 A 
ATOM      8  C   UNL     1       0.366   2.340  -0.000  0.00  0.00    +0.000 A 
ATOM      9  C   UNL     1       2.669   2.583  -0.000  0.00  0.00    +0.000 A 
ENDROOT
BRANCH   7  10
ATOM     10  C   UNL     1      -1.641  -0.326  -0.000  0.00  0.00    +0.000 A 
ATOM     11  C   UNL     1      -2.331  -0.380  -1.208  0.00  0.00    +0.000 A 
ATOM     12  C   UNL     1      -2.331  -0.379   1.208  0.00  0.00    +0.000 A 
ATOM     13  C   UNL     1      -3.721  -0.487  -1.208  0.00  0.00    +0.000 A 
ATOM     14  C   UNL     1      -3.721  -0.486   1.208  0.00  0.00    +0.000 A 
ATOM     15  C   UNL     1      -4.417  -0.540   0.000  0.00  0.00    +0.000 A 
ATOM     16  C   UNL     1      -5.904  -0.655   0.000  0.00  0.00    +0.000 C 
ENDBRANCH   7  10
BRANCH   1  17
ATOM     17  C   UNL     1       2.917  -1.768   0.000  0.00  0.00    +0.000 C 
ATOM     18  C   UNL     1       3.783  -1.541   1.260  0.00  0.00    +0.000 C 
ATOM     19  C   UNL     1       3.776  -1.552  -1.266  0.00  0.00    +0.000 C 
ATOM     20  C   UNL     1       2.497  -3.258   0.007  0.00  0.00    +0.000 C 
ENDBRANCH   1  17
BRANCH   8  21
ATOM     21  N   UNL     1      -0.927   2.892   0.001  0.00  0.00    +0.000 N 
ATOM     22  H   UNL     1      -1.749   2.306   0.002  0.00  0.00    +0.000 HD
ATOM     23  H   UNL     1      -1.027   3.898   0.002  0.00  0.00    +0.000 HD
ENDBRANCH   8  21
TORSDOF 3
