REMARK  Name = 
REMARK  8 active torsions:
REMARK  status: ('A' for Active; 'I' for Inactive)
REMARK    1  A    between atoms: N_1  and  S_2
REMARK    2  A    between atoms: S_2  and  C_5
REMARK    3  A    between atoms: C_8  and  C_9
REMARK    4  A    between atoms: C_9  and  N_10
REMARK    5  A    between atoms: C_11  and  C_13
REMARK    6  A    between atoms: C_17  and  C_18
REMARK    7  A    between atoms: C_22  and  O_23
REMARK    8  A    between atoms: C_25  and  O_26
REMARK                            x       y       z     vdW  Elec       q    Type
REMARK                         _______ _______ _______ _____ _____    ______ ____
ROOT
ATOM      1  N   UNL     1      -0.753  -0.412   1.469  0.00  0.00    +0.000 N 
ATOM      2  C   UNL     1       0.572  -0.358   0.960  0.00  0.00    +0.000 C 
ATOM      3  O   UNL     1       1.226  -1.440   1.050  0.00  0.00    +0.000 OA
ATOM      4  H   UNL     1      -1.119   0.385   1.918  0.00  0.00    +0.000 HD
ENDROOT
BRANCH   2   5
ATOM      5  C   UNL     1       1.067   0.763   0.152  0.00  0.00    +0.000 A 
ATOM      6  C   UNL     1       0.363   1.774  -0.458  0.00  0.00    +0.000 A 
ATOM      7  N   UNL     1       0.950   2.035  -1.652  0.00  0.00    +0.000 NA
ATOM      8  N   UNL     1       2.211   1.618  -1.535  0.00  0.00    +0.000 N 
ATOM      9  C   UNL     1       2.286   0.742  -0.503  0.00  0.00    +0.000 A 
ATOM     10  H   UNL     1       2.963   1.901  -2.104  0.00  0.00    +0.000 HD
BRANCH   9  11
ATOM     11  C   UNL     1       3.537   0.198   0.033  0.00  0.00    +0.000 A 
ATOM     12  C   UNL     1       4.339   1.069   0.759  0.00  0.00    +0.000 A 
ATOM     13  C   UNL     1       5.709   0.983   0.778  0.00  0.00    +0.000 A 
ATOM     14 CL   UNL     1       6.737   2.205   1.508  0.00  0.00    +0.000 Cl
ATOM     15  C   UNL     1       6.336   0.048  -0.037  0.00  0.00    +0.000 A 
ATOM     16  C   UNL     1       5.540  -0.968  -0.544  0.00  0.00    +0.000 A 
ATOM     17  C   UNL     1       4.158  -0.861  -0.614  0.00  0.00    +0.000 A 
BRANCH  15  18
ATOM     18  O   UNL     1       7.664   0.210  -0.431  0.00  0.00    +0.000 OA
ATOM     19  H   UNL     1       8.178   0.906  -0.072  0.00  0.00    +0.000 HD
ENDBRANCH  15  18
BRANCH  17  20
ATOM     20  O   UNL     1       3.455  -1.677  -1.498  0.00  0.00    +0.000 OA
ATOM     21  H   UNL     1       3.890  -2.388  -1.927  0.00  0.00    +0.000 HD
ENDBRANCH  17  20
ENDBRANCH   9  11
ENDBRANCH   2   5
BRANCH   1  22
ATOM     22  C   UNL     1      -1.596  -1.600   1.354  0.00  0.00    +0.000 C 
BRANCH  22  26
ATOM     23  C   UNL     1      -5.282  -0.225  -0.383  0.00  0.00    +0.000 A 
ATOM     24  C   UNL     1      -4.546   0.534   0.518  0.00  0.00    +0.000 A 
ATOM     25  C   UNL     1      -3.256   0.208   0.831  0.00  0.00    +0.000 A 
ATOM     26  C   UNL     1      -2.858  -1.118   0.709  0.00  0.00    +0.000 A 
ATOM     27  C   UNL     1      -3.497  -1.846  -0.284  0.00  0.00    +0.000 A 
ATOM     28  C   UNL     1      -4.660  -1.367  -0.872  0.00  0.00    +0.000 A 
BRANCH  23  29
ATOM     29  S   UNL     1      -7.032  -0.096  -0.333  0.00  0.00    +0.000 S 
ATOM     30  O   UNL     1      -7.538  -0.466   1.043  0.00  0.00    +0.000 OA
ATOM     31  O   UNL     1      -7.468   1.299  -0.635  0.00  0.00    +0.000 OA
BRANCH  29  32
ATOM     32  N   UNL     1      -7.663  -1.254  -1.431  0.00  0.00    +0.000 NA
ATOM     33  H   UNL     1      -8.682  -1.206  -1.427  0.00  0.00    +0.000 HD
ATOM     34  H   UNL     1      -7.366  -2.188  -1.149  0.00  0.00    +0.000 HD
ENDBRANCH  29  32
ENDBRANCH  23  29
ENDBRANCH  22  26
ENDBRANCH   1  22
TORSDOF 8
