REMARK  Name = 
REMARK  23 active torsions:
REMARK  status: ('A' for Active; 'I' for Inactive)
REMARK    1  A    between atoms: C_2  and  C_3
REMARK    2  A    between atoms: C_3  and  O_4
REMARK    3  A    between atoms: O_4  and  C_5
REMARK    4  A    between atoms: N_7  and  C_8
REMARK    5  A    between atoms: C_8  and  C_9
REMARK    6  A    between atoms: C_8  and  C_31
REMARK    7  A    between atoms: C_9  and  C_10
REMARK    8  A    between atoms: C_13  and  N_14
REMARK    9  A    between atoms: N_14  and  C_20
REMARK   10  A    between atoms: C_15  and  C_17
REMARK   11  A    between atoms: C_17  and  O_19
REMARK   12  A    between atoms: C_25  and  C_26
REMARK   13  A    between atoms: C_26  and  O_28
REMARK   14  A    between atoms: N_33  and  C_34
REMARK   15  A    between atoms: C_34  and  C_35
REMARK   16  A    between atoms: C_35  and  C_36
REMARK   17  A    between atoms: C_36  and  C_37
REMARK   18  A    between atoms: C_37  and  O_38
REMARK   19  A    between atoms: O_38  and  C_39
REMARK   20  A    between atoms: C_43  and  O_44
REMARK   21  A    between atoms: C_45  and  C_46
REMARK   22  A    between atoms: C_46  and  O_48
REMARK   23  A    between atoms: O_48  and  C_49
REMARK                            x       y       z     vdW  Elec       q    Type
REMARK                         _______ _______ _______ _____ _____    ______ ____
ROOT
ATOM      1  C   UNL     1      -0.364  -0.348   0.567  0.00  0.00    +0.000 C 
ENDROOT
BRANCH   1   4
ATOM      2  C   UNL     1       0.434   2.069   0.475  0.00  0.00    +0.000 C 
ATOM      3  O   UNL     1       0.782   1.857  -0.727  0.00  0.00    +0.000 OA
ATOM      4  N   UNL     1      -0.155   1.067   1.256  0.00  0.00    +0.000 N 
ATOM      5  H   UNL     1      -0.427   1.233   2.187  0.00  0.00    +0.000 HD
BRANCH   2   6
ATOM      6  O   UNL     1       0.487   3.385   0.923  0.00  0.00    +0.000 OA
BRANCH   6   7
ATOM      7  C   UNL     1       0.152   4.401  -0.022  0.00  0.00    +0.000 C 
BRANCH   7   9
ATOM      8  C   UNL     1       0.680   6.210   0.616  0.00  0.00    +0.000 C 
ATOM      9  C   UNL     1       0.565   5.726   0.518  0.00  0.00    +0.000 C 
ENDBRANCH   7   9
ENDBRANCH   6   7
ENDBRANCH   2   6
ENDBRANCH   1   4
BRANCH   1  10
ATOM     10  C   UNL     1       1.135  -0.363  -0.074  0.00  0.00    +0.000 C 
ATOM     11  O   UNL     1       1.191  -1.373  -0.836  0.00  0.00    +0.000 OA
ATOM     12  N   UNL     1       2.067  -0.376   1.016  0.00  0.00    +0.000 N 
ATOM     13  H   UNL     1       1.768  -0.236   1.943  0.00  0.00    +0.000 HD
BRANCH  12  14
ATOM     14  C   UNL     1       3.448  -0.598   0.708  0.00  0.00    +0.000 C 
BRANCH  14  15
ATOM     15  C   UNL     1       4.114   0.638   0.125  0.00  0.00    +0.000 C 
BRANCH  15  16
ATOM     16  C   UNL     1       4.867   0.218  -1.132  0.00  0.00    +0.000 C 
BRANCH  16  17
ATOM     17  C   UNL     1       5.478  -1.139  -0.800  0.00  0.00    +0.000 C 
BRANCH  17  18
ATOM     18  O   UNL     1       5.931  -1.027   0.547  0.00  0.00    +0.000 OA
BRANCH  18  19
ATOM     19  C   UNL     1       7.157  -1.557   0.960  0.00  0.00    +0.000 A 
ATOM     20  C   UNL     1       7.201  -2.911   1.268  0.00  0.00    +0.000 A 
ATOM     21  C   UNL     1       8.343  -3.658   1.015  0.00  0.00    +0.000 A 
ATOM     22  C   UNL     1       9.395  -3.073   0.320  0.00  0.00    +0.000 A 
ATOM     23  C   UNL     1       9.449  -1.693   0.207  0.00  0.00    +0.000 A 
ATOM     24  C   UNL     1       8.275  -0.971   0.378  0.00  0.00    +0.000 A 
BRANCH  23  25
ATOM     25  O   UNL     1      10.472  -1.109  -0.547  0.00  0.00    +0.000 OA
ATOM     26  H   UNL     1      11.276  -1.570  -0.681  0.00  0.00    +0.000 HD
ENDBRANCH  23  25
BRANCH  24  27
ATOM     27  C   UNL     1       8.179   0.420  -0.080  0.00  0.00    +0.000 C 
ATOM     28  O   UNL     1       8.540   0.703  -1.242  0.00  0.00    +0.000 OA
BRANCH  27  29
ATOM     29  O   UNL     1       7.772   1.447   0.756  0.00  0.00    +0.000 OA
ATOM     30  C   UNL     1       7.561   2.751   0.254  0.00  0.00    +0.000 C 
ENDBRANCH  27  29
ENDBRANCH  24  27
ENDBRANCH  18  19
ENDBRANCH  17  18
ENDBRANCH  16  17
ENDBRANCH  15  16
ENDBRANCH  14  15
ENDBRANCH  12  14
ENDBRANCH   1  10
BRANCH   1  31
ATOM     31  C   UNL     1      -1.013   0.316  -0.808  0.00  0.00    +0.000 C 
BRANCH  31  32
ATOM     32  C   UNL     1      -2.183   1.057  -0.225  0.00  0.00    +0.000 A 
ATOM     33  C   UNL     1      -3.064   1.699  -1.091  0.00  0.00    +0.000 A 
ATOM     34  C   UNL     1      -4.430   1.412  -1.079  0.00  0.00    +0.000 A 
ATOM     35  C   UNL     1      -4.967   0.534  -0.140  0.00  0.00    +0.000 A 
ATOM     36  C   UNL     1      -4.189   0.471   1.014  0.00  0.00    +0.000 A 
ATOM     37  C   UNL     1      -2.807   0.637   0.947  0.00  0.00    +0.000 A 
BRANCH  35  38
ATOM     38  N   UNL     1      -5.834  -0.544  -0.523  0.00  0.00    +0.000 N 
ATOM     39  C   UNL     1      -5.376  -1.654  -1.291  0.00  0.00    +0.000 C 
ATOM     40  O   UNL     1      -5.992  -2.753  -1.230  0.00  0.00    +0.000 OA
BRANCH  38  41
ATOM     41  C   UNL     1      -7.213  -0.475  -0.240  0.00  0.00    +0.000 A 
ATOM     42  C   UNL     1      -7.982   0.324  -1.058  0.00  0.00    +0.000 A 
ATOM     43  C   UNL     1      -9.324   0.389  -0.807  0.00  0.00    +0.000 A 
ATOM     44  C   UNL     1      -9.746   0.112   0.474  0.00  0.00    +0.000 A 
ATOM     45  C   UNL     1      -8.864  -0.356   1.440  0.00  0.00    +0.000 A 
ATOM     46  C   UNL     1      -7.642  -0.840   1.007  0.00  0.00    +0.000 A 
BRANCH  46  47
ATOM     47  C   UNL     1      -6.864  -1.697   1.911  0.00  0.00    +0.000 C 
ATOM     48  O   UNL     1      -6.664  -1.212   3.067  0.00  0.00    +0.000 OA
BRANCH  47  49
ATOM     49  O   UNL     1      -7.184  -3.059   1.919  0.00  0.00    +0.000 OA
ATOM     50  H   UNL     1      -7.350  -3.506   1.113  0.00  0.00    +0.000 HD
ENDBRANCH  47  49
ENDBRANCH  46  47
ENDBRANCH  38  41
BRANCH  39  51
ATOM     51  C   UNL     1      -4.229  -1.607  -2.176  0.00  0.00    +0.000 C 
ATOM     52  O   UNL     1      -3.387  -2.552  -2.097  0.00  0.00    +0.000 OA
BRANCH  51  53
ATOM     53  O   UNL     1      -4.200  -0.898  -3.373  0.00  0.00    +0.000 OA
ATOM     54  H   UNL     1      -4.791  -0.184  -3.509  0.00  0.00    +0.000 HD
ENDBRANCH  51  53
ENDBRANCH  39  51
ENDBRANCH  35  38
ENDBRANCH  31  32
ENDBRANCH   1  31
TORSDOF 22
