REMARK  Name = 213053
REMARK  6 active torsions:
REMARK  status: ('A' for Active; 'I' for Inactive)
REMARK    1  A    between atoms: S_2  and  N_9
REMARK    2  A    between atoms: S_2  and  C_13
REMARK    3  A    between atoms: O_4  and  C_24
REMARK    4  A    between atoms: O_4  and  C_25
REMARK    5  A    between atoms: N_7  and  C_11
REMARK    6  A    between atoms: C_10  and  C_12
REMARK                            x       y       z     vdW  Elec       q    Type
REMARK                         _______ _______ _______ _____ _____    ______ ____
ROOT
ATOM      1 CL   UNL     1      -4.131   2.877  -0.005  0.00  0.00    +0.000 Cl
ATOM      2  N   UNL     1      -0.351   2.187   0.046  0.00  0.00    +0.000 N 
ATOM      3  N   UNL     1      -1.673   3.968   0.146  0.00  0.00    +0.000 NA
ATOM      4  C   UNL     1      -1.629   1.706  -0.027  0.00  0.00    +0.000 A 
ATOM      5  C   UNL     1      -0.428   3.548   0.149  0.00  0.00    +0.000 A 
ATOM      6  C   UNL     1      -2.427   2.826   0.037  0.00  0.00    +0.000 A 
ENDROOT
BRANCH   4   8
ATOM      7  F   UNL     1      -2.681  -2.544   1.996  0.00  0.00    +0.000 F 
ATOM      8  C   UNL     1      -1.968   0.309  -0.144  0.00  0.00    +0.000 A 
ATOM      9  C   UNL     1      -2.165  -0.460   1.003  0.00  0.00    +0.000 A 
ATOM     10  C   UNL     1      -2.099  -0.274  -1.405  0.00  0.00    +0.000 A 
ATOM     11  C   UNL     1      -2.493  -1.811   0.890  0.00  0.00    +0.000 A 
ATOM     12  C   UNL     1      -2.428  -1.625  -1.518  0.00  0.00    +0.000 A 
ATOM     13  C   UNL     1      -2.624  -2.393  -0.370  0.00  0.00    +0.000 A 
BRANCH  13  14
ATOM     14  O   UNL     1      -2.944  -3.712  -0.482  0.00  0.00    +0.000 OA
ATOM     15  C   UNL     1      -1.862  -4.641  -0.525  0.00  0.00    +0.000 C 
ENDBRANCH  13  14
ENDBRANCH   4   8
BRANCH   2  16
ATOM     16  C   UNL     1       0.832   1.449   0.021  0.00  0.00    +0.000 A 
ATOM     17  C   UNL     1       3.188  -0.022  -0.028  0.00  0.00    +0.000 A 
ATOM     18  C   UNL     1       1.983   2.016  -0.510  0.00  0.00    +0.000 A 
ATOM     19  C   UNL     1       0.844   0.155   0.528  0.00  0.00    +0.000 A 
ATOM     20  C   UNL     1       3.166   1.277  -0.535  0.00  0.00    +0.000 A 
ATOM     21  C   UNL     1       2.027  -0.583   0.503  0.00  0.00    +0.000 A 
BRANCH  17  22
ATOM     22  S   UNL     1       4.669  -0.947  -0.060  0.00  0.00    +0.000 S 
ATOM     23  O   UNL     1       4.327  -2.362  -0.039  0.00  0.00    +0.000 OA
ATOM     24  O   UNL     1       5.519  -0.423  -1.120  0.00  0.00    +0.000 OA
BRANCH  22  25
ATOM     25  N   UNL     1       5.350  -0.522   1.449  0.00  0.00    +0.000 NA
ATOM     26  H   UNL     1       5.366  -1.240   2.184  0.00  0.00    +0.000 HD
ATOM     27  H   UNL     1       6.178   0.086   1.444  0.00  0.00    +0.000 HD
ENDBRANCH  22  25
ENDBRANCH  17  22
ENDBRANCH   2  16
TORSDOF 5
