REMARK  Name = 
REMARK  20 active torsions:
REMARK  status: ('A' for Active; 'I' for Inactive)
REMARK    1  A    between atoms: C_1  and  C_2
REMARK    2  A    between atoms: C_2  and  C_3
REMARK    3  A    between atoms: C_3  and  C_4
REMARK    4  A    between atoms: C_3  and  C_5
REMARK    5  A    between atoms: C_5  and  N_6
REMARK    6  A    between atoms: C_5  and  C_19
REMARK    7  A    between atoms: C_7  and  C_9
REMARK    8  A    between atoms: C_9  and  O_10
REMARK    9  A    between atoms: C_9  and  C_11
REMARK   10  A    between atoms: C_11  and  C_12
REMARK   11  A    between atoms: C_15  and  O_16
REMARK   12  A    between atoms: C_22  and  C_23
REMARK   13  A    between atoms: N_25  and  C_26
REMARK   14  A    between atoms: C_26  and  C_27
REMARK   15  A    between atoms: C_27  and  C_28
REMARK   16  A    between atoms: C_28  and  C_29
REMARK   17  A    between atoms: C_29  and  N_30
REMARK   18  A    between atoms: C_38  and  O_39
REMARK   19  A    between atoms: O_39  and  S_40
REMARK   20  A    between atoms: S_40  and  O_43
REMARK                            x       y       z     vdW  Elec       q    Type
REMARK                         _______ _______ _______ _____ _____    ______ ____
ROOT
ATOM      1  C   UNL     1       0.354  -0.963   0.009  0.00  0.00    +0.000 C 
ATOM      2  O   UNL     1       1.110  -1.151   1.056  0.00  0.00    +0.000 OA
ATOM      3  N   UNL     1      -0.907  -1.553  -0.353  0.00  0.00    +0.000 N 
ATOM      4  C   UNL     1      -2.054  -0.533   0.289  0.00  0.00    +0.000 C 
ATOM      5  C   UNL     1      -2.094  -0.298  -1.213  0.00  0.00    +0.000 C 
ATOM      6  C   UNL     1      -2.414  -0.811   0.311  0.00  0.00    +0.000 C 
ATOM      7  C   UNL     1      -1.008  -1.172   1.067  0.00  0.00    +0.000 C 
ATOM      8  C   UNL     1      -0.434  -2.287   0.083  0.00  0.00    +0.000 C 
ATOM      9  C   UNL     1      -0.833  -3.703   0.370  0.00  0.00    +0.000 C 
ATOM     10  C   UNL     1      -1.780  -2.940   1.502  0.00  0.00    +0.000 C 
ATOM     11  C   UNL     1      -2.125  -2.425  -0.108  0.00  0.00    +0.000 C 
ENDROOT
BRANCH   4  12
ATOM     12  C   UNL     1      -3.477  -1.427   0.372  0.00  0.00    +0.000 C 
ATOM     13  O   UNL     1      -4.002  -1.367   1.509  0.00  0.00    +0.000 OA
ATOM     14  N   UNL     1      -4.324  -1.313  -0.733  0.00  0.00    +0.000 N 
ATOM     15  H   UNL     1      -3.991  -1.468  -1.646  0.00  0.00    +0.000 HD
BRANCH  14  16
ATOM     16  C   UNL     1      -5.688  -0.966  -0.495  0.00  0.00    +0.000 C 
BRANCH  16  17
ATOM     17  C   UNL     1      -5.786   0.436  -1.009  0.00  0.00    +0.000 C 
BRANCH  17  18
ATOM     18  C   UNL     1      -6.267   1.369   0.083  0.00  0.00    +0.000 C 
BRANCH  18  19
ATOM     19  C   UNL     1      -7.355   2.174  -0.528  0.00  0.00    +0.000 C 
BRANCH  19  20
ATOM     20  N   UNL     1      -7.083   3.531  -0.817  0.00  0.00    +0.000 NA
ATOM     21  C   UNL     1      -7.912   4.431  -0.376  0.00  0.00    +0.000 C 
ATOM     22  N   UNL     1      -7.428   5.770  -0.521  0.00  0.00    +0.000 N 
ATOM     23  N   UNL     1      -8.866   4.190   0.631  0.00  0.00    +0.000 N 
ATOM     24  H   UNL     1      -6.760   5.980  -1.213  0.00  0.00    +0.000 HD
ATOM     25  H   UNL     1      -7.762   6.481   0.073  0.00  0.00    +0.000 HD
ATOM     26  H   UNL     1      -9.224   3.282   0.763  0.00  0.00    +0.000 HD
ATOM     27  H   UNL     1      -9.175   4.929   1.204  0.00  0.00    +0.000 HD
ENDBRANCH  19  20
ENDBRANCH  18  19
ENDBRANCH  17  18
ENDBRANCH  16  17
ENDBRANCH  14  16
ENDBRANCH   4  12
BRANCH   1  28
ATOM     28  C   UNL     1       1.151  -0.353  -1.233  0.00  0.00    +0.000 C 
BRANCH  28  29
ATOM     29  N   UNL     1       2.522  -0.937  -0.679  0.00  0.00    +0.000 N 
ATOM     30  C   UNL     1       3.513  -0.108  -0.811  0.00  0.00    +0.000 C 
ATOM     31  O   UNL     1       3.360   0.844  -1.626  0.00  0.00    +0.000 OA
ATOM     32  H   UNL     1       2.610  -1.832  -0.278  0.00  0.00    +0.000 HD
BRANCH  30  33
ATOM     33  C   UNL     1       5.088  -0.347  -0.603  0.00  0.00    +0.000 C 
BRANCH  33  34
ATOM     34  O   UNL     1       4.857  -1.545   0.326  0.00  0.00    +0.000 OA
ATOM     35  H   UNL     1       4.162  -1.328   0.966  0.00  0.00    +0.000 HD
ENDBRANCH  33  34
BRANCH  33  36
ATOM     36  C   UNL     1       5.074   0.707   0.691  0.00  0.00    +0.000 C 
BRANCH  36  37
ATOM     37  C   UNL     1       5.879   1.851   0.281  0.00  0.00    +0.000 A 
ATOM     38  C   UNL     1       6.235   2.726   1.272  0.00  0.00    +0.000 A 
ATOM     39  C   UNL     1       7.129   3.771   1.094  0.00  0.00    +0.000 A 
ATOM     40  C   UNL     1       7.653   3.996  -0.157  0.00  0.00    +0.000 A 
ATOM     41  C   UNL     1       7.330   3.119  -1.169  0.00  0.00    +0.000 A 
ATOM     42  C   UNL     1       6.480   2.045  -0.931  0.00  0.00    +0.000 A 
BRANCH  40  43
ATOM     43  O   UNL     1       8.344   5.163  -0.394  0.00  0.00    +0.000 OA
ATOM     44  H   UNL     1       8.548   5.739   0.316  0.00  0.00    +0.000 HD
ENDBRANCH  40  43
ENDBRANCH  36  37
ENDBRANCH  33  36
ENDBRANCH  30  33
ENDBRANCH  28  29
BRANCH  28  45
ATOM     45  C   UNL     1       1.513   1.242  -0.696  0.00  0.00    +0.000 C 
ATOM     46  C   UNL     1       1.265   1.101   0.894  0.00  0.00    +0.000 C 
BRANCH  45  48
ATOM     47  C   UNL     1      -0.022   2.277  -1.213  0.00  0.00    +0.000 C 
ATOM     48  C   UNL     1       0.091   1.945  -1.016  0.00  0.00    +0.000 C 
ENDBRANCH  45  48
ENDBRANCH  28  45
ENDBRANCH   1  28
BRANCH   9  49
ATOM     49  O   UNL     1       0.449  -3.786   1.246  0.00  0.00    +0.000 OA
BRANCH  49  50
ATOM     50  S   UNL     1       0.661  -5.246   0.568  0.00  0.00    +0.000 S 
ATOM     51  O   UNL     1      -0.451  -5.793  -0.305  0.00  0.00    +0.000 OA
ATOM     52  O   UNL     1       1.890  -5.866   0.269  0.00  0.00    +0.000 OA
BRANCH  50  53
ATOM     53  O   UNL     1       0.360  -5.798   2.186  0.00  0.00    +0.000 OA
ATOM     54  H   UNL     1      -0.478  -5.427   2.503  0.00  0.00    +0.000 HD
ENDBRANCH  50  53
ENDBRANCH  49  50
ENDBRANCH   9  49
TORSDOF 18
