REMARK  Name = 
REMARK  28 active torsions:
REMARK  status: ('A' for Active; 'I' for Inactive)
REMARK    1  A    between atoms: N_1  and  C_2
REMARK    2  A    between atoms: C_2  and  C_3
REMARK    3  A    between atoms: C_2  and  C_45
REMARK    4  A    between atoms: C_3  and  C_4
REMARK    5  A    between atoms: C_4  and  C_5
REMARK    6  A    between atoms: N_7  and  C_8
REMARK    7  A    between atoms: C_8  and  C_9
REMARK    8  A    between atoms: C_8  and  C_32
REMARK    9  A    between atoms: C_9  and  S_10
REMARK   10  A    between atoms: S_10  and  C_13
REMARK   11  A    between atoms: C_13  and  C_14
REMARK   12  A    between atoms: C_14  and  O_15
REMARK   13  A    between atoms: O_15  and  P_16
REMARK   14  A    between atoms: P_16  and  N_18
REMARK   15  A    between atoms: P_16  and  N_25
REMARK   16  A    between atoms: N_18  and  C_19
REMARK   17  A    between atoms: N_18  and  C_22
REMARK   18  A    between atoms: C_19  and  C_20
REMARK   19  A    between atoms: C_22  and  C_23
REMARK   20  A    between atoms: N_25  and  C_26
REMARK   21  A    between atoms: N_25  and  C_29
REMARK   22  A    between atoms: C_26  and  C_27
REMARK   23  A    between atoms: C_29  and  C_30
REMARK   24  A    between atoms: N_34  and  C_35
REMARK   25  A    between atoms: C_35  and  C_36
REMARK   26  A    between atoms: C_35  and  C_39
REMARK   27  A    between atoms: C_36  and  O_38
REMARK   28  A    between atoms: C_45  and  O_47
REMARK                            x       y       z     vdW  Elec       q    Type
REMARK                         _______ _______ _______ _____ _____    ______ ____
ROOT
ATOM      1  C   UNK A   1      -1.515   0.173  -1.164  0.00  0.00    +0.000 C 
ENDROOT
BRANCH   1   4
ATOM      2  C   UNK A   1      -3.581   1.579  -1.738  0.00  0.00    +0.000 C 
ATOM      3  O   UNK A   1      -3.646   1.076  -2.905  0.00  0.00    +0.000 OA
ATOM      4  N   UNK A   1      -2.230   1.571  -1.383  0.00  0.00    +0.000 N 
ATOM      5  H   UNK A   1      -1.733   2.413  -1.272  0.00  0.00    +0.000 HD
BRANCH   2   6
ATOM      6  C   UNK A   1      -4.325   2.845  -1.409  0.00  0.00    +0.000 C 
BRANCH   6   7
ATOM      7  C   UNK A   1      -3.459   3.676  -0.507  0.00  0.00    +0.000 C 
BRANCH   7   8
ATOM      8  C   UNK A   1      -4.479   4.571   0.441  0.00  0.00    +0.000 C 
BRANCH   8   9
ATOM      9  N   UNK A   1      -5.373   3.301   0.791  0.00  0.00    +0.000 NA
ATOM     10  H   UNK A   1      -4.985   2.826   1.606  0.00  0.00    +0.000 HD
ATOM     11  H   UNK A   1      -5.381   2.661  -0.004  0.00  0.00    +0.000 HD
ENDBRANCH   8   9
BRANCH   8  12
ATOM     12  C   UNK A   1      -5.436   4.954  -0.825  0.00  0.00    +0.000 C 
ATOM     13  O   UNK A   1      -6.297   5.755  -0.346  0.00  0.00    +0.000 OA
BRANCH  12  14
ATOM     14  O   UNK A   1      -4.726   5.506  -1.900  0.00  0.00    +0.000 OA
ATOM     15  H   UNK A   1      -4.064   5.003  -2.332  0.00  0.00    +0.000 HD
ENDBRANCH  12  14
ENDBRANCH   8  12
ENDBRANCH   7   8
ENDBRANCH   6   7
ENDBRANCH   2   6
ENDBRANCH   1   4
BRANCH   1  16
ATOM     16  C   UNK A   1      -2.737  -0.508  -0.323  0.00  0.00    +0.000 C 
ATOM     17  O   UNK A   1      -2.189  -1.392   0.417  0.00  0.00    +0.000 OA
ATOM     18  N   UNK A   2      -3.708  -1.217  -1.119  0.00  0.00    +0.000 N 
ATOM     19  H   UNK A   2      -3.640  -1.525  -2.051  0.00  0.00    +0.000 HD
BRANCH  18  20
ATOM     20  C   UNK A   2      -4.928  -1.372  -0.093  0.00  0.00    +0.000 C 
BRANCH  20  21
ATOM     21  C   UNK A   2      -4.461  -2.875   0.326  0.00  0.00    +0.000 A 
ATOM     22  C   UNK A   2      -4.362  -3.820  -0.616  0.00  0.00    +0.000 A 
ATOM     23  C   UNK A   2      -4.257  -5.136  -0.170  0.00  0.00    +0.000 A 
ATOM     24  C   UNK A   2      -4.604  -5.472   1.133  0.00  0.00    +0.000 A 
ATOM     25  C   UNK A   2      -4.437  -4.460   2.071  0.00  0.00    +0.000 A 
ATOM     26  C   UNK A   2      -4.445  -3.127   1.668  0.00  0.00    +0.000 A 
ENDBRANCH  20  21
BRANCH  20  27
ATOM     27  C   UNK A   2      -5.958  -1.889  -1.256  0.00  0.00    +0.000 C 
ATOM     28  O   UNK A   2      -6.418  -0.866  -1.850  0.00  0.00    +0.000 OA
BRANCH  27  29
ATOM     29  O   UNK A   2      -6.912  -2.745  -0.684  0.00  0.00    +0.000 OA
ATOM     30  H   UNK A   2      -6.637  -3.518  -0.232  0.00  0.00    +0.000 HD
ENDBRANCH  27  29
ENDBRANCH  20  27
ENDBRANCH  18  20
ENDBRANCH   1  16
BRANCH   1  31
ATOM     31  C   UNK A   1      -0.846   0.788   0.231  0.00  0.00    +0.000 C 
BRANCH  31  32
ATOM     32  S   UNK A   1       0.766   0.199   0.407  0.00  0.00    +0.000 S 
ATOM     33  O   UNK A   1       0.879  -0.265   1.847  0.00  0.00    +0.000 OA
ATOM     34  O   UNK A   1       1.003  -0.947  -0.481  0.00  0.00    +0.000 OA
BRANCH  32  35
ATOM     35  C   UNK A   1       1.882   1.553   0.229  0.00  0.00    +0.000 C 
BRANCH  35  36
ATOM     36  C   UNK A   1       2.985   1.487   1.272  0.00  0.00    +0.000 C 
BRANCH  36  37
ATOM     37  O   UNK A   1       3.215   0.143   1.500  0.00  0.00    +0.000 OA
BRANCH  37  38
ATOM     38  P   UNK A   1       4.593  -0.329   0.683  0.00  0.00    +0.000 P 
ATOM     39  O   UNK A   1       4.291  -1.553  -0.170  0.00  0.00    +0.000 OA
BRANCH  38  40
ATOM     40  N   UNK A   1       5.091   0.938  -0.418  0.00  0.00    +0.000 NA
BRANCH  40  41
ATOM     41  C   UNK A   1       6.492   0.742  -0.683  0.00  0.00    +0.000 C 
BRANCH  41  42
ATOM     42  C   UNK A   1       7.372   1.699   0.113  0.00  0.00    +0.000 C 
ATOM     43 CL   UNK A   1       8.352   2.579  -1.059  0.00  0.00    +0.000 Cl
ENDBRANCH  41  42
ENDBRANCH  40  41
BRANCH  40  44
ATOM     44  C   UNK A   1       4.387   0.701  -1.669  0.00  0.00    +0.000 C 
BRANCH  44  45
ATOM     45  C   UNK A   1       5.292   0.461  -2.830  0.00  0.00    +0.000 C 
ATOM     46 CL   UNK A   1       6.074  -1.129  -2.698  0.00  0.00    +0.000 Cl
ENDBRANCH  44  45
ENDBRANCH  40  44
ENDBRANCH  38  40
BRANCH  38  47
ATOM     47  N   UNK A   1       5.816  -0.673   1.891  0.00  0.00    +0.000 NA
BRANCH  47  48
ATOM     48  C   UNK A   1       5.877  -2.129   1.982  0.00  0.00    +0.000 C 
BRANCH  48  49
ATOM     49  C   UNK A   1       6.757  -2.781   0.977  0.00  0.00    +0.000 C 
ATOM     50 CL   UNK A   1       5.939  -4.165   0.192  0.00  0.00    +0.000 Cl
ENDBRANCH  48  49
ENDBRANCH  47  48
BRANCH  47  51
ATOM     51  C   UNK A   1       5.398  -0.258   3.222  0.00  0.00    +0.000 C 
BRANCH  51  52
ATOM     52  C   UNK A   1       5.580   1.200   3.489  0.00  0.00    +0.000 C 
ATOM     53 CL   UNK A   1       7.291   1.616   3.416  0.00  0.00    +0.000 Cl
ENDBRANCH  51  52
ENDBRANCH  47  51
ENDBRANCH  38  47
ENDBRANCH  37  38
ENDBRANCH  36  37
ENDBRANCH  35  36
ENDBRANCH  32  35
ENDBRANCH  31  32
ENDBRANCH   1  31
TORSDOF 28
