REMARK  Name = 
REMARK  42 active torsions:
REMARK  status: ('A' for Active; 'I' for Inactive)
REMARK    1  A    between atoms: C_1  and  C_2
REMARK    2  A    between atoms: C_2  and  C_3
REMARK    3  A    between atoms: C_3  and  C_4
REMARK    4  A    between atoms: C_4  and  N_5
REMARK    5  A    between atoms: C_4  and  C_40
REMARK    6  A    between atoms: C_6  and  C_8
REMARK    7  A    between atoms: C_8  and  N_9
REMARK    8  A    between atoms: C_8  and  C_37
REMARK    9  A    between atoms: C_10  and  C_12
REMARK   10  A    between atoms: C_12  and  N_13
REMARK   11  A    between atoms: C_12  and  C_33
REMARK   12  A    between atoms: C_14  and  C_16
REMARK   13  A    between atoms: C_16  and  N_17
REMARK   14  A    between atoms: C_16  and  C_30
REMARK   15  A    between atoms: C_18  and  C_20
REMARK   16  A    between atoms: C_20  and  N_21
REMARK   17  A    between atoms: C_22  and  C_24
REMARK   18  A    between atoms: C_24  and  N_25
REMARK   19  A    between atoms: N_25  and  C_26
REMARK   20  A    between atoms: C_27  and  C_28
REMARK   21  A    between atoms: C_30  and  C_31
REMARK   22  A    between atoms: C_30  and  C_32
REMARK   23  A    between atoms: C_33  and  C_34
REMARK   24  A    between atoms: C_33  and  C_35
REMARK   25  A    between atoms: C_35  and  C_36
REMARK   26  A    between atoms: C_37  and  C_38
REMARK   27  A    between atoms: C_37  and  O_39
REMARK   28  A    between atoms: N_42  and  C_43
REMARK   29  A    between atoms: C_43  and  C_44
REMARK   30  A    between atoms: C_43  and  C_67
REMARK   31  A    between atoms: N_46  and  C_47
REMARK   32  A    between atoms: C_47  and  C_48
REMARK   33  A    between atoms: C_47  and  C_55
REMARK   34  A    between atoms: C_48  and  C_49
REMARK   35  A    between atoms: C_49  and  C_50
REMARK   36  A    between atoms: C_50  and  N_51
REMARK   37  A    between atoms: C_61  and  C_62
REMARK   38  A    between atoms: N_64  and  C_65
REMARK   39  A    between atoms: C_65  and  C_66
REMARK   40  A    between atoms: C_67  and  C_68
REMARK   41  A    between atoms: C_67  and  C_69
REMARK   42  A    between atoms: C_69  and  C_70
REMARK                            x       y       z     vdW  Elec       q    Type
REMARK                         _______ _______ _______ _____ _____    ______ ____
ROOT
ATOM      1  C   UNL     1      -1.085   0.472  -1.846  0.00  0.00    +0.000 C 
ENDROOT
BRANCH   1   2
ATOM      2  N   UNL     1      -0.554  -0.502  -0.702  0.00  0.00    +0.000 N 
ATOM      3  C   UNL     1       0.779  -0.048  -0.406  0.00  0.00    +0.000 C 
ATOM      4  O   UNL     1       1.549  -0.508  -1.260  0.00  0.00    +0.000 OA
ATOM      5  H   UNL     1      -1.035  -1.254  -0.287  0.00  0.00    +0.000 HD
BRANCH   3   6
ATOM      6  C   UNL     1       1.208  -0.137   1.144  0.00  0.00    +0.000 C 
BRANCH   6   7
ATOM      7  N   UNL     1       2.754  -0.006   0.879  0.00  0.00    +0.000 N 
ATOM      8  C   UNL     1       3.588  -0.967   1.538  0.00  0.00    +0.000 C 
ATOM      9  O   UNL     1       3.130  -1.805   2.292  0.00  0.00    +0.000 OA
ATOM     10  H   UNL     1       3.126   0.694   0.295  0.00  0.00    +0.000 HD
BRANCH   8  11
ATOM     11  C   UNL     1       5.007  -0.270   1.883  0.00  0.00    +0.000 C 
BRANCH  11  12
ATOM     12  N   UNL     1       5.835  -1.393   1.152  0.00  0.00    +0.000 N 
ATOM     13  C   UNL     1       5.981  -1.345  -0.263  0.00  0.00    +0.000 C 
ATOM     14  O   UNL     1       4.835  -1.285  -0.773  0.00  0.00    +0.000 OA
ATOM     15  H   UNL     1       6.247  -2.123   1.669  0.00  0.00    +0.000 HD
BRANCH  13  16
ATOM     16  C   UNL     1       7.059  -0.254  -0.826  0.00  0.00    +0.000 C 
BRANCH  16  17
ATOM     17  N   UNL     1       8.116  -1.298  -1.391  0.00  0.00    +0.000 N 
ATOM     18  C   UNL     1       8.399  -2.361  -0.468  0.00  0.00    +0.000 C 
ATOM     19  O   UNL     1       7.387  -3.123  -0.565  0.00  0.00    +0.000 OA
ATOM     20  H   UNL     1       8.534  -1.223  -2.279  0.00  0.00    +0.000 HD
BRANCH  18  21
ATOM     21  C   UNL     1       9.748  -2.969  -0.402  0.00  0.00    +0.000 C 
BRANCH  21  22
ATOM     22  N   UNL     1      10.640  -2.248   0.497  0.00  0.00    +0.000 N 
ATOM     23  C   UNL     1      12.032  -2.218   0.199  0.00  0.00    +0.000 C 
ATOM     24  O   UNL     1      12.547  -3.216  -0.351  0.00  0.00    +0.000 OA
ATOM     25  H   UNL     1      10.287  -1.792   1.295  0.00  0.00    +0.000 HD
BRANCH  23  26
ATOM     26  C   UNL     1      12.929  -1.102   0.561  0.00  0.00    +0.000 C 
BRANCH  26  27
ATOM     27  N   UNL     1      12.686   0.067  -0.257  0.00  0.00    +0.000 N 
ATOM     28  C   UNL     1      11.801  -0.043  -1.409  0.00  0.00    +0.000 C 
ATOM     29  C   UNL     1      13.124   1.358   0.133  0.00  0.00    +0.000 C 
ATOM     30  C   UNL     1      12.113   2.397   0.462  0.00  0.00    +0.000 C 
ATOM     31  O   UNL     1      14.262   1.726  -0.264  0.00  0.00    +0.000 OA
ENDBRANCH  26  27
ENDBRANCH  23  26
ENDBRANCH  21  22
ENDBRANCH  18  21
ENDBRANCH  16  17
BRANCH  16  32
ATOM     32  C   UNL     1       6.348  -0.076  -2.321  0.00  0.00    +0.000 C 
ATOM     33  C   UNL     1       7.325   0.811  -3.032  0.00  0.00    +0.000 C 
ATOM     34  C   UNL     1       6.202  -1.440  -2.886  0.00  0.00    +0.000 C 
ENDBRANCH  16  32
ENDBRANCH  13  16
ENDBRANCH  11  12
BRANCH  11  35
ATOM     35  C   UNL     1       5.210  -1.021   3.420  0.00  0.00    +0.000 C 
ATOM     36  C   UNL     1       6.826  -1.157   3.316  0.00  0.00    +0.000 C 
BRANCH  35  37
ATOM     37  C   UNL     1       5.332   0.404   4.190  0.00  0.00    +0.000 C 
ATOM     38  C   UNL     1       4.116   1.172   3.749  0.00  0.00    +0.000 C 
ENDBRANCH  35  37
ENDBRANCH  11  35
ENDBRANCH   8  11
ENDBRANCH   6   7
BRANCH   6  39
ATOM     39  C   UNL     1       0.950   1.570   1.407  0.00  0.00    +0.000 C 
ATOM     40  C   UNL     1       2.204   1.697   2.472  0.00  0.00    +0.000 C 
BRANCH  39  41
ATOM     41  O   UNL     1       1.814   2.014   0.237  0.00  0.00    +0.000 OA
ATOM     42  H   UNL     1       2.655   1.530   0.254  0.00  0.00    +0.000 HD
ENDBRANCH  39  41
ENDBRANCH   6  39
ENDBRANCH   3   6
ENDBRANCH   1   2
BRANCH   1  43
ATOM     43  C   UNL     1      -2.524   0.618  -1.115  0.00  0.00    +0.000 C 
ATOM     44  O   UNL     1      -3.495   0.086  -1.524  0.00  0.00    +0.000 OA
ATOM     45  N   UNL     1      -2.598   1.474  -0.030  0.00  0.00    +0.000 N 
ATOM     46  H   UNL     1      -2.098   2.322  -0.019  0.00  0.00    +0.000 HD
BRANCH  45  47
ATOM     47  C   UNL     1      -3.507   1.051   1.192  0.00  0.00    +0.000 C 
BRANCH  47  48
ATOM     48  C   UNL     1      -4.721   0.443   0.314  0.00  0.00    +0.000 C 
ATOM     49  O   UNL     1      -4.799  -0.723   0.826  0.00  0.00    +0.000 OA
ATOM     50  N   UNL     1      -5.941   1.075   0.193  0.00  0.00    +0.000 N 
ATOM     51  H   UNL     1      -6.020   1.944  -0.264  0.00  0.00    +0.000 HD
BRANCH  50  52
ATOM     52  C   UNL     1      -7.218   0.355   0.813  0.00  0.00    +0.000 C 
BRANCH  52  53
ATOM     53  C   UNL     1      -7.678  -0.290  -0.609  0.00  0.00    +0.000 C 
ATOM     54  O   UNL     1      -6.797  -0.938  -1.201  0.00  0.00    +0.000 OA
ATOM     55  N   UNL     1      -8.995  -0.814  -0.575  0.00  0.00    +0.000 N 
ATOM     56  C   UNL     1      -9.992  -1.018  -1.563  0.00  0.00    +0.000 C 
ATOM     57  C   UNL     1     -11.158  -0.327  -0.947  0.00  0.00    +0.000 C 
ATOM     58  C   UNL     1     -11.000  -0.236   0.505  0.00  0.00    +0.000 C 
ATOM     59  C   UNL     1      -9.683  -1.196   0.805  0.00  0.00    +0.000 C 
BRANCH  59  60
ATOM     60  C   UNL     1     -10.401  -2.524   0.186  0.00  0.00    +0.000 C 
ATOM     61  O   UNL     1     -11.086  -2.991   1.151  0.00  0.00    +0.000 OA
ATOM     62  N   UNL     1      -9.387  -3.440  -0.259  0.00  0.00    +0.000 N 
ATOM     63  H   UNL     1      -8.458  -3.146  -0.400  0.00  0.00    +0.000 HD
BRANCH  62  64
ATOM     64  C   UNL     1      -9.786  -4.810  -0.489  0.00  0.00    +0.000 C 
ATOM     65  C   UNL     1      -9.115  -5.728   0.498  0.00  0.00    +0.000 C 
ENDBRANCH  62  64
ENDBRANCH  59  60
ENDBRANCH  52  53
BRANCH  52  66
ATOM     66  C   UNL     1      -8.170   1.696   0.581  0.00  0.00    +0.000 C 
BRANCH  66  67
ATOM     67  C   UNL     1      -7.944   2.131  -0.822  0.00  0.00    +0.000 C 
BRANCH  67  68
ATOM     68  C   UNL     1      -7.716   3.598  -1.011  0.00  0.00    +0.000 C 
BRANCH  68  69
ATOM     69  N   UNL     1      -9.024   4.170  -1.319  0.00  0.00    +0.000 NA
ATOM     70  C   UNL     1      -9.970   4.128  -0.438  0.00  0.00    +0.000 C 
ATOM     71  N   UNL     1      -9.910   5.061   0.623  0.00  0.00    +0.000 N 
ATOM     72  N   UNL     1     -10.939   3.105  -0.382  0.00  0.00    +0.000 N 
ATOM     73  H   UNL     1      -9.242   5.784   0.606  0.00  0.00    +0.000 HD
ATOM     74  H   UNL     1     -10.537   4.988   1.378  0.00  0.00    +0.000 HD
ATOM     75  H   UNL     1     -11.000   2.443  -1.109  0.00  0.00    +0.000 HD
ATOM     76  H   UNL     1     -11.555   3.052   0.384  0.00  0.00    +0.000 HD
ENDBRANCH  68  69
ENDBRANCH  67  68
ENDBRANCH  66  67
ENDBRANCH  52  66
ENDBRANCH  50  52
ENDBRANCH  47  48
BRANCH  47  77
ATOM     77  C   UNL     1      -4.192   2.621   1.420  0.00  0.00    +0.000 C 
ATOM     78  C   UNL     1      -2.726   3.274   1.669  0.00  0.00    +0.000 C 
BRANCH  77  79
ATOM     79  C   UNL     1      -4.244   3.057  -0.145  0.00  0.00    +0.000 C 
ATOM     80  C   UNL     1      -4.123   4.570  -0.009  0.00  0.00    +0.000 C 
ENDBRANCH  77  79
ENDBRANCH  47  77
ENDBRANCH  45  47
ENDBRANCH   1  43
BRANCH   1  81
ATOM     81  C   UNL     1      -1.548  -0.801  -2.810  0.00  0.00    +0.000 C 
BRANCH  81  83
ATOM     82  C   UNL     1      -0.463   0.707  -4.341  0.00  0.00    +0.000 C 
ATOM     83  C   UNL     1      -1.348  -0.278  -4.229  0.00  0.00    +0.000 C 
ENDBRANCH  81  83
ENDBRANCH   1  81
TORSDOF 31
