REMARK  Name = 25174101
REMARK  8 active torsions:
REMARK  status: ('A' for Active; 'I' for Inactive)
REMARK    1  A    between atoms: N_2  and  C_14
REMARK    2  A    between atoms: N_4  and  C_13
REMARK    3  A    between atoms: N_5  and  C_18
REMARK    4  A    between atoms: N_6  and  C_20
REMARK    5  A    between atoms: C_7  and  C_8
REMARK    6  A    between atoms: C_7  and  C_9
REMARK    7  A    between atoms: C_7  and  C_10
REMARK    8  A    between atoms: C_7  and  C_11
REMARK                            x       y       z     vdW  Elec       q    Type
REMARK                         _______ _______ _______ _____ _____    ______ ____
ROOT
ATOM      1  N   UNL     1       2.802   0.323   0.096  0.00  0.00    +0.000 N 
ATOM      2  N   UNL     1       4.030  -0.198  -0.070  0.00  0.00    +0.000 NA
ATOM      3  C   UNL     1       3.787  -1.501  -0.231  0.00  0.00    +0.000 A 
ATOM      4  C   UNL     1       2.415  -1.810  -0.169  0.00  0.00    +0.000 A 
ATOM      5  C   UNL     1       1.800  -0.601   0.046  0.00  0.00    +0.000 A 
ENDROOT
BRANCH   5   7
ATOM      6  O   UNL     1      -0.602  -2.374  -0.013  0.00  0.00    +0.000 OA
ATOM      7  N   UNL     1       0.429  -0.285   0.194  0.00  0.00    +0.000 N 
ATOM      8  N   UNL     1      -1.866  -0.436   0.349  0.00  0.00    +0.000 N 
ATOM      9  C   UNL     1      -0.668  -1.161   0.158  0.00  0.00    +0.000 C 
ATOM     10  H   UNL     1       0.222   0.694   0.367  0.00  0.00    +0.000 HD
ATOM     11  H   UNL     1      -1.754   0.569   0.284  0.00  0.00    +0.000 HD
BRANCH   8  12
ATOM     12  C   UNL     1      -3.180  -0.919   0.384  0.00  0.00    +0.000 A 
ATOM     13  C   UNL     1      -4.268  -0.132  -0.028  0.00  0.00    +0.000 A 
ATOM     14  C   UNL     1      -5.574  -0.674   0.030  0.00  0.00    +0.000 A 
ATOM     15  C   UNL     1      -3.377  -2.220   0.846  0.00  0.00    +0.000 A 
ATOM     16  C   UNL     1      -4.089   1.179  -0.497  0.00  0.00    +0.000 A 
ATOM     17  C   UNL     1      -5.754  -1.986   0.498  0.00  0.00    +0.000 A 
ATOM     18  C   UNL     1      -4.662  -2.753   0.903  0.00  0.00    +0.000 A 
ATOM     19  C   UNL     1      -6.663   0.113  -0.382  0.00  0.00    +0.000 A 
ATOM     20  C   UNL     1      -5.181   1.947  -0.902  0.00  0.00    +0.000 A 
ATOM     21  C   UNL     1      -6.466   1.414  -0.845  0.00  0.00    +0.000 A 
ENDBRANCH   8  12
ENDBRANCH   5   7
BRANCH   1  22
ATOM     22  C   UNL     1       2.657   1.697   0.297  0.00  0.00    +0.000 A 
ATOM     23  C   UNL     1       1.906   2.457  -0.600  0.00  0.00    +0.000 A 
ATOM     24  C   UNL     1       3.262   2.309   1.394  0.00  0.00    +0.000 A 
ATOM     25  C   UNL     1       1.761   3.830  -0.399  0.00  0.00    +0.000 A 
ATOM     26  C   UNL     1       3.117   3.682   1.595  0.00  0.00    +0.000 A 
ATOM     27  C   UNL     1       2.367   4.442   0.698  0.00  0.00    +0.000 A 
BRANCH  25  28
ATOM     28  N   UNL     1       1.002   4.599  -1.306  0.00  0.00    +0.000 N 
ATOM     29  H   UNL     1       0.896   5.594  -1.160  0.00  0.00    +0.000 HD
ATOM     30  H   UNL     1       0.561   4.156  -2.101  0.00  0.00    +0.000 HD
ENDBRANCH  25  28
ENDBRANCH   1  22
BRANCH   3  31
ATOM     31  C   UNL     1       4.907  -2.433  -0.444  0.00  0.00    +0.000 C 
ATOM     32  C   UNL     1       4.788  -3.187  -1.812  0.00  0.00    +0.000 C 
ATOM     33  C   UNL     1       4.977  -3.529   0.674  0.00  0.00    +0.000 C 
ATOM     34  C   UNL     1       6.344  -1.792  -0.464  0.00  0.00    +0.000 C 
ENDBRANCH   3  31
TORSDOF 5
