REMARK  Name = 
REMARK  33 active torsions:
REMARK  status: ('A' for Active; 'I' for Inactive)
REMARK    1  A    between atoms: C_1  and  N_2
REMARK    2  A    between atoms: N_2  and  C_3
REMARK    3  A    between atoms: C_3  and  C_4
REMARK    4  A    between atoms: N_6  and  CA_7
REMARK    5  A    between atoms: CA_7  and  CB_8
REMARK    6  A    between atoms: CA_7  and  C_15
REMARK    7  A    between atoms: CB_8  and  CG_9
REMARK    8  A    between atoms: CG_9  and  CD_10
REMARK    9  A    between atoms: CD_10  and  NE_11
REMARK   10  A    between atoms: N_17  and  CA_18
REMARK   11  A    between atoms: CA_18  and  C_19
REMARK   12  A    between atoms: CA_18  and  CB_63
REMARK   13  A    between atoms: N_21  and  CA_22
REMARK   14  A    between atoms: CA_22  and  CB_23
REMARK   15  A    between atoms: CA_22  and  C_31
REMARK   16  A    between atoms: CB_23  and  CG_24
REMARK   17  A    between atoms: CZ_27  and  OH_28
REMARK   18  A    between atoms: N_33  and  CA_34
REMARK   19  A    between atoms: CA_34  and  C_35
REMARK   20  A    between atoms: CA_34  and  CB_60
REMARK   21  A    between atoms: N_37  and  CA_38
REMARK   22  A    between atoms: CA_38  and  CB_39
REMARK   23  A    between atoms: CA_38  and  C_45
REMARK   24  A    between atoms: CB_39  and  CG_40
REMARK   25  A    between atoms: CA_51  and  C_52
REMARK   26  A    between atoms: N_54  and  CA_55
REMARK   27  A    between atoms: CA_55  and  CB_56
REMARK   28  A    between atoms: CA_55  and  C_57
REMARK   29  A    between atoms: C_57  and  OXT_59
REMARK   30  A    between atoms: CB_60  and  CG1_61
REMARK   31  A    between atoms: CB_60  and  CG2_62
REMARK   32  A    between atoms: CB_63  and  CG1_64
REMARK   33  A    between atoms: CB_63  and  CG2_65
REMARK                            x       y       z     vdW  Elec       q    Type
REMARK                         _______ _______ _______ _____ _____    ______ ____
ROOT
ATOM      1  CA  TYR A   3      -1.205  -0.642  -0.720  0.00  0.00    +0.000 C 
ENDROOT
BRANCH   1   4
ATOM      2  C   VAL A   2      -3.356   0.296  -0.175  0.00  0.00    +0.000 C 
ATOM      3  O   VAL A   2      -3.324   1.275  -0.986  0.00  0.00    +0.000 OA
ATOM      4  N   TYR A   3      -2.014   0.215   0.331  0.00  0.00    +0.000 N 
ATOM      5  H   TYR A   3      -1.668   0.613   1.163  0.00  0.00    +0.000 HD
BRANCH   2   6
ATOM      6  CA  VAL A   2      -4.496   0.394   0.963  0.00  0.00    +0.000 C 
BRANCH   6   9
ATOM      7  C   ARG A   1      -6.915   0.811   0.415  0.00  0.00    +0.000 C 
ATOM      8  O   ARG A   1      -7.308  -0.169   1.012  0.00  0.00    +0.000 OA
ATOM      9  N   VAL A   2      -5.613   0.754  -0.095  0.00  0.00    +0.000 N 
ATOM     10  H   VAL A   2      -5.408   0.925  -1.043  0.00  0.00    +0.000 HD
BRANCH   7  11
ATOM     11  CA  ARG A   1      -7.557   2.268   0.657  0.00  0.00    +0.000 C 
BRANCH  11  14
ATOM     12  C   UNK A   0      -8.573   2.257  -1.560  0.00  0.00    +0.000 C 
ATOM     13  O   UNK A   0      -7.518   1.834  -2.124  0.00  0.00    +0.000 OA
ATOM     14  N   ARG A   1      -8.842   1.915  -0.194  0.00  0.00    +0.000 N 
ATOM     15  H   ARG A   1      -9.678   1.529   0.152  0.00  0.00    +0.000 HD
BRANCH  12  16
ATOM     16  C   UNK A   0      -9.519   2.980  -2.434  0.00  0.00    +0.000 C 
BRANCH  16  18
ATOM     17  C   UNK A   0      -8.573   2.485  -4.563  0.00  0.00    +0.000 C 
ATOM     18  N   UNK A   0      -8.830   3.514  -3.600  0.00  0.00    +0.000 NA
ATOM     19  H   UNK A   0      -9.411   4.234  -4.030  0.00  0.00    +0.000 HD
ENDBRANCH  16  18
ENDBRANCH  12  16
ENDBRANCH  11  14
BRANCH  11  20
ATOM     20  CB  ARG A   1      -8.251   1.862   2.101  0.00  0.00    +0.000 C 
BRANCH  20  21
ATOM     21  CG  ARG A   1      -6.970   1.537   2.862  0.00  0.00    +0.000 C 
BRANCH  21  22
ATOM     22  CD  ARG A   1      -7.099   1.539   4.336  0.00  0.00    +0.000 C 
BRANCH  22  23
ATOM     23  NE  ARG A   1      -8.264   0.884   4.845  0.00  0.00    +0.000 N 
ATOM     24  CZ  ARG A   1      -8.714  -0.363   4.384  0.00  0.00    +0.000 C 
ATOM     25  NH1 ARG A   1      -7.878  -1.127   3.790  0.00  0.00    +0.000 NA
ATOM     26  NH2 ARG A   1     -10.089  -0.673   4.375  0.00  0.00    +0.000 N 
ATOM     27  HE  ARG A   1      -8.778   1.331   5.556  0.00  0.00    +0.000 HD
ATOM     28  HH1 ARG A   1      -6.918  -0.908   3.797  0.00  0.00    +0.000 HD
ATOM     29 HH21 ARG A   1     -10.730  -0.083   4.833  0.00  0.00    +0.000 HD
ATOM     30 HH22 ARG A   1     -10.409  -1.481   3.911  0.00  0.00    +0.000 HD
ENDBRANCH  22  23
ENDBRANCH  21  22
ENDBRANCH  20  21
ENDBRANCH  11  20
ENDBRANCH   7  11
ENDBRANCH   6   9
BRANCH   6  31
ATOM     31  CB  VAL A   2      -4.836  -1.217   0.896  0.00  0.00    +0.000 C 
ATOM     32  CG1 VAL A   2      -4.912  -1.596  -0.537  0.00  0.00    +0.000 C 
ATOM     33  CG2 VAL A   2      -3.681  -1.853   1.644  0.00  0.00    +0.000 C 
ENDBRANCH   6  31
ENDBRANCH   2   6
ENDBRANCH   1   4
BRANCH   1  34
ATOM     34  C   TYR A   3       0.231   0.037  -0.407  0.00  0.00    +0.000 C 
ATOM     35  O   TYR A   3       0.348   0.744   0.598  0.00  0.00    +0.000 OA
ATOM     36  N   VAL A   4       1.205  -1.018  -0.563  0.00  0.00    +0.000 N 
ATOM     37  H   VAL A   4       1.231  -1.617  -1.344  0.00  0.00    +0.000 HD
BRANCH  36  38
ATOM     38  CA  VAL A   4       2.223  -1.120   0.638  0.00  0.00    +0.000 C 
BRANCH  38  39
ATOM     39  C   VAL A   4       3.366  -1.871  -0.236  0.00  0.00    +0.000 C 
ATOM     40  O   VAL A   4       3.913  -2.837   0.385  0.00  0.00    +0.000 OA
ATOM     41  N   HIS A   5       4.324  -0.969  -0.831  0.00  0.00    +0.000 N 
ATOM     42  H   HIS A   5       4.065  -0.275  -1.480  0.00  0.00    +0.000 HD
BRANCH  41  43
ATOM     43  CA  HIS A   5       5.821  -1.179  -0.361  0.00  0.00    +0.000 C 
BRANCH  43  44
ATOM     44  C   HIS A   5       6.167   0.404  -0.325  0.00  0.00    +0.000 C 
ATOM     45  O   HIS A   5       5.872   1.026  -1.393  0.00  0.00    +0.000 OA
ATOM     46  N   PRO A   6       5.879   1.110   0.835  0.00  0.00    +0.000 N 
ATOM     47  CD  PRO A   6       4.912   0.672   1.848  0.00  0.00    +0.000 C 
ATOM     48  CG  PRO A   6       5.656  -0.475   2.524  0.00  0.00    +0.000 C 
ATOM     49  CB  PRO A   6       7.121  -0.181   2.219  0.00  0.00    +0.000 C 
ATOM     50  CA  PRO A   6       6.851   1.438   2.030  0.00  0.00    +0.000 C 
BRANCH  50  51
ATOM     51  C   PRO A   6       8.171   1.747   1.147  0.00  0.00    +0.000 C 
ATOM     52  O   PRO A   6       8.822   0.822   0.690  0.00  0.00    +0.000 OA
ATOM     53  N   ALA A   7       8.895   2.815   1.784  0.00  0.00    +0.000 N 
ATOM     54  H   ALA A   7       8.654   3.761   1.654  0.00  0.00    +0.000 HD
BRANCH  53  55
ATOM     55  CA  ALA A   7      10.103   2.376   2.704  0.00  0.00    +0.000 C 
ATOM     56  CB  ALA A   7      11.145   3.409   1.958  0.00  0.00    +0.000 C 
BRANCH  55  57
ATOM     57  C   ALA A   7       9.745   3.465   3.849  0.00  0.00    +0.000 C 
ATOM     58  O   ALA A   7       8.559   3.361   4.292  0.00  0.00    +0.000 OA
BRANCH  57  59
ATOM     59  OXT ALA A   7      10.702   3.375   4.869  0.00  0.00    +0.000 OA
ATOM     60  HXT ALA A   7      11.614   3.438   4.663  0.00  0.00    +0.000 HD
ENDBRANCH  57  59
ENDBRANCH  55  57
ENDBRANCH  53  55
ENDBRANCH  50  51
ENDBRANCH  43  44
BRANCH  43  61
ATOM     61  CB  HIS A   5       6.475  -1.391  -1.855  0.00  0.00    +0.000 C 
BRANCH  61  62
ATOM     62  CG  HIS A   5       5.437  -1.605  -2.843  0.00  0.00    +0.000 A 
ATOM     63  CD2 HIS A   5       4.659  -2.721  -3.136  0.00  0.00    +0.000 A 
ATOM     64  NE2 HIS A   5       4.401  -2.801  -4.441  0.00  0.00    +0.000 N 
ATOM     65  CE1 HIS A   5       5.073  -1.769  -4.992  0.00  0.00    +0.000 A 
ATOM     66  ND1 HIS A   5       5.449  -0.936  -4.027  0.00  0.00    +0.000 NA
ATOM     67  HE2 HIS A   5       3.843  -3.468  -4.902  0.00  0.00    +0.000 HD
ENDBRANCH  61  62
ENDBRANCH  43  61
ENDBRANCH  41  43
ENDBRANCH  38  39
BRANCH  38  68
ATOM     68  CB  VAL A   4       1.545  -2.504   1.212  0.00  0.00    +0.000 C 
ATOM     69  CG1 VAL A   4       1.461  -3.460   0.110  0.00  0.00    +0.000 C 
ATOM     70  CG2 VAL A   4       2.270  -2.878   2.439  0.00  0.00    +0.000 C 
ENDBRANCH  38  68
ENDBRANCH  36  38
ENDBRANCH   1  34
BRANCH   1  71
ATOM     71  CB  TYR A   3      -1.496   0.372  -1.988  0.00  0.00    +0.000 C 
BRANCH  71  72
ATOM     72  CG  TYR A   3      -1.585  -0.645  -3.091  0.00  0.00    +0.000 A 
ATOM     73  CD1 TYR A   3      -2.756  -1.342  -3.370  0.00  0.00    +0.000 A 
ATOM     74  CE1 TYR A   3      -2.756  -2.705  -3.651  0.00  0.00    +0.000 A 
ATOM     75  CZ  TYR A   3      -1.552  -3.401  -3.638  0.00  0.00    +0.000 A 
ATOM     76  CE2 TYR A   3      -0.466  -2.611  -3.999  0.00  0.00    +0.000 A 
ATOM     77  CD2 TYR A   3      -0.448  -1.285  -3.576  0.00  0.00    +0.000 A 
BRANCH  75  78
ATOM     78  OH  TYR A   3      -1.406  -4.647  -3.030  0.00  0.00    +0.000 OA
ATOM     79  HH  TYR A   3      -2.164  -5.149  -2.803  0.00  0.00    +0.000 HD
ENDBRANCH  75  78
ENDBRANCH  71  72
ENDBRANCH   1  71
TORSDOF 27
