REMARK  Name = 
REMARK  43 active torsions:
REMARK  status: ('A' for Active; 'I' for Inactive)
REMARK    1  A    between atoms: C_1  and  C_16
REMARK    2  A    between atoms: C_2  and  C_8
REMARK    3  A    between atoms: C_3  and  C_57
REMARK    4  A    between atoms: C_4  and  C_13
REMARK    5  A    between atoms: C_5  and  C_14
REMARK    6  A    between atoms: C_6  and  C_15
REMARK    7  A    between atoms: N_7  and  C_8
REMARK    8  A    between atoms: C_8  and  C_32
REMARK    9  A    between atoms: N_9  and  C_14
REMARK   10  A    between atoms: N_10  and  C_13
REMARK   11  A    between atoms: N_11  and  C_15
REMARK   12  A    between atoms: N_12  and  C_16
REMARK   13  A    between atoms: C_13  and  C_18
REMARK   14  A    between atoms: C_14  and  C_26
REMARK   15  A    between atoms: C_15  and  C_27
REMARK   16  A    between atoms: C_16  and  C_39
REMARK   17  A    between atoms: C_18  and  C_45
REMARK   18  A    between atoms: C_26  and  C_30
REMARK   19  A    between atoms: C_27  and  C_40
REMARK   20  A    between atoms: N_28  and  C_41
REMARK   21  A    between atoms: C_31  and  O_37
REMARK   22  A    between atoms: C_32  and  O_38
REMARK   23  A    between atoms: C_39  and  C_42
REMARK   24  A    between atoms: C_40  and  C_43
REMARK   25  A    between atoms: C_40  and  C_44
REMARK   26  A    between atoms: C_41  and  C_42
REMARK   27  A    between atoms: N_47  and  C_50
REMARK   28  A    between atoms: C_50  and  C_51
REMARK   29  A    between atoms: C_57  and  C_58
REMARK   30  A    between atoms: C_57  and  N_59
REMARK   31  A    between atoms: C_58  and  C_60
REMARK   32  A    between atoms: C_69  and  C_71
REMARK   33  A    between atoms: C_71  and  N_72
REMARK   34  A    between atoms: C_71  and  C_73
REMARK   35  A    between atoms: C_73  and  C_74
REMARK   36  A    between atoms: C_79  and  C_80
REMARK   37  A    between atoms: C_88  and  C_92
REMARK   38  A    between atoms: N_94  and  C_95
REMARK   39  A    between atoms: C_95  and  C_96
REMARK   40  A    between atoms: C_97  and  C_98
REMARK   41  A    between atoms: C_98  and  O_99
REMARK   42  A    between atoms: C_101  and  C_102
REMARK   43  A    between atoms: C_102  and  O_103
REMARK                            x       y       z     vdW  Elec       q    Type
REMARK                         _______ _______ _______ _____ _____    ______ ____
ROOT
ATOM      1  C   UNK     1       0.057   0.936   0.000  0.00  0.00    +0.000 C 
ENDROOT
BRANCH   1   3
ATOM      2  C   UNK     1      -1.403   0.936   0.000  0.00  0.00    +0.000 C 
ATOM      3  N   UNK     1      -0.705   0.492   0.000  0.00  0.00    +0.000 N 
ATOM      4  O   UNK     1      -1.403   1.761   0.000  0.00  0.00    +0.000 OA
ATOM      5  H   UNK     1      -0.724  -0.493   0.000  0.00  0.00    +0.000 HD
BRANCH   2   6
ATOM      6  C   UNK     1      -2.101   0.492   0.000  0.00  0.00    +0.000 C 
BRANCH   6   8
ATOM      7  C   UNK     1      -3.497   0.492   0.000  0.00  0.00    +0.000 C 
ATOM      8  N   UNK     1      -2.799   0.936   0.000  0.00  0.00    +0.000 N 
ATOM      9  O   UNK     1      -3.497  -0.333   0.000  0.00  0.00    +0.000 OA
ATOM     10  H   UNK     1      -2.799   1.920   0.000  0.00  0.00    +0.000 HD
BRANCH   7  11
ATOM     11  C   UNK     1      -4.216   0.903   0.000  0.00  0.00    +0.000 C 
BRANCH  11  12
ATOM     12  N   UNK     1      -4.929   0.488   0.000  0.00  0.00    +0.000 N 
ATOM     13  C   UNK     1      -5.645   0.898   0.000  0.00  0.00    +0.000 C 
ATOM     14  O   UNK     1      -5.647   1.718   0.000  0.00  0.00    +0.000 OA
ATOM     15  H   UNK     1      -4.925  -0.497   0.000  0.00  0.00    +0.000 HD
BRANCH  13  16
ATOM     16  C   UNK     1      -6.363   0.485   0.000  0.00  0.00    +0.000 C 
BRANCH  16  17
ATOM     17  N   UNK     1      -7.076   0.900   0.000  0.00  0.00    +0.000 N 
ATOM     18  C   UNK     1      -7.792   0.489   0.000  0.00  0.00    +0.000 C 
ATOM     19  O   UNK     1      -7.794  -0.339   0.000  0.00  0.00    +0.000 OA
ATOM     20  H   UNK     1      -7.074   1.884   0.000  0.00  0.00    +0.000 HD
BRANCH  18  21
ATOM     21  C   UNK     1      -8.505   0.905   0.000  0.00  0.00    +0.000 C 
ATOM     22  N   UNK     1      -9.260   0.572   0.000  0.00  0.00    +0.000 N 
ATOM     23  C   UNK     1      -8.589   1.725   0.000  0.00  0.00    +0.000 C 
ATOM     24  C   UNK     1      -9.810   1.187   0.000  0.00  0.00    +0.000 C 
ATOM     25  C   UNK     1      -9.395   1.900   0.000  0.00  0.00    +0.000 C 
ATOM     26  O   UNK     1     -10.631   1.103   0.000  0.00  0.00    +0.000 OA
ATOM     27  H   UNK     1      -9.468  -0.391   0.000  0.00  0.00    +0.000 HD
ENDBRANCH  18  21
ENDBRANCH  16  17
BRANCH  16  28
ATOM     28  C   UNK     1      -6.363  -0.339   0.000  0.00  0.00    +0.000 C 
BRANCH  28  29
ATOM     29  C   UNK     1      -5.648  -0.752   0.000  0.00  0.00    +0.000 A 
ATOM     30  N   UNK     1      -4.895  -0.416   0.000  0.00  0.00    +0.000 NA
ATOM     31  C   UNK     1      -5.562  -1.572   0.000  0.00  0.00    +0.000 A 
ATOM     32  C   UNK     1      -4.343  -1.029   0.000  0.00  0.00    +0.000 A 
ATOM     33  N   UNK     1      -4.755  -1.744   0.000  0.00  0.00    +0.000 N 
ATOM     34  H   UNK     1      -4.355  -2.643   0.000  0.00  0.00    +0.000 HD
ENDBRANCH  28  29
ENDBRANCH  16  28
ENDBRANCH  13  16
ENDBRANCH  11  12
BRANCH  11  35
ATOM     35  C   UNK     1      -4.219   1.728   0.000  0.00  0.00    +0.000 C 
BRANCH  35  36
ATOM     36  C   UNK     1      -3.506   2.143   0.000  0.00  0.00    +0.000 A 
ATOM     37  C   UNK     1      -3.423   2.964   0.000  0.00  0.00    +0.000 A 
ATOM     38  C   UNK     1      -2.751   1.810   0.000  0.00  0.00    +0.000 A 
ATOM     39  C   UNK     1      -2.617   3.139   0.000  0.00  0.00    +0.000 A 
ATOM     40  N   UNK     1      -2.201   2.426   0.000  0.00  0.00    +0.000 N 
ATOM     41  C   UNK     1      -2.408   3.937   0.000  0.00  0.00    +0.000 A 
ATOM     42  C   UNK     1      -2.995   4.517   0.000  0.00  0.00    +0.000 A 
ATOM     43  C   UNK     1      -3.790   4.298   0.000  0.00  0.00    +0.000 A 
ATOM     44  C   UNK     1      -3.999   3.500   0.000  0.00  0.00    +0.000 A 
ATOM     45  H   UNK     1      -1.222   2.327   0.000  0.00  0.00    +0.000 HD
ENDBRANCH  35  36
ENDBRANCH  11  35
ENDBRANCH   7  11
ENDBRANCH   6   8
BRANCH   6  46
ATOM     46  C   UNK     1      -2.101  -0.333   0.000  0.00  0.00    +0.000 C 
BRANCH  46  47
ATOM     47  O   UNK     1      -1.403  -0.714   0.000  0.00  0.00    +0.000 OA
ATOM     48  H   UNK     1      -1.379  -1.684   0.000  0.00  0.00    +0.000 HD
ENDBRANCH  46  47
ENDBRANCH   6  46
ENDBRANCH   2   6
ENDBRANCH   1   3
BRANCH   1  49
ATOM     49  C   UNK     1       0.755   0.492   0.000  0.00  0.00    +0.000 C 
ATOM     50  N   UNK     1       1.453   0.936   0.000  0.00  0.00    +0.000 N 
ATOM     51  O   UNK     1       0.755  -0.270   0.000  0.00  0.00    +0.000 OA
ATOM     52  H   UNK     1       1.453   1.920   0.000  0.00  0.00    +0.000 HD
BRANCH  50  53
ATOM     53  C   UNK     1       2.151   0.492   0.000  0.00  0.00    +0.000 C 
BRANCH  53  54
ATOM     54  C   UNK     1       2.849   0.936   0.000  0.00  0.00    +0.000 C 
ATOM     55  N   UNK     1       3.547   0.492   0.000  0.00  0.00    +0.000 N 
ATOM     56  O   UNK     1       2.849   1.761   0.000  0.00  0.00    +0.000 OA
ATOM     57  H   UNK     1       3.547  -0.493   0.000  0.00  0.00    +0.000 HD
BRANCH  55  58
ATOM     58  C   UNK     1       4.245   0.936   0.000  0.00  0.00    +0.000 C 
BRANCH  58  59
ATOM     59  C   UNK     1       4.943   0.555   0.000  0.00  0.00    +0.000 C 
ATOM     60  N   UNK     1       5.705   0.936   0.000  0.00  0.00    +0.000 N 
ATOM     61  O   UNK     1       4.943  -0.270   0.000  0.00  0.00    +0.000 OA
ATOM     62  H   UNK     1       5.722   1.920   0.000  0.00  0.00    +0.000 HD
BRANCH  60  63
ATOM     63  C   UNK     1       6.403   0.555   0.000  0.00  0.00    +0.000 C 
BRANCH  63  64
ATOM     64  C   UNK     1       7.101   0.936   0.000  0.00  0.00    +0.000 C 
ATOM     65  O   UNK     1       7.795   0.489   0.000  0.00  0.00    +0.000 OA
ATOM     66  N   UNK     1       7.106   1.758   0.000  0.00  0.00    +0.000 N 
ATOM     67  C   UNK     1       7.773   2.243   0.000  0.00  0.00    +0.000 C 
ATOM     68  C   UNK     1       6.438   2.243   0.000  0.00  0.00    +0.000 C 
ATOM     69  C   UNK     1       7.518   3.027   0.000  0.00  0.00    +0.000 C 
ATOM     70  C   UNK     1       6.693   3.027   0.000  0.00  0.00    +0.000 C 
BRANCH  67  71
ATOM     71  C   UNK     1       8.488   1.830   0.000  0.00  0.00    +0.000 C 
ATOM     72  O   UNK     1       8.488   1.005   0.000  0.00  0.00    +0.000 OA
ATOM     73  N   UNK     1       9.202   2.243   0.000  0.00  0.00    +0.000 N 
ATOM     74  H   UNK     1       9.202   3.227   0.000  0.00  0.00    +0.000 HD
BRANCH  73  75
ATOM     75  C   UNK     1       9.916   1.830   0.000  0.00  0.00    +0.000 C 
ATOM     76  C   UNK     1      10.631   2.243   0.000  0.00  0.00    +0.000 C 
ENDBRANCH  73  75
ENDBRANCH  67  71
ENDBRANCH  63  64
BRANCH  63  77
ATOM     77  C   UNK     1       6.403  -0.270   0.000  0.00  0.00    +0.000 C 
BRANCH  77  78
ATOM     78  C   UNK     1       7.101  -0.714   0.000  0.00  0.00    +0.000 C 
BRANCH  78  79
ATOM     79  C   UNK     1       7.101  -1.476   0.000  0.00  0.00    +0.000 C 
BRANCH  79  82
ATOM     80  C   UNK     1       7.799  -2.745   0.000  0.00  0.00    +0.000 C 
ATOM     81  N   UNK     1       7.101  -3.126   0.000  0.00  0.00    +0.000 NA
ATOM     82  N   UNK     1       7.799  -1.920   0.000  0.00  0.00    +0.000 N 
ATOM     83  N   UNK     1       8.497  -3.126   0.000  0.00  0.00    +0.000 N 
ATOM     84  H   UNK     1       6.261  -2.613   0.000  0.00  0.00    +0.000 HD
ATOM     85  H   UNK     1       8.662  -1.446   0.000  0.00  0.00    +0.000 HD
ATOM     86  H   UNK     1       8.521  -4.110   0.000  0.00  0.00    +0.000 HD
ATOM     87  H   UNK     1       9.338  -2.613   0.000  0.00  0.00    +0.000 HD
ENDBRANCH  79  82
ENDBRANCH  78  79
ENDBRANCH  77  78
ENDBRANCH  63  77
ENDBRANCH  60  63
ENDBRANCH  58  59
BRANCH  58  88
ATOM     88  C   UNK     1       4.245   1.761   0.000  0.00  0.00    +0.000 C 
BRANCH  88  89
ATOM     89  C   UNK     1       4.943   2.142   0.000  0.00  0.00    +0.000 C 
ATOM     90  C   UNK     1       4.943   2.967   0.000  0.00  0.00    +0.000 C 
ATOM     91  C   UNK     1       5.705   1.761   0.000  0.00  0.00    +0.000 C 
ENDBRANCH  88  89
ENDBRANCH  58  88
ENDBRANCH  55  58
ENDBRANCH  53  54
BRANCH  53  92
ATOM     92  C   UNK     1       2.151  -0.270   0.000  0.00  0.00    +0.000 C 
BRANCH  92  93
ATOM     93  C   UNK     1       2.865  -0.682   0.000  0.00  0.00    +0.000 A 
ATOM     94  N   UNK     1       3.619  -0.347   0.000  0.00  0.00    +0.000 NA
ATOM     95  N   UNK     1       3.759  -1.674   0.000  0.00  0.00    +0.000 N 
ATOM     96  C   UNK     1       4.171  -0.960   0.000  0.00  0.00    +0.000 A 
ATOM     97  C   UNK     1       2.952  -1.503   0.000  0.00  0.00    +0.000 A 
BRANCH  95  98
ATOM     98  C   UNK     1       4.094  -2.428   0.000  0.00  0.00    +0.000 C 
BRANCH  98  99
ATOM     99  C   UNK     1       3.609  -3.095   0.000  0.00  0.00    +0.000 A 
ATOM    100  C   UNK     1       3.945  -3.849   0.000  0.00  0.00    +0.000 A 
ATOM    101  C   UNK     1       2.789  -3.009   0.000  0.00  0.00    +0.000 A 
ATOM    102  C   UNK     1       3.460  -4.517   0.000  0.00  0.00    +0.000 A 
ATOM    103  C   UNK     1       2.304  -3.677   0.000  0.00  0.00    +0.000 A 
ATOM    104  C   UNK     1       2.639  -4.430   0.000  0.00  0.00    +0.000 A 
ENDBRANCH  98  99
ENDBRANCH  95  98
ENDBRANCH  92  93
ENDBRANCH  53  92
ENDBRANCH  50  53
ENDBRANCH   1  49
BRANCH   1 105
ATOM    105  C   UNK     1       0.057   1.761   0.000  0.00  0.00    +0.000 C 
BRANCH 105 106
ATOM    106  C   UNK     1       0.755   2.142   0.000  0.00  0.00    +0.000 A 
ATOM    107  C   UNK     1       2.151   2.967   0.000  0.00  0.00    +0.000 A 
ATOM    108  C   UNK     1       1.453   1.761   0.000  0.00  0.00    +0.000 A 
ATOM    109  C   UNK     1       0.755   2.967   0.000  0.00  0.00    +0.000 A 
ATOM    110  C   UNK     1       2.151   2.142   0.000  0.00  0.00    +0.000 A 
ATOM    111  C   UNK     1       1.453   3.411   0.000  0.00  0.00    +0.000 A 
BRANCH 107 112
ATOM    112  O   UNK     1       2.849   3.411   0.000  0.00  0.00    +0.000 OA
ATOM    113  H   UNK     1       3.680   2.978   0.000  0.00  0.00    +0.000 HD
ENDBRANCH 107 112
ENDBRANCH 105 106
ENDBRANCH   1 105
TORSDOF 36
REMARK  Name = 
REMARK  43 active torsions:
REMARK  status: ('A' for Active; 'I' for Inactive)
REMARK    1  A    between atoms: C_1  and  C_16
REMARK    2  A    between atoms: C_2  and  C_8
REMARK    3  A    between atoms: C_3  and  C_57
REMARK    4  A    between atoms: C_4  and  C_13
REMARK    5  A    between atoms: C_5  and  C_14
REMARK    6  A    between atoms: C_6  and  C_15
REMARK    7  A    between atoms: N_7  and  C_8
REMARK    8  A    between atoms: C_8  and  C_32
REMARK    9  A    between atoms: N_9  and  C_14
REMARK   10  A    between atoms: N_10  and  C_13
REMARK   11  A    between atoms: N_11  and  C_15
REMARK   12  A    between atoms: N_12  and  C_16
REMARK   13  A    between atoms: C_13  and  C_18
REMARK   14  A    between atoms: C_14  and  C_26
REMARK   15  A    between atoms: C_15  and  C_27
REMARK   16  A    between atoms: C_16  and  C_39
REMARK   17  A    between atoms: C_18  and  C_45
REMARK   18  A    between atoms: C_26  and  C_30
REMARK   19  A    between atoms: C_27  and  C_40
REMARK   20  A    between atoms: N_28  and  C_41
REMARK   21  A    between atoms: C_31  and  O_37
REMARK   22  A    between atoms: C_32  and  O_38
REMARK   23  A    between atoms: C_39  and  C_42
REMARK   24  A    between atoms: C_40  and  C_43
REMARK   25  A    between atoms: C_40  and  C_44
REMARK   26  A    between atoms: C_41  and  C_42
REMARK   27  A    between atoms: N_47  and  C_50
REMARK   28  A    between atoms: C_50  and  C_51
REMARK   29  A    between atoms: C_57  and  C_58
REMARK   30  A    between atoms: C_57  and  N_59
REMARK   31  A    between atoms: C_58  and  C_60
REMARK   32  A    between atoms: C_69  and  C_71
REMARK   33  A    between atoms: C_71  and  N_72
REMARK   34  A    between atoms: C_71  and  C_73
REMARK   35  A    between atoms: C_73  and  C_74
REMARK   36  A    between atoms: C_79  and  C_80
REMARK   37  A    between atoms: C_88  and  C_92
REMARK   38  A    between atoms: N_94  and  C_95
REMARK   39  A    between atoms: C_95  and  C_96
REMARK   40  A    between atoms: C_97  and  C_98
REMARK   41  A    between atoms: C_98  and  O_99
REMARK   42  A    between atoms: C_101  and  C_102
REMARK   43  A    between atoms: C_102  and  O_103
REMARK                            x       y       z     vdW  Elec       q    Type
REMARK                         _______ _______ _______ _____ _____    ______ ____
ROOT
ATOM      1  C   UNL     1      -1.035  -4.146   0.000  0.00  0.00    +0.000 C 
ATOM      2  C   UNL     1      -0.319  -3.739   0.000  0.00  0.00    +0.000 C 
ATOM      3  O   UNL     1      -0.314  -2.914   0.000  0.00  0.00    +0.000 OA
ENDROOT
BRANCH   2   4
ATOM      4  O   UNL     1       0.393  -4.156   0.000  0.00  0.00    +0.000 OA
ATOM      5  H   UNL     1       0.387  -5.093   0.000  0.00  0.00    +0.000 HD
ENDBRANCH   2   4
TORSDOF 1
REMARK  Name = 
REMARK  43 active torsions:
REMARK  status: ('A' for Active; 'I' for Inactive)
REMARK    1  A    between atoms: C_1  and  C_16
REMARK    2  A    between atoms: C_2  and  C_8
REMARK    3  A    between atoms: C_3  and  C_57
REMARK    4  A    between atoms: C_4  and  C_13
REMARK    5  A    between atoms: C_5  and  C_14
REMARK    6  A    between atoms: C_6  and  C_15
REMARK    7  A    between atoms: N_7  and  C_8
REMARK    8  A    between atoms: C_8  and  C_32
REMARK    9  A    between atoms: N_9  and  C_14
REMARK   10  A    between atoms: N_10  and  C_13
REMARK   11  A    between atoms: N_11  and  C_15
REMARK   12  A    between atoms: N_12  and  C_16
REMARK   13  A    between atoms: C_13  and  C_18
REMARK   14  A    between atoms: C_14  and  C_26
REMARK   15  A    between atoms: C_15  and  C_27
REMARK   16  A    between atoms: C_16  and  C_39
REMARK   17  A    between atoms: C_18  and  C_45
REMARK   18  A    between atoms: C_26  and  C_30
REMARK   19  A    between atoms: C_27  and  C_40
REMARK   20  A    between atoms: N_28  and  C_41
REMARK   21  A    between atoms: C_31  and  O_37
REMARK   22  A    between atoms: C_32  and  O_38
REMARK   23  A    between atoms: C_39  and  C_42
REMARK   24  A    between atoms: C_40  and  C_43
REMARK   25  A    between atoms: C_40  and  C_44
REMARK   26  A    between atoms: C_41  and  C_42
REMARK   27  A    between atoms: N_47  and  C_50
REMARK   28  A    between atoms: C_50  and  C_51
REMARK   29  A    between atoms: C_57  and  C_58
REMARK   30  A    between atoms: C_57  and  N_59
REMARK   31  A    between atoms: C_58  and  C_60
REMARK   32  A    between atoms: C_69  and  C_71
REMARK   33  A    between atoms: C_71  and  N_72
REMARK   34  A    between atoms: C_71  and  C_73
REMARK   35  A    between atoms: C_73  and  C_74
REMARK   36  A    between atoms: C_79  and  C_80
REMARK   37  A    between atoms: C_88  and  C_92
REMARK   38  A    between atoms: N_94  and  C_95
REMARK   39  A    between atoms: C_95  and  C_96
REMARK   40  A    between atoms: C_97  and  C_98
REMARK   41  A    between atoms: C_98  and  O_99
REMARK   42  A    between atoms: C_101  and  C_102
REMARK   43  A    between atoms: C_102  and  O_103
REMARK                            x       y       z     vdW  Elec       q    Type
REMARK                         _______ _______ _______ _____ _____    ______ ____
ROOT
ATOM      1  C   UNL     1      -4.345  -4.117   0.000  0.00  0.00    +0.000 C 
ATOM      2  C   UNL     1      -3.629  -3.709   0.000  0.00  0.00    +0.000 C 
ATOM      3  O   UNL     1      -3.624  -2.884   0.000  0.00  0.00    +0.000 OA
ENDROOT
BRANCH   2   4
ATOM      4  O   UNL     1      -2.917  -4.126   0.000  0.00  0.00    +0.000 OA
ATOM      5  H   UNL     1      -2.923  -5.063   0.000  0.00  0.00    +0.000 HD
ENDBRANCH   2   4
TORSDOF 1
