REMARK  Name = 6857710
REMARK  16 active torsions:
REMARK  status: ('A' for Active; 'I' for Inactive)
REMARK    1  A    between atoms: O_1  and  C_12
REMARK    2  A    between atoms: O_3  and  C_21
REMARK    3  A    between atoms: O_3  and  C_25
REMARK    4  A    between atoms: O_5  and  C_24
REMARK    5  A    between atoms: N_6  and  C_8
REMARK    6  A    between atoms: N_7  and  C_9
REMARK    7  A    between atoms: C_8  and  C_12
REMARK    8  A    between atoms: C_8  and  C_13
REMARK    9  A    between atoms: C_9  and  C_10
REMARK   10  A    between atoms: C_9  and  C_14
REMARK   11  A    between atoms: C_10  and  C_11
REMARK   12  A    between atoms: C_11  and  C_15
REMARK   13  A    between atoms: C_11  and  C_16
REMARK   14  A    between atoms: C_12  and  C_18
REMARK   15  A    between atoms: C_13  and  C_17
REMARK   16  A    between atoms: C_25  and  C_26
REMARK                            x       y       z     vdW  Elec       q    Type
REMARK                         _______ _______ _______ _____ _____    ______ ____
ROOT
ATOM      1  O   UNL     1      -1.445   0.487  -1.779  0.00  0.00    +0.000 OA
ATOM      2  N   UNL     1      -2.942   0.580  -0.006  0.00  0.00    +0.000 N 
ATOM      3  C   UNL     1      -1.796   0.952  -0.696  0.00  0.00    +0.000 C 
ATOM      4  H   UNL     1      -3.154   1.027   0.881  0.00  0.00    +0.000 HD
ENDROOT
BRANCH   2   5
ATOM      5  C   UNL     1      -3.871  -0.415  -0.489  0.00  0.00    +0.000 C 
BRANCH   5   6
ATOM      6  C   UNL     1      -5.259   0.210  -0.738  0.00  0.00    +0.000 C 
ATOM      7  C   UNL     1      -5.217   1.404  -1.687  0.00  0.00    +0.000 C 
BRANCH   6   8
ATOM      8  O   UNL     1      -5.832   0.618   0.502  0.00  0.00    +0.000 OA
ATOM      9  H   UNL     1      -6.715   0.978   0.314  0.00  0.00    +0.000 HD
ENDBRANCH   6   8
ENDBRANCH   5   6
BRANCH   5  10
ATOM     10  C   UNL     1      -3.899  -1.596   0.501  0.00  0.00    +0.000 C 
BRANCH  10  11
ATOM     11  C   UNL     1      -2.683  -2.486   0.427  0.00  0.00    +0.000 A 
ATOM     12  C   UNL     1      -2.672  -3.581  -0.437  0.00  0.00    +0.000 A 
ATOM     13  C   UNL     1      -1.570  -2.214   1.222  0.00  0.00    +0.000 A 
ATOM     14  C   UNL     1      -1.548  -4.404  -0.506  0.00  0.00    +0.000 A 
ATOM     15  C   UNL     1      -0.446  -3.037   1.153  0.00  0.00    +0.000 A 
ATOM     16  C   UNL     1      -0.435  -4.132   0.289  0.00  0.00    +0.000 A 
BRANCH  16  17
ATOM     17  O   UNL     1       0.662  -4.935   0.221  0.00  0.00    +0.000 OA
ATOM     18  H   UNL     1       1.337  -4.598   0.835  0.00  0.00    +0.000 HD
ENDBRANCH  16  17
ENDBRANCH  10  11
ENDBRANCH   5  10
ENDBRANCH   2   5
BRANCH   3  19
ATOM     19  C   UNL     1      -0.973   1.979   0.073  0.00  0.00    +0.000 C 
BRANCH  19  21
ATOM     20  O   UNL     1       0.706   0.114   1.538  0.00  0.00    +0.000 OA
ATOM     21  N   UNL     1       0.414   1.671  -0.159  0.00  0.00    +0.000 N 
ATOM     22  C   UNL     1       1.138   0.764   0.592  0.00  0.00    +0.000 C 
ATOM     23  H   UNL     1       0.881   2.103  -0.951  0.00  0.00    +0.000 HD
BRANCH  22  24
ATOM     24  O   UNL     1       2.421   0.694   0.124  0.00  0.00    +0.000 OA
BRANCH  24  25
ATOM     25  C   UNL     1       3.288  -0.213   0.815  0.00  0.00    +0.000 C 
BRANCH  25  26
ATOM     26  C   UNL     1       4.647  -0.169   0.181  0.00  0.00    +0.000 A 
ATOM     27  C   UNL     1       4.956  -1.033  -0.870  0.00  0.00    +0.000 A 
ATOM     28  C   UNL     1       5.603   0.737   0.642  0.00  0.00    +0.000 A 
ATOM     29  C   UNL     1       6.219  -0.992  -1.458  0.00  0.00    +0.000 A 
ATOM     30  C   UNL     1       6.867   0.778   0.053  0.00  0.00    +0.000 A 
ATOM     31  C   UNL     1       7.175  -0.087  -0.997  0.00  0.00    +0.000 A 
ENDBRANCH  25  26
ENDBRANCH  24  25
ENDBRANCH  22  24
ENDBRANCH  19  21
BRANCH  19  32
ATOM     32  C   UNL     1      -1.336   3.398  -0.382  0.00  0.00    +0.000 C 
BRANCH  32  33
ATOM     33  C   UNL     1      -0.527   4.523   0.297  0.00  0.00    +0.000 C 
ATOM     34  C   UNL     1      -0.752   4.477   1.811  0.00  0.00    +0.000 C 
ATOM     35  C   UNL     1      -0.893   5.908  -0.236  0.00  0.00    +0.000 C 
ENDBRANCH  32  33
ENDBRANCH  19  32
ENDBRANCH   3  19
TORSDOF 13
