REMARK  Name = 
REMARK  21 active torsions:
REMARK  status: ('A' for Active; 'I' for Inactive)
REMARK    1  A    between atoms: CD1_1  and  CG_2
REMARK    2  A    between atoms: CG_2  and  CD2_3
REMARK    3  A    between atoms: CG_2  and  CB_4
REMARK    4  A    between atoms: CB_4  and  CA_5
REMARK    5  A    between atoms: CA_5  and  N_6
REMARK    6  A    between atoms: CA_5  and  C_39
REMARK    7  A    between atoms: C_7  and  CA_9
REMARK    8  A    between atoms: CA_9  and  CB_10
REMARK    9  A    between atoms: CA_9  and  N_17
REMARK   10  A    between atoms: CB_10  and  CG_11
REMARK   11  A    between atoms: C_18  and  CA_20
REMARK   12  A    between atoms: CA_20  and  N_21
REMARK   13  A    between atoms: C_22  and  CA_24
REMARK   14  A    between atoms: CA_24  and  CB_25
REMARK   15  A    between atoms: CA_24  and  N_26
REMARK   16  A    between atoms: C_27  and  CA_29
REMARK   17  A    between atoms: CA_29  and  N_30
REMARK   18  A    between atoms: CA_29  and  CB_31
REMARK   19  A    between atoms: CB_31  and  CG_32
REMARK   20  A    between atoms: CZ_35  and  OH_36
REMARK   21  A    between atoms: C_39  and  OXT_41
REMARK                            x       y       z     vdW  Elec       q    Type
REMARK                         _______ _______ _______ _____ _____    ______ ____
ROOT
ATOM      1  N   PHE A   4      -1.735  -1.398   0.298  0.00  0.00    +0.000 N 
ATOM      2  C   GLY A   3      -1.158  -0.439  -0.527  0.00  0.00    +0.000 C 
ATOM      3  O   GLY A   3      -0.543   0.431   0.169  0.00  0.00    +0.000 OA
ATOM      4  H   PHE A   4      -1.538  -2.353   0.165  0.00  0.00    +0.000 HD
ENDROOT
BRANCH   1   5
ATOM      5  CA  PHE A   4      -2.715  -0.935   1.456  0.00  0.00    +0.000 C 
BRANCH   5   7
ATOM      6  N   LEU A   5      -5.256  -0.695   1.153  0.00  0.00    +0.000 N 
ATOM      7  C   PHE A   4      -4.020  -0.930   0.478  0.00  0.00    +0.000 C 
ATOM      8  O   PHE A   4      -4.073  -1.943  -0.288  0.00  0.00    +0.000 OA
ATOM      9  H   LEU A   5      -5.352   0.027   1.816  0.00  0.00    +0.000 HD
BRANCH   6  10
ATOM     10  CA  LEU A   5      -6.467  -1.652   0.788  0.00  0.00    +0.000 C 
BRANCH  10  11
ATOM     11  C   LEU A   5      -7.522  -0.413   0.735  0.00  0.00    +0.000 C 
ATOM     12  O   LEU A   5      -7.635   0.095   1.877  0.00  0.00    +0.000 OA
BRANCH  11  13
ATOM     13  OXT LEU A   5      -8.722  -0.934   0.227  0.00  0.00    +0.000 OA
ATOM     14  HXT LEU A   5      -8.738  -1.334  -0.620  0.00  0.00    +0.000 HD
ENDBRANCH  11  13
ENDBRANCH  10  11
BRANCH  10  15
ATOM     15  CB  LEU A   5      -6.140  -1.636  -0.831  0.00  0.00    +0.000 C 
BRANCH  15  17
ATOM     16  CD1 LEU A   5      -7.005  -0.929  -2.857  0.00  0.00    +0.000 C 
ATOM     17  CG  LEU A   5      -6.864  -0.578  -1.518  0.00  0.00    +0.000 C 
ATOM     18  CD2 LEU A   5      -6.243   0.800  -1.327  0.00  0.00    +0.000 C 
ENDBRANCH  15  17
ENDBRANCH  10  15
ENDBRANCH   6  10
ENDBRANCH   5   7
BRANCH   5  19
ATOM     19  CB  PHE A   4      -2.367   0.676   1.310  0.00  0.00    +0.000 C 
BRANCH  19  20
ATOM     20  CG  PHE A   4      -3.557   1.397   0.910  0.00  0.00    +0.000 A 
ATOM     21  CD1 PHE A   4      -3.781   1.585  -0.456  0.00  0.00    +0.000 A 
ATOM     22  CE1 PHE A   4      -4.815   2.386  -0.907  0.00  0.00    +0.000 A 
ATOM     23  CZ  PHE A   4      -5.141   3.450  -0.075  0.00  0.00    +0.000 A 
ATOM     24  CE2 PHE A   4      -4.371   3.685   1.059  0.00  0.00    +0.000 A 
ATOM     25  CD2 PHE A   4      -3.818   2.558   1.636  0.00  0.00    +0.000 A 
ENDBRANCH  19  20
ENDBRANCH   5  19
ENDBRANCH   1   5
BRANCH   2  26
ATOM     26  CA  GLY A   3      -0.727  -0.755  -1.925  0.00  0.00    +0.000 C 
BRANCH  26  27
ATOM     27  N   GLY A   3       0.709  -0.575  -1.926  0.00  0.00    +0.000 N 
ATOM     28  C   ALA A   2       1.548  -1.036  -0.850  0.00  0.00    +0.000 C 
ATOM     29  O   ALA A   2       1.124  -2.154  -0.418  0.00  0.00    +0.000 OA
ATOM     30  H   GLY A   3       1.129  -0.121  -2.692  0.00  0.00    +0.000 HD
BRANCH  28  31
ATOM     31  CA  ALA A   2       3.069  -1.132  -1.415  0.00  0.00    +0.000 C 
ATOM     32  CB  ALA A   2       3.102   0.494  -1.738  0.00  0.00    +0.000 C 
BRANCH  31  33
ATOM     33  N   ALA A   2       3.725  -0.916   0.013  0.00  0.00    +0.000 N 
ATOM     34  C   TYR A   1       4.941  -1.638   0.268  0.00  0.00    +0.000 C 
ATOM     35  O   TYR A   1       4.999  -2.814  -0.173  0.00  0.00    +0.000 OA
ATOM     36  H   ALA A   2       3.322  -0.322   0.686  0.00  0.00    +0.000 HD
BRANCH  34  37
ATOM     37  CA  TYR A   1       6.293  -0.810  -0.100  0.00  0.00    +0.000 C 
BRANCH  37  38
ATOM     38  N   TYR A   1       5.921   0.341   0.928  0.00  0.00    +0.000 NA
ATOM     39  H1  TYR A   1       5.655  -0.074   1.821  0.00  0.00    +0.000 HD
ATOM     40  H2  TYR A   1       5.141   0.885   0.561  0.00  0.00    +0.000 HD
ENDBRANCH  37  38
BRANCH  37  41
ATOM     41  CB  TYR A   1       7.258  -1.544   1.027  0.00  0.00    +0.000 C 
BRANCH  41  42
ATOM     42  CG  TYR A   1       8.391  -0.554   0.914  0.00  0.00    +0.000 A 
ATOM     43  CD1 TYR A   1       8.565   0.395   1.917  0.00  0.00    +0.000 A 
ATOM     44  CE1 TYR A   1       8.829   1.714   1.624  0.00  0.00    +0.000 A 
ATOM     45  CZ  TYR A   1       9.095   2.109   0.317  0.00  0.00    +0.000 A 
ATOM     46  CE2 TYR A   1       9.515   1.077  -0.515  0.00  0.00    +0.000 A 
ATOM     47  CD2 TYR A   1       8.865  -0.142  -0.328  0.00  0.00    +0.000 A 
BRANCH  45  48
ATOM     48  OH  TYR A   1       8.726   3.359  -0.119  0.00  0.00    +0.000 OA
ATOM     49  HH  TYR A   1       8.452   4.009   0.498  0.00  0.00    +0.000 HD
ENDBRANCH  45  48
ENDBRANCH  41  42
ENDBRANCH  37  41
ENDBRANCH  34  37
ENDBRANCH  31  33
ENDBRANCH  28  31
ENDBRANCH  26  27
ENDBRANCH   2  26
TORSDOF 18
