REMARK  Name = 
REMARK  29 active torsions:
REMARK  status: ('A' for Active; 'I' for Inactive)
REMARK    1  A    between atoms: C_1  and  O_2
REMARK    2  A    between atoms: O_2  and  C_3
REMARK    3  A    between atoms: C_3  and  C_4
REMARK    4  A    between atoms: C_4  and  C_5
REMARK    5  A    between atoms: C_5  and  O_6
REMARK    6  A    between atoms: O_6  and  C_7
REMARK    7  A    between atoms: C_9  and  C_10
REMARK    8  A    between atoms: C_10  and  C_11
REMARK    9  A    between atoms: C_11  and  C_12
REMARK   10  A    between atoms: C_11  and  C_32
REMARK   11  A    between atoms: C_12  and  C_13
REMARK   12  A    between atoms: C_13  and  N_14
REMARK   13  A    between atoms: C_13  and  C_15
REMARK   14  A    between atoms: C_15  and  O_16
REMARK   15  A    between atoms: C_15  and  C_17
REMARK   16  A    between atoms: C_17  and  C_18
REMARK   17  A    between atoms: C_18  and  C_19
REMARK   18  A    between atoms: C_18  and  C_29
REMARK   19  A    between atoms: N_21  and  C_22
REMARK   20  A    between atoms: C_22  and  C_23
REMARK   21  A    between atoms: C_23  and  C_24
REMARK   22  A    between atoms: C_23  and  C_25
REMARK   23  A    between atoms: C_23  and  C_26
REMARK   24  A    between atoms: C_29  and  C_30
REMARK   25  A    between atoms: C_29  and  C_31
REMARK   26  A    between atoms: C_32  and  C_33
REMARK   27  A    between atoms: C_32  and  C_34
REMARK   28  A    between atoms: C_37  and  O_38
REMARK   29  A    between atoms: O_38  and  C_39
REMARK                            x       y       z     vdW  Elec       q    Type
REMARK                         _______ _______ _______ _____ _____    ______ ____
ROOT
ATOM      1  C   UNL     1      -1.074  -0.624   0.875  0.00  0.00    +0.000 C 
ENDROOT
BRANCH   1   2
ATOM      2  N   UNL     1      -0.548   0.376  -0.237  0.00  0.00    +0.000 NA
ATOM      3  H   UNL     1      -0.148   1.201   0.209  0.00  0.00    +0.000 HD
ATOM      4  H   UNL     1      -1.325   0.656  -0.837  0.00  0.00    +0.000 HD
ENDBRANCH   1   2
BRANCH   1   5
ATOM      5  C   UNL     1       0.281  -0.471   1.786  0.00  0.00    +0.000 C 
BRANCH   5   6
ATOM      6  C   UNL     1       1.278  -1.641   1.184  0.00  0.00    +0.000 C 
BRANCH   6   7
ATOM      7  C   UNL     1       0.308  -2.156  -0.060  0.00  0.00    +0.000 C 
ATOM      8  C   UNL     1       0.113  -3.600   0.391  0.00  0.00    +0.000 C 
ATOM      9  C   UNL     1       1.128  -2.194  -1.291  0.00  0.00    +0.000 C 
ENDBRANCH   6   7
BRANCH   6  10
ATOM     10  C   UNL     1       2.064  -0.531   0.229  0.00  0.00    +0.000 C 
BRANCH  10  13
ATOM     11  C   UNL     1       5.819  -0.592  -0.158  0.00  0.00    +0.000 A 
ATOM     12  C   UNL     1       4.538  -0.137   0.053  0.00  0.00    +0.000 A 
ATOM     13  C   UNL     1       3.485  -0.998   0.305  0.00  0.00    +0.000 A 
ATOM     14  C   UNL     1       3.820  -2.317   0.567  0.00  0.00    +0.000 A 
ATOM     15  C   UNL     1       4.922  -2.813  -0.105  0.00  0.00    +0.000 A 
ATOM     16  C   UNL     1       6.009  -1.964  -0.224  0.00  0.00    +0.000 A 
BRANCH  16  17
ATOM     17  O   UNL     1       7.307  -2.442  -0.429  0.00  0.00    +0.000 OA
ATOM     18  C   UNL     1       7.458  -3.830  -0.731  0.00  0.00    +0.000 C 
ENDBRANCH  16  17
BRANCH  11  19
ATOM     19  O   UNL     1       6.950   0.188   0.104  0.00  0.00    +0.000 OA
BRANCH  19  20
ATOM     20  C   UNL     1       7.934   0.336  -0.888  0.00  0.00    +0.000 C 
BRANCH  20  21
ATOM     21  C   UNL     1       7.919   1.737  -1.484  0.00  0.00    +0.000 C 
BRANCH  21  22
ATOM     22  C   UNL     1       8.944   2.549  -0.715  0.00  0.00    +0.000 C 
BRANCH  22  24
ATOM     23  C   UNL     1       7.419   3.435   0.736  0.00  0.00    +0.000 C 
ATOM     24  O   UNL     1       8.268   3.710  -0.307  0.00  0.00    +0.000 OA
ENDBRANCH  22  24
ENDBRANCH  21  22
ENDBRANCH  20  21
ENDBRANCH  19  20
ENDBRANCH  11  19
ENDBRANCH  10  13
ENDBRANCH   6  10
ENDBRANCH   5   6
ENDBRANCH   1   5
BRANCH   1  25
ATOM     25  C   UNL     1      -1.874   0.607   1.830  0.00  0.00    +0.000 C 
BRANCH  25  26
ATOM     26  O   UNL     1      -0.788   1.667   1.613  0.00  0.00    +0.000 OA
ATOM     27  H   UNL     1      -0.545   1.694   0.674  0.00  0.00    +0.000 HD
ENDBRANCH  25  26
BRANCH  25  28
ATOM     28  C   UNL     1      -2.753   1.133   0.511  0.00  0.00    +0.000 C 
BRANCH  28  29
ATOM     29  C   UNL     1      -4.023   0.114   0.862  0.00  0.00    +0.000 C 
BRANCH  29  30
ATOM     30  C   UNL     1      -4.734   0.343  -0.590  0.00  0.00    +0.000 C 
ATOM     31  O   UNL     1      -3.960   0.054  -1.557  0.00  0.00    +0.000 OA
ATOM     32  N   UNL     1      -5.895  -0.510  -0.583  0.00  0.00    +0.000 N 
ATOM     33  H   UNL     1      -6.078  -1.144   0.148  0.00  0.00    +0.000 HD
BRANCH  32  34
ATOM     34  C   UNL     1      -6.772  -0.369  -1.726  0.00  0.00    +0.000 C 
BRANCH  34  35
ATOM     35  C   UNL     1      -8.096   0.144  -1.171  0.00  0.00    +0.000 C 
ATOM     36  C   UNL     1      -9.245  -0.263  -2.076  0.00  0.00    +0.000 C 
ATOM     37  C   UNL     1      -8.262  -0.459   0.218  0.00  0.00    +0.000 C 
BRANCH  35  38
ATOM     38  C   UNL     1      -8.094   1.637  -1.071  0.00  0.00    +0.000 C 
ATOM     39  N   UNL     1      -7.023   2.387  -1.654  0.00  0.00    +0.000 N 
ATOM     40  O   UNL     1      -8.742   2.171  -0.123  0.00  0.00    +0.000 OA
ATOM     41  H   UNL     1      -6.498   2.003  -2.393  0.00  0.00    +0.000 HD
ATOM     42  H   UNL     1      -6.811   3.287  -1.316  0.00  0.00    +0.000 HD
ENDBRANCH  35  38
ENDBRANCH  34  35
ENDBRANCH  32  34
ENDBRANCH  29  30
BRANCH  29  43
ATOM     43  C   UNL     1      -4.918   1.335   1.545  0.00  0.00    +0.000 C 
ATOM     44  C   UNL     1      -4.418   1.459   2.946  0.00  0.00    +0.000 C 
ATOM     45  C   UNL     1      -4.745   2.529   0.682  0.00  0.00    +0.000 C 
ENDBRANCH  29  43
ENDBRANCH  28  29
ENDBRANCH  25  28
ENDBRANCH   1  25
TORSDOF 21
