REMARK  Name = 15547703
REMARK  14 active torsions:
REMARK  status: ('A' for Active; 'I' for Inactive)
REMARK    1  A    between atoms: O_1  and  C_9
REMARK    2  A    between atoms: O_1  and  C_20
REMARK    3  A    between atoms: O_2  and  C_18
REMARK    4  A    between atoms: O_6  and  N_8
REMARK    5  A    between atoms: N_7  and  C_17
REMARK    6  A    between atoms: C_14  and  C_15
REMARK    7  A    between atoms: C_14  and  C_18
REMARK    8  A    between atoms: C_14  and  C_19
REMARK    9  A    between atoms: C_15  and  C_16
REMARK   10  A    between atoms: C_16  and  C_21
REMARK   11  A    between atoms: C_16  and  C_22
REMARK   12  A    between atoms: C_17  and  C_20
REMARK   13  A    between atoms: C_17  and  C_23
REMARK   14  A    between atoms: C_18  and  C_24
REMARK                            x       y       z     vdW  Elec       q    Type
REMARK                         _______ _______ _______ _____ _____    ______ ____
ROOT
ATOM      1  O   UNL     1       1.029   1.083   2.111  0.00  0.00    +0.000 OA
ATOM      2  N   UNL     1      -0.295   0.065   0.503  0.00  0.00    +0.000 N 
ATOM      3  C   UNL     1       0.915   0.402   1.094  0.00  0.00    +0.000 C 
ATOM      4  H   UNL     1      -0.299  -0.490  -0.348  0.00  0.00    +0.000 HD
ENDROOT
BRANCH   3   5
ATOM      5  C   UNL     1       2.118  -0.142   0.317  0.00  0.00    +0.000 C 
BRANCH   5   6
ATOM      6  C   UNL     1       3.312  -0.429   1.254  0.00  0.00    +0.000 C 
BRANCH   6   7
ATOM      7  C   UNL     1       3.244  -1.787   1.989  0.00  0.00    +0.000 C 
ATOM      8  C   UNL     1       1.982  -1.839   2.855  0.00  0.00    +0.000 C 
ATOM      9  C   UNL     1       4.474  -2.042   2.862  0.00  0.00    +0.000 C 
ENDBRANCH   6   7
ENDBRANCH   5   6
BRANCH   5  10
ATOM     10  C   UNL     1       2.473   0.870  -0.799  0.00  0.00    +0.000 C 
BRANCH  10  13
ATOM     11  O   UNL     1       3.676  -0.676  -2.216  0.00  0.00    +0.000 OA
ATOM     12  N   UNL     1       4.706   1.299  -1.607  0.00  0.00    +0.000 N 
ATOM     13  C   UNL     1       3.667   0.400  -1.623  0.00  0.00    +0.000 C 
ATOM     14  H   UNL     1       4.686   2.240  -1.230  0.00  0.00    +0.000 HD
BRANCH  12  15
ATOM     15  O   UNL     1       5.846   0.930  -2.333  0.00  0.00    +0.000 OA
ATOM     16  H   UNL     1       6.381   0.535  -1.623  0.00  0.00    +0.000 HD
ENDBRANCH  12  15
ENDBRANCH  10  13
BRANCH  10  17
ATOM     17  O   UNL     1       1.361   1.062  -1.659  0.00  0.00    +0.000 OA
ATOM     18  H   UNL     1       1.107   0.195  -2.018  0.00  0.00    +0.000 HD
ENDBRANCH  10  17
ENDBRANCH   5  10
ENDBRANCH   3   5
BRANCH   2  19
ATOM     19  C   UNL     1      -1.560   0.498   1.045  0.00  0.00    +0.000 C 
BRANCH  19  20
ATOM     20  C   UNL     1      -1.946   1.857   0.511  0.00  0.00    +0.000 A 
ATOM     21  C   UNL     1      -1.649   2.199  -0.808  0.00  0.00    +0.000 A 
ATOM     22  C   UNL     1      -2.601   2.771   1.338  0.00  0.00    +0.000 A 
ATOM     23  C   UNL     1      -2.005   3.454  -1.301  0.00  0.00    +0.000 A 
ATOM     24  C   UNL     1      -2.957   4.026   0.845  0.00  0.00    +0.000 A 
ATOM     25  C   UNL     1      -2.659   4.368  -0.475  0.00  0.00    +0.000 A 
ENDBRANCH  19  20
BRANCH  19  27
ATOM     26  O   UNL     1      -3.788  -0.411   1.305  0.00  0.00    +0.000 OA
ATOM     27  C   UNL     1      -2.663  -0.531   0.830  0.00  0.00    +0.000 C 
BRANCH  27  28
ATOM     28  O   UNL     1      -2.231  -1.595   0.096  0.00  0.00    +0.000 OA
BRANCH  28  29
ATOM     29  C   UNL     1      -3.185  -2.628  -0.115  0.00  0.00    +0.000 C 
ATOM     30  C   UNL     1      -3.903  -2.424  -1.441  0.00  0.00    +0.000 C 
ATOM     31  C   UNL     1      -2.462  -3.951  -0.317  0.00  0.00    +0.000 C 
ATOM     32  C   UNL     1      -2.903  -2.913  -2.487  0.00  0.00    +0.000 C 
ATOM     33  C   UNL     1      -1.998  -3.916  -1.772  0.00  0.00    +0.000 C 
ENDBRANCH  28  29
ENDBRANCH  27  28
ENDBRANCH  19  27
ENDBRANCH   2  19
TORSDOF 12
