REMARK  Name = 
REMARK  30 active torsions:
REMARK  status: ('A' for Active; 'I' for Inactive)
REMARK    1  A    between atoms: C_2  and  CA_6
REMARK    2  A    between atoms: NE_5  and  CD_9
REMARK    3  A    between atoms: CA_6  and  N_8
REMARK    4  A    between atoms: CA_6  and  CB_10
REMARK    5  A    between atoms: CD_9  and  CG_11
REMARK    6  A    between atoms: CB_10  and  CG_11
REMARK    7  A    between atoms: C_13  and  CA_15
REMARK    8  A    between atoms: C_20  and  CA_22
REMARK    9  A    between atoms: N_26  and  CA_29
REMARK   10  A    between atoms: C_27  and  CA_29
REMARK   11  A    between atoms: N_28  and  CA_32
REMARK   12  A    between atoms: C_31  and  CA_32
REMARK   13  A    between atoms: CA_32  and  CB_34
REMARK   14  A    between atoms: N_33  and  CA_37
REMARK   15  A    between atoms: CB_34  and  CG_41
REMARK   16  A    between atoms: C_36  and  CA_37
REMARK   17  A    between atoms: CA_37  and  CB_39
REMARK   18  A    between atoms: CB_39  and  OG_76
REMARK   19  A    between atoms: C_47  and  CA_49
REMARK   20  A    between atoms: N_53  and  CA_55
REMARK   21  A    between atoms: C_54  and  CA_55
REMARK   22  A    between atoms: CA_55  and  CB_57
REMARK   23  A    between atoms: N_56  and  CA_70
REMARK   24  A    between atoms: CB_57  and  CG_59
REMARK   25  A    between atoms: C_66  and  O_68
REMARK   26  A    between atoms: C_66  and  CA_70
REMARK   27  A    between atoms: NE_69  and  CD_72
REMARK   28  A    between atoms: CA_70  and  CB_73
REMARK   29  A    between atoms: CD_72  and  CG_74
REMARK   30  A    between atoms: CB_73  and  CG_74
REMARK                            x       y       z     vdW  Elec       q    Type
REMARK                         _______ _______ _______ _____ _____    ______ ____
ROOT
ATOM      1  C   PHE A   5       0.377  -0.948   0.000  0.00  0.00    +0.000 C 
ATOM      2  N   SER A   6       1.091  -0.535   0.000  0.00  0.00    +0.000 N 
ATOM      3  O   PHE A   5       0.377  -1.773   0.000  0.00  0.00    +0.000 OA
ATOM      4  H   SER A   6       1.091   0.449   0.000  0.00  0.00    +0.000 HD
ENDROOT
BRANCH   1   5
ATOM      5  CA  PHE A   5      -0.338  -0.535   0.000  0.00  0.00    +0.000 C 
BRANCH   5   7
ATOM      6  C   GLY A   4      -1.052  -1.773   0.000  0.00  0.00    +0.000 C 
ATOM      7  N   PHE A   5      -1.052  -0.948   0.000  0.00  0.00    +0.000 N 
ATOM      8  O   GLY A   4      -0.338  -2.185   0.000  0.00  0.00    +0.000 OA
ATOM      9  H   PHE A   5      -1.905  -0.456   0.000  0.00  0.00    +0.000 HD
BRANCH   6  10
ATOM     10  CA  GLY A   4      -1.766  -2.185   0.000  0.00  0.00    +0.000 C 
BRANCH  10  13
ATOM     11  C   PRO A   3      -3.195  -2.185   0.000  0.00  0.00    +0.000 C 
ATOM     12  O   PRO A   3      -3.195  -3.010   0.000  0.00  0.00    +0.000 OA
ATOM     13  N   GLY A   4      -2.481  -1.773   0.000  0.00  0.00    +0.000 N 
ATOM     14  H   GLY A   4      -2.481  -0.788   0.000  0.00  0.00    +0.000 HD
BRANCH  11  18
ATOM     15  C   PRO A   2      -4.664  -2.933   0.000  0.00  0.00    +0.000 C 
ATOM     16  N   PRO A   3      -4.664  -2.108   0.000  0.00  0.00    +0.000 N 
ATOM     17  O   PRO A   2      -3.949  -3.346   0.000  0.00  0.00    +0.000 OA
ATOM     18  CA  PRO A   3      -3.910  -1.773   0.000  0.00  0.00    +0.000 C 
ATOM     19  CB  PRO A   3      -3.996  -0.952   0.000  0.00  0.00    +0.000 C 
ATOM     20  CG  PRO A   3      -4.803  -0.781   0.000  0.00  0.00    +0.000 C 
ATOM     21  CD  PRO A   3      -5.216  -1.495   0.000  0.00  0.00    +0.000 C 
BRANCH  15  25
ATOM     22  C   ARG A   1      -6.132  -2.185   0.000  0.00  0.00    +0.000 C 
ATOM     23  O   ARG A   1      -5.636  -1.952   0.000  0.00  0.00    +0.000 OA
ATOM     24  N   PRO A   2      -6.132  -3.010   0.000  0.00  0.00    +0.000 N 
ATOM     25  CA  PRO A   2      -5.378  -3.346   0.000  0.00  0.00    +0.000 C 
ATOM     26  CB  PRO A   2      -5.464  -4.166   0.000  0.00  0.00    +0.000 C 
ATOM     27  CG  PRO A   2      -6.271  -4.338   0.000  0.00  0.00    +0.000 C 
ATOM     28  CD  PRO A   2      -6.684  -3.623   0.000  0.00  0.00    +0.000 C 
BRANCH  22  29
ATOM     29  CA  ARG A   1      -6.846  -1.773   0.000  0.00  0.00    +0.000 C 
BRANCH  29  30
ATOM     30  N   ARG A   1      -7.561  -2.185   0.000  0.00  0.00    +0.000 NA
ATOM     31  H1  ARG A   1      -8.444  -1.675   0.000  0.00  0.00    +0.000 HD
ATOM     32  H2  ARG A   1      -7.561  -3.205   0.000  0.00  0.00    +0.000 HD
ENDBRANCH  29  30
BRANCH  29  33
ATOM     33  CB  ARG A   1      -6.846  -0.948   0.000  0.00  0.00    +0.000 C 
BRANCH  33  34
ATOM     34  CG  ARG A   1      -7.561  -0.535   0.000  0.00  0.00    +0.000 C 
BRANCH  34  35
ATOM     35  CD  ARG A   1      -7.561   0.290   0.000  0.00  0.00    +0.000 C 
BRANCH  35  38
ATOM     36  CZ  ARG A   1      -8.275   1.527   0.000  0.00  0.00    +0.000 C 
ATOM     37  NH1 ARG A   1      -8.990   1.940   0.000  0.00  0.00    +0.000 NA
ATOM     38  NE  ARG A   1      -8.275   0.702   0.000  0.00  0.00    +0.000 N 
ATOM     39  NH2 ARG A   1      -7.561   1.940   0.000  0.00  0.00    +0.000 N 
ATOM     40  HH1 ARG A   1      -8.990   2.924   0.000  0.00  0.00    +0.000 HD
ATOM     41  HE  ARG A   1      -9.128   0.210   0.000  0.00  0.00    +0.000 HD
ATOM     42 HH21 ARG A   1      -6.708   1.448   0.000  0.00  0.00    +0.000 HD
ATOM     43 HH22 ARG A   1      -7.561   2.924   0.000  0.00  0.00    +0.000 HD
ENDBRANCH  35  38
ENDBRANCH  34  35
ENDBRANCH  33  34
ENDBRANCH  29  33
ENDBRANCH  22  29
ENDBRANCH  15  25
ENDBRANCH  11  18
ENDBRANCH  10  13
ENDBRANCH   6  10
ENDBRANCH   5   7
BRANCH   5  44
ATOM     44  CB  PHE A   5      -0.338   0.290   0.000  0.00  0.00    +0.000 C 
BRANCH  44  45
ATOM     45  CG  PHE A   5      -1.052   0.702   0.000  0.00  0.00    +0.000 A 
ATOM     46  CD1 PHE A   5      -1.052   1.527   0.000  0.00  0.00    +0.000 A 
ATOM     47  CE1 PHE A   5      -1.767   1.940   0.000  0.00  0.00    +0.000 A 
ATOM     48  CD2 PHE A   5      -1.767   0.290   0.000  0.00  0.00    +0.000 A 
ATOM     49  CZ  PHE A   5      -2.481   1.527   0.000  0.00  0.00    +0.000 A 
ATOM     50  CE2 PHE A   5      -2.481   0.702   0.000  0.00  0.00    +0.000 A 
ENDBRANCH  44  45
ENDBRANCH   5  44
ENDBRANCH   1   5
BRANCH   2  51
ATOM     51  CA  SER A   6       1.806  -0.948   0.000  0.00  0.00    +0.000 C 
BRANCH  51  52
ATOM     52  C   SER A   6       2.520  -0.535   0.000  0.00  0.00    +0.000 C 
ATOM     53  O   SER A   6       3.235  -0.948   0.000  0.00  0.00    +0.000 OA
ATOM     54  N   PRO A   7       2.520   0.290   0.000  0.00  0.00    +0.000 N 
ATOM     55  CA  PRO A   7       3.274   0.625   0.000  0.00  0.00    +0.000 C 
ATOM     56  CB  PRO A   7       3.188   1.446   0.000  0.00  0.00    +0.000 C 
ATOM     57  CG  PRO A   7       2.381   1.617   0.000  0.00  0.00    +0.000 C 
ATOM     58  CD  PRO A   7       1.968   0.903   0.000  0.00  0.00    +0.000 C 
BRANCH  55  59
ATOM     59  C   PRO A   7       3.988   0.213   0.000  0.00  0.00    +0.000 C 
ATOM     60  O   PRO A   7       3.988  -0.612   0.000  0.00  0.00    +0.000 OA
ATOM     61  N   PHE A   8       4.703   0.625   0.000  0.00  0.00    +0.000 N 
ATOM     62  H   PHE A   8       4.703   1.610   0.000  0.00  0.00    +0.000 HD
BRANCH  61  63
ATOM     63  CA  PHE A   8       5.417   0.213   0.000  0.00  0.00    +0.000 C 
BRANCH  63  64
ATOM     64  C   PHE A   8       6.132   0.625   0.000  0.00  0.00    +0.000 C 
ATOM     65  N   ARG A   9       6.846   0.213   0.000  0.00  0.00    +0.000 N 
ATOM     66  O   PHE A   8       6.132   1.450   0.000  0.00  0.00    +0.000 OA
ATOM     67  H   ARG A   9       6.846  -0.772   0.000  0.00  0.00    +0.000 HD
BRANCH  65  68
ATOM     68  CA  ARG A   9       7.561   0.625   0.000  0.00  0.00    +0.000 C 
BRANCH  68  69
ATOM     69  C   ARG A   9       8.275   0.213   0.000  0.00  0.00    +0.000 C 
ATOM     70  OXT ARG A   9       8.275  -0.612   0.000  0.00  0.00    +0.000 OA
BRANCH  69  71
ATOM     71  O   ARG A   9       8.990   0.625   0.000  0.00  0.00    +0.000 OA
ATOM     72  H   ARG A   9       9.801   0.157   0.000  0.00  0.00    +0.000 HD
ENDBRANCH  69  71
ENDBRANCH  68  69
BRANCH  68  73
ATOM     73  CB  ARG A   9       7.561   1.450   0.000  0.00  0.00    +0.000 C 
BRANCH  73  74
ATOM     74  CG  ARG A   9       6.846   1.863   0.000  0.00  0.00    +0.000 C 
BRANCH  74  75
ATOM     75  CD  ARG A   9       6.846   2.688   0.000  0.00  0.00    +0.000 C 
BRANCH  75  78
ATOM     76  CZ  ARG A   9       6.132   3.925   0.000  0.00  0.00    +0.000 C 
ATOM     77  NH1 ARG A   9       5.417   4.338   0.000  0.00  0.00    +0.000 NA
ATOM     78  NE  ARG A   9       6.132   3.100   0.000  0.00  0.00    +0.000 N 
ATOM     79  NH2 ARG A   9       6.846   4.338   0.000  0.00  0.00    +0.000 N 
ATOM     80  HH1 ARG A   9       5.417   5.322   0.000  0.00  0.00    +0.000 HD
ATOM     81  HE  ARG A   9       5.279   2.608   0.000  0.00  0.00    +0.000 HD
ATOM     82 HH21 ARG A   9       7.699   3.846   0.000  0.00  0.00    +0.000 HD
ATOM     83 HH22 ARG A   9       6.846   5.322   0.000  0.00  0.00    +0.000 HD
ENDBRANCH  75  78
ENDBRANCH  74  75
ENDBRANCH  73  74
ENDBRANCH  68  73
ENDBRANCH  65  68
ENDBRANCH  63  64
BRANCH  63  84
ATOM     84  CB  PHE A   8       5.417  -0.612   0.000  0.00  0.00    +0.000 C 
BRANCH  84  85
ATOM     85  CG  PHE A   8       6.132  -1.025   0.000  0.00  0.00    +0.000 A 
ATOM     86  CZ  PHE A   8       7.561  -1.850   0.000  0.00  0.00    +0.000 A 
ATOM     87  CE1 PHE A   8       7.561  -1.025   0.000  0.00  0.00    +0.000 A 
ATOM     88  CE2 PHE A   8       6.846  -2.262   0.000  0.00  0.00    +0.000 A 
ATOM     89  CD1 PHE A   8       6.846  -0.612   0.000  0.00  0.00    +0.000 A 
ATOM     90  CD2 PHE A   8       6.132  -1.850   0.000  0.00  0.00    +0.000 A 
ENDBRANCH  84  85
ENDBRANCH  63  84
ENDBRANCH  61  63
ENDBRANCH  55  59
ENDBRANCH  51  52
BRANCH  51  91
ATOM     91  CB  SER A   6       1.806  -1.773   0.000  0.00  0.00    +0.000 C 
BRANCH  91  92
ATOM     92  OG  SER A   6       2.520  -2.185   0.000  0.00  0.00    +0.000 OA
ATOM     93  H   SER A   6       2.520  -3.155   0.000  0.00  0.00    +0.000 HD
ENDBRANCH  91  92
ENDBRANCH  51  91
ENDBRANCH   2  51
TORSDOF 30
