REMARK  Name = 5331010
REMARK  4 active torsions:
REMARK  status: ('A' for Active; 'I' for Inactive)
REMARK    1  A    between atoms: S_1  and  N_10
REMARK    2  A    between atoms: S_1  and  C_22
REMARK    3  A    between atoms: N_5  and  C_15
REMARK    4  A    between atoms: C_14  and  C_23
REMARK                            x       y       z     vdW  Elec       q    Type
REMARK                         _______ _______ _______ _____ _____    ______ ____
ROOT
ATOM      1  N   UNL     1       0.517  -0.630   0.168  0.00  0.00    +0.000 N 
ATOM      2  N   UNL     1       1.128  -1.859   0.196  0.00  0.00    +0.000 N 
ATOM      3  N   UNL     1       2.754   3.649   0.069  0.00  0.00    +0.000 NA
ATOM      4  N   UNL     1       1.348   3.923   0.321  0.00  0.00    +0.000 NA
ATOM      5  C   UNL     1       1.514   0.339   0.066  0.00  0.00    +0.000 A 
ATOM      6  C   UNL     1       2.797  -0.408  -0.078  0.00  0.00    +0.000 A 
ATOM      7  C   UNL     1       1.605   1.668   0.129  0.00  0.00    +0.000 A 
ATOM      8  C   UNL     1       2.488  -1.717   0.004  0.00  0.00    +0.000 A 
ATOM      9  C   UNL     1       2.896   2.357  -0.028  0.00  0.00    +0.000 A 
ATOM     10  C   UNL     1       4.067   0.247  -0.278  0.00  0.00    +0.000 A 
ATOM     11  C   UNL     1       4.137   1.588  -0.261  0.00  0.00    +0.000 A 
ATOM     12  C   UNL     1       0.714   2.787   0.360  0.00  0.00    +0.000 A 
ATOM     13  H   UNL     1       0.638  -2.699  -0.079  0.00  0.00    +0.000 HD
ENDROOT
BRANCH   1  14
ATOM     14  C   UNL     1      -0.889  -0.485   0.114  0.00  0.00    +0.000 A 
ATOM     15  C   UNL     1      -1.477   0.542  -0.644  0.00  0.00    +0.000 A 
ATOM     16  C   UNL     1      -1.729  -1.367   0.815  0.00  0.00    +0.000 A 
ATOM     17  C   UNL     1      -3.683  -0.201   0.003  0.00  0.00    +0.000 A 
ATOM     18  C   UNL     1      -2.864   0.683  -0.699  0.00  0.00    +0.000 A 
ATOM     19  C   UNL     1      -3.116  -1.226   0.760  0.00  0.00    +0.000 A 
BRANCH  17  20
ATOM     20  S   UNL     1      -5.419  -0.026  -0.067  0.00  0.00    +0.000 S 
ATOM     21  O   UNL     1      -5.861  -0.619   1.179  0.00  0.00    +0.000 OA
ATOM     22  O   UNL     1      -5.597   1.384  -0.353  0.00  0.00    +0.000 OA
BRANCH  20  23
ATOM     23  N   UNL     1      -6.021  -0.944  -1.372  0.00  0.00    +0.000 NA
ATOM     24  H   UNL     1      -6.551  -1.796  -1.153  0.00  0.00    +0.000 HD
ATOM     25  H   UNL     1      -6.372  -0.436  -2.193  0.00  0.00    +0.000 HD
ENDBRANCH  20  23
ENDBRANCH  17  20
ENDBRANCH   1  14
BRANCH   8  28
ATOM     26  O   UNL     1       4.585  -2.743  -0.312  0.00  0.00    +0.000 OA
ATOM     27  N   UNL     1       2.731  -4.080   0.021  0.00  0.00    +0.000 N 
ATOM     28  C   UNL     1       3.372  -2.865  -0.112  0.00  0.00    +0.000 C 
ATOM     29  H   UNL     1       3.257  -4.945  -0.048  0.00  0.00    +0.000 HD
ATOM     30  H   UNL     1       1.741  -4.180   0.213  0.00  0.00    +0.000 HD
ENDBRANCH   8  28
TORSDOF 4
