REMARK  Name = 
REMARK  30 active torsions:
REMARK  status: ('A' for Active; 'I' for Inactive)
REMARK    1  A    between atoms: CD1_1  and  CG1_2
REMARK    2  A    between atoms: CG1_2  and  CB_3
REMARK    3  A    between atoms: CB_3  and  CG2_4
REMARK    4  A    between atoms: CB_3  and  CA_5
REMARK    5  A    between atoms: CA_5  and  N_6
REMARK    6  A    between atoms: CA_5  and  C_40
REMARK    7  A    between atoms: C_7  and  CA_9
REMARK    8  A    between atoms: CA_9  and  CB_10
REMARK    9  A    between atoms: CA_9  and  N_12
REMARK   10  A    between atoms: CB_10  and  OG_11
REMARK   11  A    between atoms: C_13  and  CA_15
REMARK   12  A    between atoms: CA_15  and  N_16
REMARK   13  A    between atoms: CA_15  and  CB_37
REMARK   14  A    between atoms: C_17  and  CA_19
REMARK   15  A    between atoms: C_24  and  CA_26
REMARK   16  A    between atoms: CA_26  and  CB_27
REMARK   17  A    between atoms: CA_26  and  N_28
REMARK   18  A    between atoms: C_29  and  CA_31
REMARK   19  A    between atoms: CA_31  and  N_32
REMARK   20  A    between atoms: CA_31  and  CB_33
REMARK   21  A    between atoms: CB_33  and  CG_34
REMARK   22  A    between atoms: CB_37  and  CG1_38
REMARK   23  A    between atoms: CB_37  and  CG2_39
REMARK   24  A    between atoms: CA_46  and  C_47
REMARK   25  A    between atoms: N_49  and  CA_50
REMARK   26  A    between atoms: CA_50  and  CB_51
REMARK   27  A    between atoms: CA_50  and  C_56
REMARK   28  A    between atoms: CB_51  and  CG_52
REMARK   29  A    between atoms: CG_52  and  CD_53
REMARK   30  A    between atoms: C_56  and  OXT_58
REMARK                            x       y       z     vdW  Elec       q    Type
REMARK                         _______ _______ _______ _____ _____    ______ ____
ROOT
ATOM      1  CA  SER A   5      -0.483  -3.022  -0.276  0.00  0.00    +0.000 C 
ENDROOT
BRANCH   1   3
ATOM      2  N   ILE A   6      -2.750  -1.658  -0.252  0.00  0.00    +0.000 N 
ATOM      3  C   SER A   5      -1.444  -1.854  -0.820  0.00  0.00    +0.000 C 
ATOM      4  O   SER A   5      -1.615  -2.138  -2.054  0.00  0.00    +0.000 OA
ATOM      5  H   ILE A   6      -3.363  -2.303   0.170  0.00  0.00    +0.000 HD
BRANCH   2   6
ATOM      6  CA  ILE A   6      -2.914  -0.115  -0.500  0.00  0.00    +0.000 C 
BRANCH   6   7
ATOM      7  C   ILE A   6      -4.435   0.036  -0.020  0.00  0.00    +0.000 C 
ATOM      8  O   ILE A   6      -4.312   1.291   0.241  0.00  0.00    +0.000 OA
ATOM      9  N   PRO A   7      -4.938  -0.714   1.014  0.00  0.00    +0.000 N 
ATOM     10  CD  PRO A   7      -4.363  -1.234   2.235  0.00  0.00    +0.000 C 
ATOM     11  CG  PRO A   7      -5.340  -0.757   3.260  0.00  0.00    +0.000 C 
ATOM     12  CB  PRO A   7      -6.642  -0.639   2.581  0.00  0.00    +0.000 C 
ATOM     13  CA  PRO A   7      -6.365  -1.387   1.134  0.00  0.00    +0.000 C 
BRANCH  13  14
ATOM     14  C   PRO A   7      -7.223  -0.274   0.364  0.00  0.00    +0.000 C 
ATOM     15  O   PRO A   7      -6.709   0.734   0.039  0.00  0.00    +0.000 OA
ATOM     16  N   GLN A   8      -8.579  -0.234   0.282  0.00  0.00    +0.000 N 
ATOM     17  H   GLN A   8      -9.115  -1.050   0.405  0.00  0.00    +0.000 HD
BRANCH  16  18
ATOM     18  CA  GLN A   8      -9.279   1.159  -0.015  0.00  0.00    +0.000 C 
BRANCH  18  19
ATOM     19  C   GLN A   8      -8.117   1.790  -0.944  0.00  0.00    +0.000 C 
ATOM     20  O   GLN A   8      -7.824   2.994  -0.780  0.00  0.00    +0.000 OA
BRANCH  19  21
ATOM     21  OXT GLN A   8      -8.127   1.367  -2.276  0.00  0.00    +0.000 OA
ATOM     22  HXT GLN A   8      -8.337   0.478  -2.484  0.00  0.00    +0.000 HD
ENDBRANCH  19  21
ENDBRANCH  18  19
BRANCH  18  23
ATOM     23  CB  GLN A   8      -8.693   1.831   1.367  0.00  0.00    +0.000 C 
BRANCH  23  24
ATOM     24  CG  GLN A   8      -9.236   3.203   1.476  0.00  0.00    +0.000 C 
BRANCH  24  25
ATOM     25  CD  GLN A   8     -10.410   3.530   0.674  0.00  0.00    +0.000 C 
ATOM     26  NE2 GLN A   8     -11.512   2.692   0.419  0.00  0.00    +0.000 N 
ATOM     27  OE1 GLN A   8     -10.498   4.719   0.234  0.00  0.00    +0.000 OA
ATOM     28 HE21 GLN A   8     -11.504   1.759   0.735  0.00  0.00    +0.000 HD
ATOM     29 HE22 GLN A   8     -12.291   3.038  -0.074  0.00  0.00    +0.000 HD
ENDBRANCH  24  25
ENDBRANCH  23  24
ENDBRANCH  18  23
ENDBRANCH  16  18
ENDBRANCH  13  14
ENDBRANCH   6   7
BRANCH   6  30
ATOM     30  CB  ILE A   6      -3.224  -0.339  -2.171  0.00  0.00    +0.000 C 
ATOM     31  CG2 ILE A   6      -4.498  -1.329  -2.029  0.00  0.00    +0.000 C 
BRANCH  30  33
ATOM     32  CD1 ILE A   6      -4.737   1.096  -2.507  0.00  0.00    +0.000 C 
ATOM     33  CG1 ILE A   6      -4.123   0.999  -2.295  0.00  0.00    +0.000 C 
ENDBRANCH  30  33
ENDBRANCH   6  30
ENDBRANCH   2   6
ENDBRANCH   1   3
BRANCH   1  34
ATOM     34  N   SER A   5       0.624  -2.043   0.286  0.00  0.00    +0.000 N 
ATOM     35  C   VAL A   4       1.127  -1.078  -0.474  0.00  0.00    +0.000 C 
ATOM     36  O   VAL A   4       0.508  -0.553  -1.395  0.00  0.00    +0.000 OA
ATOM     37  H   SER A   5       0.945  -2.150   1.211  0.00  0.00    +0.000 HD
BRANCH  35  38
ATOM     38  CA  VAL A   4       2.673  -0.682  -0.657  0.00  0.00    +0.000 C 
BRANCH  38  39
ATOM     39  N   VAL A   4       3.193  -1.466   0.614  0.00  0.00    +0.000 N 
ATOM     40  C   PRO A   3       4.520  -1.064   0.999  0.00  0.00    +0.000 C 
ATOM     41  O   PRO A   3       4.923   0.055   0.772  0.00  0.00    +0.000 OA
ATOM     42  H   VAL A   4       2.669  -2.152   1.088  0.00  0.00    +0.000 HD
BRANCH  40  43
ATOM     43  CA  PRO A   3       5.550  -2.282   1.241  0.00  0.00    +0.000 C 
ATOM     44  CB  PRO A   3       5.881  -1.796   2.777  0.00  0.00    +0.000 C 
ATOM     45  CG  PRO A   3       7.272  -2.393   2.847  0.00  0.00    +0.000 C 
ATOM     46  CD  PRO A   3       7.854  -2.201   1.473  0.00  0.00    +0.000 C 
ATOM     47  N   PRO A   3       6.821  -1.534   0.698  0.00  0.00    +0.000 N 
ATOM     48  C   ALA A   2       6.777  -1.275  -0.656  0.00  0.00    +0.000 C 
ATOM     49  O   ALA A   2       6.480  -2.222  -1.453  0.00  0.00    +0.000 OA
BRANCH  48  50
ATOM     50  CA  ALA A   2       8.063  -0.600  -1.355  0.00  0.00    +0.000 C 
ATOM     51  CB  ALA A   2       9.034  -1.875  -0.969  0.00  0.00    +0.000 C 
BRANCH  50  52
ATOM     52  N   ALA A   2       8.519   0.197  -0.074  0.00  0.00    +0.000 N 
ATOM     53  C   ASN A   1       8.935   1.522  -0.449  0.00  0.00    +0.000 C 
ATOM     54  O   ASN A   1       7.961   2.214  -0.881  0.00  0.00    +0.000 OA
ATOM     55  H   ALA A   2       8.518  -0.158   0.844  0.00  0.00    +0.000 HD
BRANCH  53  56
ATOM     56  CA  ASN A   1       9.629   2.178   0.857  0.00  0.00    +0.000 C 
BRANCH  56  57
ATOM     57  N   ASN A   1      11.007   1.482   0.538  0.00  0.00    +0.000 NA
ATOM     58  H1  ASN A   1      11.227   1.602  -0.451  0.00  0.00    +0.000 HD
ATOM     59  H2  ASN A   1      10.943   0.487   0.754  0.00  0.00    +0.000 HD
ENDBRANCH  56  57
BRANCH  56  60
ATOM     60  CB  ASN A   1      10.056   3.534   0.029  0.00  0.00    +0.000 C 
BRANCH  60  61
ATOM     61  CG  ASN A   1       8.939   4.458   0.353  0.00  0.00    +0.000 C 
ATOM     62  ND2 ASN A   1       8.879   5.680  -0.364  0.00  0.00    +0.000 N 
ATOM     63  OD1 ASN A   1       8.234   4.363   1.387  0.00  0.00    +0.000 OA
ATOM     64 HD21 ASN A   1       9.415   5.798  -1.181  0.00  0.00    +0.000 HD
ATOM     65 HD22 ASN A   1       8.300   6.410  -0.046  0.00  0.00    +0.000 HD
ENDBRANCH  60  61
ENDBRANCH  56  60
ENDBRANCH  53  56
ENDBRANCH  50  52
ENDBRANCH  48  50
ENDBRANCH  40  43
ENDBRANCH  38  39
BRANCH  38  66
ATOM     66  CB  VAL A   4       2.969  -1.927  -1.696  0.00  0.00    +0.000 C 
ATOM     67  CG1 VAL A   4       2.181  -1.671  -2.920  0.00  0.00    +0.000 C 
ATOM     68  CG2 VAL A   4       2.691  -3.186  -1.008  0.00  0.00    +0.000 C 
ENDBRANCH  38  66
ENDBRANCH  35  38
ENDBRANCH   1  34
BRANCH   1  69
ATOM     69  CB  SER A   5      -1.182  -3.148   1.210  0.00  0.00    +0.000 C 
BRANCH  69  70
ATOM     70  OG  SER A   5      -1.728  -4.432   1.236  0.00  0.00    +0.000 OA
ATOM     71  H   SER A   5      -2.357  -4.531   0.504  0.00  0.00    +0.000 HD
ENDBRANCH  69  70
ENDBRANCH   1  69
TORSDOF 25
