REMARK  Name = 
REMARK  41 active torsions:
REMARK  status: ('A' for Active; 'I' for Inactive)
REMARK    1  A    between atoms: C_1  and  C_17
REMARK    2  A    between atoms: C_2  and  C_6
REMARK    3  A    between atoms: C_2  and  C_11
REMARK    4  A    between atoms: C_3  and  C_8
REMARK    5  A    between atoms: C_3  and  C_12
REMARK    6  A    between atoms: C_4  and  C_9
REMARK    7  A    between atoms: C_4  and  C_13
REMARK    8  A    between atoms: C_5  and  C_10
REMARK    9  A    between atoms: C_5  and  C_14
REMARK   10  A    between atoms: C_6  and  C_19
REMARK   11  A    between atoms: C_7  and  C_20
REMARK   12  A    between atoms: C_8  and  C_21
REMARK   13  A    between atoms: C_9  and  C_22
REMARK   14  A    between atoms: C_10  and  C_23
REMARK   15  A    between atoms: C_11  and  N_46
REMARK   16  A    between atoms: C_12  and  N_47
REMARK   17  A    between atoms: C_13  and  N_48
REMARK   18  A    between atoms: C_14  and  N_49
REMARK   19  A    between atoms: C_15  and  C_18
REMARK   20  A    between atoms: C_15  and  S_65
REMARK   21  A    between atoms: C_16  and  C_24
REMARK   22  A    between atoms: C_16  and  S_66
REMARK   23  A    between atoms: C_18  and  C_31
REMARK   24  A    between atoms: C_18  and  N_36
REMARK   25  A    between atoms: C_19  and  C_25
REMARK   26  A    between atoms: C_19  and  N_51
REMARK   27  A    between atoms: C_20  and  C_26
REMARK   28  A    between atoms: C_20  and  N_52
REMARK   29  A    between atoms: C_21  and  C_27
REMARK   30  A    between atoms: C_21  and  N_53
REMARK   31  A    between atoms: C_22  and  C_28
REMARK   32  A    between atoms: C_22  and  N_54
REMARK   33  A    between atoms: C_23  and  C_29
REMARK   34  A    between atoms: C_23  and  N_70
REMARK   35  A    between atoms: C_24  and  C_30
REMARK   36  A    between atoms: C_24  and  N_50
REMARK   37  A    between atoms: C_31  and  O_64
REMARK   38  A    between atoms: N_55  and  C_67
REMARK   39  A    between atoms: S_65  and  S_66
REMARK   40  A    between atoms: C_67  and  C_68
REMARK   41  A    between atoms: C_67  and  C_69
REMARK                            x       y       z     vdW  Elec       q    Type
REMARK                         _______ _______ _______ _____ _____    ______ ____
ROOT
ATOM      1  C   UNK     1       0.357  -0.206   0.000  0.00  0.00    +0.000 C 
ENDROOT
BRANCH   1   2
ATOM      2  C   UNK     1       1.072   0.206   0.000  0.00  0.00    +0.000 C 
ATOM      3  N   UNK     1       1.786  -0.206   0.000  0.00  0.00    +0.000 N 
ATOM      4  O   UNK     1       1.072   1.031   0.000  0.00  0.00    +0.000 OA
ATOM      5  H   UNK     1       1.786  -1.191   0.000  0.00  0.00    +0.000 HD
BRANCH   3   6
ATOM      6  C   UNK     1       2.501   0.206   0.000  0.00  0.00    +0.000 C 
BRANCH   6   7
ATOM      7  C   UNK     1       3.215  -0.206   0.000  0.00  0.00    +0.000 C 
ATOM      8  N   UNK     1       3.930   0.206   0.000  0.00  0.00    +0.000 N 
ATOM      9  O   UNK     1       3.215  -1.031   0.000  0.00  0.00    +0.000 OA
ATOM     10  H   UNK     1       3.930   1.191   0.000  0.00  0.00    +0.000 HD
BRANCH   8  12
ATOM     11  C   UNK     1       4.644  -1.031   0.000  0.00  0.00    +0.000 C 
ATOM     12  C   UNK     1       4.644  -0.206   0.000  0.00  0.00    +0.000 C 
BRANCH  12  13
ATOM     13  C   UNK     1       5.359   0.206   0.000  0.00  0.00    +0.000 C 
ATOM     14  N   UNK     1       6.073  -0.206   0.000  0.00  0.00    +0.000 N 
ATOM     15  O   UNK     1       5.359   1.031   0.000  0.00  0.00    +0.000 OA
ATOM     16  H   UNK     1       6.073  -1.191   0.000  0.00  0.00    +0.000 HD
BRANCH  14  17
ATOM     17  C   UNK     1       6.787   0.206   0.000  0.00  0.00    +0.000 C 
BRANCH  17  18
ATOM     18  C   UNK     1       6.787   1.031   0.000  0.00  0.00    +0.000 C 
ATOM     19  N   UNK     1       6.073   1.444   0.000  0.00  0.00    +0.000 N 
ATOM     20  O   UNK     1       7.502   1.444   0.000  0.00  0.00    +0.000 OA
ATOM     21  H   UNK     1       6.073   2.428   0.000  0.00  0.00    +0.000 HD
ATOM     22  H   UNK     1       5.220   0.951   0.000  0.00  0.00    +0.000 HD
ENDBRANCH  17  18
BRANCH  17  23
ATOM     23  C   UNK     1       7.502  -0.206   0.000  0.00  0.00    +0.000 C 
BRANCH  23  24
ATOM     24  C   UNK     1       8.216   0.206   0.000  0.00  0.00    +0.000 C 
BRANCH  24  25
ATOM     25  C   UNK     1       8.931  -0.206   0.000  0.00  0.00    +0.000 C 
BRANCH  25  29
ATOM     26  C   UNK     1      10.360  -0.206   0.000  0.00  0.00    +0.000 C 
ATOM     27  N   UNK     1      11.074   0.206   0.000  0.00  0.00    +0.000 NA
ATOM     28  N   UNK     1      10.360  -1.031   0.000  0.00  0.00    +0.000 N 
ATOM     29  N   UNK     1       9.645   0.206   0.000  0.00  0.00    +0.000 N 
ATOM     30  H   UNK     1      11.927  -0.286   0.000  0.00  0.00    +0.000 HD
ATOM     31  H   UNK     1       9.507  -1.523   0.000  0.00  0.00    +0.000 HD
ATOM     32  H   UNK     1      11.212  -1.523   0.000  0.00  0.00    +0.000 HD
ATOM     33  H   UNK     1       9.645   1.191   0.000  0.00  0.00    +0.000 HD
ENDBRANCH  25  29
ENDBRANCH  24  25
ENDBRANCH  23  24
ENDBRANCH  17  23
ENDBRANCH  14  17
ENDBRANCH  12  13
ENDBRANCH   8  12
ENDBRANCH   6   7
BRANCH   6  34
ATOM     34  C   UNK     1       2.501   1.031   0.000  0.00  0.00    +0.000 C 
BRANCH  34  35
ATOM     35  C   UNK     1       3.215   1.444   0.000  0.00  0.00    +0.000 C 
BRANCH  35  36
ATOM     36  C   UNK     1       3.215   2.269   0.000  0.00  0.00    +0.000 C 
BRANCH  36  40
ATOM     37  C   UNK     1       3.930   3.506   0.000  0.00  0.00    +0.000 C 
ATOM     38  N   UNK     1       3.215   3.919   0.000  0.00  0.00    +0.000 NA
ATOM     39  N   UNK     1       4.644   3.919   0.000  0.00  0.00    +0.000 N 
ATOM     40  N   UNK     1       3.930   2.681   0.000  0.00  0.00    +0.000 N 
ATOM     41  H   UNK     1       3.215   4.903   0.000  0.00  0.00    +0.000 HD
ATOM     42  H   UNK     1       5.497   3.426   0.000  0.00  0.00    +0.000 HD
ATOM     43  H   UNK     1       4.644   4.903   0.000  0.00  0.00    +0.000 HD
ATOM     44  H   UNK     1       4.782   2.189   0.000  0.00  0.00    +0.000 HD
ENDBRANCH  36  40
ENDBRANCH  35  36
ENDBRANCH  34  35
ENDBRANCH   6  34
ENDBRANCH   3   6
ENDBRANCH   1   2
BRANCH   1  46
ATOM     45  C   UNK     1      -1.072  -0.206   0.000  0.00  0.00    +0.000 C 
ATOM     46  N   UNK     1      -0.357   0.206   0.000  0.00  0.00    +0.000 N 
ATOM     47  O   UNK     1      -1.072  -1.031   0.000  0.00  0.00    +0.000 OA
ATOM     48  H   UNK     1      -0.357   1.191   0.000  0.00  0.00    +0.000 HD
BRANCH  45  49
ATOM     49  C   UNK     1      -1.786   0.206   0.000  0.00  0.00    +0.000 C 
BRANCH  49  51
ATOM     50  C   UNK     1      -3.215   0.206   0.000  0.00  0.00    +0.000 C 
ATOM     51  N   UNK     1      -2.501  -0.206   0.000  0.00  0.00    +0.000 N 
ATOM     52  O   UNK     1      -3.215   1.031   0.000  0.00  0.00    +0.000 OA
ATOM     53  H   UNK     1      -2.501  -1.191   0.000  0.00  0.00    +0.000 HD
BRANCH  50  54
ATOM     54  C   UNK     1      -3.929  -0.206   0.000  0.00  0.00    +0.000 C 
ATOM     55  C   UNK     1      -3.929  -1.031   0.000  0.00  0.00    +0.000 C 
BRANCH  54  57
ATOM     56  C   UNK     1      -5.358  -0.206   0.000  0.00  0.00    +0.000 C 
ATOM     57  N   UNK     1      -4.644   0.206   0.000  0.00  0.00    +0.000 N 
ATOM     58  O   UNK     1      -5.358  -1.031   0.000  0.00  0.00    +0.000 OA
ATOM     59  H   UNK     1      -4.644   1.191   0.000  0.00  0.00    +0.000 HD
BRANCH  56  60
ATOM     60  C   UNK     1      -6.073   0.206   0.000  0.00  0.00    +0.000 C 
BRANCH  60  63
ATOM     61  C   UNK     1      -6.787   2.269   0.000  0.00  0.00    +0.000 C 
ATOM     62  C   UNK     1      -6.787   1.444   0.000  0.00  0.00    +0.000 C 
ATOM     63  N   UNK     1      -6.073   1.031   0.000  0.00  0.00    +0.000 N 
ATOM     64  O   UNK     1      -7.502   1.031   0.000  0.00  0.00    +0.000 OA
ATOM     65  H   UNK     1      -5.220   1.523   0.000  0.00  0.00    +0.000 HD
ENDBRANCH  60  63
BRANCH  60  66
ATOM     66  C   UNK     1      -6.787  -0.206   0.000  0.00  0.00    +0.000 C 
BRANCH  66  67
ATOM     67  S   UNK     1      -7.502   0.206   0.000  0.00  0.00    +0.000 S 
BRANCH  67  68
ATOM     68  S   UNK     1      -8.216  -0.206   0.000  0.00  0.00    +0.000 S 
BRANCH  68  69
ATOM     69  C   UNK     1      -8.931   0.206   0.000  0.00  0.00    +0.000 C 
BRANCH  69  70
ATOM     70  C   UNK     1      -9.645  -0.206   0.000  0.00  0.00    +0.000 C 
BRANCH  70  71
ATOM     71  N   UNK     1      -9.645  -1.031   0.000  0.00  0.00    +0.000 NA
ATOM     72  H   UNK     1     -10.529  -1.541   0.000  0.00  0.00    +0.000 HD
ATOM     73  H   UNK     1      -8.762  -1.541   0.000  0.00  0.00    +0.000 HD
ENDBRANCH  70  71
BRANCH  70  74
ATOM     74  C   UNK     1     -10.360   0.206   0.000  0.00  0.00    +0.000 C 
ATOM     75  O   UNK     1     -11.074  -0.206   0.000  0.00  0.00    +0.000 OA
BRANCH  74  76
ATOM     76  O   UNK     1     -10.360   1.031   0.000  0.00  0.00    +0.000 OA
ATOM     77  H   UNK     1      -9.548   1.500   0.000  0.00  0.00    +0.000 HD
ENDBRANCH  74  76
ENDBRANCH  70  74
ENDBRANCH  69  70
ENDBRANCH  68  69
ENDBRANCH  67  68
ENDBRANCH  66  67
ENDBRANCH  60  66
ENDBRANCH  56  60
ENDBRANCH  54  57
ENDBRANCH  50  54
ENDBRANCH  49  51
BRANCH  49  78
ATOM     78  C   UNK     1      -1.786   1.031   0.000  0.00  0.00    +0.000 C 
BRANCH  78  79
ATOM     79  C   UNK     1      -1.072   1.444   0.000  0.00  0.00    +0.000 C 
BRANCH  79  80
ATOM     80  C   UNK     1      -1.072   2.269   0.000  0.00  0.00    +0.000 C 
BRANCH  80  84
ATOM     81  C   UNK     1      -0.357   3.506   0.000  0.00  0.00    +0.000 C 
ATOM     82  N   UNK     1      -1.072   3.919   0.000  0.00  0.00    +0.000 NA
ATOM     83  N   UNK     1       0.357   3.919   0.000  0.00  0.00    +0.000 N 
ATOM     84  N   UNK     1      -0.357   2.681   0.000  0.00  0.00    +0.000 N 
ATOM     85  H   UNK     1      -1.072   4.903   0.000  0.00  0.00    +0.000 HD
ATOM     86  H   UNK     1       1.210   3.427   0.000  0.00  0.00    +0.000 HD
ATOM     87  H   UNK     1       0.357   4.903   0.000  0.00  0.00    +0.000 HD
ATOM     88  H   UNK     1       0.495   2.189   0.000  0.00  0.00    +0.000 HD
ENDBRANCH  80  84
ENDBRANCH  79  80
ENDBRANCH  78  79
ENDBRANCH  49  78
ENDBRANCH  45  49
ENDBRANCH   1  46
BRANCH   1  89
ATOM     89  C   UNK     1       0.357  -1.031   0.000  0.00  0.00    +0.000 C 
BRANCH  89  90
ATOM     90  C   UNK     1      -0.357  -1.444   0.000  0.00  0.00    +0.000 C 
BRANCH  90  91
ATOM     91  C   UNK     1      -0.357  -2.269   0.000  0.00  0.00    +0.000 C 
BRANCH  91  95
ATOM     92  C   UNK     1      -1.072  -3.506   0.000  0.00  0.00    +0.000 C 
ATOM     93  N   UNK     1      -0.357  -3.919   0.000  0.00  0.00    +0.000 NA
ATOM     94  N   UNK     1      -1.786  -3.919   0.000  0.00  0.00    +0.000 N 
ATOM     95  N   UNK     1      -1.072  -2.681   0.000  0.00  0.00    +0.000 N 
ATOM     96  H   UNK     1      -0.357  -4.903   0.000  0.00  0.00    +0.000 HD
ATOM     97  H   UNK     1      -2.639  -3.426   0.000  0.00  0.00    +0.000 HD
ATOM     98  H   UNK     1      -1.786  -4.903   0.000  0.00  0.00    +0.000 HD
ATOM     99  H   UNK     1      -1.924  -2.189   0.000  0.00  0.00    +0.000 HD
ENDBRANCH  91  95
ENDBRANCH  90  91
ENDBRANCH  89  90
ENDBRANCH   1  89
TORSDOF 38
