REMARK  Name = 
REMARK  25 active torsions:
REMARK  status: ('A' for Active; 'I' for Inactive)
REMARK    1  A    between atoms: C_1  and  C_2
REMARK    2  A    between atoms: C_2  and  C_3
REMARK    3  A    between atoms: C_3  and  C_4
REMARK    4  A    between atoms: C_3  and  C_5
REMARK    5  A    between atoms: C_9  and  C_69
REMARK    6  A    between atoms: C_13  and  C_65
REMARK    7  A    between atoms: C_17  and  C_38
REMARK    8  A    between atoms: C_26  and  C_30
REMARK    9  A    between atoms: C_30  and  C_31
REMARK   10  A    between atoms: C_34  and  O_37
REMARK   11  A    between atoms: N_40  and  C_41
REMARK   12  A    between atoms: N_40  and  C_49
REMARK   13  A    between atoms: C_41  and  C_42
REMARK   14  A    between atoms: C_49  and  C_50
REMARK   15  A    between atoms: N_52  and  C_53
REMARK   16  A    between atoms: C_53  and  C_54
REMARK   17  A    between atoms: C_53  and  C_58
REMARK   18  A    between atoms: C_54  and  C_55
REMARK   19  A    between atoms: C_55  and  C_56
REMARK   20  A    between atoms: C_55  and  C_57
REMARK   21  A    between atoms: N_60  and  C_61
REMARK   22  A    between atoms: C_61  and  C_62
REMARK   23  A    between atoms: C_65  and  C_66
REMARK   24  A    between atoms: C_69  and  C_70
REMARK   25  A    between atoms: C_70  and  C_71
REMARK                            x       y       z     vdW  Elec       q    Type
REMARK                         _______ _______ _______ _____ _____    ______ ____
ROOT
ATOM      1  C   UNL     1       0.715   5.362   0.000  0.00  0.00    +0.000 C 
ATOM      2  C   UNL     1       0.715   6.188   0.000  0.00  0.00    +0.000 C 
ATOM      3  O   UNL     1       0.379   6.941   0.000  0.00  0.00    +0.000 OA
ATOM      4  N   UNL     1       1.429   6.600   0.000  0.00  0.00    +0.000 N 
ATOM      5  C   UNL     1       2.143   6.188   0.000  0.00  0.00    +0.000 C 
ATOM      6  C   UNL     1       2.143   5.362   0.000  0.00  0.00    +0.000 C 
ATOM      7  O   UNL     1       1.429   4.950   0.000  0.00  0.00    +0.000 OA
ATOM      8  N   UNL     1       2.858   4.950   0.000  0.00  0.00    +0.000 N 
ATOM      9  C   UNL     1       2.858   4.125   0.000  0.00  0.00    +0.000 C 
ATOM     10  C   UNL     1       3.572   3.712   0.000  0.00  0.00    +0.000 C 
ATOM     11  O   UNL     1       4.287   4.125   0.000  0.00  0.00    +0.000 OA
ATOM     12  N   UNL     1       3.572   2.888   0.000  0.00  0.00    +0.000 N 
ATOM     13  C   UNL     1       4.287   2.475   0.000  0.00  0.00    +0.000 C 
ATOM     14  C   UNL     1       4.287   1.650   0.000  0.00  0.00    +0.000 C 
ATOM     15  S   UNL     1       3.572   1.238   0.000  0.00  0.00    +0.000 S 
ATOM     16  C   UNL     1       2.858   1.650   0.000  0.00  0.00    +0.000 C 
ATOM     17  C   UNL     1       2.143   1.238   0.000  0.00  0.00    +0.000 C 
ATOM     18  C   UNL     1       1.429   1.650   0.000  0.00  0.00    +0.000 C 
ATOM     19  C   UNL     1       1.429   2.475   0.000  0.00  0.00    +0.000 C 
ATOM     20  O   UNL     1       2.143   2.888   0.000  0.00  0.00    +0.000 OA
ATOM     21  N   UNL     1       0.715   2.888   0.000  0.00  0.00    +0.000 N 
ATOM     22  C   UNL     1       0.715   3.712   0.000  0.00  0.00    +0.000 C 
ATOM     23  C   UNL     1       0.000   4.125   0.000  0.00  0.00    +0.000 C 
ATOM     24  O   UNL     1      -0.715   3.712   0.000  0.00  0.00    +0.000 OA
ATOM     25  N   UNL     1       0.000   4.950   0.000  0.00  0.00    +0.000 N 
ATOM     26  H   UNL     1       1.429   7.584   0.000  0.00  0.00    +0.000 HD
ATOM     27  H   UNL     1       3.710   5.442   0.000  0.00  0.00    +0.000 HD
ATOM     28  H   UNL     1       2.720   2.395   0.000  0.00  0.00    +0.000 HD
ATOM     29  H   UNL     1      -0.138   2.395   0.000  0.00  0.00    +0.000 HD
ATOM     30  H   UNL     1      -0.853   5.442   0.000  0.00  0.00    +0.000 HD
ENDROOT
BRANCH  13  31
ATOM     31  C   UNL     1       5.001   2.888   0.000  0.00  0.00    +0.000 C 
ATOM     32  O   UNL     1       5.001   3.712   0.000  0.00  0.00    +0.000 OA
ATOM     33  N   UNL     1       5.716   2.475   0.000  0.00  0.00    +0.000 N 
BRANCH  33  34
ATOM     34  C   UNL     1       5.716   1.650   0.000  0.00  0.00    +0.000 C 
BRANCH  34  35
ATOM     35  C   UNL     1       6.430   1.238   0.000  0.00  0.00    +0.000 A 
ATOM     36  C   UNL     1       7.145   1.650   0.000  0.00  0.00    +0.000 A 
ATOM     37  C   UNL     1       7.859   1.238   0.000  0.00  0.00    +0.000 A 
ATOM     38  C   UNL     1       7.859   0.412   0.000  0.00  0.00    +0.000 A 
ATOM     39  C   UNL     1       7.145   0.000   0.000  0.00  0.00    +0.000 A 
ATOM     40  C   UNL     1       6.430   0.412   0.000  0.00  0.00    +0.000 A 
ATOM     41  F   UNL     1       8.574   0.000   0.000  0.00  0.00    +0.000 F 
ENDBRANCH  34  35
ENDBRANCH  33  34
BRANCH  33  42
ATOM     42  C   UNL     1       6.430   2.888   0.000  0.00  0.00    +0.000 C 
BRANCH  42  43
ATOM     43  C   UNL     1       7.145   2.475   0.000  0.00  0.00    +0.000 C 
ATOM     44  O   UNL     1       7.630   1.808   0.000  0.00  0.00    +0.000 OA
ATOM     45  N   UNL     1       7.859   2.888   0.000  0.00  0.00    +0.000 N 
ATOM     46  H   UNL     1       7.859   3.872   0.000  0.00  0.00    +0.000 HD
BRANCH  45  47
ATOM     47  C   UNL     1       8.574   2.475   0.000  0.00  0.00    +0.000 C 
BRANCH  47  48
ATOM     48  C   UNL     1       9.288   2.888   0.000  0.00  0.00    +0.000 C 
ATOM     49  O   UNL     1       9.288   3.712   0.000  0.00  0.00    +0.000 OA
ATOM     50  N   UNL     1      10.003   2.475   0.000  0.00  0.00    +0.000 N 
ATOM     51  H   UNL     1      10.003   1.491   0.000  0.00  0.00    +0.000 HD
BRANCH  50  52
ATOM     52  C   UNL     1      10.717   2.888   0.000  0.00  0.00    +0.000 C 
BRANCH  52  53
ATOM     53  C   UNL     1      11.431   2.475   0.000  0.00  0.00    +0.000 C 
ATOM     54  O   UNL     1      12.146   2.888   0.000  0.00  0.00    +0.000 OA
ATOM     55  N   UNL     1      11.431   1.650   0.000  0.00  0.00    +0.000 N 
ATOM     56  H   UNL     1      10.579   1.158   0.000  0.00  0.00    +0.000 HD
ATOM     57  H   UNL     1      12.284   1.158   0.000  0.00  0.00    +0.000 HD
ENDBRANCH  52  53
ENDBRANCH  50  52
ENDBRANCH  47  48
BRANCH  47  58
ATOM     58  C   UNL     1       8.574   1.650   0.000  0.00  0.00    +0.000 C 
BRANCH  58  59
ATOM     59  C   UNL     1       9.288   1.238   0.000  0.00  0.00    +0.000 C 
ATOM     60  C   UNL     1      10.003   1.650   0.000  0.00  0.00    +0.000 C 
ATOM     61  C   UNL     1       9.288   0.412   0.000  0.00  0.00    +0.000 C 
ENDBRANCH  58  59
ENDBRANCH  47  58
ENDBRANCH  45  47
ENDBRANCH  42  43
ENDBRANCH  33  42
ENDBRANCH  13  31
BRANCH   1  62
ATOM     62  C   UNL     1       0.000   5.775   0.000  0.00  0.00    +0.000 C 
ATOM     63  C   UNL     1       0.000   6.600   0.000  0.00  0.00    +0.000 C 
BRANCH  62  65
ATOM     64  C   UNL     1      -1.429   5.775   0.000  0.00  0.00    +0.000 C 
ATOM     65  C   UNL     1      -0.715   5.362   0.000  0.00  0.00    +0.000 C 
ENDBRANCH  62  65
ENDBRANCH   1  62
BRANCH  22  66
ATOM     66  C   UNL     1       0.000   3.300   0.000  0.00  0.00    +0.000 C 
BRANCH  66  67
ATOM     67  C   UNL     1       0.000   2.475   0.000  0.00  0.00    +0.000 A 
ATOM     68  C   UNL     1       0.715   2.062   0.000  0.00  0.00    +0.000 A 
ATOM     69  C   UNL     1       0.715   1.238   0.000  0.00  0.00    +0.000 A 
ATOM     70  C   UNL     1       0.000   0.825   0.000  0.00  0.00    +0.000 A 
ATOM     71  C   UNL     1      -0.715   1.238   0.000  0.00  0.00    +0.000 A 
ATOM     72  C   UNL     1      -0.715   2.062   0.000  0.00  0.00    +0.000 A 
BRANCH  70  73
ATOM     73  O   UNL     1       0.000   0.000   0.000  0.00  0.00    +0.000 OA
ATOM     74  H   UNL     1      -0.811  -0.469   0.000  0.00  0.00    +0.000 HD
ENDBRANCH  70  73
ENDBRANCH  66  67
ENDBRANCH  22  66
BRANCH   9  75
ATOM     75  C   UNL     1       3.572   4.537   0.000  0.00  0.00    +0.000 C 
BRANCH  75  76
ATOM     76  C   UNL     1       3.572   5.362   0.000  0.00  0.00    +0.000 C 
ATOM     77  O   UNL     1       2.858   5.775   0.000  0.00  0.00    +0.000 OA
ATOM     78  N   UNL     1       4.287   5.775   0.000  0.00  0.00    +0.000 N 
ATOM     79  H   UNL     1       5.139   5.283   0.000  0.00  0.00    +0.000 HD
ATOM     80  H   UNL     1       4.287   6.759   0.000  0.00  0.00    +0.000 HD
ENDBRANCH  75  76
ENDBRANCH   9  75
BRANCH   5  81
ATOM     81  C   UNL     1       2.858   6.600   0.000  0.00  0.00    +0.000 C 
BRANCH  81  82
ATOM     82  C   UNL     1       2.858   7.425   0.000  0.00  0.00    +0.000 C 
BRANCH  82  83
ATOM     83  C   UNL     1       3.572   7.838   0.000  0.00  0.00    +0.000 C 
ATOM     84  O   UNL     1       4.287   7.425   0.000  0.00  0.00    +0.000 OA
ATOM     85  N   UNL     1       3.572   8.662   0.000  0.00  0.00    +0.000 N 
ATOM     86  H   UNL     1       4.425   9.155   0.000  0.00  0.00    +0.000 HD
ATOM     87  H   UNL     1       2.720   9.155   0.000  0.00  0.00    +0.000 HD
ENDBRANCH  82  83
ENDBRANCH  81  82
ENDBRANCH   5  81
TORSDOF 21
