REMARK  Name = 
REMARK  21 active torsions:
REMARK  status: ('A' for Active; 'I' for Inactive)
REMARK    1  A    between atoms: C_4  and  C_7
REMARK    2  A    between atoms: C_7  and  C_8
REMARK    3  A    between atoms: C_12  and  C_68
REMARK    4  A    between atoms: C_16  and  C_64
REMARK    5  A    between atoms: C_20  and  C_42
REMARK    6  A    between atoms: C_25  and  N_41
REMARK    7  A    between atoms: C_29  and  C_33
REMARK    8  A    between atoms: C_33  and  C_34
REMARK    9  A    between atoms: C_37  and  O_40
REMARK   10  A    between atoms: C_48  and  C_49
REMARK   11  A    between atoms: N_51  and  C_52
REMARK   12  A    between atoms: C_52  and  C_53
REMARK   13  A    between atoms: C_52  and  C_57
REMARK   14  A    between atoms: C_53  and  C_54
REMARK   15  A    between atoms: C_54  and  C_55
REMARK   16  A    between atoms: C_55  and  N_56
REMARK   17  A    between atoms: N_59  and  C_60
REMARK   18  A    between atoms: C_60  and  C_61
REMARK   19  A    between atoms: C_64  and  C_65
REMARK   20  A    between atoms: C_68  and  C_69
REMARK   21  A    between atoms: C_69  and  C_70
REMARK                            x       y       z     vdW  Elec       q    Type
REMARK                         _______ _______ _______ _____ _____    ______ ____
ROOT
ATOM      1  C   UNL     1      -0.825   7.133   0.000  0.00  0.00    +0.000 C 
ATOM      2  C   UNL     1      -0.426   7.855   0.000  0.00  0.00    +0.000 C 
ATOM      3  O   UNL     1      -0.852   8.561   0.000  0.00  0.00    +0.000 OA
ATOM      4  N   UNL     1       0.399   7.871   0.000  0.00  0.00    +0.000 N 
ATOM      5  C   UNL     1       0.825   7.165   0.000  0.00  0.00    +0.000 C 
ATOM      6  C   UNL     1       0.427   6.442   0.000  0.00  0.00    +0.000 C 
ATOM      7  O   UNL     1      -0.398   6.426   0.000  0.00  0.00    +0.000 OA
ATOM      8  N   UNL     1       0.853   5.736   0.000  0.00  0.00    +0.000 N 
ATOM      9  C   UNL     1       0.454   5.014   0.000  0.00  0.00    +0.000 C 
ATOM     10  C   UNL     1       0.880   4.307   0.000  0.00  0.00    +0.000 C 
ATOM     11  O   UNL     1       1.705   4.323   0.000  0.00  0.00    +0.000 OA
ATOM     12  N   UNL     1       0.482   3.585   0.000  0.00  0.00    +0.000 N 
ATOM     13  C   UNL     1       0.908   2.879   0.000  0.00  0.00    +0.000 C 
ATOM     14  C   UNL     1       0.509   2.156   0.000  0.00  0.00    +0.000 C 
ATOM     15  S   UNL     1      -0.316   2.140   0.000  0.00  0.00    +0.000 S 
ATOM     16  S   UNL     1      -0.742   2.847   0.000  0.00  0.00    +0.000 S 
ATOM     17  C   UNL     1      -1.567   2.831   0.000  0.00  0.00    +0.000 C 
ATOM     18  C   UNL     1      -1.993   3.537   0.000  0.00  0.00    +0.000 C 
ATOM     19  C   UNL     1      -1.594   4.260   0.000  0.00  0.00    +0.000 C 
ATOM     20  O   UNL     1      -0.769   4.275   0.000  0.00  0.00    +0.000 OA
ATOM     21  N   UNL     1      -2.020   4.966   0.000  0.00  0.00    +0.000 N 
ATOM     22  C   UNL     1      -1.622   5.688   0.000  0.00  0.00    +0.000 C 
ATOM     23  C   UNL     1      -2.048   6.394   0.000  0.00  0.00    +0.000 C 
ATOM     24  O   UNL     1      -2.873   6.379   0.000  0.00  0.00    +0.000 OA
ATOM     25  N   UNL     1      -1.649   7.117   0.000  0.00  0.00    +0.000 N 
ATOM     26  H   UNL     1       0.875   8.733   0.000  0.00  0.00    +0.000 HD
ATOM     27  H   UNL     1       1.837   5.755   0.000  0.00  0.00    +0.000 HD
ATOM     28  H   UNL     1      -0.503   3.566   0.000  0.00  0.00    +0.000 HD
ATOM     29  H   UNL     1      -3.005   4.947   0.000  0.00  0.00    +0.000 HD
ATOM     30  H   UNL     1      -2.158   7.960   0.000  0.00  0.00    +0.000 HD
ENDROOT
BRANCH  13  31
ATOM     31  C   UNL     1       1.733   2.894   0.000  0.00  0.00    +0.000 C 
ATOM     32  O   UNL     1       2.131   3.617   0.000  0.00  0.00    +0.000 OA
ATOM     33  N   UNL     1       2.159   2.188   0.000  0.00  0.00    +0.000 N 
ATOM     34  C   UNL     1       1.838   1.428   0.000  0.00  0.00    +0.000 C 
ATOM     35  C   UNL     1       2.462   0.888   0.000  0.00  0.00    +0.000 C 
ATOM     36  C   UNL     1       3.168   1.314   0.000  0.00  0.00    +0.000 C 
ATOM     37  C   UNL     1       2.981   2.118   0.000  0.00  0.00    +0.000 C 
BRANCH  37  38
ATOM     38  C   UNL     1       3.521   2.741   0.000  0.00  0.00    +0.000 C 
ATOM     39  O   UNL     1       3.251   3.521   0.000  0.00  0.00    +0.000 OA
ATOM     40  N   UNL     1       4.331   2.586   0.000  0.00  0.00    +0.000 N 
ATOM     41  H   UNL     1       4.654   1.655   0.000  0.00  0.00    +0.000 HD
BRANCH  40  42
ATOM     42  C   UNL     1       4.871   3.209   0.000  0.00  0.00    +0.000 C 
BRANCH  42  43
ATOM     43  C   UNL     1       5.681   3.053   0.000  0.00  0.00    +0.000 C 
ATOM     44  O   UNL     1       5.952   2.274   0.000  0.00  0.00    +0.000 OA
ATOM     45  N   UNL     1       6.222   3.677   0.000  0.00  0.00    +0.000 N 
ATOM     46  H   UNL     1       5.899   4.607   0.000  0.00  0.00    +0.000 HD
BRANCH  45  47
ATOM     47  C   UNL     1       7.032   3.521   0.000  0.00  0.00    +0.000 C 
BRANCH  47  48
ATOM     48  C   UNL     1       7.572   4.145   0.000  0.00  0.00    +0.000 C 
ATOM     49  O   UNL     1       8.382   3.989   0.000  0.00  0.00    +0.000 OA
ATOM     50  N   UNL     1       7.302   4.924   0.000  0.00  0.00    +0.000 N 
ATOM     51  H   UNL     1       7.946   5.668   0.000  0.00  0.00    +0.000 HD
ATOM     52  H   UNL     1       6.335   5.110   0.000  0.00  0.00    +0.000 HD
ENDBRANCH  47  48
ENDBRANCH  45  47
ENDBRANCH  42  43
BRANCH  42  53
ATOM     53  C   UNL     1       4.601   3.989   0.000  0.00  0.00    +0.000 C 
BRANCH  53  54
ATOM     54  C   UNL     1       3.791   4.145   0.000  0.00  0.00    +0.000 C 
BRANCH  54  55
ATOM     55  C   UNL     1       3.521   4.924   0.000  0.00  0.00    +0.000 C 
BRANCH  55  56
ATOM     56  N   UNL     1       2.711   5.080   0.000  0.00  0.00    +0.000 NA
ATOM     57  H   UNL     1       2.377   6.044   0.000  0.00  0.00    +0.000 HD
ATOM     58  H   UNL     1       2.043   4.309   0.000  0.00  0.00    +0.000 HD
ENDBRANCH  55  56
ENDBRANCH  54  55
ENDBRANCH  53  54
ENDBRANCH  42  53
ENDBRANCH  40  42
ENDBRANCH  37  38
ENDBRANCH  13  31
BRANCH  18  59
ATOM     59  N   UNL     1      -2.651   3.039   0.000  0.00  0.00    +0.000 NA
ATOM     60  H   UNL     1      -3.590   3.436   0.000  0.00  0.00    +0.000 HD
ATOM     61  H   UNL     1      -2.524   2.027   0.000  0.00  0.00    +0.000 HD
ENDBRANCH  18  59
BRANCH   1  62
ATOM     62  C   UNL     1      -1.251   7.839   0.000  0.00  0.00    +0.000 C 
BRANCH  62  66
ATOM     63  C   UNL     1      -3.725   7.791   0.000  0.00  0.00    +0.000 A 
ATOM     64  C   UNL     1      -3.327   8.514   0.000  0.00  0.00    +0.000 A 
ATOM     65  C   UNL     1      -2.502   8.530   0.000  0.00  0.00    +0.000 A 
ATOM     66  C   UNL     1      -2.076   7.823   0.000  0.00  0.00    +0.000 A 
ATOM     67  C   UNL     1      -2.474   7.101   0.000  0.00  0.00    +0.000 A 
ATOM     68  C   UNL     1      -3.299   7.085   0.000  0.00  0.00    +0.000 A 
ENDBRANCH  62  66
ENDBRANCH   1  62
BRANCH  22  69
ATOM     69  C   UNL     1      -2.447   5.672   0.000  0.00  0.00    +0.000 C 
BRANCH  69  70
ATOM     70  C   UNL     1      -2.845   4.950   0.000  0.00  0.00    +0.000 A 
ATOM     71  C   UNL     1      -2.419   4.244   0.000  0.00  0.00    +0.000 A 
ATOM     72  C   UNL     1      -2.818   3.521   0.000  0.00  0.00    +0.000 A 
ATOM     73  C   UNL     1      -3.643   3.505   0.000  0.00  0.00    +0.000 A 
ATOM     74  C   UNL     1      -4.069   4.212   0.000  0.00  0.00    +0.000 A 
ATOM     75  C   UNL     1      -3.670   4.934   0.000  0.00  0.00    +0.000 A 
BRANCH  73  76
ATOM     76  O   UNL     1      -4.041   2.783   0.000  0.00  0.00    +0.000 OA
ATOM     77  H   UNL     1      -4.978   2.765   0.000  0.00  0.00    +0.000 HD
ENDBRANCH  73  76
ENDBRANCH  69  70
ENDBRANCH  22  69
BRANCH   9  78
ATOM     78  C   UNL     1       1.279   5.030   0.000  0.00  0.00    +0.000 C 
BRANCH  78  79
ATOM     79  C   UNL     1       1.678   5.752   0.000  0.00  0.00    +0.000 C 
ATOM     80  O   UNL     1       1.251   6.458   0.000  0.00  0.00    +0.000 OA
ATOM     81  N   UNL     1       2.502   5.768   0.000  0.00  0.00    +0.000 N 
ATOM     82  H   UNL     1       3.011   4.925   0.000  0.00  0.00    +0.000 HD
ATOM     83  H   UNL     1       2.978   6.630   0.000  0.00  0.00    +0.000 HD
ENDBRANCH  78  79
ENDBRANCH   9  78
BRANCH   5  84
ATOM     84  C   UNL     1       1.650   7.181   0.000  0.00  0.00    +0.000 C 
BRANCH  84  85
ATOM     85  C   UNL     1       2.049   7.903   0.000  0.00  0.00    +0.000 C 
BRANCH  85  86
ATOM     86  C   UNL     1       2.873   7.919   0.000  0.00  0.00    +0.000 C 
ATOM     87  O   UNL     1       3.300   7.212   0.000  0.00  0.00    +0.000 OA
ATOM     88  N   UNL     1       3.272   8.641   0.000  0.00  0.00    +0.000 N 
ATOM     89  H   UNL     1       4.257   8.660   0.000  0.00  0.00    +0.000 HD
ATOM     90  H   UNL     1       2.764   9.484   0.000  0.00  0.00    +0.000 HD
ENDBRANCH  85  86
ENDBRANCH  84  85
ENDBRANCH   5  84
TORSDOF 21
