REMARK  Name = 
REMARK  45 active torsions:
REMARK  status: ('A' for Active; 'I' for Inactive)
REMARK    1  A    between atoms: CG2_1  and  CB_2
REMARK    2  A    between atoms: CB_2  and  OG1_3
REMARK    3  A    between atoms: CB_2  and  CA_4
REMARK    4  A    between atoms: CA_4  and  N_5
REMARK    5  A    between atoms: CA_4  and  C_53
REMARK    6  A    between atoms: C_6  and  CA_8
REMARK    7  A    between atoms: CA_8  and  CB_9
REMARK    8  A    between atoms: CA_8  and  N_14
REMARK    9  A    between atoms: CB_9  and  CG_10
REMARK   10  A    between atoms: CG_10  and  CD_11
REMARK   11  A    between atoms: CD_11  and  CE_12
REMARK   12  A    between atoms: CE_12  and  NZ_13
REMARK   13  A    between atoms: C_15  and  CA_17
REMARK   14  A    between atoms: CA_17  and  CB_18
REMARK   15  A    between atoms: CA_17  and  N_20
REMARK   16  A    between atoms: CB_18  and  O_19
REMARK   17  A    between atoms: C_21  and  CA_23
REMARK   18  A    between atoms: CA_23  and  CB_24
REMARK   19  A    between atoms: CA_23  and  N_31
REMARK   20  A    between atoms: CB_24  and  CG_25
REMARK   21  A    between atoms: C_32  and  CA_34
REMARK   22  A    between atoms: CA_34  and  CB_35
REMARK   23  A    between atoms: CA_34  and  N_40
REMARK   24  A    between atoms: CB_35  and  CG_36
REMARK   25  A    between atoms: CG_36  and  CD_37
REMARK   26  A    between atoms: C_41  and  CA_43
REMARK   27  A    between atoms: CA_43  and  CB_44
REMARK   28  A    between atoms: CA_43  and  N_45
REMARK   29  A    between atoms: C_46  and  C_48
REMARK   30  A    between atoms: C_48  and  N_49
REMARK   31  A    between atoms: C_50  and  C_51
REMARK   32  A    between atoms: N_55  and  CA_56
REMARK   33  A    between atoms: CA_56  and  CB_57
REMARK   34  A    between atoms: CA_56  and  C_58
REMARK   35  A    between atoms: N_60  and  CA_61
REMARK   36  A    between atoms: CA_61  and  CB_62
REMARK   37  A    between atoms: CA_61  and  C_63
REMARK   38  A    between atoms: N_65  and  CA_66
REMARK   39  A    between atoms: CA_66  and  CB_67
REMARK   40  A    between atoms: CA_66  and  C_72
REMARK   41  A    between atoms: CB_67  and  CG_68
REMARK   42  A    between atoms: CG_68  and  CD_69
REMARK   43  A    between atoms: CD_69  and  CE_70
REMARK   44  A    between atoms: CE_70  and  NZ_71
REMARK   45  A    between atoms: C_72  and  O_73
REMARK                            x       y       z     vdW  Elec       q    Type
REMARK                         _______ _______ _______ _____ _____    ______ ____
ROOT
ATOM      1  N   ALA A   1       7.997  -1.957   0.000  0.00  0.00    +0.000 N 
ATOM      2  C   ALA A   1       7.173  -2.000   0.000  0.00  0.00    +0.000 C 
ATOM      3  O   ALA A   1       6.799  -2.735   0.000  0.00  0.00    +0.000 OA
ATOM      4  H   ALA A   1       8.444  -1.079   0.000  0.00  0.00    +0.000 HD
ENDROOT
BRANCH   1   5
ATOM      5  CA  ALA A   1       8.447  -2.648   0.000  0.00  0.00    +0.000 C 
BRANCH   5   7
ATOM      6  N   ALA A   1       9.720  -3.297   0.000  0.00  0.00    +0.000 N 
ATOM      7  C   ALA A   1       9.270  -2.605   0.000  0.00  0.00    +0.000 C 
ATOM      8  O   ALA A   1       9.645  -1.870   0.000  0.00  0.00    +0.000 OA
ATOM      9  H   ALA A   1       9.273  -4.174   0.000  0.00  0.00    +0.000 HD
BRANCH   6  10
ATOM     10  CA  ALA A   1      10.544  -3.254   0.000  0.00  0.00    +0.000 C 
BRANCH  10  11
ATOM     11  C   ALA A   1      10.993  -3.946   0.000  0.00  0.00    +0.000 C 
ATOM     12  O   ALA A   1      10.619  -4.681   0.000  0.00  0.00    +0.000 OA
ATOM     13  N   ALA A   2      11.817  -3.902   0.000  0.00  0.00    +0.000 N 
ATOM     14  H   ALA A   2      12.264  -3.025   0.000  0.00  0.00    +0.000 HD
BRANCH  13  15
ATOM     15  CA  ALA A   2      12.266  -4.594   0.000  0.00  0.00    +0.000 C 
ATOM     16  CB  ALA A   2      11.892  -5.330   0.000  0.00  0.00    +0.000 C 
BRANCH  15  17
ATOM     17  C   ALA A   2      13.090  -4.551   0.000  0.00  0.00    +0.000 C 
ATOM     18  O   ALA A   2      13.465  -3.816   0.000  0.00  0.00    +0.000 OA
ATOM     19  N   ALA A   3      13.540  -5.243   0.000  0.00  0.00    +0.000 N 
ATOM     20  H   ALA A   3      13.093  -6.120   0.000  0.00  0.00    +0.000 HD
BRANCH  19  21
ATOM     21  CA  ALA A   3      14.363  -5.200   0.000  0.00  0.00    +0.000 C 
ATOM     22  CB  ALA A   3      14.738  -4.465   0.000  0.00  0.00    +0.000 C 
BRANCH  21  23
ATOM     23  C   ALA A   3      14.813  -5.892   0.000  0.00  0.00    +0.000 C 
ATOM     24  O   ALA A   3      14.438  -6.627   0.000  0.00  0.00    +0.000 OA
ATOM     25  N   LYS A   4      15.637  -5.848   0.000  0.00  0.00    +0.000 N 
ATOM     26  H   LYS A   4      16.084  -4.971   0.000  0.00  0.00    +0.000 HD
BRANCH  25  27
ATOM     27  CA  LYS A   4      16.086  -6.540   0.000  0.00  0.00    +0.000 C 
BRANCH  27  28
ATOM     28  C   LYS A   4      15.712  -7.275   0.000  0.00  0.00    +0.000 C 
ATOM     29  OXT LYS A   4      14.888  -7.319   0.000  0.00  0.00    +0.000 OA
BRANCH  28  30
ATOM     30  O   LYS A   4      16.161  -7.967   0.000  0.00  0.00    +0.000 OA
ATOM     31  H   LYS A   4      15.736  -8.802   0.000  0.00  0.00    +0.000 HD
ENDBRANCH  28  30
ENDBRANCH  27  28
BRANCH  27  32
ATOM     32  CB  LYS A   4      16.910  -6.497   0.000  0.00  0.00    +0.000 C 
BRANCH  32  33
ATOM     33  CG  LYS A   4      17.359  -7.189   0.000  0.00  0.00    +0.000 C 
BRANCH  33  34
ATOM     34  CD  LYS A   4      18.183  -7.146   0.000  0.00  0.00    +0.000 C 
BRANCH  34  35
ATOM     35  CE  LYS A   4      18.633  -7.838   0.000  0.00  0.00    +0.000 C 
BRANCH  35  36
ATOM     36  NZ  LYS A   4      18.258  -8.573   0.000  0.00  0.00    +0.000 NA
ATOM     37  HZ1 LYS A   4      17.239  -8.626   0.000  0.00  0.00    +0.000 HD
ATOM     38  HZ2 LYS A   4      18.814  -9.428   0.000  0.00  0.00    +0.000 HD
ENDBRANCH  35  36
ENDBRANCH  34  35
ENDBRANCH  33  34
ENDBRANCH  32  33
ENDBRANCH  27  32
ENDBRANCH  25  27
ENDBRANCH  21  23
ENDBRANCH  19  21
ENDBRANCH  15  17
ENDBRANCH  13  15
ENDBRANCH  10  11
BRANCH  10  40
ATOM     39  CG2 ALA A   1      11.742  -2.475   0.000  0.00  0.00    +0.000 C 
ATOM     40  CB  ALA A   1      10.918  -2.519   0.000  0.00  0.00    +0.000 C 
BRANCH  40  41
ATOM     41  OG1 ALA A   1      10.469  -1.827   0.000  0.00  0.00    +0.000 OA
ATOM     42  HG1 ALA A   1      10.909  -0.963   0.000  0.00  0.00    +0.000 HD
ENDBRANCH  40  41
ENDBRANCH  10  40
ENDBRANCH   6  10
ENDBRANCH   5   7
BRANCH   5  43
ATOM     43  CB  ALA A   1       8.072  -3.384   0.000  0.00  0.00    +0.000 C 
BRANCH  43  44
ATOM     44  CG  ALA A   1       8.521  -4.075   0.000  0.00  0.00    +0.000 C 
BRANCH  44  45
ATOM     45  CD  ALA A   1       8.147  -4.811   0.000  0.00  0.00    +0.000 C 
BRANCH  45  46
ATOM     46  CE  ALA A   1       8.596  -5.502   0.000  0.00  0.00    +0.000 C 
BRANCH  46  47
ATOM     47  NZ  ALA A   1       8.222  -6.238   0.000  0.00  0.00    +0.000 NA
ATOM     48  HZ1 ALA A   1       7.203  -6.291   0.000  0.00  0.00    +0.000 HD
ATOM     49  HZ2 ALA A   1       8.778  -7.093   0.000  0.00  0.00    +0.000 HD
ENDBRANCH  46  47
ENDBRANCH  45  46
ENDBRANCH  44  45
ENDBRANCH  43  44
ENDBRANCH   5  43
ENDBRANCH   1   5
BRANCH   2  50
ATOM     50  CA  ALA A   1       6.724  -1.308   0.000  0.00  0.00    +0.000 C 
BRANCH  50  51
ATOM     51  N   ALA A   1       5.900  -1.351   0.000  0.00  0.00    +0.000 N 
ATOM     52  C   ALA A   1       5.451  -0.659   0.000  0.00  0.00    +0.000 C 
ATOM     53  O   ALA A   1       5.825   0.076   0.000  0.00  0.00    +0.000 OA
ATOM     54  H   ALA A   1       5.453  -2.228   0.000  0.00  0.00    +0.000 HD
BRANCH  52  55
ATOM     55  CA  ALA A   1       4.627  -0.703   0.000  0.00  0.00    +0.000 C 
BRANCH  55  56
ATOM     56  N   ALA A   1       4.252  -1.438   0.000  0.00  0.00    +0.000 N 
ATOM     57  C   ALA A   1       4.702  -2.130   0.000  0.00  0.00    +0.000 C 
ATOM     58  O   ALA A   1       5.526  -2.086   0.000  0.00  0.00    +0.000 OA
ATOM     59  H   ALA A   1       3.269  -1.489   0.000  0.00  0.00    +0.000 HD
BRANCH  57  60
ATOM     60  CA  ALA A   1       4.327  -2.865   0.000  0.00  0.00    +0.000 C 
BRANCH  60  61
ATOM     61  N   ALA A   1       4.777  -3.557   0.000  0.00  0.00    +0.000 N 
ATOM     62  C   ALA A   1       4.402  -4.292   0.000  0.00  0.00    +0.000 C 
ATOM     63  O   ALA A   1       3.578  -4.335   0.000  0.00  0.00    +0.000 OA
ATOM     64  H   ALA A   1       5.760  -3.505   0.000  0.00  0.00    +0.000 HD
BRANCH  62  65
ATOM     65  CA  ALA A   1       4.851  -4.984   0.000  0.00  0.00    +0.000 C 
ATOM     66  CB  ALA A   1       5.675  -4.940   0.000  0.00  0.00    +0.000 C 
BRANCH  65  67
ATOM     67  N   ALA A   1       4.477  -5.719   0.000  0.00  0.00    +0.000 N 
ATOM     68  C   UNK A   0       4.926  -6.410   0.000  0.00  0.00    +0.000 C 
ATOM     69  O   UNK A   0       5.750  -6.367   0.000  0.00  0.00    +0.000 OA
ATOM     70  H   ALA A   1       3.494  -5.770   0.000  0.00  0.00    +0.000 HD
BRANCH  68  71
ATOM     71  C   UNK A   0       4.552  -7.146   0.000  0.00  0.00    +0.000 C 
BRANCH  71  72
ATOM     72  N   UNK A   0       5.001  -7.838   0.000  0.00  0.00    +0.000 N 
ATOM     73  C   UNK A   0       4.627  -8.573   0.000  0.00  0.00    +0.000 C 
ATOM     74  C   UNK A   0       5.076  -9.264   0.000  0.00  0.00    +0.000 C 
ATOM     75  O   UNK A   0       3.803  -8.616   0.000  0.00  0.00    +0.000 OA
ATOM     76  H   UNK A   0       5.984  -7.786   0.000  0.00  0.00    +0.000 HD
ENDBRANCH  71  72
ENDBRANCH  68  71
ENDBRANCH  65  67
ENDBRANCH  62  65
ENDBRANCH  60  61
BRANCH  60  77
ATOM     77  CB  ALA A   1       3.503  -2.908   0.000  0.00  0.00    +0.000 C 
BRANCH  77  78
ATOM     78  CG  ALA A   1       3.129  -3.643   0.000  0.00  0.00    +0.000 C 
BRANCH  78  79
ATOM     79  CD  ALA A   1       2.305  -3.686   0.000  0.00  0.00    +0.000 C 
ATOM     80  NE2 ALA A   1       1.931  -4.421   0.000  0.00  0.00    +0.000 N 
ATOM     81  OE1 ALA A   1       1.856  -2.994   0.000  0.00  0.00    +0.000 OA
ATOM     82 HE21 ALA A   1       0.947  -4.473   0.000  0.00  0.00    +0.000 HD
ATOM     83 HE22 ALA A   1       2.467  -5.247   0.000  0.00  0.00    +0.000 HD
ENDBRANCH  78  79
ENDBRANCH  77  78
ENDBRANCH  60  77
ENDBRANCH  57  60
ENDBRANCH  55  56
BRANCH  55  84
ATOM     84  CB  ALA A   1       4.177  -0.011   0.000  0.00  0.00    +0.000 C 
BRANCH  84  85
ATOM     85  CG  ALA A   1       4.552   0.724   0.000  0.00  0.00    +0.000 A 
ATOM     86  CD1 ALA A   1       4.103   1.416   0.000  0.00  0.00    +0.000 A 
ATOM     87  CE1 ALA A   1       4.477   2.151   0.000  0.00  0.00    +0.000 A 
ATOM     88  CZ  ALA A   1       5.301   2.195   0.000  0.00  0.00    +0.000 A 
ATOM     89  CE2 ALA A   1       5.750   1.503   0.000  0.00  0.00    +0.000 A 
ATOM     90  CD2 ALA A   1       5.376   0.768   0.000  0.00  0.00    +0.000 A 
ENDBRANCH  84  85
ENDBRANCH  55  84
ENDBRANCH  52  55
ENDBRANCH  50  51
BRANCH  50  91
ATOM     91  CB  ALA A   1       7.098  -0.573   0.000  0.00  0.00    +0.000 C 
BRANCH  91  92
ATOM     92  O   ALA A   1       6.649   0.119   0.000  0.00  0.00    +0.000 OA
ATOM     93  H   ALA A   1       7.089   0.983   0.000  0.00  0.00    +0.000 HD
ENDBRANCH  91  92
ENDBRANCH  50  91
ENDBRANCH   2  50
TORSDOF 40
