REMARK  Name = 
REMARK  59 active torsions:
REMARK  status: ('A' for Active; 'I' for Inactive)
REMARK    1  A    between atoms: CG_1  and  CB_102
REMARK    2  A    between atoms: CZ_4  and  OH_103
REMARK    3  A    between atoms: N_7  and  CA_99
REMARK    4  A    between atoms: CG_9  and  CB_78
REMARK    5  A    between atoms: CG_13  and  CB_75
REMARK    6  A    between atoms: CA_20  and  C_53
REMARK    7  A    between atoms: CG_30  and  CB_33
REMARK    8  A    between atoms: CB_33  and  CA_34
REMARK    9  A    between atoms: CA_34  and  N_35
REMARK   10  A    between atoms: CA_34  and  C_39
REMARK   11  A    between atoms: C_36  and  CA_37
REMARK   12  A    between atoms: CA_37  and  N_38
REMARK   13  A    between atoms: CA_37  and  CB_61
REMARK   14  A    between atoms: N_41  and  CA_42
REMARK   15  A    between atoms: CA_42  and  C_43
REMARK   16  A    between atoms: N_44  and  CA_46
REMARK   17  A    between atoms: CA_46  and  C_47
REMARK   18  A    between atoms: CA_46  and  CB_48
REMARK   19  A    between atoms: CB_48  and  CG_49
REMARK   20  A    between atoms: CG_49  and  CD_50
REMARK   21  A    between atoms: CD_50  and  CE_51
REMARK   22  A    between atoms: CE_51  and  NZ_52
REMARK   23  A    between atoms: N_55  and  CA_56
REMARK   24  A    between atoms: CA_56  and  CB_57
REMARK   25  A    between atoms: CA_56  and  C_60
REMARK   26  A    between atoms: CB_57  and  CG1_58
REMARK   27  A    between atoms: CB_57  and  CG2_59
REMARK   28  A    between atoms: C_60  and  O_68
REMARK   29  A    between atoms: CB_61  and  CG_62
REMARK   30  A    between atoms: CG_62  and  CD_63
REMARK   31  A    between atoms: CD_63  and  NE_64
REMARK   32  A    between atoms: C_71  and  CA_72
REMARK   33  A    between atoms: CA_72  and  N_73
REMARK   34  A    between atoms: CA_72  and  CB_75
REMARK   35  A    between atoms: C_76  and  CA_77
REMARK   36  A    between atoms: CA_77  and  CB_78
REMARK   37  A    between atoms: CA_77  and  N_79
REMARK   38  A    between atoms: C_81  and  CA_83
REMARK   39  A    between atoms: CA_83  and  CB_84
REMARK   40  A    between atoms: CA_83  and  N_89
REMARK   41  A    between atoms: CB_84  and  CG_85
REMARK   42  A    between atoms: CG_85  and  CD_86
REMARK   43  A    between atoms: CD_86  and  OE1_87
REMARK   44  A    between atoms: C_90  and  CA_91
REMARK   45  A    between atoms: CA_91  and  N_92
REMARK   46  A    between atoms: CA_91  and  CB_94
REMARK   47  A    between atoms: CB_94  and  CG_95
REMARK   48  A    between atoms: CG_95  and  SD_96
REMARK   49  A    between atoms: SD_96  and  CE_97
REMARK   50  A    between atoms: C_98  and  CA_99
REMARK   51  A    between atoms: CA_99  and  CB_106
REMARK   52  A    between atoms: C_100  and  CA_101
REMARK   53  A    between atoms: CA_101  and  CB_102
REMARK   54  A    between atoms: CA_101  and  N_104
REMARK   55  A    between atoms: CB_106  and  OG_107
REMARK   56  A    between atoms: C_109  and  CA_110
REMARK   57  A    between atoms: CA_110  and  N_111
REMARK   58  A    between atoms: CA_110  and  CB_113
REMARK   59  A    between atoms: CB_113  and  OG_114
REMARK                            x       y       z     vdW  Elec       q    Type
REMARK                         _______ _______ _______ _____ _____    ______ ____
ROOT
ATOM      1  CA  PHE A   7      -2.337  -0.821   0.000  0.00  0.00    +0.000 C 
ENDROOT
BRANCH   1   3
ATOM      2  N   ARG A   8      -3.765  -0.826   0.000  0.00  0.00    +0.000 N 
ATOM      3  C   PHE A   7      -3.048  -1.236   0.000  0.00  0.00    +0.000 C 
ATOM      4  O   PHE A   7      -3.054  -2.067   0.000  0.00  0.00    +0.000 OA
ATOM      5  H   ARG A   8      -3.769   0.158   0.000  0.00  0.00    +0.000 HD
BRANCH   2   6
ATOM      6  CA  ARG A   8      -4.476  -1.242   0.000  0.00  0.00    +0.000 C 
BRANCH   6   8
ATOM      7  N   TRP A   9      -5.187   0.755   0.000  0.00  0.00    +0.000 N 
ATOM      8  C   ARG A   8      -5.193  -0.832   0.000  0.00  0.00    +0.000 C 
ATOM      9  O   ARG A   8      -6.126  -1.367   0.000  0.00  0.00    +0.000 OA
ATOM     10  H   TRP A   9      -4.332   1.244   0.000  0.00  0.00    +0.000 HD
BRANCH   7  11
ATOM     11  CA  TRP A   9      -5.898   1.171   0.000  0.00  0.00    +0.000 C 
BRANCH  11  12
ATOM     12  C   TRP A   9      -5.904   2.758   0.000  0.00  0.00    +0.000 C 
ATOM     13  O   TRP A   9      -6.621   3.173   0.000  0.00  0.00    +0.000 OA
ATOM     14  N   GLY A  10      -5.193   3.173   0.000  0.00  0.00    +0.000 N 
ATOM     15  H   GLY A  10      -5.198   4.158   0.000  0.00  0.00    +0.000 HD
BRANCH  14  16
ATOM     16  CA  GLY A  10      -4.476   2.764   0.000  0.00  0.00    +0.000 C 
BRANCH  16  17
ATOM     17  C   GLY A  10      -3.765   3.179   0.000  0.00  0.00    +0.000 C 
ATOM     18  N   LYS A  11      -3.048   2.764   0.000  0.00  0.00    +0.000 N 
ATOM     19  O   GLY A  10      -3.770   4.004   0.000  0.00  0.00    +0.000 OA
ATOM     20  H   LYS A  11      -3.043   1.779   0.000  0.00  0.00    +0.000 HD
BRANCH  18  21
ATOM     21  CA  LYS A  11      -2.337   3.185   0.000  0.00  0.00    +0.000 C 
BRANCH  21  27
ATOM     22  N   PRO A  12      -0.904   3.181   0.000  0.00  0.00    +0.000 N 
ATOM     23  CA  PRO A  12      -0.240   2.696   0.000  0.00  0.00    +0.000 C 
ATOM     24  CB  PRO A  12       0.424   3.178   0.000  0.00  0.00    +0.000 C 
ATOM     25  CG  PRO A  12       0.178   3.959   0.000  0.00  0.00    +0.000 C 
ATOM     26  CD  PRO A  12      -0.648   3.964   0.000  0.00  0.00    +0.000 C 
ATOM     27  C   LYS A  11      -1.625   2.769   0.000  0.00  0.00    +0.000 C 
ATOM     28  O   LYS A  11      -1.625   1.944   0.000  0.00  0.00    +0.000 OA
BRANCH  23  29
ATOM     29  C   PRO A  12      -0.277   1.284   0.000  0.00  0.00    +0.000 C 
ATOM     30  O   PRO A  12      -0.994   0.869   0.000  0.00  0.00    +0.000 OA
ATOM     31  N   VAL A  13       0.502   0.869   0.000  0.00  0.00    +0.000 N 
ATOM     32  H   VAL A  13       0.523  -0.115   0.000  0.00  0.00    +0.000 HD
BRANCH  31  33
ATOM     33  CA  VAL A  13       1.219   1.290   0.000  0.00  0.00    +0.000 C 
BRANCH  33  34
ATOM     34  CB  VAL A  13       1.931   0.875   0.000  0.00  0.00    +0.000 C 
ATOM     35  CG1 VAL A  13       2.642   1.290   0.000  0.00  0.00    +0.000 C 
ATOM     36  CG2 VAL A  13       1.925   0.050   0.000  0.00  0.00    +0.000 C 
ENDBRANCH  33  34
BRANCH  33  37
ATOM     37  C   VAL A  13       1.214   2.115   0.000  0.00  0.00    +0.000 C 
ATOM     38  OXT VAL A  13       1.925   2.530   0.000  0.00  0.00    +0.000 OA
BRANCH  37  39
ATOM     39  O   VAL A  13       0.571   2.485   0.000  0.00  0.00    +0.000 OA
ATOM     40  H   VAL A  13       0.569   3.422   0.000  0.00  0.00    +0.000 HD
ENDBRANCH  37  39
ENDBRANCH  33  37
ENDBRANCH  31  33
ENDBRANCH  23  29
ENDBRANCH  21  27
BRANCH  21  41
ATOM     41  CB  LYS A  11      -2.342   4.010   0.000  0.00  0.00    +0.000 C 
BRANCH  41  42
ATOM     42  CG  LYS A  11      -3.021   4.473   0.000  0.00  0.00    +0.000 C 
BRANCH  42  43
ATOM     43  CD  LYS A  11      -2.946   5.296   0.000  0.00  0.00    +0.000 C 
BRANCH  43  44
ATOM     44  CE  LYS A  11      -3.630   5.759   0.000  0.00  0.00    +0.000 C 
BRANCH  44  45
ATOM     45  NZ  LYS A  11      -3.557   6.584   0.000  0.00  0.00    +0.000 NA
ATOM     46  HZ1 LYS A  11      -2.632   7.014   0.000  0.00  0.00    +0.000 HD
ATOM     47  HZ2 LYS A  11      -4.392   7.170   0.000  0.00  0.00    +0.000 HD
ENDBRANCH  44  45
ENDBRANCH  43  44
ENDBRANCH  42  43
ENDBRANCH  41  42
ENDBRANCH  21  41
ENDBRANCH  18  21
ENDBRANCH  16  17
ENDBRANCH  14  16
ENDBRANCH  11  12
BRANCH  11  48
ATOM     48  CB  TRP A   9      -6.615   0.755   0.000  0.00  0.00    +0.000 C 
BRANCH  48  55
ATOM     49  CH2 TRP A   9     -10.327   2.024   0.000  0.00  0.00    +0.000 A 
ATOM     50  CZ3 TRP A   9     -10.329   1.150   0.000  0.00  0.00    +0.000 A 
ATOM     51  CE3 TRP A   9      -9.580   0.717   0.000  0.00  0.00    +0.000 A 
ATOM     52  CZ2 TRP A   9      -9.582   2.457   0.000  0.00  0.00    +0.000 A 
ATOM     53  CE2 TRP A   9      -8.833   2.029   0.000  0.00  0.00    +0.000 A 
ATOM     54  CD2 TRP A   9      -8.829   1.154   0.000  0.00  0.00    +0.000 A 
ATOM     55  CG  TRP A   9      -7.325   1.162   0.000  0.00  0.00    +0.000 A 
ATOM     56  CD1 TRP A   9      -7.329   2.031   0.000  0.00  0.00    +0.000 A 
ATOM     57  NE1 TRP A   9      -8.084   2.469   0.000  0.00  0.00    +0.000 N 
ATOM     58  HE1 TRP A   9      -8.087   3.453   0.000  0.00  0.00    +0.000 HD
ENDBRANCH  48  55
ENDBRANCH  11  48
ENDBRANCH   7  11
ENDBRANCH   6   8
BRANCH   6  59
ATOM     59  CB  ARG A   8      -4.482  -2.067   0.000  0.00  0.00    +0.000 C 
BRANCH  59  60
ATOM     60  CG  ARG A   8      -5.199  -2.472   0.000  0.00  0.00    +0.000 C 
BRANCH  60  61
ATOM     61  CD  ARG A   8      -5.210  -3.297   0.000  0.00  0.00    +0.000 C 
BRANCH  61  62
ATOM     62  NE  ARG A   8      -5.927  -3.697   0.000  0.00  0.00    +0.000 N 
ATOM     63  CZ  ARG A   8      -6.632  -3.272   0.000  0.00  0.00    +0.000 C 
ATOM     64  NH1 ARG A   8      -7.354  -3.672   0.000  0.00  0.00    +0.000 N 
ATOM     65  NH2 ARG A   8      -6.621  -2.447   0.000  0.00  0.00    +0.000 NA
ATOM     66  HE  ARG A   8      -5.943  -4.681   0.000  0.00  0.00    +0.000 HD
ATOM     67 HH11 ARG A   8      -8.198  -3.164   0.000  0.00  0.00    +0.000 HD
ATOM     68 HH12 ARG A   8      -7.372  -4.656   0.000  0.00  0.00    +0.000 HD
ATOM     69  HH2 ARG A   8      -5.761  -1.966   0.000  0.00  0.00    +0.000 HD
ENDBRANCH  61  62
ENDBRANCH  60  61
ENDBRANCH  59  60
ENDBRANCH   6  59
ENDBRANCH   2   6
ENDBRANCH   1   3
BRANCH   1  70
ATOM     70  N   PHE A   7      -1.625  -1.230   0.000  0.00  0.00    +0.000 N 
ATOM     71  C   HIS A   6      -0.909  -0.815   0.000  0.00  0.00    +0.000 C 
ATOM     72  O   HIS A   6      -0.914   0.010   0.000  0.00  0.00    +0.000 OA
ATOM     73  H   PHE A   7      -1.624  -2.215   0.000  0.00  0.00    +0.000 HD
BRANCH  71  74
ATOM     74  CA  HIS A   6      -0.197  -1.230   0.000  0.00  0.00    +0.000 C 
BRANCH  74  75
ATOM     75  N   HIS A   6      -0.203  -2.533   0.000  0.00  0.00    +0.000 N 
ATOM     76  C   GLU A   5       0.514  -2.943   0.000  0.00  0.00    +0.000 C 
ATOM     77  O   GLU A   5       1.225  -2.528   0.000  0.00  0.00    +0.000 OA
ATOM     78  H   HIS A   6      -1.056  -3.026   0.000  0.00  0.00    +0.000 HD
BRANCH  76  79
ATOM     79  CA  GLU A   5       0.508  -3.774   0.000  0.00  0.00    +0.000 C 
BRANCH  79  80
ATOM     80  N   GLU A   5       1.225  -4.189   0.000  0.00  0.00    +0.000 N 
ATOM     81  C   MET A   4       1.942  -3.774   0.000  0.00  0.00    +0.000 C 
ATOM     82  O   MET A   4       1.936  -2.943   0.000  0.00  0.00    +0.000 OA
ATOM     83  H   GLU A   5       1.225  -5.173   0.000  0.00  0.00    +0.000 HD
BRANCH  81  84
ATOM     84  CA  MET A   4       2.659  -4.183   0.000  0.00  0.00    +0.000 C 
BRANCH  84  85
ATOM     85  N   MET A   4       3.370  -3.768   0.000  0.00  0.00    +0.000 N 
ATOM     86  C   SER A   3       4.081  -4.178   0.000  0.00  0.00    +0.000 C 
ATOM     87  O   SER A   3       4.075  -4.997   0.000  0.00  0.00    +0.000 OA
ATOM     88  H   MET A   4       3.367  -2.783   0.000  0.00  0.00    +0.000 HD
BRANCH  86  89
ATOM     89  CA  SER A   3       4.787  -3.762   0.000  0.00  0.00    +0.000 C 
BRANCH  89  90
ATOM     90  N   SER A   3       5.492  -4.166   0.000  0.00  0.00    +0.000 N 
ATOM     91  C   TYR A   2       6.192  -3.757   0.000  0.00  0.00    +0.000 C 
ATOM     92  O   TYR A   2       6.186  -2.943   0.000  0.00  0.00    +0.000 OA
ATOM     93  H   SER A   3       5.497  -5.151   0.000  0.00  0.00    +0.000 HD
BRANCH  91  94
ATOM     94  CA  TYR A   2       6.892  -4.160   0.000  0.00  0.00    +0.000 C 
BRANCH  94  95
ATOM     95  N   TYR A   2       6.886  -4.968   0.000  0.00  0.00    +0.000 N 
ATOM     96  C   SER A   1       6.186  -5.372   0.000  0.00  0.00    +0.000 C 
ATOM     97  O   SER A   1       5.487  -4.963   0.000  0.00  0.00    +0.000 OA
ATOM     98  H   TYR A   2       7.737  -5.464   0.000  0.00  0.00    +0.000 HD
BRANCH  96  99
ATOM     99  CA  SER A   1       6.181  -6.180   0.000  0.00  0.00    +0.000 C 
BRANCH  99 100
ATOM    100  N   SER A   1       6.875  -6.584   0.000  0.00  0.00    +0.000 NA
ATOM    101  H1  SER A   1       6.871  -7.604   0.000  0.00  0.00    +0.000 HD
ATOM    102  H2  SER A   1       7.760  -6.077   0.000  0.00  0.00    +0.000 HD
ENDBRANCH  99 100
BRANCH  99 103
ATOM    103  CB  SER A   1       5.481  -6.579   0.000  0.00  0.00    +0.000 C 
BRANCH 103 104
ATOM    104  OG  SER A   1       4.781  -6.175   0.000  0.00  0.00    +0.000 OA
ATOM    105  H   SER A   1       4.781  -5.205   0.000  0.00  0.00    +0.000 HD
ENDBRANCH 103 104
ENDBRANCH  99 103
ENDBRANCH  96  99
ENDBRANCH  94  95
BRANCH  94 106
ATOM    106  CB  TYR A   2       7.586  -3.751   0.000  0.00  0.00    +0.000 C 
BRANCH 106 107
ATOM    107  CG  TYR A   2       8.283  -4.153   0.000  0.00  0.00    +0.000 A 
ATOM    108  CD2 TYR A   2       8.276  -4.948   0.000  0.00  0.00    +0.000 A 
ATOM    109  CE2 TYR A   2       8.960  -5.349   0.000  0.00  0.00    +0.000 A 
ATOM    110  CZ  TYR A   2       9.651  -4.957   0.000  0.00  0.00    +0.000 A 
ATOM    111  CE1 TYR A   2       9.654  -4.159   0.000  0.00  0.00    +0.000 A 
ATOM    112  CD1 TYR A   2       8.970  -3.761   0.000  0.00  0.00    +0.000 A 
BRANCH 110 113
ATOM    113  OH  TYR A   2      10.329  -5.350   0.000  0.00  0.00    +0.000 OA
ATOM    114  HH  TYR A   2      10.327  -6.287   0.000  0.00  0.00    +0.000 HD
ENDBRANCH 110 113
ENDBRANCH 106 107
ENDBRANCH  94 106
ENDBRANCH  91  94
ENDBRANCH  89  90
BRANCH  89 115
ATOM    115  CB  SER A   3       4.781  -2.943   0.000  0.00  0.00    +0.000 C 
BRANCH 115 116
ATOM    116  OG  SER A   3       4.070  -2.528   0.000  0.00  0.00    +0.000 OA
ATOM    117  H   SER A   3       4.075  -1.558   0.000  0.00  0.00    +0.000 HD
ENDBRANCH 115 116
ENDBRANCH  89 115
ENDBRANCH  86  89
ENDBRANCH  84  85
BRANCH  84 118
ATOM    118  CB  MET A   4       2.653  -5.003   0.000  0.00  0.00    +0.000 C 
BRANCH 118 119
ATOM    119  CG  MET A   4       1.942  -5.412   0.000  0.00  0.00    +0.000 C 
BRANCH 119 120
ATOM    120  SD  MET A   4       1.231  -4.997   0.000  0.00  0.00    +0.000 S 
ATOM    121  CE  MET A   4       0.514  -5.407   0.000  0.00  0.00    +0.000 C 
ENDBRANCH 119 120
ENDBRANCH 118 119
ENDBRANCH  84 118
ENDBRANCH  81  84
ENDBRANCH  79  80
BRANCH  79 122
ATOM    122  CB  GLU A   5      -0.214  -4.189   0.000  0.00  0.00    +0.000 C 
BRANCH 122 123
ATOM    123  CG  GLU A   5      -0.937  -3.768   0.000  0.00  0.00    +0.000 C 
BRANCH 123 124
ATOM    124  CD  GLU A   5      -1.665  -4.183   0.000  0.00  0.00    +0.000 C 
ATOM    125  OE2 GLU A   5      -1.671  -5.020   0.000  0.00  0.00    +0.000 OA
BRANCH 124 126
ATOM    126  OE1 GLU A   5      -2.394  -3.762   0.000  0.00  0.00    +0.000 OA
ATOM    127  HE1 GLU A   5      -2.393  -2.825   0.000  0.00  0.00    +0.000 HD
ENDBRANCH 124 126
ENDBRANCH 123 124
ENDBRANCH 122 123
ENDBRANCH  79 122
ENDBRANCH  76  79
ENDBRANCH  74  75
BRANCH  74 128
ATOM    128  CB  HIS A   6       0.520  -0.815   0.000  0.00  0.00    +0.000 C 
BRANCH 128 130
ATOM    129  ND1 HIS A   6       1.902  -0.744   0.000  0.00  0.00    +0.000 N 
ATOM    130  CG  HIS A   6       1.233  -1.230   0.000  0.00  0.00    +0.000 A 
ATOM    131  CD2 HIS A   6       1.489  -2.010   0.000  0.00  0.00    +0.000 A 
ATOM    132  NE2 HIS A   6       2.311  -2.015   0.000  0.00  0.00    +0.000 NA
ATOM    133  CE1 HIS A   6       2.566  -1.229   0.000  0.00  0.00    +0.000 A 
ATOM    134  HD1 HIS A   6       1.903   0.240   0.000  0.00  0.00    +0.000 HD
ENDBRANCH 128 130
ENDBRANCH  74 128
ENDBRANCH  71  74
ENDBRANCH   1  70
BRANCH   1 135
ATOM    135  CB  PHE A   7      -2.342   0.004   0.000  0.00  0.00    +0.000 C 
BRANCH 135 136
ATOM    136  CG  PHE A   7      -3.061   0.427   0.000  0.00  0.00    +0.000 A 
ATOM    137  CD2 PHE A   7      -3.054   1.253   0.000  0.00  0.00    +0.000 A 
ATOM    138  CE2 PHE A   7      -3.770   1.669   0.000  0.00  0.00    +0.000 A 
ATOM    139  CZ  PHE A   7      -4.482   1.261   0.000  0.00  0.00    +0.000 A 
ATOM    140  CE1 PHE A   7      -4.484   0.432   0.000  0.00  0.00    +0.000 A 
ATOM    141  CD1 PHE A   7      -3.772   0.021   0.000  0.00  0.00    +0.000 A 
ENDBRANCH 135 136
ENDBRANCH   1 135
TORSDOF 56
