REMARK  Name = 
REMARK  40 active torsions:
REMARK  status: ('A' for Active; 'I' for Inactive)
REMARK    1  A    between atoms: CD1_1  and  CG1_2
REMARK    2  A    between atoms: CG1_2  and  CB_3
REMARK    3  A    between atoms: CB_3  and  CG2_4
REMARK    4  A    between atoms: CB_3  and  CA_5
REMARK    5  A    between atoms: CA_5  and  N_6
REMARK    6  A    between atoms: CA_5  and  C_74
REMARK    7  A    between atoms: C_7  and  CA_9
REMARK    8  A    between atoms: CA_9  and  CB_10
REMARK    9  A    between atoms: CA_9  and  N_17
REMARK   10  A    between atoms: CB_10  and  CG_11
REMARK   11  A    between atoms: CG_11  and  CD_12
REMARK   12  A    between atoms: CD_12  and  NE_13
REMARK   13  A    between atoms: C_18  and  CA_20
REMARK   14  A    between atoms: CA_20  and  CB_21
REMARK   15  A    between atoms: CA_20  and  N_25
REMARK   16  A    between atoms: CB_21  and  CG_22
REMARK   17  A    between atoms: C_26  and  CA_28
REMARK   18  A    between atoms: CA_28  and  N_29
REMARK   19  A    between atoms: C_30  and  CA_32
REMARK   20  A    between atoms: CA_32  and  CB_33
REMARK   21  A    between atoms: CA_32  and  N_37
REMARK   22  A    between atoms: CB_33  and  CG_34
REMARK   23  A    between atoms: CG_34  and  OD1_35
REMARK   24  A    between atoms: C_38  and  CA_40
REMARK   25  A    between atoms: C_45  and  CA_47
REMARK   26  A    between atoms: CA_47  and  N_48
REMARK   27  A    between atoms: CA_47  and  CB_71
REMARK   28  A    between atoms: C_49  and  CA_51
REMARK   29  A    between atoms: CA_51  and  CB_52
REMARK   30  A    between atoms: CA_51  and  N_59
REMARK   31  A    between atoms: CB_52  and  CG_53
REMARK   32  A    between atoms: C_60  and  CA_62
REMARK   33  A    between atoms: CA_62  and  N_63
REMARK   34  A    between atoms: CA_62  and  CB_64
REMARK   35  A    between atoms: CB_64  and  CG_65
REMARK   36  A    between atoms: CG_65  and  CD_66
REMARK   37  A    between atoms: CD_66  and  NE_67
REMARK   38  A    between atoms: CB_71  and  CG1_72
REMARK   39  A    between atoms: CB_71  and  CG2_73
REMARK   40  A    between atoms: C_74  and  O_75
REMARK                            x       y       z     vdW  Elec       q    Type
REMARK                         _______ _______ _______ _____ _____    ______ ____
ROOT
ATOM      1  CA  ASP A   5      -5.372  -5.389   0.000  0.00  0.00    +0.000 C 
ENDROOT
BRANCH   1   3
ATOM      2  N   GLY A   6      -6.609  -6.103   0.000  0.00  0.00    +0.000 N 
ATOM      3  C   ASP A   5      -6.197  -5.389   0.000  0.00  0.00    +0.000 C 
ATOM      4  O   ASP A   5      -6.609  -4.675   0.000  0.00  0.00    +0.000 OA
ATOM      5  H   GLY A   6      -6.117  -6.956   0.000  0.00  0.00    +0.000 HD
BRANCH   2   6
ATOM      6  CA  GLY A   6      -7.434  -6.103   0.000  0.00  0.00    +0.000 C 
BRANCH   6   8
ATOM      7  N   ASN A   7      -8.672  -6.818   0.000  0.00  0.00    +0.000 N 
ATOM      8  C   GLY A   6      -7.847  -6.818   0.000  0.00  0.00    +0.000 C 
ATOM      9  O   GLY A   6      -7.434  -7.532   0.000  0.00  0.00    +0.000 OA
ATOM     10  H   ASN A   7      -9.164  -5.965   0.000  0.00  0.00    +0.000 HD
BRANCH   7  11
ATOM     11  CA  ASN A   7      -9.084  -7.532   0.000  0.00  0.00    +0.000 C 
BRANCH  11  13
ATOM     12  N   ARG A   8     -10.322  -8.247   0.000  0.00  0.00    +0.000 N 
ATOM     13  C   ASN A   7      -9.909  -7.532   0.000  0.00  0.00    +0.000 C 
ATOM     14  O   ASN A   7     -10.322  -6.818   0.000  0.00  0.00    +0.000 OA
ATOM     15  H   ARG A   8      -9.829  -9.099   0.000  0.00  0.00    +0.000 HD
BRANCH  12  16
ATOM     16  CA  ARG A   8     -11.147  -8.247   0.000  0.00  0.00    +0.000 C 
BRANCH  16  18
ATOM     17  N   ILE A   9     -12.384  -8.961   0.000  0.00  0.00    +0.000 N 
ATOM     18  C   ARG A   8     -11.559  -8.961   0.000  0.00  0.00    +0.000 C 
ATOM     19  O   ARG A   8     -11.147  -9.676   0.000  0.00  0.00    +0.000 OA
ATOM     20  H   ILE A   9     -12.876  -8.109   0.000  0.00  0.00    +0.000 HD
BRANCH  17  21
ATOM     21  CA  ILE A   9     -12.797  -9.676   0.000  0.00  0.00    +0.000 C 
BRANCH  21  22
ATOM     22  CB  ILE A   9     -13.622  -9.676   0.000  0.00  0.00    +0.000 C 
ATOM     23  CG2 ILE A   9     -14.034  -8.961   0.000  0.00  0.00    +0.000 C 
BRANCH  22  25
ATOM     24  CD1 ILE A   9     -14.859 -10.390   0.000  0.00  0.00    +0.000 C 
ATOM     25  CG1 ILE A   9     -14.034 -10.390   0.000  0.00  0.00    +0.000 C 
ENDBRANCH  22  25
ENDBRANCH  21  22
BRANCH  21  26
ATOM     26  C   ILE A   9     -12.384 -10.390   0.000  0.00  0.00    +0.000 C 
ATOM     27  OXT ILE A   9     -12.797 -11.105   0.000  0.00  0.00    +0.000 OA
BRANCH  26  28
ATOM     28  O   ILE A   9     -11.559 -10.390   0.000  0.00  0.00    +0.000 OA
ATOM     29  H   ILE A   9     -11.091 -11.202   0.000  0.00  0.00    +0.000 HD
ENDBRANCH  26  28
ENDBRANCH  21  26
ENDBRANCH  17  21
ENDBRANCH  16  18
BRANCH  16  30
ATOM     30  CB  ARG A   8     -11.559  -7.532   0.000  0.00  0.00    +0.000 C 
BRANCH  30  31
ATOM     31  CG  ARG A   8     -11.147  -6.818   0.000  0.00  0.00    +0.000 C 
BRANCH  31  32
ATOM     32  CD  ARG A   8     -11.559  -6.103   0.000  0.00  0.00    +0.000 C 
BRANCH  32  33
ATOM     33  NE  ARG A   8     -11.147  -5.389   0.000  0.00  0.00    +0.000 N 
ATOM     34  CZ  ARG A   8     -11.559  -4.675   0.000  0.00  0.00    +0.000 C 
ATOM     35  NH1 ARG A   8     -12.384  -4.675   0.000  0.00  0.00    +0.000 N 
ATOM     36  NH2 ARG A   8     -11.147  -3.960   0.000  0.00  0.00    +0.000 NA
ATOM     37  HE  ARG A   8     -10.162  -5.389   0.000  0.00  0.00    +0.000 HD
ATOM     38 HH11 ARG A   8     -12.876  -3.822   0.000  0.00  0.00    +0.000 HD
ATOM     39 HH12 ARG A   8     -12.876  -5.527   0.000  0.00  0.00    +0.000 HD
ATOM     40  HH2 ARG A   8     -10.162  -3.960   0.000  0.00  0.00    +0.000 HD
ENDBRANCH  32  33
ENDBRANCH  31  32
ENDBRANCH  30  31
ENDBRANCH  16  30
ENDBRANCH  12  16
ENDBRANCH  11  13
BRANCH  11  41
ATOM     41  CB  ASN A   7      -8.672  -8.247   0.000  0.00  0.00    +0.000 C 
BRANCH  41  42
ATOM     42  CG  ASN A   7      -9.084  -8.961   0.000  0.00  0.00    +0.000 C 
ATOM     43  ND2 ASN A   7      -8.672  -9.676   0.000  0.00  0.00    +0.000 N 
ATOM     44  OD1 ASN A   7      -9.909  -8.961   0.000  0.00  0.00    +0.000 OA
ATOM     45 HD21 ASN A   7      -9.164 -10.528   0.000  0.00  0.00    +0.000 HD
ATOM     46 HD22 ASN A   7      -7.687  -9.676   0.000  0.00  0.00    +0.000 HD
ENDBRANCH  41  42
ENDBRANCH  11  41
ENDBRANCH   7  11
ENDBRANCH   6   8
ENDBRANCH   2   6
ENDBRANCH   1   3
BRANCH   1  47
ATOM     47  N   ASP A   5      -4.959  -4.675   0.000  0.00  0.00    +0.000 N 
ATOM     48  C   PRO A   4      -4.134  -4.675   0.000  0.00  0.00    +0.000 C 
ATOM     49  O   PRO A   4      -3.722  -5.389   0.000  0.00  0.00    +0.000 OA
ATOM     50  H   ASP A   5      -5.451  -3.822   0.000  0.00  0.00    +0.000 HD
BRANCH  48  51
ATOM     51  CA  PRO A   4      -3.722  -3.960   0.000  0.00  0.00    +0.000 C 
ATOM     52  CB  PRO A   4      -4.057  -3.206   0.000  0.00  0.00    +0.000 C 
ATOM     53  CG  PRO A   4      -3.444  -2.654   0.000  0.00  0.00    +0.000 C 
ATOM     54  CD  PRO A   4      -2.730  -3.067   0.000  0.00  0.00    +0.000 C 
ATOM     55  N   PRO A   4      -2.901  -3.874   0.000  0.00  0.00    +0.000 N 
ATOM     56  C   VAL A   3      -2.349  -4.487   0.000  0.00  0.00    +0.000 C 
ATOM     57  O   VAL A   3      -2.604  -5.271   0.000  0.00  0.00    +0.000 OA
BRANCH  56  58
ATOM     58  CA  VAL A   3      -1.542  -4.315   0.000  0.00  0.00    +0.000 C 
BRANCH  58  59
ATOM     59  N   VAL A   3      -0.990  -4.928   0.000  0.00  0.00    +0.000 N 
ATOM     60  C   PHE A   2      -0.183  -4.757   0.000  0.00  0.00    +0.000 C 
ATOM     61  O   PHE A   2       0.072  -3.972   0.000  0.00  0.00    +0.000 OA
ATOM     62  H   VAL A   3      -1.294  -5.865   0.000  0.00  0.00    +0.000 HD
BRANCH  60  63
ATOM     63  CA  PHE A   2       0.369  -5.370   0.000  0.00  0.00    +0.000 C 
BRANCH  63  64
ATOM     64  N   PHE A   2       0.114  -6.155   0.000  0.00  0.00    +0.000 N 
ATOM     65  C   ARG A   1      -0.693  -6.326   0.000  0.00  0.00    +0.000 C 
ATOM     66  O   ARG A   1      -1.245  -5.713   0.000  0.00  0.00    +0.000 OA
ATOM     67  H   PHE A   2       0.773  -6.886   0.000  0.00  0.00    +0.000 HD
BRANCH  65  68
ATOM     68  CA  ARG A   1      -0.948  -7.111   0.000  0.00  0.00    +0.000 C 
BRANCH  68  69
ATOM     69  N   ARG A   1      -0.396  -7.724   0.000  0.00  0.00    +0.000 NA
ATOM     70  H1  ARG A   1      -0.711  -8.694   0.000  0.00  0.00    +0.000 HD
ATOM     71  H2  ARG A   1       0.602  -7.512   0.000  0.00  0.00    +0.000 HD
ENDBRANCH  68  69
BRANCH  68  72
ATOM     72  CB  ARG A   1      -1.755  -7.282   0.000  0.00  0.00    +0.000 C 
BRANCH  72  73
ATOM     73  CG  ARG A   1      -2.010  -8.067   0.000  0.00  0.00    +0.000 C 
BRANCH  73  74
ATOM     74  CD  ARG A   1      -2.817  -8.238   0.000  0.00  0.00    +0.000 C 
BRANCH  74  75
ATOM     75  NE  ARG A   1      -3.072  -9.023   0.000  0.00  0.00    +0.000 N 
ATOM     76  CZ  ARG A   1      -3.879  -9.195   0.000  0.00  0.00    +0.000 C 
ATOM     77  NH1 ARG A   1      -4.431  -8.582   0.000  0.00  0.00    +0.000 N 
ATOM     78  NH2 ARG A   1      -4.134  -9.979   0.000  0.00  0.00    +0.000 NA
ATOM     79  HE  ARG A   1      -2.413  -9.755   0.000  0.00  0.00    +0.000 HD
ATOM     80 HH11 ARG A   1      -4.127  -7.645   0.000  0.00  0.00    +0.000 HD
ATOM     81 HH12 ARG A   1      -5.394  -8.786   0.000  0.00  0.00    +0.000 HD
ATOM     82  HH2 ARG A   1      -5.097 -10.184   0.000  0.00  0.00    +0.000 HD
ENDBRANCH  74  75
ENDBRANCH  73  74
ENDBRANCH  72  73
ENDBRANCH  68  72
ENDBRANCH  65  68
ENDBRANCH  63  64
BRANCH  63  83
ATOM     83  CB  PHE A   2       1.176  -5.199   0.000  0.00  0.00    +0.000 C 
BRANCH  83  84
ATOM     84  CG  PHE A   2       1.431  -4.414   0.000  0.00  0.00    +0.000 A 
ATOM     85  CD1 PHE A   2       0.879  -3.801   0.000  0.00  0.00    +0.000 A 
ATOM     86  CE1 PHE A   2       1.134  -3.016   0.000  0.00  0.00    +0.000 A 
ATOM     87  CZ  PHE A   2       1.941  -2.845   0.000  0.00  0.00    +0.000 A 
ATOM     88  CE2 PHE A   2       2.493  -3.458   0.000  0.00  0.00    +0.000 A 
ATOM     89  CD2 PHE A   2       2.238  -4.242   0.000  0.00  0.00    +0.000 A 
ENDBRANCH  83  84
ENDBRANCH  63  83
ENDBRANCH  60  63
ENDBRANCH  58  59
BRANCH  58  90
ATOM     90  CB  VAL A   3      -1.287  -3.531   0.000  0.00  0.00    +0.000 C 
ATOM     91  CG1 VAL A   3      -1.839  -2.918   0.000  0.00  0.00    +0.000 C 
ATOM     92  CG2 VAL A   3      -0.480  -3.359   0.000  0.00  0.00    +0.000 C 
ENDBRANCH  58  90
ENDBRANCH  56  58
ENDBRANCH  48  51
ENDBRANCH   1  47
BRANCH   1  93
ATOM     93  CB  ASP A   5      -4.959  -6.103   0.000  0.00  0.00    +0.000 C 
BRANCH  93  94
ATOM     94  CG  ASP A   5      -5.372  -6.818   0.000  0.00  0.00    +0.000 C 
ATOM     95  OD2 ASP A   5      -6.197  -6.818   0.000  0.00  0.00    +0.000 OA
BRANCH  94  96
ATOM     96  OD1 ASP A   5      -4.959  -7.532   0.000  0.00  0.00    +0.000 OA
ATOM     97  HD1 ASP A   5      -5.428  -8.344   0.000  0.00  0.00    +0.000 HD
ENDBRANCH  94  96
ENDBRANCH  93  94
ENDBRANCH   1  93
TORSDOF 36
