REMARK  Name = 46861623
REMARK  10 active torsions:
REMARK  status: ('A' for Active; 'I' for Inactive)
REMARK    1  A    between atoms: S_1  and  C_34
REMARK    2  A    between atoms: S_1  and  C_38
REMARK    3  A    between atoms: N_9  and  C_20
REMARK    4  A    between atoms: N_10  and  C_31
REMARK    5  A    between atoms: N_11  and  C_27
REMARK    6  A    between atoms: C_14  and  C_21
REMARK    7  A    between atoms: C_15  and  C_17
REMARK    8  A    between atoms: C_16  and  C_23
REMARK    9  A    between atoms: C_26  and  C_33
REMARK   10  A    between atoms: C_27  and  C_32
REMARK                            x       y       z     vdW  Elec       q    Type
REMARK                         _______ _______ _______ _____ _____    ______ ____
ROOT
ATOM      1  O   UNL     1      -0.305   0.378   0.415  0.00  0.00    +0.000 OA
ATOM      2  N   UNL     1       2.030   0.547   0.160  0.00  0.00    +0.000 N 
ATOM      3  C   UNL     1       3.244  -0.123  -0.135  0.00  0.00    +0.000 A 
ATOM      4  C   UNL     1       3.246  -1.457  -0.388  0.00  0.00    +0.000 A 
ATOM      5  C   UNL     1       0.825  -1.587  -0.151  0.00  0.00    +0.000 A 
ATOM      6  C   UNL     1       1.994  -2.187  -0.380  0.00  0.00    +0.000 A 
ATOM      7  C   UNL     1       0.787  -0.131   0.151  0.00  0.00    +0.000 A 
ATOM      8  C   UNL     1       4.508   0.710  -0.264  0.00  0.00    +0.000 C 
ENDROOT
BRANCH   4  11
ATOM      9  N   UNL     1       5.224  -2.750   0.327  0.00  0.00    +0.000 N 
ATOM     10  N   UNL     1       6.337  -3.379  -0.088  0.00  0.00    +0.000 NA
ATOM     11  C   UNL     1       4.501  -2.185  -0.682  0.00  0.00    +0.000 A 
ATOM     12  C   UNL     1       5.189  -2.463  -1.838  0.00  0.00    +0.000 A 
ATOM     13  C   UNL     1       6.310  -3.200  -1.411  0.00  0.00    +0.000 A 
ATOM     14  C   UNL     1       4.922  -2.740   1.742  0.00  0.00    +0.000 C 
ENDBRANCH   4  11
BRANCH   2  15
ATOM     15  C   UNL     1       1.983   1.941   0.528  0.00  0.00    +0.000 A 
ATOM     16  C   UNL     1       1.259   2.844  -0.250  0.00  0.00    +0.000 A 
ATOM     17  C   UNL     1       2.661   2.386   1.663  0.00  0.00    +0.000 A 
ATOM     18  C   UNL     1       1.213   4.192   0.106  0.00  0.00    +0.000 A 
ATOM     19  C   UNL     1       2.616   3.734   2.019  0.00  0.00    +0.000 A 
ATOM     20  C   UNL     1       1.892   4.637   1.241  0.00  0.00    +0.000 A 
BRANCH  18  24
ATOM     21  F   UNL     1       0.497   6.433  -0.242  0.00  0.00    +0.000 F 
ATOM     22  F   UNL     1       0.874   5.238  -2.019  0.00  0.00    +0.000 F 
ATOM     23  F   UNL     1      -0.890   4.860  -0.816  0.00  0.00    +0.000 F 
ATOM     24  C   UNL     1       0.440   5.158  -0.726  0.00  0.00    +0.000 C 
ENDBRANCH  18  24
ENDBRANCH   2  15
BRANCH   5  27
ATOM     25  O   UNL     1      -0.686  -3.044  -1.206  0.00  0.00    +0.000 OA
ATOM     26  N   UNL     1      -1.070  -2.429   1.010  0.00  0.00    +0.000 N 
ATOM     27  C   UNL     1      -0.377  -2.428  -0.188  0.00  0.00    +0.000 C 
ATOM     28  H   UNL     1      -0.725  -1.872   1.786  0.00  0.00    +0.000 HD
BRANCH  26  29
ATOM     29  C   UNL     1      -2.287  -3.180   1.222  0.00  0.00    +0.000 C 
BRANCH  29  31
ATOM     30  N   UNL     1      -4.097  -2.747  -0.339  0.00  0.00    +0.000 NA
ATOM     31  C   UNL     1      -3.506  -2.398   0.826  0.00  0.00    +0.000 A 
ATOM     32  C   UNL     1      -5.725  -1.005   0.062  0.00  0.00    +0.000 A 
ATOM     33  C   UNL     1      -3.958  -1.381   1.651  0.00  0.00    +0.000 A 
ATOM     34  C   UNL     1      -5.089  -0.676   1.254  0.00  0.00    +0.000 A 
ATOM     35  C   UNL     1      -5.194  -2.039  -0.692  0.00  0.00    +0.000 A 
BRANCH  32  36
ATOM     36  S   UNL     1      -7.146  -0.148  -0.464  0.00  0.00    +0.000 S 
ATOM     37  O   UNL     1      -7.910  -1.001  -1.367  0.00  0.00    +0.000 OA
ATOM     38  O   UNL     1      -7.795   0.418   0.712  0.00  0.00    +0.000 OA
ATOM     39  C   UNL     1      -6.519   1.202  -1.440  0.00  0.00    +0.000 C 
ENDBRANCH  32  36
ENDBRANCH  29  31
ENDBRANCH  26  29
ENDBRANCH   5  27
TORSDOF 7
