REMARK  Name = 5388962
REMARK  13 active torsions:
REMARK  status: ('A' for Active; 'I' for Inactive)
REMARK    1  A    between atoms: O_2  and  C_14
REMARK    2  A    between atoms: O_4  and  C_19
REMARK    3  A    between atoms: O_4  and  C_23
REMARK    4  A    between atoms: N_7  and  CA_13
REMARK    5  A    between atoms: N_7  and  C_15
REMARK    6  A    between atoms: CA_8  and  C_14
REMARK    7  A    between atoms: C_12  and  CA_13
REMARK    8  A    between atoms: CA_13  and  CB_17
REMARK    9  A    between atoms: C_15  and  C_16
REMARK   10  A    between atoms: C_15  and  C_19
REMARK   11  A    between atoms: C_16  and  C_18
REMARK   12  A    between atoms: C_18  and  C_20
REMARK   13  A    between atoms: C_23  and  C_27
REMARK                            x       y       z     vdW  Elec       q    Type
REMARK                         _______ _______ _______ _____ _____    ______ ____
ROOT
ATOM      1  N   ALA A   1       0.062  -0.374  -1.955  0.00  0.00    +0.000 NA
ATOM      2  H   ALA A   1       0.498   0.068  -2.764  0.00  0.00    +0.000 HD
ENDROOT
BRANCH   1   3
ATOM      3  CA  ALA A   1      -1.358  -0.069  -1.919  0.00  0.00    +0.000 C 
ATOM      4  CB  ALA A   1      -2.046  -0.523  -3.191  0.00  0.00    +0.000 C 
BRANCH   3  11
ATOM      5  O   ALA A   1      -1.452  -1.877  -0.373  0.00  0.00    +0.000 OA
ATOM      6  N   ALA A   1      -3.012  -0.186  -0.117  0.00  0.00    +0.000 N 
ATOM      7  CA  ALA A   1      -3.581  -0.673   1.133  0.00  0.00    +0.000 C 
ATOM      8  CB  ALA A   1      -4.386   0.502   1.676  0.00  0.00    +0.000 C 
ATOM      9  CG  ALA A   1      -4.808   1.255   0.416  0.00  0.00    +0.000 C 
ATOM     10  CD  ALA A   1      -3.612   1.086  -0.509  0.00  0.00    +0.000 C 
ATOM     11  C   ALA A   1      -1.933  -0.801  -0.733  0.00  0.00    +0.000 C 
BRANCH   7  13
ATOM     12  OXT ALA A   1      -5.059  -1.984  -0.262  0.00  0.00    +0.000 OA
ATOM     13  C   ALA A   1      -4.459  -1.840   0.793  0.00  0.00    +0.000 C 
BRANCH  13  14
ATOM     14  O   ALA A   1      -4.503  -2.721   1.822  0.00  0.00    +0.000 OA
ATOM     15  H   ALA A   1      -5.075  -3.492   1.620  0.00  0.00    +0.000 HD
ENDBRANCH  13  14
ENDBRANCH   7  13
ENDBRANCH   3  11
ENDBRANCH   1   3
BRANCH   1  16
ATOM     16  C   UNK A   0       0.722   0.053  -0.727  0.00  0.00    +0.000 C 
BRANCH  16  18
ATOM     17  O   UNK A   0       0.980   2.389  -1.389  0.00  0.00    +0.000 OA
ATOM     18  C   UNK A   0       0.539   1.556  -0.607  0.00  0.00    +0.000 C 
BRANCH  18  19
ATOM     19  O   UNK A   0      -0.205   1.830   0.508  0.00  0.00    +0.000 OA
BRANCH  19  20
ATOM     20  C   UNK A   0      -0.469   3.216   0.749  0.00  0.00    +0.000 C 
ATOM     21  C   UNK A   0      -1.296   3.348   2.010  0.00  0.00    +0.000 C 
ENDBRANCH  19  20
ENDBRANCH  18  19
ENDBRANCH  16  18
BRANCH  16  22
ATOM     22  C   UNK A   0       2.221  -0.286  -0.741  0.00  0.00    +0.000 C 
BRANCH  22  23
ATOM     23  C   UNK A   0       2.993   0.104   0.528  0.00  0.00    +0.000 C 
BRANCH  23  24
ATOM     24  C   UNK A   0       4.446  -0.298   0.504  0.00  0.00    +0.000 A 
ATOM     25  C   UNK A   0       4.816  -1.542   0.992  0.00  0.00    +0.000 A 
ATOM     26  C   UNK A   0       5.388   0.582  -0.007  0.00  0.00    +0.000 A 
ATOM     27  C   UNK A   0       6.160  -1.915   0.969  0.00  0.00    +0.000 A 
ATOM     28  C   UNK A   0       6.732   0.209  -0.030  0.00  0.00    +0.000 A 
ATOM     29  C   UNK A   0       7.118  -1.039   0.458  0.00  0.00    +0.000 A 
ENDBRANCH  23  24
ENDBRANCH  22  23
ENDBRANCH  16  22
ENDBRANCH   1  16
TORSDOF 11
