REMARK  Name = 5311309
REMARK  9 active torsions:
REMARK  status: ('A' for Active; 'I' for Inactive)
REMARK    1  A    between atoms: O_2  and  C_17
REMARK    2  A    between atoms: N_4  and  CA_15
REMARK    3  A    between atoms: C_5  and  C_11
REMARK    4  A    between atoms: C_8  and  C_12
REMARK    5  A    between atoms: C_11  and  C_13
REMARK    6  A    between atoms: C_11  and  C_14
REMARK    7  A    between atoms: CA_15  and  CB_16
REMARK    8  A    between atoms: CA_15  and  C_17
REMARK    9  A    between atoms: CB_16  and  CG_18
REMARK                            x       y       z     vdW  Elec       q    Type
REMARK                         _______ _______ _______ _____ _____    ______ ____
ROOT
ATOM      1  O   UNL     1      -0.252  -0.731  -1.799  0.00  0.00    +0.000 OA
ATOM      2  N   UNL     1      -0.960  -1.270   0.352  0.00  0.00    +0.000 N 
ATOM      3  C   ACE A   0      -0.019  -0.956  -0.615  0.00  0.00    +0.000 C 
ATOM      4  H   UNL     1      -0.653  -1.466   1.300  0.00  0.00    +0.000 HD
ENDROOT
BRANCH   3   8
ATOM      5  C   UNL     1       4.089   0.281  -0.108  0.00  0.00    +0.000 C 
ATOM      6  C   UNL     1       3.069   0.673   0.970  0.00  0.00    +0.000 C 
ATOM      7  C   UNL     1       3.816  -1.136  -0.629  0.00  0.00    +0.000 C 
ATOM      8  C   UNL     1       1.368  -0.890  -0.055  0.00  0.00    +0.000 C 
ATOM      9  C   UNL     1       1.634   0.521   0.470  0.00  0.00    +0.000 C 
ATOM     10  C   UNL     1       2.381  -1.286  -1.129  0.00  0.00    +0.000 C 
BRANCH   5  11
ATOM     11  C   UNL     1       5.513   0.393   0.432  0.00  0.00    +0.000 C 
ATOM     12  C   UNL     1       6.528   0.048  -0.655  0.00  0.00    +0.000 C 
ATOM     13  C   UNL     1       5.771   1.794   0.982  0.00  0.00    +0.000 C 
ENDBRANCH   5  11
ENDBRANCH   3   8
BRANCH   2  14
ATOM     14  CA  UNL     1      -2.374  -1.373   0.074  0.00  0.00    +0.000 C 
BRANCH  14  16
ATOM     15  OXT UNL     1      -4.020  -3.146   0.045  0.00  0.00    +0.000 OA
ATOM     16  C   UNL     1      -2.872  -2.794   0.297  0.00  0.00    +0.000 C 
BRANCH  16  17
ATOM     17  O   UNL     1      -1.946  -3.650   0.792  0.00  0.00    +0.000 OA
ATOM     18  H   UNL     1      -2.310  -4.552   0.916  0.00  0.00    +0.000 HD
ENDBRANCH  16  17
ENDBRANCH  14  16
BRANCH  14  19
ATOM     19  CB  UNL     1      -3.185  -0.393   0.932  0.00  0.00    +0.000 C 
BRANCH  19  20
ATOM     20  CG  UNL     1      -3.135   1.024   0.414  0.00  0.00    +0.000 A 
ATOM     21  CD1 UNL     1      -2.137   1.876   0.860  0.00  0.00    +0.000 A 
ATOM     22  CD2 UNL     1      -4.089   1.448  -0.498  0.00  0.00    +0.000 A 
ATOM     23  CE1 UNL     1      -2.091   3.185   0.381  0.00  0.00    +0.000 A 
ATOM     24  CE2 UNL     1      -4.043   2.757  -0.976  0.00  0.00    +0.000 A 
ATOM     25  CZ  UNL     1      -3.044   3.626  -0.537  0.00  0.00    +0.000 A 
ENDBRANCH  19  20
ENDBRANCH  14  19
ENDBRANCH   2  14
TORSDOF 7
