REMARK  Name = 656629
REMARK  7 active torsions:
REMARK  status: ('A' for Active; 'I' for Inactive)
REMARK    1  A    between atoms: S_2  and  C_20
REMARK    2  A    between atoms: O_4  and  C_18
REMARK    3  A    between atoms: N_8  and  CA_14
REMARK    4  A    between atoms: CA_10  and  C_18
REMARK    5  A    between atoms: C_19  and  C_20
REMARK    6  A    between atoms: C_20  and  C_21
REMARK    7  A    between atoms: C_21  and  C_22
REMARK                            x       y       z     vdW  Elec       q    Type
REMARK                         _______ _______ _______ _____ _____    ______ ____
ROOT
ATOM      1  SD  MET A   1       3.668  -1.804  -0.798  0.00  0.00    +0.000 S 
ATOM      2  O   MET A   1      -0.066   0.727  -0.372  0.00  0.00    +0.000 OA
ATOM      3  N   MET A   1       1.993  -0.023   0.394  0.00  0.00    +0.000 N 
ATOM      4  CE  MET A   1       2.892  -1.147   0.721  0.00  0.00    +0.000 C 
ATOM      5  CA  MET A   1       2.521   1.352   0.427  0.00  0.00    +0.000 C 
ATOM      6  C   MET A   1       3.943  -0.816   1.786  0.00  0.00    +0.000 C 
ATOM      7  C   MET A   1       3.576   1.620   1.494  0.00  0.00    +0.000 C 
ATOM      8  C   MET A   1       4.628   0.523   1.567  0.00  0.00    +0.000 C 
ATOM      9  CA  MET A   1       0.279  -1.655  -0.411  0.00  0.00    +0.000 C 
ATOM     10  C   MET A   1       0.693  -0.212  -0.112  0.00  0.00    +0.000 C 
ATOM     11  CB  MET A   1       1.001  -2.209  -1.646  0.00  0.00    +0.000 C 
ATOM     12  CG  MET A   1       2.331  -2.905  -1.356  0.00  0.00    +0.000 C 
ENDROOT
BRANCH   9  14
ATOM     13  O   UNK A   0      -1.778  -1.893   1.577  0.00  0.00    +0.000 OA
ATOM     14  N   MET A   1      -1.149  -1.628  -0.640  0.00  0.00    +0.000 N 
ATOM     15  C   UNK A   0      -2.068  -1.751   0.390  0.00  0.00    +0.000 C 
ATOM     16  H   MET A   1      -1.477  -1.437  -1.583  0.00  0.00    +0.000 HD
BRANCH  15  17
ATOM     17  C   UNK A   0      -3.510  -1.719  -0.106  0.00  0.00    +0.000 C 
BRANCH  17  18
ATOM     18  S   UNK A   0      -4.230  -3.360   0.258  0.00  0.00    +0.000 S 
ATOM     19  H   UNK A   0      -4.094  -3.301   1.592  0.00  0.00    +0.000 HD
ENDBRANCH  17  18
BRANCH  17  20
ATOM     20  C   UNK A   0      -4.338  -0.629   0.588  0.00  0.00    +0.000 C 
BRANCH  20  21
ATOM     21  C   UNK A   0      -3.822   0.760   0.285  0.00  0.00    +0.000 A 
ATOM     22  C   UNK A   0      -2.864   1.321   1.113  0.00  0.00    +0.000 A 
ATOM     23  C   UNK A   0      -4.318   1.442  -0.812  0.00  0.00    +0.000 A 
ATOM     24  C   UNK A   0      -2.388   2.602   0.834  0.00  0.00    +0.000 A 
ATOM     25  C   UNK A   0      -3.842   2.723  -1.092  0.00  0.00    +0.000 A 
ATOM     26  C   UNK A   0      -2.877   3.303  -0.268  0.00  0.00    +0.000 A 
ENDBRANCH  20  21
ENDBRANCH  17  20
ENDBRANCH  15  17
ENDBRANCH   9  14
BRANCH   5  28
ATOM     27  OXT MET A   1       2.659   1.127  -1.980  0.00  0.00    +0.000 OA
ATOM     28  C   MET A   1       3.047   1.654  -0.948  0.00  0.00    +0.000 C 
BRANCH  28  29
ATOM     29  O   MET A   1       4.021   2.596  -0.891  0.00  0.00    +0.000 OA
ATOM     30  H   MET A   1       4.380   2.806  -1.780  0.00  0.00    +0.000 HD
ENDBRANCH  28  29
ENDBRANCH   5  28
TORSDOF 7
