REMARK  Name = 
REMARK  21 active torsions:
REMARK  status: ('A' for Active; 'I' for Inactive)
REMARK    1  A    between atoms: C_1  and  C_2
REMARK    2  A    between atoms: C_2  and  C_3
REMARK    3  A    between atoms: C_3  and  C_4
REMARK    4  A    between atoms: C_4  and  C_5
REMARK    5  A    between atoms: C_5  and  C_6
REMARK    6  A    between atoms: C_6  and  C_7
REMARK    7  A    between atoms: C_7  and  C_8
REMARK    8  A    between atoms: C_8  and  S_9
REMARK    9  A    between atoms: S_9  and  C_10
REMARK   10  A    between atoms: C_10  and  C_11
REMARK   11  A    between atoms: C_11  and  N_12
REMARK   12  A    between atoms: C_11  and  C_22
REMARK   13  A    between atoms: C_13  and  C_15
REMARK   14  A    between atoms: C_15  and  C_16
REMARK   15  A    between atoms: C_16  and  C_17
REMARK   16  A    between atoms: C_17  and  N_18
REMARK   17  A    between atoms: C_17  and  C_19
REMARK   18  A    between atoms: C_19  and  O_21
REMARK   19  A    between atoms: N_24  and  CA_25
REMARK   20  A    between atoms: CA_25  and  C_26
REMARK   21  A    between atoms: C_26  and  OXT_28
REMARK                            x       y       z     vdW  Elec       q    Type
REMARK                         _______ _______ _______ _____ _____    ______ ____
ROOT
ATOM      1  C   UNK A   1      -0.417  -0.453  -0.333  0.00  0.00    +0.000 C 
ENDROOT
BRANCH   1   2
ATOM      2  N   UNK A   1      -1.682  -0.267   0.593  0.00  0.00    +0.000 N 
ATOM      3  C   UNK A   1      -2.909  -0.154  -0.103  0.00  0.00    +0.000 C 
ATOM      4  O   UNK A   1      -3.087  -0.687  -1.240  0.00  0.00    +0.000 OA
ATOM      5  H   UNK A   1      -1.622  -0.233   1.575  0.00  0.00    +0.000 HD
BRANCH   3   6
ATOM      6  C   UNK A   1      -3.901   0.901   0.283  0.00  0.00    +0.000 C 
BRANCH   6   7
ATOM      7  C   UNK A   1      -3.991   1.868  -0.836  0.00  0.00    +0.000 C 
BRANCH   7   8
ATOM      8  C   UNK A   1      -3.647   3.363  -0.240  0.00  0.00    +0.000 C 
BRANCH   8   9
ATOM      9  N   UNK A   1      -2.423   2.836   0.607  0.00  0.00    +0.000 NA
ATOM     10  H   UNK A   1      -2.695   1.990   1.108  0.00  0.00    +0.000 HD
ATOM     11  H   UNK A   1      -2.139   3.551   1.277  0.00  0.00    +0.000 HD
ENDBRANCH   8   9
BRANCH   8  12
ATOM     12  C   UNK A   1      -4.727   3.224   0.944  0.00  0.00    +0.000 C 
ATOM     13  O   UNK A   1      -5.790   3.850   0.669  0.00  0.00    +0.000 OA
BRANCH  12  14
ATOM     14  O   UNK A   1      -4.461   2.616   2.092  0.00  0.00    +0.000 OA
ATOM     15  H   UNK A   1      -3.644   2.174   2.209  0.00  0.00    +0.000 HD
ENDBRANCH  12  14
ENDBRANCH   8  12
ENDBRANCH   7   8
ENDBRANCH   6   7
ENDBRANCH   3   6
ENDBRANCH   1   2
BRANCH   1  16
ATOM     16  C   UNK A   1      -0.727  -1.999  -0.657  0.00  0.00    +0.000 C 
ATOM     17  O   UNK A   1      -0.527  -2.325  -1.852  0.00  0.00    +0.000 OA
ATOM     18  N   GLY A   2      -1.259  -2.835   0.297  0.00  0.00    +0.000 N 
ATOM     19  H   GLY A   2      -1.270  -2.598   1.253  0.00  0.00    +0.000 HD
BRANCH  18  20
ATOM     20  CA  GLY A   2      -1.808  -4.101  -0.197  0.00  0.00    +0.000 C 
BRANCH  20  21
ATOM     21  C   GLY A   2      -1.274  -5.260   0.542  0.00  0.00    +0.000 C 
ATOM     22  O   GLY A   2      -0.186  -5.192   1.145  0.00  0.00    +0.000 OA
BRANCH  21  23
ATOM     23  OXT GLY A   2      -1.830  -6.498   0.300  0.00  0.00    +0.000 OA
ATOM     24  HXT GLY A   2      -2.648  -6.564  -0.153  0.00  0.00    +0.000 HD
ENDBRANCH  21  23
ENDBRANCH  20  21
ENDBRANCH  18  20
ENDBRANCH   1  16
BRANCH   1  25
ATOM     25  C   UNK A   1       0.551  -0.834   0.943  0.00  0.00    +0.000 C 
BRANCH  25  26
ATOM     26  S   UNK A   1       2.219  -1.028   0.276  0.00  0.00    +0.000 S 
BRANCH  26  27
ATOM     27  C   UNK A   1       2.548  -0.100  -1.189  0.00  0.00    +0.000 C 
BRANCH  27  28
ATOM     28  C   UNK A   1       3.425   1.067  -1.113  0.00  0.00    +0.000 C 
BRANCH  28  29
ATOM     29  C   UNK A   1       4.561   1.092  -0.211  0.00  0.00    +0.000 C 
BRANCH  29  30
ATOM     30  C   UNK A   1       4.503   1.858   1.038  0.00  0.00    +0.000 C 
BRANCH  30  31
ATOM     31  C   UNK A   1       5.441   2.968   1.252  0.00  0.00    +0.000 C 
BRANCH  31  32
ATOM     32  C   UNK A   1       6.848   2.827   0.865  0.00  0.00    +0.000 C 
BRANCH  32  34
ATOM     33  C   UNK A   1       7.418   1.355  -0.119  0.00  0.00    +0.000 C 
ATOM     34  C   UNK A   1       7.133   1.909  -0.295  0.00  0.00    +0.000 C 
ENDBRANCH  32  34
ENDBRANCH  31  32
ENDBRANCH  30  31
ENDBRANCH  29  30
ENDBRANCH  28  29
ENDBRANCH  27  28
ENDBRANCH  26  27
ENDBRANCH  25  26
ENDBRANCH   1  25
TORSDOF 20
