REMARK  Name = 5287555
REMARK  12 active torsions:
REMARK  status: ('A' for Active; 'I' for Inactive)
REMARK    1  A    between atoms: O_5  and  C_42
REMARK    2  A    between atoms: N_7  and  C_16
REMARK    3  A    between atoms: N_8  and  C_10
REMARK    4  A    between atoms: N_9  and  C_21
REMARK    5  A    between atoms: C_16  and  C_17
REMARK    6  A    between atoms: C_18  and  C_21
REMARK    7  A    between atoms: C_24  and  C_26
REMARK    8  A    between atoms: C_25  and  C_27
REMARK    9  A    between atoms: C_32  and  C_39
REMARK   10  A    between atoms: C_33  and  C_38
REMARK   11  A    between atoms: C_34  and  C_41
REMARK   12  A    between atoms: C_38  and  C_42
REMARK                            x       y       z     vdW  Elec       q    Type
REMARK                         _______ _______ _______ _____ _____    ______ ____
ROOT
ATOM      1  O   UNL     1       1.775  -3.372   1.423  0.00  0.00    +0.000 OA
ATOM      2  N   UNL     1       0.504  -1.727   0.401  0.00  0.00    +0.000 N 
ATOM      3  C   UNL     1       1.691  -2.308   0.814  0.00  0.00    +0.000 C 
ATOM      4  H   UNL     1       0.535  -0.835  -0.085  0.00  0.00    +0.000 HD
ENDROOT
BRANCH   2   7
ATOM      5  O   UNL     1      -1.329  -1.146  -1.380  0.00  0.00    +0.000 OA
ATOM      6  N   UNL     1      -2.937  -2.593  -0.552  0.00  0.00    +0.000 N 
ATOM      7  C   UNL     1      -0.787  -2.326   0.651  0.00  0.00    +0.000 C 
ATOM      8  C   UNL     1      -1.356  -1.815   1.975  0.00  0.00    +0.000 C 
ATOM      9  C   UNL     1      -2.360  -2.772   2.614  0.00  0.00    +0.000 C 
ATOM     10  C   UNL     1      -3.627  -3.006   1.795  0.00  0.00    +0.000 C 
ATOM     11  C   UNL     1      -3.354  -3.605   0.420  0.00  0.00    +0.000 C 
ATOM     12  C   UNL     1      -1.690  -1.964  -0.529  0.00  0.00    +0.000 C 
BRANCH   6  13
ATOM     13  C   UNL     1      -3.906  -2.248  -1.583  0.00  0.00    +0.000 C 
BRANCH  13  14
ATOM     14  C   UNL     1      -4.767  -1.086  -1.179  0.00  0.00    +0.000 A 
ATOM     15  C   UNL     1      -4.370   0.216  -1.486  0.00  0.00    +0.000 A 
ATOM     16  C   UNL     1      -5.963  -1.308  -0.497  0.00  0.00    +0.000 A 
ATOM     17  C   UNL     1      -5.170   1.295  -1.111  0.00  0.00    +0.000 A 
ATOM     18  C   UNL     1      -6.763  -0.228  -0.122  0.00  0.00    +0.000 A 
ATOM     19  C   UNL     1      -6.366   1.073  -0.429  0.00  0.00    +0.000 A 
BRANCH  19  20
ATOM     20  C   UNL     1      -7.195   2.193  -0.040  0.00  0.00    +0.000 A 
ATOM     21  C   UNL     1      -8.182   2.664  -0.905  0.00  0.00    +0.000 A 
ATOM     22  C   UNL     1      -7.007   2.803   1.201  0.00  0.00    +0.000 A 
ATOM     23  C   UNL     1      -8.981   3.744  -0.530  0.00  0.00    +0.000 A 
ATOM     24  C   UNL     1      -7.806   3.882   1.576  0.00  0.00    +0.000 A 
ATOM     25  C   UNL     1      -8.793   4.354   0.711  0.00  0.00    +0.000 A 
ENDBRANCH  19  20
ENDBRANCH  13  14
ENDBRANCH   6  13
ENDBRANCH   2   7
BRANCH   3  26
ATOM     26  C   UNL     1       2.912  -1.525   0.435  0.00  0.00    +0.000 C 
ATOM     27  C   UNL     1       3.351  -0.603   1.310  0.00  0.00    +0.000 C 
BRANCH  27  28
ATOM     28  C   UNL     1       4.515   0.276   1.121  0.00  0.00    +0.000 A 
ATOM     29  C   UNL     1       4.543   1.180   0.060  0.00  0.00    +0.000 A 
ATOM     30  C   UNL     1       5.592   0.204   2.005  0.00  0.00    +0.000 A 
ATOM     31  C   UNL     1       6.724   1.941   0.766  0.00  0.00    +0.000 A 
ATOM     32  C   UNL     1       5.648   2.013  -0.118  0.00  0.00    +0.000 A 
ATOM     33  C   UNL     1       6.696   1.037   1.828  0.00  0.00    +0.000 A 
BRANCH  32  35
ATOM     34  O   UNL     1       4.623   3.443  -1.699  0.00  0.00    +0.000 OA
ATOM     35  C   UNL     1       5.652   2.948  -1.235  0.00  0.00    +0.000 C 
ENDBRANCH  32  35
BRANCH  31  36
ATOM     36  C   UNL     1       7.920   2.821   0.599  0.00  0.00    +0.000 C 
BRANCH  36  38
ATOM     37  O   UNL     1       8.954   1.097  -0.776  0.00  0.00    +0.000 OA
ATOM     38  C   UNL     1       8.999   2.212  -0.274  0.00  0.00    +0.000 C 
BRANCH  38  39
ATOM     39  O   UNL     1      10.049   3.058  -0.442  0.00  0.00    +0.000 OA
ATOM     40  H   UNL     1      10.748   2.664  -1.006  0.00  0.00    +0.000 HD
ENDBRANCH  38  39
ENDBRANCH  36  38
ENDBRANCH  31  36
ENDBRANCH  27  28
BRANCH  26  42
ATOM     41  O   UNL     1       2.072  -3.462  -1.509  0.00  0.00    +0.000 OA
ATOM     42  N   UNL     1       3.512  -1.785  -0.765  0.00  0.00    +0.000 N 
ATOM     43  C   UNL     1       3.053  -2.737  -1.660  0.00  0.00    +0.000 C 
ATOM     44  C   UNL     1       3.925  -2.837  -2.884  0.00  0.00    +0.000 C 
ATOM     45  H   UNL     1       4.350  -1.262  -1.005  0.00  0.00    +0.000 HD
ENDBRANCH  26  42
ENDBRANCH   3  26
TORSDOF 11
