REMARK  Name = 445503
REMARK  7 active torsions:
REMARK  status: ('A' for Active; 'I' for Inactive)
REMARK    1  A    between atoms: S_1  and  N_6
REMARK    2  A    between atoms: S_1  and  C_13
REMARK    3  A    between atoms: S_2  and  C_20
REMARK    4  A    between atoms: N_7  and  C_16
REMARK    5  A    between atoms: C_8  and  C_12
REMARK    6  A    between atoms: C_16  and  C_20
REMARK    7  A    between atoms: C_19  and  C_21
REMARK                            x       y       z     vdW  Elec       q    Type
REMARK                         _______ _______ _______ _____ _____    ______ ____
ROOT
ATOM      1  N   UNL     1       0.341  -1.229   0.502  0.00  0.00    +0.000 NA
ATOM      2  C   UNL     1       0.986  -0.616  -0.692  0.00  0.00    +0.000 C 
ATOM      3  C   UNL     1       0.603  -1.504  -1.871  0.00  0.00    +0.000 C 
ATOM      4  C   UNL     1       0.266  -2.840  -1.231  0.00  0.00    +0.000 C 
ATOM      5  C   UNL     1      -0.420  -2.429   0.061  0.00  0.00    +0.000 C 
ENDROOT
BRANCH   2   8
ATOM      6  O   UNL     1       2.950  -1.515   0.311  0.00  0.00    +0.000 OA
ATOM      7  N   UNL     1       3.128   0.394  -1.009  0.00  0.00    +0.000 N 
ATOM      8  C   UNL     1       2.450  -0.650  -0.404  0.00  0.00    +0.000 C 
ATOM      9  H   UNL     1       2.615   1.059  -1.581  0.00  0.00    +0.000 HD
BRANCH   7  10
ATOM     10  C   UNL     1       4.551   0.600  -0.868  0.00  0.00    +0.000 C 
BRANCH  10  11
ATOM     11  C   UNL     1       4.910   1.485   0.318  0.00  0.00    +0.000 C 
BRANCH  11  12
ATOM     12  S   UNL     1       4.205   3.155   0.168  0.00  0.00    +0.000 S 
ATOM     13  H   UNL     1       4.699   3.633   1.319  0.00  0.00    +0.000 HD
ENDBRANCH  11  12
ENDBRANCH  10  11
ENDBRANCH   7  10
ENDBRANCH   2   8
BRANCH   1  14
ATOM     14  S   UNL     1      -0.409  -0.194   1.624  0.00  0.00    +0.000 S 
ATOM     15  O   UNL     1       0.403   0.994   1.806  0.00  0.00    +0.000 OA
ATOM     16  O   UNL     1      -0.851  -0.967   2.771  0.00  0.00    +0.000 OA
BRANCH  14  17
ATOM     17  C   UNL     1      -1.847   0.279   0.711  0.00  0.00    +0.000 A 
ATOM     18  C   UNL     1      -3.000  -0.478   0.825  0.00  0.00    +0.000 A 
ATOM     19  C   UNL     1      -1.794   1.400  -0.100  0.00  0.00    +0.000 A 
ATOM     20  C   UNL     1      -4.134  -0.104   0.104  0.00  0.00    +0.000 A 
ATOM     21  C   UNL     1      -2.928   1.774  -0.820  0.00  0.00    +0.000 A 
ATOM     22  C   UNL     1      -4.098   1.022  -0.718  0.00  0.00    +0.000 A 
ATOM     23  C   UNL     1      -5.312   1.423  -1.487  0.00  0.00    +0.000 C 
ENDBRANCH  14  17
ENDBRANCH   1  14
TORSDOF 6
