REMARK  Name = 5288535
REMARK  13 active torsions:
REMARK  status: ('A' for Active; 'I' for Inactive)
REMARK    1  A    between atoms: N_10  and  C_16
REMARK    2  A    between atoms: N_11  and  C_26
REMARK    3  A    between atoms: N_12  and  C_29
REMARK    4  A    between atoms: C_14  and  C_18
REMARK    5  A    between atoms: C_14  and  C_19
REMARK    6  A    between atoms: C_15  and  C_20
REMARK    7  A    between atoms: C_21  and  C_22
REMARK    8  A    between atoms: C_22  and  C_23
REMARK    9  A    between atoms: C_23  and  C_24
REMARK   10  A    between atoms: C_24  and  C_25
REMARK   11  A    between atoms: C_25  and  C_26
REMARK   12  A    between atoms: C_26  and  C_27
REMARK   13  A    between atoms: C_28  and  C_29
REMARK                            x       y       z     vdW  Elec       q    Type
REMARK                         _______ _______ _______ _____ _____    ______ ____
ROOT
ATOM      1  O   UNK A   0       0.626   3.538   1.627  0.00  0.00    +0.000 OA
ATOM      2  N   UNK A   1      -0.712   2.495   0.044  0.00  0.00    +0.000 N 
ATOM      3  C   UNK A   0       0.402   3.213   0.464  0.00  0.00    +0.000 C 
ATOM      4  H   UNK A   1      -0.822   2.310  -0.949  0.00  0.00    +0.000 HD
ENDROOT
BRANCH   2  11
ATOM      5  S   UNK A   1      -3.163   1.381  -1.428  0.00  0.00    +0.000 S 
ATOM      6  O   UNK A   1      -0.746  -0.107   1.910  0.00  0.00    +0.000 OA
ATOM      7  N   UNK A   1      -2.856   0.283   0.931  0.00  0.00    +0.000 N 
ATOM      8  C   UNK A   1      -3.113   1.616   0.388  0.00  0.00    +0.000 C 
ATOM      9  C   UNK A   1      -2.947  -0.466  -1.334  0.00  0.00    +0.000 C 
ATOM     10  C   UNK A   1      -3.225  -0.870   0.135  0.00  0.00    +0.000 C 
ATOM     11  C   UNK A   1      -1.758   2.043   0.976  0.00  0.00    +0.000 C 
ATOM     12  C   UNK A   1      -1.621   0.575   1.429  0.00  0.00    +0.000 C 
ATOM     13  C   UNK A   1      -1.494  -0.781  -1.728  0.00  0.00    +0.000 C 
ATOM     14  C   UNK A   1      -3.886  -1.125  -2.352  0.00  0.00    +0.000 C 
BRANCH  10  17
ATOM     15  O   UNK A   2      -5.522  -0.353   0.105  0.00  0.00    +0.000 OA
ATOM     16  O   UNK A   2      -4.845  -2.385   0.909  0.00  0.00    +0.000 OA
ATOM     17  C   UNK A   1      -4.675  -1.237   0.410  0.00  0.00    +0.000 C 
ENDBRANCH  10  17
ENDBRANCH   2  11
BRANCH   3  18
ATOM     18  C   UNK A   0       1.309   3.578  -0.699  0.00  0.00    +0.000 C 
BRANCH  18  19
ATOM     19  C   UNK A   0       1.850   2.369  -1.460  0.00  0.00    +0.000 C 
BRANCH  19  20
ATOM     20  C   UNK A   0       2.615   1.401  -0.550  0.00  0.00    +0.000 C 
BRANCH  20  21
ATOM     21  C   UNK A   0       3.169   0.214  -1.350  0.00  0.00    +0.000 C 
BRANCH  21  22
ATOM     22  C   UNK A   0       3.981  -0.776  -0.505  0.00  0.00    +0.000 C 
BRANCH  22  24
ATOM     23  O   UNK A   1       2.537  -3.176  -1.133  0.00  0.00    +0.000 OA
ATOM     24  N   UNK A   2       3.115  -1.517   0.386  0.00  0.00    +0.000 N 
ATOM     25  C   UNK A   1       2.460  -2.670  -0.016  0.00  0.00    +0.000 C 
ATOM     26  H   UNK A   2       2.976  -1.159   1.326  0.00  0.00    +0.000 HD
BRANCH  25  27
ATOM     27  C   UNK A   1       1.624  -3.247   1.098  0.00  0.00    +0.000 C 
BRANCH  27  28
ATOM     28  N   UNK A   1       0.424  -3.941   0.573  0.00  0.00    +0.000 N 
ATOM     29  H   UNK A   1       0.679  -4.708  -0.063  0.00  0.00    +0.000 HD
ATOM     30  H   UNK A   1      -0.134  -4.346   1.336  0.00  0.00    +0.000 HD
ATOM     31  H   UNK A   1      -0.187  -3.296   0.054  0.00  0.00    +0.000 HD
ENDBRANCH  27  28
ENDBRANCH  25  27
ENDBRANCH  22  24
BRANCH  22  34
ATOM     32  O   UNK A   2       5.528  -0.725   1.302  0.00  0.00    +0.000 OA
ATOM     33  O   UNK A   2       5.720   0.837  -0.347  0.00  0.00    +0.000 OA
ATOM     34  C   UNK A   0       5.201  -0.169   0.216  0.00  0.00    +0.000 C 
ENDBRANCH  22  34
ENDBRANCH  21  22
ENDBRANCH  20  21
ENDBRANCH  19  20
ENDBRANCH  18  19
ENDBRANCH   3  18
TORSDOF 11
