REMARK  Name = 
REMARK  26 active torsions:
REMARK  status: ('A' for Active; 'I' for Inactive)
REMARK    1  A    between atoms: C_1  and  O_2
REMARK    2  A    between atoms: O_2  and  C_3
REMARK    3  A    between atoms: C_3  and  C_5
REMARK    4  A    between atoms: C_5  and  N_6
REMARK    5  A    between atoms: C_5  and  C_39
REMARK    6  A    between atoms: C_7  and  C_9
REMARK    7  A    between atoms: C_9  and  N_10
REMARK    8  A    between atoms: C_9  and  C_36
REMARK    9  A    between atoms: C_11  and  C_13
REMARK   10  A    between atoms: C_13  and  C_14
REMARK   11  A    between atoms: C_14  and  C_15
REMARK   12  A    between atoms: C_15  and  O_16
REMARK   13  A    between atoms: C_15  and  C_17
REMARK   14  A    between atoms: C_17  and  C_18
REMARK   15  A    between atoms: C_17  and  N_25
REMARK   16  A    between atoms: C_18  and  C_19
REMARK   17  A    between atoms: C_26  and  C_28
REMARK   18  A    between atoms: C_28  and  C_29
REMARK   19  A    between atoms: C_28  and  N_30
REMARK   20  A    between atoms: C_31  and  C_33
REMARK   21  A    between atoms: C_33  and  C_34
REMARK   22  A    between atoms: C_33  and  N_35
REMARK   23  A    between atoms: C_36  and  C_37
REMARK   24  A    between atoms: C_36  and  C_38
REMARK   25  A    between atoms: C_39  and  C_40
REMARK   26  A    between atoms: C_39  and  C_41
REMARK                            x       y       z     vdW  Elec       q    Type
REMARK                         _______ _______ _______ _____ _____    ______ ____
ROOT
ATOM      1  C   UNL     1       0.955  -0.318   1.152  0.00  0.00    +0.000 C 
ENDROOT
BRANCH   1   2
ATOM      2  O   UNL     1       1.807   0.381   2.183  0.00  0.00    +0.000 OA
ATOM      3  H   UNL     1       2.583   0.771   1.750  0.00  0.00    +0.000 HD
ENDBRANCH   1   2
BRANCH   1   4
ATOM      4  C   UNL     1       1.040   0.948   0.122  0.00  0.00    +0.000 C 
BRANCH   4   5
ATOM      5  C   UNL     1       0.313   0.595  -1.099  0.00  0.00    +0.000 C 
BRANCH   5   7
ATOM      6  N   UNL     1      -2.265   0.558  -0.596  0.00  0.00    +0.000 N 
ATOM      7  C   UNL     1      -1.034   0.096  -1.054  0.00  0.00    +0.000 C 
ATOM      8  O   UNL     1      -1.317  -0.524  -2.127  0.00  0.00    +0.000 OA
ATOM      9  H   UNL     1      -2.720   0.126   0.164  0.00  0.00    +0.000 HD
BRANCH   6  10
ATOM     10  C   UNL     1      -2.908   1.794  -1.332  0.00  0.00    +0.000 C 
BRANCH  10  12
ATOM     11  N   UNL     1      -5.191   1.170  -0.225  0.00  0.00    +0.000 N 
ATOM     12  C   UNL     1      -4.042   1.936  -0.200  0.00  0.00    +0.000 C 
ATOM     13  O   UNL     1      -3.712   2.600   0.822  0.00  0.00    +0.000 OA
ATOM     14  H   UNL     1      -5.550   0.796  -1.062  0.00  0.00    +0.000 HD
BRANCH  11  15
ATOM     15  C   UNL     1      -5.889   0.928   1.160  0.00  0.00    +0.000 C 
BRANCH  15  16
ATOM     16  C   UNL     1      -7.201   1.829   0.750  0.00  0.00    +0.000 C 
ATOM     17  C   UNL     1      -6.709   3.244   0.604  0.00  0.00    +0.000 C 
ATOM     18  C   UNL     1      -7.720   1.352  -0.568  0.00  0.00    +0.000 C 
ENDBRANCH  15  16
BRANCH  15  19
ATOM     19  C   UNL     1      -6.598  -0.448   0.702  0.00  0.00    +0.000 C 
ATOM     20  O   UNL     1      -7.271  -0.895   1.683  0.00  0.00    +0.000 OA
BRANCH  19  22
ATOM     21  C   UNL     1      -6.457  -2.538  -0.397  0.00  0.00    +0.000 C 
ATOM     22  O   UNL     1      -5.836  -1.365   0.048  0.00  0.00    +0.000 OA
ENDBRANCH  19  22
ENDBRANCH  15  19
ENDBRANCH  11  15
ENDBRANCH  10  12
BRANCH  10  23
ATOM     23  C   UNL     1      -3.893   0.983  -2.374  0.00  0.00    +0.000 C 
ATOM     24  C   UNL     1      -4.870   2.147  -2.620  0.00  0.00    +0.000 C 
ATOM     25  C   UNL     1      -3.220   1.016  -3.728  0.00  0.00    +0.000 C 
ENDBRANCH  10  23
ENDBRANCH   6  10
ENDBRANCH   5   7
ENDBRANCH   4   5
ENDBRANCH   1   4
BRANCH   1  26
ATOM     26  C   UNL     1       2.248  -1.154   0.383  0.00  0.00    +0.000 C 
BRANCH  26  27
ATOM     27  N   UNL     1       3.289   0.004   0.423  0.00  0.00    +0.000 N 
ATOM     28  C   UNL     1       4.471  -0.075   1.097  0.00  0.00    +0.000 C 
ATOM     29  O   UNL     1       4.481  -0.808   2.129  0.00  0.00    +0.000 OA
ATOM     30  H   UNL     1       3.083   0.835  -0.062  0.00  0.00    +0.000 HD
BRANCH  28  31
ATOM     31  C   UNL     1       5.875  -0.245   0.317  0.00  0.00    +0.000 C 
ATOM     32  C   UNL     1       6.659   0.744   1.373  0.00  0.00    +0.000 C 
BRANCH  31  33
ATOM     33  N   UNL     1       5.518   0.856  -0.735  0.00  0.00    +0.000 N 
ATOM     34  C   UNL     1       5.935   2.144  -0.652  0.00  0.00    +0.000 C 
ATOM     35  O   UNL     1       6.177   2.597   0.509  0.00  0.00    +0.000 OA
ATOM     36  H   UNL     1       4.958   0.599  -1.503  0.00  0.00    +0.000 HD
BRANCH  34  37
ATOM     37  C   UNL     1       4.894   3.169  -1.339  0.00  0.00    +0.000 C 
ATOM     38  C   UNL     1       4.958   2.420  -2.802  0.00  0.00    +0.000 C 
BRANCH  37  39
ATOM     39  N   UNL     1       6.040   4.176  -1.734  0.00  0.00    +0.000 NA
ATOM     40  H   UNL     1       6.811   3.663  -2.161  0.00  0.00    +0.000 HD
ATOM     41  H   UNL     1       6.373   4.657  -0.899  0.00  0.00    +0.000 HD
ENDBRANCH  37  39
ENDBRANCH  34  37
ENDBRANCH  31  33
ENDBRANCH  28  31
ENDBRANCH  26  27
BRANCH  26  42
ATOM     42  C   UNL     1       2.669  -1.858   1.792  0.00  0.00    +0.000 C 
BRANCH  42  43
ATOM     43  C   UNL     1       2.808  -3.281   1.356  0.00  0.00    +0.000 A 
ATOM     44  C   UNL     1       3.207  -3.642   0.084  0.00  0.00    +0.000 A 
ATOM     45  C   UNL     1       3.803  -4.860  -0.144  0.00  0.00    +0.000 A 
ATOM     46  C   UNL     1       3.668  -5.817   0.846  0.00  0.00    +0.000 A 
ATOM     47  C   UNL     1       2.875  -5.572   1.954  0.00  0.00    +0.000 A 
ATOM     48  C   UNL     1       2.443  -4.286   2.237  0.00  0.00    +0.000 A 
ENDBRANCH  42  43
ENDBRANCH  26  42
ENDBRANCH   1  26
TORSDOF 19
