REMARK  Name = 
REMARK  26 active torsions:
REMARK  status: ('A' for Active; 'I' for Inactive)
REMARK    1  A    between atoms: C_1  and  C_2
REMARK    2  A    between atoms: C_2  and  N_3
REMARK    3  A    between atoms: C_2  and  B_39
REMARK    4  A    between atoms: C_4  and  C_6
REMARK    5  A    between atoms: C_6  and  C_7
REMARK    6  A    between atoms: C_6  and  N_22
REMARK    7  A    between atoms: C_7  and  C_8
REMARK    8  A    between atoms: C_8  and  C_9
REMARK    9  A    between atoms: C_9  and  C_10
REMARK   10  A    between atoms: C_10  and  N_11
REMARK   11  A    between atoms: C_12  and  O_14
REMARK   12  A    between atoms: O_14  and  C_15
REMARK   13  A    between atoms: C_15  and  C_16
REMARK   14  A    between atoms: C_23  and  C_25
REMARK   15  A    between atoms: C_25  and  C_26
REMARK   16  A    between atoms: C_26  and  C_27
REMARK   17  A    between atoms: C_27  and  N_28
REMARK   18  A    between atoms: C_27  and  C_36
REMARK   19  A    between atoms: C_29  and  O_31
REMARK   20  A    between atoms: O_31  and  C_32
REMARK   21  A    between atoms: C_32  and  C_33
REMARK   22  A    between atoms: C_32  and  C_34
REMARK   23  A    between atoms: C_32  and  C_35
REMARK   24  A    between atoms: C_36  and  O_38
REMARK   25  A    between atoms: B_39  and  O_40
REMARK   26  A    between atoms: B_39  and  O_41
REMARK                            x       y       z     vdW  Elec       q    Type
REMARK                         _______ _______ _______ _____ _____    ______ ____
ROOT
ATOM      1  C   UNK A   1      -0.560   1.950   0.701  0.00  0.00    +0.000 C 
ENDROOT
BRANCH   1   3
ATOM      2  N   UNK A   1      -0.532   4.415   0.540  0.00  0.00    +0.000 N 
ATOM      3  C   UNK A   1       0.269   3.274   0.186  0.00  0.00    +0.000 C 
ATOM      4  O   UNK A   1       0.663   3.230  -0.983  0.00  0.00    +0.000 OA
ATOM      5  H   UNK A   1      -1.396   4.396   1.013  0.00  0.00    +0.000 HD
BRANCH   2   7
ATOM      6  C   UNK A   1       0.535   6.199   1.581  0.00  0.00    +0.000 C 
ATOM      7  C   UNK A   1       0.231   5.707   0.030  0.00  0.00    +0.000 C 
BRANCH   7   8
ATOM      8  B   UNK A   1      -1.213   6.663  -0.045  0.00  0.00    +0.000 B 
BRANCH   8   9
ATOM      9  O   UNK A   1      -2.347   6.018  -0.688  0.00  0.00    +0.000 OA
ATOM     10  H   UNK A   1      -2.558   5.194  -0.221  0.00  0.00    +0.000 HD
ENDBRANCH   8   9
BRANCH   8  11
ATOM     11  O   UNK A   1      -0.816   7.931  -0.690  0.00  0.00    +0.000 OA
ATOM     12  H   UNK A   1      -0.058   8.310  -0.218  0.00  0.00    +0.000 HD
ENDBRANCH   8  11
ENDBRANCH   7   8
ENDBRANCH   2   7
ENDBRANCH   1   3
BRANCH   1  13
ATOM     13  N   UNK A   1      -1.508   1.960  -0.597  0.00  0.00    +0.000 N 
ATOM     14  C   UNK A   1      -2.090   0.680  -0.822  0.00  0.00    +0.000 C 
ATOM     15  O   UNK A   1      -1.282  -0.296  -0.832  0.00  0.00    +0.000 OA
ATOM     16  H   UNK A   1      -1.665   2.749  -1.163  0.00  0.00    +0.000 HD
BRANCH  14  17
ATOM     17  C   UNK A   1      -3.371   0.534  -1.561  0.00  0.00    +0.000 C 
BRANCH  17  18
ATOM     18  C   UNK A   1      -4.405  -0.128  -0.655  0.00  0.00    +0.000 C 
BRANCH  18  19
ATOM     19  C   UNK A   1      -3.454  -1.078   0.349  0.00  0.00    +0.000 C 
BRANCH  19  20
ATOM     20  N   UNK A   1      -3.971  -2.437  -0.326  0.00  0.00    +0.000 N 
ATOM     21  C   UNK A   0      -5.340  -2.564  -0.524  0.00  0.00    +0.000 C 
ATOM     22  O   UNK A   0      -6.155  -1.791   0.038  0.00  0.00    +0.000 OA
ATOM     23  H   UNK A   1      -3.345  -3.150  -0.589  0.00  0.00    +0.000 HD
BRANCH  21  24
ATOM     24  O   UNK A   0      -5.830  -3.782  -1.006  0.00  0.00    +0.000 OA
BRANCH  24  25
ATOM     25  C   UNK A   0      -6.986  -4.399  -0.442  0.00  0.00    +0.000 C 
ATOM     26  C   UNK A   0      -7.884  -4.996  -1.494  0.00  0.00    +0.000 C 
ATOM     27  C   UNK A   0      -6.438  -5.530   0.421  0.00  0.00    +0.000 C 
ATOM     28  C   UNK A   0      -7.726  -3.461   0.467  0.00  0.00    +0.000 C 
ENDBRANCH  24  25
ENDBRANCH  21  24
ENDBRANCH  19  20
BRANCH  19  29
ATOM     29  C   UNK A   1      -4.619  -1.110   1.514  0.00  0.00    +0.000 C 
ATOM     30  O   UNK A   1      -4.767   0.033   2.005  0.00  0.00    +0.000 OA
BRANCH  29  31
ATOM     31  O   UNK A   1      -4.368  -2.171   2.388  0.00  0.00    +0.000 OA
ATOM     32  H   UNK A   1      -4.253  -3.038   2.051  0.00  0.00    +0.000 HD
ENDBRANCH  29  31
ENDBRANCH  19  29
ENDBRANCH  18  19
ENDBRANCH  17  18
ENDBRANCH  14  17
ENDBRANCH   1  13
BRANCH   1  33
ATOM     33  C   UNK A   1       0.507   0.881  -0.031  0.00  0.00    +0.000 C 
BRANCH  33  34
ATOM     34  C   UNK A   1       1.855   1.366   0.481  0.00  0.00    +0.000 C 
BRANCH  34  35
ATOM     35  C   UNK A   1       2.903   0.938  -0.503  0.00  0.00    +0.000 C 
BRANCH  35  36
ATOM     36  C   UNK A   1       4.048   1.910  -0.624  0.00  0.00    +0.000 C 
BRANCH  36  37
ATOM     37  N   UNK A   1       5.220   1.410   0.086  0.00  0.00    +0.000 N 
ATOM     38  C   UNK A   1       5.200   0.128   0.696  0.00  0.00    +0.000 C 
ATOM     39  O   UNK A   1       4.237  -0.656   0.439  0.00  0.00    +0.000 OA
ATOM     40  H   UNK A   1       6.031   1.966   0.143  0.00  0.00    +0.000 HD
BRANCH  38  41
ATOM     41  O   UNK A   1       6.276  -0.360   1.438  0.00  0.00    +0.000 OA
BRANCH  41  42
ATOM     42  C   UNK A   1       6.302  -1.756   1.720  0.00  0.00    +0.000 C 
BRANCH  42  43
ATOM     43  C   UNK A   1       7.036  -2.413   0.604  0.00  0.00    +0.000 A 
ATOM     44  C   UNK A   1       8.242  -1.853   0.220  0.00  0.00    +0.000 A 
ATOM     45  C   UNK A   1       9.086  -2.554  -0.593  0.00  0.00    +0.000 A 
ATOM     46  C   UNK A   1       8.843  -3.880  -0.859  0.00  0.00    +0.000 A 
ATOM     47  C   UNK A   1       7.596  -4.392  -0.548  0.00  0.00    +0.000 A 
ATOM     48  C   UNK A   1       6.614  -3.618   0.057  0.00  0.00    +0.000 A 
ENDBRANCH  42  43
ENDBRANCH  41  42
ENDBRANCH  38  41
ENDBRANCH  36  37
ENDBRANCH  35  36
ENDBRANCH  34  35
ENDBRANCH  33  34
ENDBRANCH   1  33
TORSDOF 22
