REMARK  Name = 
REMARK  24 active torsions:
REMARK  status: ('A' for Active; 'I' for Inactive)
REMARK    1  A    between atoms: C_1  and  C_2
REMARK    2  A    between atoms: C_2  and  O_3
REMARK    3  A    between atoms: O_3  and  C_4
REMARK    4  A    between atoms: C_4  and  C_6
REMARK    5  A    between atoms: C_7  and  C_8
REMARK    6  A    between atoms: C_8  and  C_9
REMARK    7  A    between atoms: C_8  and  N_16
REMARK    8  A    between atoms: C_9  and  C_10
REMARK    9  A    between atoms: C_17  and  C_19
REMARK   10  A    between atoms: C_19  and  C_20
REMARK   11  A    between atoms: C_19  and  N_24
REMARK   12  A    between atoms: C_20  and  C_21
REMARK   13  A    between atoms: C_21  and  C_22
REMARK   14  A    between atoms: C_21  and  C_23
REMARK   15  A    between atoms: C_25  and  C_27
REMARK   16  A    between atoms: C_27  and  N_28
REMARK   17  A    between atoms: C_27  and  C_42
REMARK   18  A    between atoms: C_29  and  C_31
REMARK   19  A    between atoms: C_31  and  C_32
REMARK   20  A    between atoms: C_31  and  N_33
REMARK   21  A    between atoms: C_34  and  C_36
REMARK   22  A    between atoms: C_38  and  C_39
REMARK   23  A    between atoms: C_42  and  C_43
REMARK   24  A    between atoms: C_42  and  C_44
REMARK                            x       y       z     vdW  Elec       q    Type
REMARK                         _______ _______ _______ _____ _____    ______ ____
ROOT
ATOM      1  C   UNL     1       1.201  -1.938   0.816  0.00  0.00    +0.000 C 
ENDROOT
BRANCH   1   3
ATOM      2  N   UNL     1       2.883   0.031   0.653  0.00  0.00    +0.000 N 
ATOM      3  C   UNL     1       1.992  -0.793  -0.026  0.00  0.00    +0.000 C 
ATOM      4  O   UNL     1       1.911  -0.731  -1.219  0.00  0.00    +0.000 OA
ATOM      5  H   UNL     1       2.620   0.529   1.461  0.00  0.00    +0.000 HD
BRANCH   2   6
ATOM      6  C   UNL     1       4.358   0.123   0.045  0.00  0.00    +0.000 C 
BRANCH   6   8
ATOM      7  C   UNL     1       5.108   1.962   1.504  0.00  0.00    +0.000 C 
ATOM      8  C   UNL     1       4.444   1.725   0.384  0.00  0.00    +0.000 C 
BRANCH   7   9
ATOM      9  C   UNL     1       6.065   3.067   1.649  0.00  0.00    +0.000 C 
ATOM     10  O   UNL     1       7.101   2.791   2.329  0.00  0.00    +0.000 OA
BRANCH   9  11
ATOM     11  O   UNL     1       6.219   4.027   0.653  0.00  0.00    +0.000 OA
BRANCH  11  13
ATOM     12  C   UNL     1       7.816   4.630  -0.026  0.00  0.00    +0.000 C 
ATOM     13  C   UNL     1       7.497   4.521   0.280  0.00  0.00    +0.000 C 
ENDBRANCH  11  13
ENDBRANCH   9  11
ENDBRANCH   7   9
ENDBRANCH   6   8
BRANCH   6  14
ATOM     14  C   UNL     1       3.822   0.424  -1.499  0.00  0.00    +0.000 C 
BRANCH  14  15
ATOM     15  C   UNL     1       5.109  -0.142  -2.376  0.00  0.00    +0.000 C 
ATOM     16  C   UNL     1       5.246  -1.550  -1.516  0.00  0.00    +0.000 C 
ATOM     17  C   UNL     1       6.719  -1.707  -1.739  0.00  0.00    +0.000 C 
ATOM     18  N   UNL     1       7.209  -0.443  -1.267  0.00  0.00    +0.000 N 
ATOM     19  C   UNL     1       6.221   0.586  -1.441  0.00  0.00    +0.000 C 
ATOM     20  O   UNL     1       6.660   1.721  -1.809  0.00  0.00    +0.000 OA
ATOM     21  H   UNL     1       8.102  -0.300  -0.878  0.00  0.00    +0.000 HD
ENDBRANCH  14  15
ENDBRANCH   6  14
ENDBRANCH   2   6
ENDBRANCH   1   3
BRANCH   1  22
ATOM     22  N   UNL     1       0.108  -2.204  -0.327  0.00  0.00    +0.000 N 
ATOM     23  C   UNL     1      -1.102  -1.471  -0.180  0.00  0.00    +0.000 C 
ATOM     24  O   UNL     1      -1.024  -0.310   0.328  0.00  0.00    +0.000 OA
ATOM     25  H   UNL     1       0.263  -2.827  -1.073  0.00  0.00    +0.000 HD
BRANCH  23  26
ATOM     26  C   UNL     1      -2.317  -2.306   0.540  0.00  0.00    +0.000 C 
BRANCH  26  27
ATOM     27  N   UNL     1      -3.435  -1.404  -0.161  0.00  0.00    +0.000 N 
ATOM     28  C   UNL     1      -3.581  -0.198   0.587  0.00  0.00    +0.000 C 
ATOM     29  O   UNL     1      -3.736  -0.186   1.802  0.00  0.00    +0.000 OA
ATOM     30  H   UNL     1      -3.939  -1.641  -0.972  0.00  0.00    +0.000 HD
BRANCH  28  31
ATOM     31  C   UNL     1      -4.513   0.812  -0.297  0.00  0.00    +0.000 C 
ATOM     32  C   UNL     1      -4.133   2.120   0.667  0.00  0.00    +0.000 C 
BRANCH  31  33
ATOM     33  N   UNL     1      -5.832   0.501   0.552  0.00  0.00    +0.000 N 
ATOM     34  C   UNL     1      -6.984   0.271  -0.268  0.00  0.00    +0.000 C 
ATOM     35  O   UNL     1      -6.840  -0.570  -1.195  0.00  0.00    +0.000 OA
ATOM     36  H   UNL     1      -5.851   0.471   1.536  0.00  0.00    +0.000 HD
BRANCH  34  37
ATOM     37  C   UNL     1      -8.159   1.153  -0.266  0.00  0.00    +0.000 A 
ATOM     38  C   UNL     1      -8.551   2.069  -1.240  0.00  0.00    +0.000 A 
ATOM     39  C   UNL     1      -8.945   3.228  -0.582  0.00  0.00    +0.000 A 
ATOM     40  C   UNL     1      -8.853   4.646  -1.032  0.00  0.00    +0.000 C 
ATOM     41  O   UNL     1      -9.274   2.799   0.625  0.00  0.00    +0.000 OA
ATOM     42  N   UNL     1      -8.765   1.626   0.851  0.00  0.00    +0.000 NA
ENDBRANCH  34  37
ENDBRANCH  31  33
ENDBRANCH  28  31
ENDBRANCH  26  27
BRANCH  26  43
ATOM     43  C   UNL     1      -2.308  -3.470  -0.649  0.00  0.00    +0.000 C 
ATOM     44  C   UNL     1      -2.790  -4.699   0.034  0.00  0.00    +0.000 C 
ATOM     45  C   UNL     1      -2.987  -3.006  -1.830  0.00  0.00    +0.000 C 
ENDBRANCH  26  43
ENDBRANCH  23  26
ENDBRANCH   1  22
BRANCH   1  46
ATOM     46  C   UNL     1       2.198  -3.147   0.243  0.00  0.00    +0.000 C 
BRANCH  46  47
ATOM     47  C   UNL     1       1.363  -4.316  -0.029  0.00  0.00    +0.000 C 
ATOM     48  C   UNL     1       0.836  -5.091   1.114  0.00  0.00    +0.000 C 
ATOM     49  C   UNL     1       2.045  -5.148  -1.088  0.00  0.00    +0.000 C 
ENDBRANCH  46  47
ENDBRANCH   1  46
TORSDOF 17
