REMARK  Name = 
REMARK  18 active torsions:
REMARK  status: ('A' for Active; 'I' for Inactive)
REMARK    1  A    between atoms: C_1  and  C_2
REMARK    2  A    between atoms: C_2  and  C_3
REMARK    3  A    between atoms: C_3  and  C_4
REMARK    4  A    between atoms: C_4  and  N_5
REMARK    5  A    between atoms: C_4  and  C_42
REMARK    6  A    between atoms: C_6  and  C_8
REMARK    7  A    between atoms: C_16  and  C_18
REMARK    8  A    between atoms: C_18  and  N_19
REMARK    9  A    between atoms: C_18  and  C_38
REMARK   10  A    between atoms: C_20  and  C_22
REMARK   11  A    between atoms: C_22  and  N_23
REMARK   12  A    between atoms: C_22  and  C_32
REMARK   13  A    between atoms: C_24  and  C_26
REMARK   14  A    between atoms: C_38  and  C_39
REMARK   15  A    between atoms: C_38  and  C_40
REMARK   16  A    between atoms: C_38  and  C_41
REMARK   17  A    between atoms: C_42  and  C_44
REMARK   18  A    between atoms: N_46  and  C_47
REMARK                            x       y       z     vdW  Elec       q    Type
REMARK                         _______ _______ _______ _____ _____    ______ ____
ROOT
ATOM      1  C   UNL     1       2.651  -1.578   0.943  0.00  0.00    +0.000 C 
ATOM      2  C   UNL     1       2.035  -1.613  -0.632  0.00  0.00    +0.000 C 
ATOM      3  C   UNL     1       3.415  -2.062  -1.298  0.00  0.00    +0.000 C 
ATOM      4  C   UNL     1       3.491  -3.513  -1.195  0.00  0.00    +0.000 C 
ATOM      5  C   UNL     1       2.936  -3.696   0.202  0.00  0.00    +0.000 C 
ATOM      6  C   UNL     1       1.475  -3.155  -0.257  0.00  0.00    +0.000 C 
ATOM      7  C   UNL     1       1.059  -2.832   1.275  0.00  0.00    +0.000 C 
ATOM      8  N   UNL     1       1.162  -1.374   1.384  0.00  0.00    +0.000 N 
ATOM      9  C   UNL     1       0.165  -0.596   0.834  0.00  0.00    +0.000 C 
ATOM     10  O   UNL     1       0.089   0.605   0.985  0.00  0.00    +0.000 OA
ENDROOT
BRANCH   1  12
ATOM     11  N   UNL     1       4.474  -0.309   0.412  0.00  0.00    +0.000 N 
ATOM     12  C   UNL     1       3.128  -0.032   0.831  0.00  0.00    +0.000 C 
ATOM     13  O   UNL     1       2.947   0.655   1.849  0.00  0.00    +0.000 OA
ATOM     14  H   UNL     1       4.660  -1.060  -0.196  0.00  0.00    +0.000 HD
BRANCH  11  15
ATOM     15  C   UNL     1       5.647   0.597   0.933  0.00  0.00    +0.000 C 
BRANCH  15  16
ATOM     16  C   UNL     1       6.692  -0.136  -0.069  0.00  0.00    +0.000 C 
ATOM     17  O   UNL     1       6.883  -1.348   0.058  0.00  0.00    +0.000 OA
BRANCH  16  18
ATOM     18  C   UNL     1       6.452   0.271  -1.464  0.00  0.00    +0.000 C 
ATOM     19  O   UNL     1       5.966  -0.534  -2.318  0.00  0.00    +0.000 OA
ATOM     20  N   UNL     1       6.258   1.649  -1.767  0.00  0.00    +0.000 N 
ATOM     21  H   UNL     1       5.828   2.272  -1.138  0.00  0.00    +0.000 HD
BRANCH  20  22
ATOM     22  C   UNL     1       6.742   2.072  -3.075  0.00  0.00    +0.000 C 
ATOM     23  C   UNL     1       6.829   3.495  -3.431  0.00  0.00    +0.000 C 
ATOM     24  C   UNL     1       8.128   2.758  -3.003  0.00  0.00    +0.000 C 
ENDBRANCH  20  22
ENDBRANCH  16  18
ENDBRANCH  15  16
BRANCH  15  25
ATOM     25  C   UNL     1       6.025  -0.402   2.194  0.00  0.00    +0.000 C 
BRANCH  25  27
ATOM     26  C   UNL     1       6.096  -0.153   4.676  0.00  0.00    +0.000 C 
ATOM     27  C   UNL     1       5.534   0.313   3.396  0.00  0.00    +0.000 C 
ENDBRANCH  25  27
ENDBRANCH  15  25
ENDBRANCH  11  15
ENDBRANCH   1  12
BRANCH   9  28
ATOM     28  C   UNL     1      -1.202  -1.481   0.675  0.00  0.00    +0.000 C 
BRANCH  28  29
ATOM     29  N   UNL     1      -2.163  -0.344   1.023  0.00  0.00    +0.000 N 
ATOM     30  C   UNL     1      -3.417  -0.226   0.458  0.00  0.00    +0.000 C 
ATOM     31  O   UNL     1      -3.321   0.559   1.379  0.00  0.00    +0.000 OA
ATOM     32  H   UNL     1      -1.876   0.332   1.678  0.00  0.00    +0.000 HD
BRANCH  30  33
ATOM     33  C   UNL     1      -4.768  -0.912   1.041  0.00  0.00    +0.000 C 
BRANCH  33  34
ATOM     34  C   UNL     1      -5.203  -1.258  -0.506  0.00  0.00    +0.000 C 
ATOM     35  C   UNL     1      -6.564  -1.718  -0.571  0.00  0.00    +0.000 C 
ATOM     36  C   UNL     1      -6.943  -1.536  -2.038  0.00  0.00    +0.000 C 
ATOM     37  C   UNL     1      -5.761  -1.501  -2.959  0.00  0.00    +0.000 C 
ATOM     38  C   UNL     1      -4.851  -0.302  -2.713  0.00  0.00    +0.000 C 
ATOM     39  C   UNL     1      -5.088   0.055  -1.279  0.00  0.00    +0.000 C 
ENDBRANCH  33  34
BRANCH  33  40
ATOM     40  N   UNL     1      -5.699   0.370   1.043  0.00  0.00    +0.000 N 
ATOM     41  C   UNL     1      -5.514   1.355   2.005  0.00  0.00    +0.000 C 
ATOM     42  O   UNL     1      -5.065   1.040   3.144  0.00  0.00    +0.000 OA
ATOM     43  H   UNL     1      -6.405   0.469   0.364  0.00  0.00    +0.000 HD
BRANCH  41  44
ATOM     44  C   UNL     1      -5.710   2.763   1.605  0.00  0.00    +0.000 A 
ATOM     45  C   UNL     1      -6.886   3.133   0.957  0.00  0.00    +0.000 A 
ATOM     46  N   UNL     1      -6.923   4.192   0.109  0.00  0.00    +0.000 NA
ATOM     47  C   UNL     1      -5.826   4.319  -0.681  0.00  0.00    +0.000 A 
ATOM     48  C   UNL     1      -4.624   4.142  -0.005  0.00  0.00    +0.000 A 
ATOM     49  N   UNL     1      -4.612   3.381   1.096  0.00  0.00    +0.000 NA
ENDBRANCH  41  44
ENDBRANCH  33  40
ENDBRANCH  30  33
ENDBRANCH  28  29
BRANCH  28  50
ATOM     50  C   UNL     1      -1.238  -1.124  -0.921  0.00  0.00    +0.000 C 
ATOM     51  C   UNL     1      -1.785  -1.870  -1.450  0.00  0.00    +0.000 C 
ATOM     52  C   UNL     1      -1.288   0.203  -1.242  0.00  0.00    +0.000 C 
ATOM     53  C   UNL     1      -1.829  -2.322  -1.633  0.00  0.00    +0.000 C 
ENDBRANCH  28  50
ENDBRANCH   9  28
TORSDOF 14
