REMARK  Name = 
REMARK  29 active torsions:
REMARK  status: ('A' for Active; 'I' for Inactive)
REMARK    1  A    between atoms: CD1_1  and  CG_2
REMARK    2  A    between atoms: CG_2  and  CD2_3
REMARK    3  A    between atoms: CG_2  and  CB_4
REMARK    4  A    between atoms: CB_4  and  CA_5
REMARK    5  A    between atoms: CA_5  and  N_6
REMARK    6  A    between atoms: CA_5  and  C_22
REMARK    7  A    between atoms: C_7  and  CA_9
REMARK    8  A    between atoms: CA_9  and  N_10
REMARK    9  A    between atoms: CA_9  and  CB_19
REMARK   10  A    between atoms: C_11  and  CA_13
REMARK   11  A    between atoms: CA_13  and  N_14
REMARK   12  A    between atoms: C_15  and  CA_17
REMARK   13  A    between atoms: CA_17  and  N_18
REMARK   14  A    between atoms: CB_19  and  CG1_20
REMARK   15  A    between atoms: CB_19  and  CG2_21
REMARK   16  A    between atoms: N_24  and  CA_25
REMARK   17  A    between atoms: CA_25  and  C_26
REMARK   18  A    between atoms: CA_25  and  CB_49
REMARK   19  A    between atoms: N_28  and  CA_29
REMARK   20  A    between atoms: CA_29  and  CB_30
REMARK   21  A    between atoms: CA_29  and  C_35
REMARK   22  A    between atoms: CB_30  and  CG_31
REMARK   23  A    between atoms: CG_31  and  CD_32
REMARK   24  A    between atoms: CA_41  and  C_42
REMARK   25  A    between atoms: N_44  and  CA_45
REMARK   26  A    between atoms: CA_45  and  C_46
REMARK   27  A    between atoms: C_46  and  OXT_48
REMARK   28  A    between atoms: CB_49  and  CG1_50
REMARK   29  A    between atoms: CB_49  and  CG2_51
REMARK                            x       y       z     vdW  Elec       q    Type
REMARK                         _______ _______ _______ _____ _____    ______ ____
ROOT
ATOM      1  CA  VAL A   5       0.027   0.476   1.405  0.00  0.00    +0.000 C 
ENDROOT
BRANCH   1   4
ATOM      2  C   LEU A   4       2.171  -0.289   0.230  0.00  0.00    +0.000 C 
ATOM      3  O   LEU A   4       2.740  -0.214   1.317  0.00  0.00    +0.000 OA
ATOM      4  N   VAL A   5       0.786  -0.193   0.198  0.00  0.00    +0.000 N 
ATOM      5  H   VAL A   5       0.283  -0.540  -0.574  0.00  0.00    +0.000 HD
BRANCH   2   6
ATOM      6  CA  LEU A   4       2.553  -1.536  -0.729  0.00  0.00    +0.000 C 
BRANCH   6   7
ATOM      7  N   LEU A   4       4.066  -1.572  -0.341  0.00  0.00    +0.000 N 
ATOM      8  C   VAL A   3       4.868  -0.476  -0.356  0.00  0.00    +0.000 C 
ATOM      9  O   VAL A   3       4.550   0.377  -1.250  0.00  0.00    +0.000 OA
ATOM     10  H   LEU A   4       4.459  -2.433  -0.071  0.00  0.00    +0.000 HD
BRANCH   8  11
ATOM     11  CA  VAL A   3       6.448  -0.762  -0.568  0.00  0.00    +0.000 C 
BRANCH  11  12
ATOM     12  N   VAL A   3       6.871  -0.289   0.873  0.00  0.00    +0.000 N 
ATOM     13  C   GLY A   2       6.400   1.001   1.168  0.00  0.00    +0.000 C 
ATOM     14  O   GLY A   2       5.184   0.903   1.447  0.00  0.00    +0.000 OA
ATOM     15  H   VAL A   3       7.404  -0.834   1.495  0.00  0.00    +0.000 HD
BRANCH  13  16
ATOM     16  CA  GLY A   2       7.148   2.077   1.839  0.00  0.00    +0.000 C 
BRANCH  16  17
ATOM     17  N   GLY A   2       8.375   2.420   1.187  0.00  0.00    +0.000 N 
ATOM     18  C   GLY A   1       8.415   3.328   0.088  0.00  0.00    +0.000 C 
ATOM     19  O   GLY A   1       7.324   3.720  -0.416  0.00  0.00    +0.000 OA
ATOM     20  H   GLY A   2       9.215   2.017   1.506  0.00  0.00    +0.000 HD
BRANCH  18  21
ATOM     21  CA  GLY A   1       9.703   3.540  -0.609  0.00  0.00    +0.000 C 
BRANCH  21  22
ATOM     22  N   GLY A   1      10.404   2.269  -0.743  0.00  0.00    +0.000 NA
ATOM     23  H1  GLY A   1      10.582   1.879   0.183  0.00  0.00    +0.000 HD
ATOM     24  H2  GLY A   1      11.291   2.418  -1.225  0.00  0.00    +0.000 HD
ENDBRANCH  21  22
ENDBRANCH  18  21
ENDBRANCH  16  17
ENDBRANCH  13  16
ENDBRANCH  11  12
BRANCH  11  25
ATOM     25  CB  VAL A   3       6.397  -2.339  -0.094  0.00  0.00    +0.000 C 
ATOM     26  CG1 VAL A   3       7.572  -2.644   0.724  0.00  0.00    +0.000 C 
ATOM     27  CG2 VAL A   3       6.258  -3.140  -1.363  0.00  0.00    +0.000 C 
ENDBRANCH  11  25
ENDBRANCH   8  11
ENDBRANCH   6   7
BRANCH   6  28
ATOM     28  CB  LEU A   4       2.276  -2.607   0.490  0.00  0.00    +0.000 C 
BRANCH  28  30
ATOM     29  CD1 LEU A   4       1.366  -3.580   0.292  0.00  0.00    +0.000 C 
ATOM     30  CG  LEU A   4       1.248  -3.566   0.030  0.00  0.00    +0.000 C 
ATOM     31  CD2 LEU A   4       1.758  -4.788  -0.693  0.00  0.00    +0.000 C 
ENDBRANCH  28  30
ENDBRANCH   6  28
ENDBRANCH   2   6
ENDBRANCH   1   4
BRANCH   1  32
ATOM     32  C   VAL A   5      -1.407  -0.106   0.939  0.00  0.00    +0.000 C 
ATOM     33  O   VAL A   5      -1.764  -1.120   1.573  0.00  0.00    +0.000 OA
ATOM     34  N   GLN A   6      -1.629  -0.138  -0.406  0.00  0.00    +0.000 N 
ATOM     35  H   GLN A   6      -0.940   0.224  -1.008  0.00  0.00    +0.000 HD
BRANCH  34  36
ATOM     36  CA  GLN A   6      -2.936  -0.727  -1.028  0.00  0.00    +0.000 C 
BRANCH  36  37
ATOM     37  C   GLN A   6      -3.802   0.549  -0.532  0.00  0.00    +0.000 C 
ATOM     38  O   GLN A   6      -3.443   1.469  -1.336  0.00  0.00    +0.000 OA
ATOM     39  N   PRO A   7      -5.178   0.322  -0.353  0.00  0.00    +0.000 N 
ATOM     40  CD  PRO A   7      -5.887  -0.615   0.442  0.00  0.00    +0.000 C 
ATOM     41  CG  PRO A   7      -6.957  -1.136  -0.483  0.00  0.00    +0.000 C 
ATOM     42  CB  PRO A   7      -6.863  -0.366  -1.759  0.00  0.00    +0.000 C 
ATOM     43  CA  PRO A   7      -6.259   1.068  -1.226  0.00  0.00    +0.000 C 
BRANCH  43  44
ATOM     44  C   PRO A   7      -7.327   1.164  -0.016  0.00  0.00    +0.000 C 
ATOM     45  O   PRO A   7      -6.892   1.760   0.997  0.00  0.00    +0.000 OA
ATOM     46  N   GLY A   8      -8.664   1.356  -0.471  0.00  0.00    +0.000 N 
ATOM     47  H   GLY A   8      -8.979   0.864  -1.264  0.00  0.00    +0.000 HD
BRANCH  46  48
ATOM     48  CA  GLY A   8      -9.566   2.256   0.205  0.00  0.00    +0.000 C 
BRANCH  48  49
ATOM     49  C   GLY A   8      -8.982   3.614   0.393  0.00  0.00    +0.000 C 
ATOM     50  O   GLY A   8      -9.662   4.406   1.111  0.00  0.00    +0.000 OA
BRANCH  49  51
ATOM     51  OXT GLY A   8      -7.951   4.105  -0.409  0.00  0.00    +0.000 OA
ATOM     52  HXT GLY A   8      -7.449   3.518  -0.939  0.00  0.00    +0.000 HD
ENDBRANCH  49  51
ENDBRANCH  48  49
ENDBRANCH  46  48
ENDBRANCH  43  44
ENDBRANCH  36  37
BRANCH  36  53
ATOM     53  CB  GLN A   6      -3.348  -1.662   0.266  0.00  0.00    +0.000 C 
BRANCH  53  54
ATOM     54  CG  GLN A   6      -3.069  -3.014  -0.394  0.00  0.00    +0.000 C 
BRANCH  54  55
ATOM     55  CD  GLN A   6      -4.221  -3.920  -0.385  0.00  0.00    +0.000 C 
ATOM     56  NE2 GLN A   6      -5.301  -3.608   0.502  0.00  0.00    +0.000 N 
ATOM     57  OE1 GLN A   6      -4.438  -4.670  -1.375  0.00  0.00    +0.000 OA
ATOM     58 HE21 GLN A   6      -5.146  -3.024   1.280  0.00  0.00    +0.000 HD
ATOM     59 HE22 GLN A   6      -6.198  -3.977   0.335  0.00  0.00    +0.000 HD
ENDBRANCH  54  55
ENDBRANCH  53  54
ENDBRANCH  36  53
ENDBRANCH  34  36
ENDBRANCH   1  32
BRANCH   1  60
ATOM     60  CB  VAL A   5      -0.224   1.904   0.629  0.00  0.00    +0.000 C 
ATOM     61  CG1 VAL A   5       0.855   2.146  -0.336  0.00  0.00    +0.000 C 
ATOM     62  CG2 VAL A   5       0.006   2.847   1.810  0.00  0.00    +0.000 C 
ENDBRANCH   1  60
TORSDOF 23
