REMARK  Name = 9837656
REMARK  8 active torsions:
REMARK  status: ('A' for Active; 'I' for Inactive)
REMARK    1  A    between atoms: O_3  and  C_14
REMARK    2  A    between atoms: C_6  and  C_14
REMARK    3  A    between atoms: C_10  and  C_12
REMARK    4  A    between atoms: C_10  and  C_13
REMARK    5  A    between atoms: C_10  and  C_15
REMARK    6  A    between atoms: C_10  and  C_16
REMARK    7  A    between atoms: C_11  and  C_12
REMARK    8  A    between atoms: C_13  and  C_17
REMARK                            x       y       z     vdW  Elec       q    Type
REMARK                         _______ _______ _______ _____ _____    ______ ____
ROOT
ATOM      1  O   UNL     1       0.341  -1.596   0.370  0.00  0.00    +0.000 OA
ATOM      2  N   UNL     1      -0.920   0.351   0.052  0.00  0.00    +0.000 N 
ATOM      3  C   UNL     1      -2.133  -0.061   0.744  0.00  0.00    +0.000 C 
ATOM      4  C   UNL     1      -2.912   1.231   0.960  0.00  0.00    +0.000 C 
ATOM      5  C   UNL     1      -2.475   2.110  -0.210  0.00  0.00    +0.000 C 
ATOM      6  C   UNL     1      -1.014   1.735  -0.405  0.00  0.00    +0.000 C 
ATOM      7  C   UNL     1       0.210  -0.437   0.002  0.00  0.00    +0.000 C 
ENDROOT
BRANCH   7   9
ATOM      8  O   UNL     1       1.301   0.609  -1.731  0.00  0.00    +0.000 OA
ATOM      9  C   UNL     1       1.409   0.215  -0.577  0.00  0.00    +0.000 C 
BRANCH   9  10
ATOM     10  C   UNL     1       2.651   0.371   0.304  0.00  0.00    +0.000 C 
ATOM     11  C   UNL     1       3.744   1.105  -0.495  0.00  0.00    +0.000 C 
ATOM     12  C   UNL     1       2.277   1.246   1.514  0.00  0.00    +0.000 C 
BRANCH  10  13
ATOM     13  C   UNL     1       3.169  -0.999   0.805  0.00  0.00    +0.000 C 
ATOM     14  C   UNL     1       3.624  -1.956  -0.292  0.00  0.00    +0.000 C 
ENDBRANCH  10  13
ENDBRANCH   9  10
ENDBRANCH   7   9
BRANCH   3  16
ATOM     15  O   UNL     1      -2.828  -0.990  -1.394  0.00  0.00    +0.000 OA
ATOM     16  C   UNL     1      -2.858  -1.006  -0.166  0.00  0.00    +0.000 C 
BRANCH  16  17
ATOM     17  O   UNL     1      -3.588  -1.928   0.521  0.00  0.00    +0.000 OA
ATOM     18  H   UNL     1      -4.059  -2.542  -0.081  0.00  0.00    +0.000 HD
ENDBRANCH  16  17
ENDBRANCH   3  16
TORSDOF 5
