REMARK  Name = 44141860
REMARK  7 active torsions:
REMARK  status: ('A' for Active; 'I' for Inactive)
REMARK    1  A    between atoms: N_4  and  C_8
REMARK    2  A    between atoms: N_4  and  C_18
REMARK    3  A    between atoms: N_5  and  C_21
REMARK    4  A    between atoms: C_11  and  C_20
REMARK    5  A    between atoms: C_18  and  C_19
REMARK    6  A    between atoms: C_21  and  C_22
REMARK    7  A    between atoms: C_27  and  C_28
REMARK                            x       y       z     vdW  Elec       q    Type
REMARK                         _______ _______ _______ _____ _____    ______ ____
ROOT
ATOM      1  O   UNL     1      -2.573  -1.585  -1.136  0.00  0.00    +0.000 OA
ATOM      2  N   UNL     1      -1.853  -2.193   0.993  0.00  0.00    +0.000 N 
ATOM      3  C   UNL     1      -2.577  -1.440   0.084  0.00  0.00    +0.000 C 
ATOM      4  H   UNL     1      -1.931  -1.985   1.984  0.00  0.00    +0.000 HD
ENDROOT
BRANCH   3   7
ATOM      5  O   UNL     1      -2.978   2.719  -1.138  0.00  0.00    +0.000 OA
ATOM      6  N   UNL     1      -3.598   0.710  -0.179  0.00  0.00    +0.000 N 
ATOM      7  C   UNL     1      -3.423  -0.400   0.754  0.00  0.00    +0.000 C 
ATOM      8  C   UNL     1      -4.836  -0.924   0.993  0.00  0.00    +0.000 C 
ATOM      9  C   UNL     1      -4.945   0.719  -0.736  0.00  0.00    +0.000 C 
ATOM     10  C   UNL     1      -5.557  -0.607  -0.315  0.00  0.00    +0.000 C 
ATOM     11  C   UNL     1      -2.709   1.741  -0.438  0.00  0.00    +0.000 C 
BRANCH  11  12
ATOM     12  C   UNL     1      -1.346   1.616   0.196  0.00  0.00    +0.000 C 
BRANCH  12  13
ATOM     13  N   UNL     1      -0.606   2.794  -0.201  0.00  0.00    +0.000 NA
ATOM     14  H   UNL     1      -1.098   3.622   0.137  0.00  0.00    +0.000 HD
BRANCH  13  15
ATOM     15  C   UNL     1       0.748   2.781   0.351  0.00  0.00    +0.000 C 
ATOM     16  C   UNL     1       1.641   1.855  -0.483  0.00  0.00    +0.000 C 
ATOM     17  C   UNL     1       1.310   4.206   0.386  0.00  0.00    +0.000 C 
ATOM     18  C   UNL     1       3.084   1.875   0.017  0.00  0.00    +0.000 C 
ATOM     19  C   UNL     1       2.753   4.223   0.886  0.00  0.00    +0.000 C 
ATOM     20  C   UNL     1       3.644   3.295   0.066  0.00  0.00    +0.000 C 
ENDBRANCH  13  15
ENDBRANCH  12  13
ENDBRANCH  11  12
ENDBRANCH   3   7
BRANCH   2  21
ATOM     21  C   UNL     1      -0.978  -3.275   0.604  0.00  0.00    +0.000 C 
BRANCH  21  22
ATOM     22  C   UNL     1       0.423  -2.800   0.350  0.00  0.00    +0.000 A 
ATOM     23  C   UNL     1       1.006  -2.986  -0.904  0.00  0.00    +0.000 A 
ATOM     24  C   UNL     1       1.143  -2.174   1.367  0.00  0.00    +0.000 A 
ATOM     25  C   UNL     1       2.308  -2.545  -1.141  0.00  0.00    +0.000 A 
ATOM     26  C   UNL     1       2.446  -1.734   1.131  0.00  0.00    +0.000 A 
ATOM     27  C   UNL     1       3.028  -1.919  -0.123  0.00  0.00    +0.000 A 
BRANCH  27  30
ATOM     28  N   UNL     1       4.994  -1.628  -1.611  0.00  0.00    +0.000 N 
ATOM     29  N   UNL     1       5.066  -0.869   0.598  0.00  0.00    +0.000 NA
ATOM     30  C   UNL     1       4.385  -1.458  -0.369  0.00  0.00    +0.000 C 
ATOM     31  H   UNL     1       4.545  -2.067  -2.405  0.00  0.00    +0.000 HD
ATOM     32  H   UNL     1       5.942  -1.300  -1.763  0.00  0.00    +0.000 HD
ATOM     33  H   UNL     1       5.992  -0.620   0.234  0.00  0.00    +0.000 HD
ENDBRANCH  27  30
ENDBRANCH  21  22
ENDBRANCH   2  21
TORSDOF 7
