REMARK  Name = 25220914
REMARK  10 active torsions:
REMARK  status: ('A' for Active; 'I' for Inactive)
REMARK    1  A    between atoms: N_4  and  C_19
REMARK    2  A    between atoms: N_5  and  C_13
REMARK    3  A    between atoms: C_8  and  C_14
REMARK    4  A    between atoms: C_12  and  C_13
REMARK    5  A    between atoms: C_13  and  C_15
REMARK    6  A    between atoms: C_15  and  C_16
REMARK    7  A    between atoms: C_16  and  C_17
REMARK    8  A    between atoms: C_16  and  C_18
REMARK    9  A    between atoms: C_19  and  C_20
REMARK   10  A    between atoms: C_25  and  C_26
REMARK                            x       y       z     vdW  Elec       q    Type
REMARK                         _______ _______ _______ _____ _____    ______ ____
ROOT
ATOM      1  O   UNL     1       0.125   0.081  -1.272  0.00  0.00    +0.000 OA
ATOM      2  N   UNL     1      -0.595  -1.291   0.466  0.00  0.00    +0.000 N 
ATOM      3  C   UNL     1       0.190  -0.305  -0.108  0.00  0.00    +0.000 C 
ATOM      4  H   UNL     1      -0.476  -1.511   1.450  0.00  0.00    +0.000 HD
ENDROOT
BRANCH   3   7
ATOM      5  O   UNL     1       3.238  -1.354  -0.220  0.00  0.00    +0.000 OA
ATOM      6  N   UNL     1       2.314   0.742   0.112  0.00  0.00    +0.000 N 
ATOM      7  C   UNL     1       1.154   0.294   0.871  0.00  0.00    +0.000 C 
ATOM      8  C   UNL     1       0.598   1.561   1.511  0.00  0.00    +0.000 C 
ATOM      9  C   UNL     1       0.996   2.659   0.528  0.00  0.00    +0.000 C 
ATOM     10  C   UNL     1       2.355   2.199   0.022  0.00  0.00    +0.000 C 
ATOM     11  C   UNL     1       3.307  -0.128  -0.312  0.00  0.00    +0.000 C 
BRANCH  11  12
ATOM     12  C   UNL     1       4.521   0.523  -0.928  0.00  0.00    +0.000 C 
BRANCH  12  13
ATOM     13  N   UNL     1       4.196   0.693  -2.338  0.00  0.00    +0.000 NA
ATOM     14  H   UNL     1       4.986   1.113  -2.825  0.00  0.00    +0.000 HD
ATOM     15  H   UNL     1       3.415   1.334  -2.457  0.00  0.00    +0.000 HD
ENDBRANCH  12  13
BRANCH  12  16
ATOM     16  C   UNL     1       5.755  -0.366  -0.771  0.00  0.00    +0.000 C 
BRANCH  16  17
ATOM     17  C   UNL     1       6.172  -0.644   0.689  0.00  0.00    +0.000 C 
ATOM     18  C   UNL     1       6.491   0.678   1.394  0.00  0.00    +0.000 C 
ATOM     19  C   UNL     1       7.376  -1.581   0.785  0.00  0.00    +0.000 C 
ENDBRANCH  16  17
ENDBRANCH  12  16
ENDBRANCH  11  12
ENDBRANCH   3   7
BRANCH   2  20
ATOM     20  C   UNL     1      -1.618  -2.008  -0.260  0.00  0.00    +0.000 C 
BRANCH  20  21
ATOM     21  C   UNL     1      -2.953  -1.326  -0.171  0.00  0.00    +0.000 A 
ATOM     22  C   UNL     1      -3.700  -1.406   1.004  0.00  0.00    +0.000 A 
ATOM     23  C   UNL     1      -3.446  -0.613  -1.264  0.00  0.00    +0.000 A 
ATOM     24  C   UNL     1      -4.940  -0.774   1.087  0.00  0.00    +0.000 A 
ATOM     25  C   UNL     1      -4.686   0.020  -1.181  0.00  0.00    +0.000 A 
ATOM     26  C   UNL     1      -5.433  -0.061  -0.006  0.00  0.00    +0.000 A 
BRANCH  26  29
ATOM     27  N   UNL     1      -7.496   0.537   1.241  0.00  0.00    +0.000 N 
ATOM     28  N   UNL     1      -7.194   1.270  -0.957  0.00  0.00    +0.000 NA
ATOM     29  C   UNL     1      -6.727   0.599   0.080  0.00  0.00    +0.000 C 
ATOM     30  H   UNL     1      -7.215   0.045   2.079  0.00  0.00    +0.000 HD
ATOM     31  H   UNL     1      -8.397   1.003   1.281  0.00  0.00    +0.000 HD
ATOM     32  H   UNL     1      -8.109   1.658  -0.705  0.00  0.00    +0.000 HD
ENDBRANCH  26  29
ENDBRANCH  20  21
ENDBRANCH   2  20
TORSDOF 8
