REMARK  Name = 118092367
REMARK  7 active torsions:
REMARK  status: ('A' for Active; 'I' for Inactive)
REMARK    1  A    between atoms: S_1  and  N_9
REMARK    2  A    between atoms: S_1  and  C_28
REMARK    3  A    between atoms: N_10  and  C_29
REMARK    4  A    between atoms: N_14  and  C_41
REMARK    5  A    between atoms: C_16  and  C_25
REMARK    6  A    between atoms: C_25  and  C_27
REMARK    7  A    between atoms: C_34  and  C_39
REMARK                            x       y       z     vdW  Elec       q    Type
REMARK                         _______ _______ _______ _____ _____    ______ ____
ROOT
ATOM      1  N   UNL     1      -2.544  -1.047  -0.905  0.00  0.00    +0.000 NA
ATOM      2  N   UNL     1       3.657  -0.511   0.955  0.00  0.00    +0.000 N 
ATOM      3  N   UNL     1       3.885   0.391   1.930  0.00  0.00    +0.000 NA
ATOM      4  C   UNL     1      -0.435  -0.217   0.129  0.00  0.00    +0.000 C 
ATOM      5  C   UNL     1       0.226  -1.598  -0.204  0.00  0.00    +0.000 C 
ATOM      6  C   UNL     1      -1.955  -0.403   0.311  0.00  0.00    +0.000 C 
ATOM      7  C   UNL     1       0.179   0.399   1.425  0.00  0.00    +0.000 C 
ATOM      8  C   UNL     1      -0.458  -2.272  -1.401  0.00  0.00    +0.000 C 
ATOM      9  C   UNL     1       1.763  -1.525  -0.400  0.00  0.00    +0.000 C 
ATOM     10  C   UNL     1      -1.962  -2.393  -1.175  0.00  0.00    +0.000 C 
ATOM     11  C   UNL     1       1.658   0.237   1.451  0.00  0.00    +0.000 A 
ATOM     12  C   UNL     1       2.340  -0.638   0.638  0.00  0.00    +0.000 A 
ATOM     13  C   UNL     1       2.662   0.843   2.228  0.00  0.00    +0.000 A 
ENDROOT
BRANCH   2  15
ATOM     14  F   UNL     1       7.888  -3.219  -1.340  0.00  0.00    +0.000 F 
ATOM     15  C   UNL     1       4.725  -1.194   0.376  0.00  0.00    +0.000 A 
ATOM     16  C   UNL     1       4.651  -1.604  -0.955  0.00  0.00    +0.000 A 
ATOM     17  C   UNL     1       5.868  -1.469   1.127  0.00  0.00    +0.000 A 
ATOM     18  C   UNL     1       5.720  -2.288  -1.535  0.00  0.00    +0.000 A 
ATOM     19  C   UNL     1       6.936  -2.153   0.548  0.00  0.00    +0.000 A 
ATOM     20  C   UNL     1       6.862  -2.562  -0.783  0.00  0.00    +0.000 A 
ENDBRANCH   2  15
BRANCH   1  21
ATOM     21  S   UNL     1      -4.251  -0.951  -1.028  0.00  0.00    +0.000 S 
ATOM     22  O   UNL     1      -4.661  -1.474  -2.313  0.00  0.00    +0.000 OA
ATOM     23  O   UNL     1      -4.680   0.357  -0.582  0.00  0.00    +0.000 OA
BRANCH  21  27
ATOM     24  N   UNL     1      -4.895  -3.422  -0.058  0.00  0.00    +0.000 NA
ATOM     25  N   UNL     1      -5.226  -3.886   1.159  0.00  0.00    +0.000 N 
ATOM     26  N   UNL     1      -5.277  -3.019   2.183  0.00  0.00    +0.000 NA
ATOM     27  C   UNL     1      -4.714  -2.125   0.206  0.00  0.00    +0.000 A 
ATOM     28  C   UNL     1      -4.947  -1.880   1.567  0.00  0.00    +0.000 A 
ATOM     29  C   UNL     1      -5.520  -5.284   1.360  0.00  0.00    +0.000 C 
ENDBRANCH  21  27
ENDBRANCH   1  21
BRANCH   4  31
ATOM     30  O   UNL     1       0.419   0.501  -1.987  0.00  0.00    +0.000 OA
ATOM     31  C   UNL     1      -0.231   0.791  -0.986  0.00  0.00    +0.000 C 
BRANCH  31  33
ATOM     32  N   UNL     1      -2.086   2.283  -1.348  0.00  0.00    +0.000 NA
ATOM     33  C   UNL     1      -0.834   2.147  -0.855  0.00  0.00    +0.000 A 
ATOM     34  C   UNL     1      -0.120   3.174  -0.258  0.00  0.00    +0.000 A 
ATOM     35  C   UNL     1      -0.730   4.420  -0.161  0.00  0.00    +0.000 A 
ATOM     36  C   UNL     1      -2.646   3.508  -1.236  0.00  0.00    +0.000 A 
ATOM     37  C   UNL     1      -2.017   4.599  -0.657  0.00  0.00    +0.000 A 
BRANCH  35  41
ATOM     38  F   UNL     1      -0.746   6.708   0.485  0.00  0.00    +0.000 F 
ATOM     39  F   UNL     1       0.341   5.334   1.773  0.00  0.00    +0.000 F 
ATOM     40  F   UNL     1       1.161   5.885  -0.158  0.00  0.00    +0.000 F 
ATOM     41  C   UNL     1      -0.007   5.560   0.471  0.00  0.00    +0.000 C 
ENDBRANCH  35  41
ENDBRANCH  31  33
ENDBRANCH   4  31
TORSDOF 6
