REMARK  Name = 
REMARK  15 active torsions:
REMARK  status: ('A' for Active; 'I' for Inactive)
REMARK    1  A    between atoms: C_1  and  C_2
REMARK    2  A    between atoms: N_4  and  C_5
REMARK    3  A    between atoms: C_5  and  C_6
REMARK    4  A    between atoms: C_5  and  C_13
REMARK    5  A    between atoms: C_6  and  C_7
REMARK    6  A    between atoms: C_19  and  C_20
REMARK    7  A    between atoms: N_22  and  C_23
REMARK    8  A    between atoms: C_23  and  C_24
REMARK    9  A    between atoms: C_23  and  B_29
REMARK   10  A    between atoms: C_24  and  C_25
REMARK   11  A    between atoms: C_25  and  C_26
REMARK   12  A    between atoms: C_26  and  C_27
REMARK   13  A    between atoms: C_27  and  N_28
REMARK   14  A    between atoms: B_29  and  O_30
REMARK   15  A    between atoms: B_29  and  O_31
REMARK                            x       y       z     vdW  Elec       q    Type
REMARK                         _______ _______ _______ _____ _____    ______ ____
ROOT
ATOM      1  C   UNL     1       1.061   0.097  -0.555  0.00  0.00    +0.000 C 
ATOM      2  O   UNL     1       0.377   1.102  -0.796  0.00  0.00    +0.000 OA
ATOM      3  N   UNL     1       0.610  -1.176  -0.456  0.00  0.00    +0.000 N 
ATOM      4  C   UNL     1       1.254  -2.444  -0.129  0.00  0.00    +0.000 C 
ATOM      5  C   UNL     1       0.489  -2.661   1.167  0.00  0.00    +0.000 C 
ATOM      6  C   UNL     1      -0.919  -2.431   0.780  0.00  0.00    +0.000 C 
ATOM      7  C   UNL     1      -0.794  -1.819  -0.755  0.00  0.00    +0.000 C 
ENDROOT
BRANCH   7   8
ATOM      8  C   UNL     1      -1.641  -0.475  -0.412  0.00  0.00    +0.000 C 
ATOM      9  O   UNL     1      -1.637  -0.082   0.759  0.00  0.00    +0.000 OA
ATOM     10  N   UNL     1      -2.934  -0.637  -1.018  0.00  0.00    +0.000 N 
ATOM     11  H   UNL     1      -3.054  -1.093  -1.883  0.00  0.00    +0.000 HD
BRANCH  10  12
ATOM     12  C   UNL     1      -4.142  -0.043  -0.214  0.00  0.00    +0.000 C 
BRANCH  12  13
ATOM     13  C   UNL     1      -5.163  -0.145  -1.492  0.00  0.00    +0.000 C 
BRANCH  13  14
ATOM     14  C   UNL     1      -6.545  -0.301  -0.864  0.00  0.00    +0.000 C 
BRANCH  14  15
ATOM     15  C   UNL     1      -6.736   0.831   0.114  0.00  0.00    +0.000 C 
BRANCH  15  16
ATOM     16  C   UNL     1      -6.068   2.054  -0.448  0.00  0.00    +0.000 C 
BRANCH  16  17
ATOM     17  N   UNL     1      -6.675   3.216   0.179  0.00  0.00    +0.000 NA
ATOM     18  H   UNL     1      -7.676   3.224  -0.017  0.00  0.00    +0.000 HD
ATOM     19  H   UNL     1      -6.248   4.064  -0.194  0.00  0.00    +0.000 HD
ENDBRANCH  16  17
ENDBRANCH  15  16
ENDBRANCH  14  15
ENDBRANCH  13  14
ENDBRANCH  12  13
BRANCH  12  20
ATOM     20  B   UNL     1      -4.628  -1.562   0.410  0.00  0.00    +0.000 B 
BRANCH  20  21
ATOM     21  O   UNL     1      -4.692  -2.674  -0.499  0.00  0.00    +0.000 OA
ATOM     22  H   UNL     1      -4.842  -2.346  -1.400  0.00  0.00    +0.000 HD
ENDBRANCH  20  21
BRANCH  20  23
ATOM     23  O   UNL     1      -4.413  -1.675   1.854  0.00  0.00    +0.000 OA
ATOM     24  H   UNL     1      -4.408  -0.790   2.250  0.00  0.00    +0.000 HD
ENDBRANCH  20  23
ENDBRANCH  12  20
ENDBRANCH  10  12
ENDBRANCH   7   8
BRANCH   1  25
ATOM     25  C   UNL     1       2.201   0.325   0.584  0.00  0.00    +0.000 C 
BRANCH  25  29
ATOM     26  C   UNL     1       4.158   3.546   0.747  0.00  0.00    +0.000 C 
ATOM     27  C   UNL     1       2.978   2.662   0.801  0.00  0.00    +0.000 C 
ATOM     28  O   UNL     1       2.107   2.957   1.669  0.00  0.00    +0.000 OA
ATOM     29  N   UNL     1       2.783   1.604  -0.146  0.00  0.00    +0.000 N 
ATOM     30  H   UNL     1       2.982   1.664  -1.108  0.00  0.00    +0.000 HD
ENDBRANCH  25  29
BRANCH  25  31
ATOM     31  C   UNL     1       3.254  -0.685  -0.190  0.00  0.00    +0.000 C 
BRANCH  31  32
ATOM     32  C   UNL     1       4.571  -0.035  -0.164  0.00  0.00    +0.000 A 
ATOM     33  C   UNL     1       5.253  -0.127  -1.374  0.00  0.00    +0.000 A 
ATOM     34  C   UNL     1       6.576   0.262  -1.490  0.00  0.00    +0.000 A 
ATOM     35  C   UNL     1       7.219   0.569  -0.297  0.00  0.00    +0.000 A 
ATOM     36  C   UNL     1       6.720   0.038   0.871  0.00  0.00    +0.000 A 
ATOM     37  C   UNL     1       5.374  -0.290   0.941  0.00  0.00    +0.000 A 
ENDBRANCH  31  32
ENDBRANCH  25  31
ENDBRANCH   1  25
TORSDOF 14
