REMARK  Name = 
REMARK  16 active torsions:
REMARK  status: ('A' for Active; 'I' for Inactive)
REMARK    1  A    between atoms: C_1  and  C_2
REMARK    2  A    between atoms: N_4  and  C_5
REMARK    3  A    between atoms: C_5  and  C_6
REMARK    4  A    between atoms: C_5  and  C_13
REMARK    5  A    between atoms: C_6  and  C_7
REMARK    6  A    between atoms: C_19  and  C_20
REMARK    7  A    between atoms: N_22  and  C_23
REMARK    8  A    between atoms: C_23  and  C_24
REMARK    9  A    between atoms: C_23  and  B_30
REMARK   10  A    between atoms: C_24  and  C_25
REMARK   11  A    between atoms: C_25  and  C_26
REMARK   12  A    between atoms: C_26  and  C_27
REMARK   13  A    between atoms: C_27  and  C_28
REMARK   14  A    between atoms: C_28  and  N_29
REMARK   15  A    between atoms: B_30  and  O_31
REMARK   16  A    between atoms: B_30  and  O_32
REMARK                            x       y       z     vdW  Elec       q    Type
REMARK                         _______ _______ _______ _____ _____    ______ ____
ROOT
ATOM      1  C   UNL     1      -1.941  -0.376  -1.756  0.00  0.00    +0.000 C 
ATOM      2  O   UNL     1      -2.297  -0.577  -2.893  0.00  0.00    +0.000 OA
ATOM      3  N   UNL     1      -0.572  -0.457  -1.342  0.00  0.00    +0.000 N 
ATOM      4  C   UNL     1      -0.229  -0.911  -0.027  0.00  0.00    +0.000 C 
ATOM      5  C   UNL     1       0.018   0.369   0.713  0.00  0.00    +0.000 C 
ATOM      6  C   UNL     1      -0.017   1.490  -0.273  0.00  0.00    +0.000 C 
ATOM      7  C   UNL     1       0.422   0.723  -1.661  0.00  0.00    +0.000 C 
ENDROOT
BRANCH   7   8
ATOM      8  C   UNL     1       1.679  -0.035  -0.992  0.00  0.00    +0.000 C 
ATOM      9  O   UNL     1       2.167  -0.878  -1.799  0.00  0.00    +0.000 OA
ATOM     10  N   UNL     1       2.491   0.678  -0.118  0.00  0.00    +0.000 N 
ATOM     11  H   UNL     1       2.466   1.654   0.005  0.00  0.00    +0.000 HD
BRANCH  10  12
ATOM     12  C   UNL     1       3.450  -0.294   0.640  0.00  0.00    +0.000 C 
BRANCH  12  13
ATOM     13  C   UNL     1       4.402  -0.492  -0.667  0.00  0.00    +0.000 C 
BRANCH  13  14
ATOM     14  C   UNL     1       5.329  -1.588  -0.153  0.00  0.00    +0.000 C 
BRANCH  14  15
ATOM     15  C   UNL     1       6.550  -0.888   0.380  0.00  0.00    +0.000 C 
BRANCH  15  16
ATOM     16  C   UNL     1       7.289  -0.157  -0.736  0.00  0.00    +0.000 C 
BRANCH  16  17
ATOM     17  C   UNL     1       8.303   0.791  -0.153  0.00  0.00    +0.000 C 
BRANCH  17  18
ATOM     18  N   UNL     1       8.434   0.580   1.269  0.00  0.00    +0.000 NA
ATOM     19  H   UNL     1       7.536   0.747   1.722  0.00  0.00    +0.000 HD
ATOM     20  H   UNL     1       9.130   1.223   1.646  0.00  0.00    +0.000 HD
ENDBRANCH  17  18
ENDBRANCH  16  17
ENDBRANCH  15  16
ENDBRANCH  14  15
ENDBRANCH  13  14
ENDBRANCH  12  13
BRANCH  12  21
ATOM     21  B   UNL     1       4.408   0.965   1.276  0.00  0.00    +0.000 B 
BRANCH  21  22
ATOM     22  O   UNL     1       3.867   1.285   2.608  0.00  0.00    +0.000 OA
ATOM     23  H   UNL     1       3.686   0.463   3.090  0.00  0.00    +0.000 HD
ENDBRANCH  21  22
BRANCH  21  24
ATOM     24  O   UNL     1       4.730   2.080   0.431  0.00  0.00    +0.000 OA
ATOM     25  H   UNL     1       5.075   1.755  -0.415  0.00  0.00    +0.000 HD
ENDBRANCH  21  24
ENDBRANCH  12  21
ENDBRANCH  10  12
ENDBRANCH   7   8
BRANCH   1  26
ATOM     26  C   UNL     1      -2.939   0.209  -0.639  0.00  0.00    +0.000 C 
BRANCH  26  30
ATOM     27  C   UNL     1      -3.060  -1.946   2.062  0.00  0.00    +0.000 C 
ATOM     28  C   UNL     1      -3.352  -1.244   1.420  0.00  0.00    +0.000 C 
ATOM     29  O   UNL     1      -3.361  -0.113   1.998  0.00  0.00    +0.000 OA
ATOM     30  N   UNL     1      -3.163  -1.214   0.002  0.00  0.00    +0.000 N 
ATOM     31  H   UNL     1      -3.172  -2.034  -0.542  0.00  0.00    +0.000 HD
ENDBRANCH  26  30
BRANCH  26  32
ATOM     32  C   UNL     1      -4.301   0.073  -1.554  0.00  0.00    +0.000 C 
BRANCH  32  33
ATOM     33  C   UNL     1      -5.423   0.352  -0.625  0.00  0.00    +0.000 A 
ATOM     34  C   UNL     1      -6.239  -0.657  -0.132  0.00  0.00    +0.000 A 
ATOM     35  C   UNL     1      -7.177  -0.343   0.842  0.00  0.00    +0.000 A 
ATOM     36  C   UNL     1      -7.007   0.865   1.507  0.00  0.00    +0.000 A 
ATOM     37  C   UNL     1      -6.638   1.955   0.728  0.00  0.00    +0.000 A 
ATOM     38  C   UNL     1      -5.822   1.656  -0.355  0.00  0.00    +0.000 A 
ENDBRANCH  32  33
ENDBRANCH  26  32
ENDBRANCH   1  26
TORSDOF 15
