REMARK  Name = 
REMARK  17 active torsions:
REMARK  status: ('A' for Active; 'I' for Inactive)
REMARK    1  A    between atoms: C_1  and  C_2
REMARK    2  A    between atoms: C_2  and  C_3
REMARK    3  A    between atoms: C_2  and  C_4
REMARK    4  A    between atoms: C_4  and  N_5
REMARK    5  A    between atoms: C_4  and  C_16
REMARK    6  A    between atoms: C_6  and  O_8
REMARK    7  A    between atoms: O_8  and  C_9
REMARK    8  A    between atoms: C_9  and  C_10
REMARK    9  A    between atoms: N_18  and  C_19
REMARK   10  A    between atoms: C_19  and  C_20
REMARK   11  A    between atoms: C_19  and  C_21
REMARK   12  A    between atoms: N_23  and  C_24
REMARK   13  A    between atoms: C_24  and  C_25
REMARK   14  A    between atoms: C_24  and  C_29
REMARK   15  A    between atoms: C_25  and  C_26
REMARK   16  A    between atoms: C_26  and  O_28
REMARK   17  A    between atoms: C_29  and  C_31
REMARK                            x       y       z     vdW  Elec       q    Type
REMARK                         _______ _______ _______ _____ _____    ______ ____
ROOT
ATOM      1  C   UNL     1       0.202  -0.466  -1.238  0.00  0.00    +0.000 C 
ATOM      2  O   UNL     1       0.047  -0.500  -2.425  0.00  0.00    +0.000 OA
ATOM      3  N   UNL     1      -0.866  -0.370  -0.332  0.00  0.00    +0.000 N 
ATOM      4  H   UNL     1      -0.954  -0.924   0.477  0.00  0.00    +0.000 HD
ENDROOT
BRANCH   3   5
ATOM      5  C   UNL     1      -1.922   0.749  -0.772  0.00  0.00    +0.000 C 
ATOM      6  C   UNL     1      -2.266  -0.049  -2.201  0.00  0.00    +0.000 C 
BRANCH   5   7
ATOM      7  C   UNL     1      -3.103   0.013   0.066  0.00  0.00    +0.000 C 
ATOM      8  O   UNL     1      -3.587  -1.019  -0.339  0.00  0.00    +0.000 OA
ATOM      9  N   UNL     1      -3.622   0.589   1.187  0.00  0.00    +0.000 N 
ATOM     10  H   UNL     1      -3.028   0.957   1.880  0.00  0.00    +0.000 HD
BRANCH   9  11
ATOM     11  C   UNL     1      -5.208   0.658   1.360  0.00  0.00    +0.000 C 
BRANCH  11  12
ATOM     12  C   UNL     1      -5.213  -0.501   2.518  0.00  0.00    +0.000 C 
ATOM     13  O   UNL     1      -4.582  -1.481   2.280  0.00  0.00    +0.000 OA
BRANCH  12  14
ATOM     14  C   UNL     1      -6.567  -0.655   3.144  0.00  0.00    +0.000 C 
ATOM     15  F   UNL     1      -6.392  -1.058   4.460  0.00  0.00    +0.000 F 
ENDBRANCH  12  14
ENDBRANCH  11  12
BRANCH  11  16
ATOM     16  C   UNL     1      -5.581  -0.433   0.147  0.00  0.00    +0.000 C 
BRANCH  16  17
ATOM     17  C   UNL     1      -6.147   0.497  -0.891  0.00  0.00    +0.000 C 
ATOM     18  O   UNL     1      -5.813   1.722  -0.926  0.00  0.00    +0.000 OA
BRANCH  17  19
ATOM     19  O   UNL     1      -6.284  -0.070  -2.163  0.00  0.00    +0.000 OA
ATOM     20  H   UNL     1      -6.528  -0.970  -2.252  0.00  0.00    +0.000 HD
ENDBRANCH  17  19
ENDBRANCH  16  17
ENDBRANCH  11  16
ENDBRANCH   9  11
ENDBRANCH   5   7
ENDBRANCH   3   5
BRANCH   1  21
ATOM     21  C   UNL     1       1.680  -0.614  -0.569  0.00  0.00    +0.000 C 
BRANCH  21  22
ATOM     22  N   UNL     1       2.454  -0.877  -1.950  0.00  0.00    +0.000 N 
ATOM     23  C   UNL     1       3.855  -0.597  -1.850  0.00  0.00    +0.000 C 
ATOM     24  O   UNL     1       4.083   0.594  -1.510  0.00  0.00    +0.000 OA
ATOM     25  H   UNL     1       2.016  -1.195  -2.772  0.00  0.00    +0.000 HD
BRANCH  23  26
ATOM     26  O   UNL     1       4.876  -1.520  -1.880  0.00  0.00    +0.000 OA
BRANCH  26  27
ATOM     27  C   UNL     1       6.226  -1.157  -1.587  0.00  0.00    +0.000 C 
BRANCH  27  28
ATOM     28  C   UNL     1       6.353  -0.840  -0.130  0.00  0.00    +0.000 A 
ATOM     29  C   UNL     1       7.599  -0.817   0.479  0.00  0.00    +0.000 A 
ATOM     30  C   UNL     1       7.684  -0.708   1.864  0.00  0.00    +0.000 A 
ATOM     31  C   UNL     1       6.539  -0.534   2.634  0.00  0.00    +0.000 A 
ATOM     32  C   UNL     1       5.314  -0.547   1.990  0.00  0.00    +0.000 A 
ATOM     33  C   UNL     1       5.298  -1.127   0.729  0.00  0.00    +0.000 A 
ENDBRANCH  27  28
ENDBRANCH  26  27
ENDBRANCH  23  26
ENDBRANCH  21  22
BRANCH  21  35
ATOM     34  C   UNL     1       1.701   1.333   0.238  0.00  0.00    +0.000 C 
ATOM     35  C   UNL     1       2.013   1.020  -0.624  0.00  0.00    +0.000 C 
ATOM     36  C   UNL     1       1.229   1.624  -1.710  0.00  0.00    +0.000 C 
ENDBRANCH  21  35
ENDBRANCH   1  21
TORSDOF 14
