REMARK  Name = 
REMARK  12 active torsions:
REMARK  status: ('A' for Active; 'I' for Inactive)
REMARK    1  A    between atoms: C_2  and  C_3
REMARK    2  A    between atoms: C_7  and  C_8
REMARK    3  A    between atoms: C_8  and  C_9
REMARK    4  A    between atoms: C_9  and  N_10
REMARK    5  A    between atoms: C_9  and  B_29
REMARK    6  A    between atoms: C_11  and  C_13
REMARK    7  A    between atoms: C_18  and  C_20
REMARK    8  A    between atoms: C_20  and  N_21
REMARK    9  A    between atoms: C_20  and  C_22
REMARK   10  A    between atoms: C_22  and  C_23
REMARK   11  A    between atoms: B_29  and  O_30
REMARK   12  A    between atoms: B_29  and  O_31
REMARK                            x       y       z     vdW  Elec       q    Type
REMARK                         _______ _______ _______ _____ _____    ______ ____
ROOT
ATOM      1  N   UNL     1       1.050  -0.192   0.470  0.00  0.00    +0.000 N 
ATOM      2  C   UNL     1       0.404   0.988   0.216  0.00  0.00    +0.000 C 
ATOM      3  O   UNL     1       0.945   2.071   0.605  0.00  0.00    +0.000 OA
ATOM      4  H   UNL     1       0.589  -1.047   0.309  0.00  0.00    +0.000 HD
ENDROOT
BRANCH   2   5
ATOM      5  C   UNL     1      -1.155   1.138   0.726  0.00  0.00    +0.000 C 
ATOM      6  C   UNL     1      -1.525  -0.490   0.585  0.00  0.00    +0.000 C 
ATOM      7  C   UNL     1      -1.185  -0.763  -0.809  0.00  0.00    +0.000 C 
ATOM      8  C   UNL     1      -0.989   0.496  -1.573  0.00  0.00    +0.000 C 
ATOM      9  N   UNL     1      -1.683   1.443  -0.759  0.00  0.00    +0.000 N 
ATOM     10  C   UNL     1      -3.045   1.802  -0.939  0.00  0.00    +0.000 C 
ATOM     11  O   UNL     1      -3.581   2.847  -0.568  0.00  0.00    +0.000 OA
BRANCH  10  12
ATOM     12  C   UNL     1      -4.046   0.519  -1.150  0.00  0.00    +0.000 C 
BRANCH  12  13
ATOM     13  N   UNL     1      -5.132   1.397  -1.945  0.00  0.00    +0.000 NA
ATOM     14  H   UNL     1      -5.296   2.270  -1.444  0.00  0.00    +0.000 HD
ATOM     15  H   UNL     1      -6.006   0.876  -2.015  0.00  0.00    +0.000 HD
ENDBRANCH  12  13
BRANCH  12  16
ATOM     16  C   UNL     1      -4.815   0.786   0.315  0.00  0.00    +0.000 C 
BRANCH  16  17
ATOM     17  C   UNL     1      -5.712  -0.407   0.342  0.00  0.00    +0.000 A 
ATOM     18  C   UNL     1      -7.071  -0.195   0.283  0.00  0.00    +0.000 A 
ATOM     19  C   UNL     1      -7.944  -1.250   0.170  0.00  0.00    +0.000 A 
ATOM     20  C   UNL     1      -7.487  -2.554   0.021  0.00  0.00    +0.000 A 
ATOM     21  C   UNL     1      -6.124  -2.748   0.091  0.00  0.00    +0.000 A 
ATOM     22  C   UNL     1      -5.242  -1.697   0.306  0.00  0.00    +0.000 A 
ENDBRANCH  16  17
ENDBRANCH  12  16
ENDBRANCH  10  12
ENDBRANCH   2   5
BRANCH   1  23
ATOM     23  C   UNL     1       2.530  -0.189   1.019  0.00  0.00    +0.000 C 
BRANCH  23  24
ATOM     24  C   UNL     1       2.968  -1.378  -0.050  0.00  0.00    +0.000 C 
BRANCH  24  29
ATOM     25  C   UNL     1       6.526  -0.346  -0.005  0.00  0.00    +0.000 A 
ATOM     26  C   UNL     1       7.020  -1.252   0.911  0.00  0.00    +0.000 A 
ATOM     27  C   UNL     1       6.251  -2.288   1.416  0.00  0.00    +0.000 A 
ATOM     28  C   UNL     1       4.934  -2.390   0.999  0.00  0.00    +0.000 A 
ATOM     29  C   UNL     1       4.424  -1.501   0.077  0.00  0.00    +0.000 A 
ATOM     30  C   UNL     1       5.335  -0.714  -0.619  0.00  0.00    +0.000 A 
BRANCH  25  32
ATOM     31  N   UNL     1       7.574   1.821  -0.553  0.00  0.00    +0.000 NA
ATOM     32  C   UNL     1       7.198   0.898  -0.298  0.00  0.00    +0.000 C 
ENDBRANCH  25  32
ENDBRANCH  24  29
ENDBRANCH  23  24
BRANCH  23  33
ATOM     33  B   UNL     1       3.045   1.077  -0.040  0.00  0.00    +0.000 B 
BRANCH  33  34
ATOM     34  O   UNL     1       3.860   2.055   0.633  0.00  0.00    +0.000 OA
ATOM     35  H   UNL     1       3.931   1.826   1.573  0.00  0.00    +0.000 HD
ENDBRANCH  33  34
BRANCH  33  36
ATOM     36  O   UNL     1       2.675   1.013  -1.407  0.00  0.00    +0.000 OA
ATOM     37  H   UNL     1       2.118   0.233  -1.555  0.00  0.00    +0.000 HD
ENDBRANCH  33  36
ENDBRANCH  23  33
ENDBRANCH   1  23
TORSDOF 12
