REMARK  Name = 210320
REMARK  13 active torsions:
REMARK  status: ('A' for Active; 'I' for Inactive)
REMARK    1  A    between atoms: O_2  and  C_17
REMARK    2  A    between atoms: O_4  and  C_18
REMARK    3  A    between atoms: OE1_5  and  CD_19
REMARK    4  A    between atoms: N_9  and  CA_11
REMARK    5  A    between atoms: N_10  and  CA_14
REMARK    6  A    between atoms: CA_11  and  CB_12
REMARK    7  A    between atoms: CA_11  and  C_17
REMARK    8  A    between atoms: CB_12  and  CG_16
REMARK    9  A    between atoms: C_13  and  CA_14
REMARK   10  A    between atoms: C_13  and  C_15
REMARK   11  A    between atoms: CA_14  and  C_18
REMARK   12  A    between atoms: CG_16  and  CD_19
REMARK   13  A    between atoms: C_20  and  C_21
REMARK                            x       y       z     vdW  Elec       q    Type
REMARK                         _______ _______ _______ _____ _____    ______ ____
ROOT
ATOM      1  O   UNL     1      -0.338   2.086   1.969  0.00  0.00    +0.000 OA
ATOM      2  N   UNL     1       0.589   1.504  -0.082  0.00  0.00    +0.000 N 
ATOM      3  C   UNL     1      -0.454   1.798   0.780  0.00  0.00    +0.000 C 
ATOM      4  H   UNL     1       0.374   1.247  -1.042  0.00  0.00    +0.000 HD
ENDROOT
BRANCH   2   5
ATOM      5  CA  UNL     1       1.975   1.501   0.326  0.00  0.00    +0.000 C 
BRANCH   5   7
ATOM      6  OXT UNL     1       2.366   2.223  -1.967  0.00  0.00    +0.000 OA
ATOM      7  C   UNL     1       2.798   2.003  -0.843  0.00  0.00    +0.000 C 
BRANCH   7   8
ATOM      8  O   UNL     1       4.092   2.225  -0.493  0.00  0.00    +0.000 OA
ATOM      9  H   UNL     1       4.620   2.565  -1.246  0.00  0.00    +0.000 HD
ENDBRANCH   7   8
ENDBRANCH   5   7
BRANCH   5  10
ATOM     10  CB  UNL     1       2.431   0.140   0.865  0.00  0.00    +0.000 C 
BRANCH  10  11
ATOM     11  CG  UNL     1       2.378  -1.025  -0.131  0.00  0.00    +0.000 C 
BRANCH  11  13
ATOM     12  OE2 UNL     1       3.195  -2.527   1.605  0.00  0.00    +0.000 OA
ATOM     13  CD  UNL     1       2.826  -2.348   0.453  0.00  0.00    +0.000 C 
BRANCH  13  14
ATOM     14  OE1 UNL     1       2.812  -3.337  -0.479  0.00  0.00    +0.000 OA
ATOM     15  HE1 UNL     1       3.118  -4.192  -0.109  0.00  0.00    +0.000 HD
ENDBRANCH  13  14
ENDBRANCH  11  13
ENDBRANCH  10  11
ENDBRANCH   5  10
ENDBRANCH   2   5
BRANCH   3  16
ATOM     16  C   UNL     1      -1.810   1.747   0.104  0.00  0.00    +0.000 C 
BRANCH  16  17
ATOM     17  CA  UNL     1      -2.461   0.376   0.257  0.00  0.00    +0.000 C 
BRANCH  17  19
ATOM     18  O   UNL     1      -2.300  -2.508   0.553  0.00  0.00    +0.000 OA
ATOM     19  N   UNL     1      -1.903  -0.571  -0.677  0.00  0.00    +0.000 N 
ATOM     20  C   UNL     1      -1.871  -1.938  -0.447  0.00  0.00    +0.000 C 
ATOM     21  C   UNL     1      -1.259  -2.697  -1.593  0.00  0.00    +0.000 C 
ATOM     22  H   UNL     1      -1.588  -0.221  -1.578  0.00  0.00    +0.000 HD
ENDBRANCH  17  19
BRANCH  17  24
ATOM     23  OXT UNL     1      -4.423   0.367  -1.190  0.00  0.00    +0.000 OA
ATOM     24  C   UNL     1      -3.941   0.440  -0.066  0.00  0.00    +0.000 C 
BRANCH  24  25
ATOM     25  O   UNL     1      -4.702   0.540   1.055  0.00  0.00    +0.000 OA
ATOM     26  H   UNL     1      -5.661   0.559   0.846  0.00  0.00    +0.000 HD
ENDBRANCH  24  25
ENDBRANCH  17  24
ENDBRANCH  16  17
ENDBRANCH   3  16
TORSDOF 12
