REMARK  Name = 24737642
REMARK  10 active torsions:
REMARK  status: ('A' for Active; 'I' for Inactive)
REMARK    1  A    between atoms: N_7  and  C_11
REMARK    2  A    between atoms: N_9  and  C_24
REMARK    3  A    between atoms: N_9  and  C_29
REMARK    4  A    between atoms: C_10  and  C_11
REMARK    5  A    between atoms: C_11  and  C_18
REMARK    6  A    between atoms: C_17  and  C_22
REMARK    7  A    between atoms: C_23  and  C_24
REMARK    8  A    between atoms: C_24  and  C_27
REMARK    9  A    between atoms: C_25  and  C_28
REMARK   10  A    between atoms: C_28  and  C_30
REMARK                            x       y       z     vdW  Elec       q    Type
REMARK                         _______ _______ _______ _____ _____    ______ ____
ROOT
ATOM      1  O   UNL     1       1.259   1.539   1.219  0.00  0.00    +0.000 OA
ATOM      2  N   UNL     1       0.510   1.829  -0.952  0.00  0.00    +0.000 N 
ATOM      3  C   UNL     1      -0.271   3.045  -0.696  0.00  0.00    +0.000 C 
ATOM      4  C   UNL     1       1.264   1.208   0.032  0.00  0.00    +0.000 C 
ATOM      5  C   UNL     1       0.485   1.470  -2.368  0.00  0.00    +0.000 C 
ATOM      6  C   UNL     1      -0.571   3.593  -2.097  0.00  0.00    +0.000 C 
ATOM      7  C   UNL     1      -0.599   2.346  -2.976  0.00  0.00    +0.000 C 
ENDROOT
BRANCH   3  10
ATOM      8  S   UNL     1      -2.128   4.073   1.114  0.00  0.00    +0.000 S 
ATOM      9  N   UNL     1      -2.220   1.690   0.116  0.00  0.00    +0.000 NA
ATOM     10  C   UNL     1      -1.532   2.811   0.116  0.00  0.00    +0.000 A 
ATOM     11  C   UNL     1      -3.301   1.830   0.965  0.00  0.00    +0.000 A 
ATOM     12  C   UNL     1      -3.418   3.051   1.595  0.00  0.00    +0.000 A 
BRANCH  11  14
ATOM     13  O   UNL     1      -5.204   0.856   1.912  0.00  0.00    +0.000 OA
ATOM     14  C   UNL     1      -4.221   0.744   1.149  0.00  0.00    +0.000 C 
BRANCH  14  16
ATOM     15  F   UNL     1      -3.678  -4.218  -1.463  0.00  0.00    +0.000 F 
ATOM     16  C   UNL     1      -4.076  -0.581   0.451  0.00  0.00    +0.000 A 
ATOM     17  C   UNL     1      -4.087  -0.640  -0.942  0.00  0.00    +0.000 A 
ATOM     18  C   UNL     1      -3.930  -1.750   1.198  0.00  0.00    +0.000 A 
ATOM     19  C   UNL     1      -3.952  -1.869  -1.589  0.00  0.00    +0.000 A 
ATOM     20  C   UNL     1      -3.796  -2.978   0.551  0.00  0.00    +0.000 A 
ATOM     21  C   UNL     1      -3.807  -3.038  -0.842  0.00  0.00    +0.000 A 
ENDBRANCH  14  16
ENDBRANCH  11  14
ENDBRANCH   3  10
BRANCH   4  22
ATOM     22  C   UNL     1       2.116   0.054  -0.433  0.00  0.00    +0.000 C 
BRANCH  22  23
ATOM     23  C   UNL     1       1.363  -1.268  -0.297  0.00  0.00    +0.000 C 
ATOM     24  C   UNL     1       0.936  -1.501   1.159  0.00  0.00    +0.000 C 
ATOM     25  C   UNL     1       2.218  -2.434  -0.809  0.00  0.00    +0.000 C 
ATOM     26  C   UNL     1       0.227  -2.843   1.331  0.00  0.00    +0.000 C 
ATOM     27  C   UNL     1       1.507  -3.774  -0.634  0.00  0.00    +0.000 C 
ATOM     28  C   UNL     1       1.077  -3.999   0.812  0.00  0.00    +0.000 C 
ENDBRANCH  22  23
BRANCH  22  30
ATOM     29  O   UNL     1       4.836   0.467  -1.280  0.00  0.00    +0.000 OA
ATOM     30  N   UNL     1       3.280   0.083   0.400  0.00  0.00    +0.000 N 
ATOM     31  C   UNL     1       4.569   0.290  -0.093  0.00  0.00    +0.000 C 
ATOM     32  H   UNL     1       3.156   0.035   1.407  0.00  0.00    +0.000 HD
BRANCH  31  33
ATOM     33  C   UNL     1       5.625   0.259   1.005  0.00  0.00    +0.000 C 
ATOM     34  C   UNL     1       5.861   1.662   1.550  0.00  0.00    +0.000 C 
BRANCH  33  35
ATOM     35  N   UNL     1       6.859  -0.278   0.439  0.00  0.00    +0.000 NA
ATOM     36  C   UNL     1       6.801  -1.730   0.355  0.00  0.00    +0.000 C 
ATOM     37  H   UNL     1       7.648  -0.023   1.034  0.00  0.00    +0.000 HD
ENDBRANCH  33  35
ENDBRANCH  31  33
ENDBRANCH  22  30
ENDBRANCH   4  22
TORSDOF 8
