REMARK  Name = 
REMARK  30 active torsions:
REMARK  status: ('A' for Active; 'I' for Inactive)
REMARK    1  A    between atoms: CE_1  and  SD_2
REMARK    2  A    between atoms: SD_2  and  CG_3
REMARK    3  A    between atoms: CG_3  and  CB_4
REMARK    4  A    between atoms: CB_4  and  CA_5
REMARK    5  A    between atoms: CA_5  and  N_6
REMARK    6  A    between atoms: CA_5  and  C_9
REMARK    7  A    between atoms: N_11  and  CA_12
REMARK    8  A    between atoms: CA_12  and  CB_13
REMARK    9  A    between atoms: CA_12  and  C_17
REMARK   10  A    between atoms: CB_13  and  CG_14
REMARK   11  A    between atoms: CG_14  and  OD2_16
REMARK   12  A    between atoms: N_19  and  CA_20
REMARK   13  A    between atoms: CA_20  and  C_21
REMARK   14  A    between atoms: N_23  and  CA_24
REMARK   15  A    between atoms: CA_24  and  CB_25
REMARK   16  A    between atoms: CA_24  and  C_27
REMARK   17  A    between atoms: CB_25  and  SG_26
REMARK   18  A    between atoms: N_29  and  CA_30
REMARK   19  A    between atoms: CA_30  and  CB_31
REMARK   20  A    between atoms: CA_30  and  C_36
REMARK   21  A    between atoms: CB_31  and  CG_32
REMARK   22  A    between atoms: CG_32  and  CD_33
REMARK   23  A    between atoms: CD_33  and  OE2_35
REMARK   24  A    between atoms: N_38  and  CA_39
REMARK   25  A    between atoms: CA_39  and  CB_40
REMARK   26  A    between atoms: CA_39  and  C_44
REMARK   27  A    between atoms: CB_40  and  CG_41
REMARK   28  A    between atoms: CG_41  and  CD1_42
REMARK   29  A    between atoms: CG_41  and  CD2_43
REMARK   30  A    between atoms: C_44  and  OXT_46
REMARK                            x       y       z     vdW  Elec       q    Type
REMARK                         _______ _______ _______ _____ _____    ______ ____
ROOT
ATOM      1  C   GLY A   3       0.790  -0.744   0.124  0.00  0.00    +0.000 C 
ATOM      2  O   GLY A   3       1.044  -0.671   1.366  0.00  0.00    +0.000 OA
ATOM      3  N   CYS A   4      -0.409  -0.146  -0.395  0.00  0.00    +0.000 N 
ATOM      4  H   CYS A   4      -0.600  -0.038  -1.354  0.00  0.00    +0.000 HD
ENDROOT
BRANCH   1   5
ATOM      5  CA  GLY A   3       1.861  -1.257  -0.751  0.00  0.00    +0.000 C 
BRANCH   5   8
ATOM      6  C   ASP A   2       4.047  -0.053  -0.327  0.00  0.00    +0.000 C 
ATOM      7  O   ASP A   2       3.460   0.937  -0.868  0.00  0.00    +0.000 OA
ATOM      8  N   GLY A   3       3.152  -1.144  -0.074  0.00  0.00    +0.000 N 
ATOM      9  H   GLY A   3       3.414  -1.837   0.574  0.00  0.00    +0.000 HD
BRANCH   6  10
ATOM     10  CA  ASP A   2       4.691   0.569   1.044  0.00  0.00    +0.000 C 
BRANCH  10  13
ATOM     11  C   MET A   1       6.269  -1.325   0.351  0.00  0.00    +0.000 C 
ATOM     12  O   MET A   1       6.113  -1.047  -0.820  0.00  0.00    +0.000 OA
ATOM     13  N   ASP A   2       5.534  -0.743   1.359  0.00  0.00    +0.000 N 
ATOM     14  H   ASP A   2       5.531  -1.133   2.263  0.00  0.00    +0.000 HD
BRANCH  11  15
ATOM     15  CA  MET A   1       7.659  -2.041   0.813  0.00  0.00    +0.000 C 
BRANCH  15  16
ATOM     16  N   MET A   1       7.509  -3.199  -0.273  0.00  0.00    +0.000 N 
ATOM     17  C   UNK A   0       6.761  -4.311   0.237  0.00  0.00    +0.000 C 
ATOM     18  O   UNK A   0       5.675  -3.978   0.799  0.00  0.00    +0.000 OA
ATOM     19  H   MET A   1       7.884  -3.155  -1.182  0.00  0.00    +0.000 HD
ENDBRANCH  15  16
BRANCH  15  20
ATOM     20  CB  MET A   1       8.587  -1.124  -0.224  0.00  0.00    +0.000 C 
BRANCH  20  21
ATOM     21  CG  MET A   1       9.380  -0.209   0.693  0.00  0.00    +0.000 C 
BRANCH  21  23
ATOM     22  CE  MET A   1       8.907   2.419   0.398  0.00  0.00    +0.000 C 
ATOM     23  SD  MET A   1       8.676   1.452   0.492  0.00  0.00    +0.000 S 
ENDBRANCH  21  23
ENDBRANCH  20  21
ENDBRANCH  15  20
ENDBRANCH  11  15
ENDBRANCH  10  13
BRANCH  10  24
ATOM     24  CB  ASP A   2       5.915   1.286   0.175  0.00  0.00    +0.000 C 
BRANCH  24  25
ATOM     25  CG  ASP A   2       5.527   2.697   0.031  0.00  0.00    +0.000 C 
ATOM     26  OD1 ASP A   2       6.292   3.508   0.644  0.00  0.00    +0.000 OA
BRANCH  25  27
ATOM     27  OD2 ASP A   2       5.201   3.169  -1.248  0.00  0.00    +0.000 OA
ATOM     28  HD2 ASP A   2       4.642   2.664  -1.805  0.00  0.00    +0.000 HD
ENDBRANCH  25  27
ENDBRANCH  24  25
ENDBRANCH  10  24
ENDBRANCH   6  10
ENDBRANCH   5   8
ENDBRANCH   1   5
BRANCH   3  29
ATOM     29  CA  CYS A   4      -1.395   0.320   0.770  0.00  0.00    +0.000 C 
BRANCH  29  30
ATOM     30  C   CYS A   4      -2.706   0.203  -0.201  0.00  0.00    +0.000 C 
ATOM     31  O   CYS A   4      -2.853  -1.054  -0.323  0.00  0.00    +0.000 OA
ATOM     32  N   GLU A   5      -3.817   0.999   0.139  0.00  0.00    +0.000 N 
ATOM     33  H   GLU A   5      -3.862   1.953  -0.099  0.00  0.00    +0.000 HD
BRANCH  32  34
ATOM     34  CA  GLU A   5      -4.998   0.274   0.929  0.00  0.00    +0.000 C 
BRANCH  34  35
ATOM     35  C   GLU A   5      -5.937   0.122  -0.404  0.00  0.00    +0.000 C 
ATOM     36  O   GLU A   5      -7.176   0.249  -0.136  0.00  0.00    +0.000 OA
ATOM     37  N   LEU A   6      -5.681  -1.077  -1.057  0.00  0.00    +0.000 N 
ATOM     38  H   LEU A   6      -4.772  -1.455  -1.047  0.00  0.00    +0.000 HD
BRANCH  37  39
ATOM     39  CA  LEU A   6      -6.843  -1.845  -1.821  0.00  0.00    +0.000 C 
BRANCH  39  40
ATOM     40  C   LEU A   6      -7.729  -0.498  -2.105  0.00  0.00    +0.000 C 
ATOM     41  O   LEU A   6      -8.953  -0.800  -2.249  0.00  0.00    +0.000 OA
BRANCH  40  42
ATOM     42  OXT LEU A   6      -7.154   0.302  -3.062  0.00  0.00    +0.000 OA
ATOM     43  HXT LEU A   6      -6.252   0.546  -2.988  0.00  0.00    +0.000 HD
ENDBRANCH  40  42
ENDBRANCH  39  40
BRANCH  39  44
ATOM     44  CB  LEU A   6      -7.684  -2.174  -0.420  0.00  0.00    +0.000 C 
BRANCH  44  45
ATOM     45  CG  LEU A   6      -6.673  -3.082   0.262  0.00  0.00    +0.000 C 
ATOM     46  CD1 LEU A   6      -6.779  -4.435  -0.401  0.00  0.00    +0.000 C 
ATOM     47  CD2 LEU A   6      -7.012  -3.154   1.745  0.00  0.00    +0.000 C 
ENDBRANCH  44  45
ENDBRANCH  39  44
ENDBRANCH  37  39
ENDBRANCH  34  35
BRANCH  34  48
ATOM     48  CB  GLU A   5      -5.727   1.710   1.338  0.00  0.00    +0.000 C 
BRANCH  48  49
ATOM     49  CG  GLU A   5      -4.657   2.623   1.807  0.00  0.00    +0.000 C 
BRANCH  49  50
ATOM     50  CD  GLU A   5      -5.274   3.986   1.707  0.00  0.00    +0.000 C 
ATOM     51  OE1 GLU A   5      -6.197   4.169   2.561  0.00  0.00    +0.000 OA
BRANCH  50  52
ATOM     52  OE2 GLU A   5      -5.454   4.612   0.478  0.00  0.00    +0.000 OA
ATOM     53  HE2 GLU A   5      -4.809   4.517  -0.195  0.00  0.00    +0.000 HD
ENDBRANCH  50  52
ENDBRANCH  49  50
ENDBRANCH  48  49
ENDBRANCH  34  48
ENDBRANCH  32  34
ENDBRANCH  29  30
BRANCH  29  54
ATOM     54  CB  CYS A   4      -1.163   1.923   0.394  0.00  0.00    +0.000 C 
BRANCH  54  55
ATOM     55  SG  CYS A   4      -0.780   2.582   2.055  0.00  0.00    +0.000 S 
ATOM     56  HG  CYS A   4      -1.798   2.283   2.907  0.00  0.00    +0.000 HD
ENDBRANCH  54  55
ENDBRANCH  29  54
ENDBRANCH   3  29
TORSDOF 27
