REMARK  Name = 183797
REMARK  10 active torsions:
REMARK  status: ('A' for Active; 'I' for Inactive)
REMARK    1  A    between atoms: O_3  and  C_24
REMARK    2  A    between atoms: N_6  and  C_11
REMARK    3  A    between atoms: N_6  and  C_22
REMARK    4  A    between atoms: N_7  and  C_23
REMARK    5  A    between atoms: C_10  and  C_11
REMARK    6  A    between atoms: C_11  and  C_20
REMARK    7  A    between atoms: C_14  and  C_21
REMARK    8  A    between atoms: C_22  and  C_24
REMARK    9  A    between atoms: C_23  and  C_25
REMARK   10  A    between atoms: C_30  and  C_31
REMARK                            x       y       z     vdW  Elec       q    Type
REMARK                         _______ _______ _______ _____ _____    ______ ____
ROOT
ATOM      1  O   UNL     1       1.582   0.804   1.598  0.00  0.00    +0.000 OA
ATOM      2  N   UNL     1       1.694   1.780  -0.477  0.00  0.00    +0.000 N 
ATOM      3  C   UNL     1       1.234   3.147  -0.340  0.00  0.00    +0.000 C 
ATOM      4  C   UNL     1       1.935   1.864  -1.903  0.00  0.00    +0.000 C 
ATOM      5  C   UNL     1       1.815   3.384  -1.740  0.00  0.00    +0.000 C 
ATOM      6  C   UNL     1       1.825   0.735   0.395  0.00  0.00    +0.000 C 
ENDROOT
BRANCH   3   9
ATOM      7  O   UNL     1      -1.021   3.785  -1.020  0.00  0.00    +0.000 OA
ATOM      8  N   UNL     1      -0.744   2.796   1.053  0.00  0.00    +0.000 N 
ATOM      9  C   UNL     1      -0.286   3.288  -0.160  0.00  0.00    +0.000 C 
ATOM     10  H   UNL     1      -0.077   2.392   1.704  0.00  0.00    +0.000 HD
BRANCH   8  11
ATOM     11  C   UNL     1      -2.137   2.813   1.440  0.00  0.00    +0.000 C 
BRANCH  11  12
ATOM     12  C   UNL     1      -2.854   1.565   1.015  0.00  0.00    +0.000 A 
ATOM     13  C   UNL     1      -2.901   0.463   1.869  0.00  0.00    +0.000 A 
ATOM     14  C   UNL     1      -3.472   1.506  -0.234  0.00  0.00    +0.000 A 
ATOM     15  C   UNL     1      -3.566  -0.698   1.474  0.00  0.00    +0.000 A 
ATOM     16  C   UNL     1      -4.137   0.345  -0.629  0.00  0.00    +0.000 A 
ATOM     17  C   UNL     1      -4.184  -0.757   0.225  0.00  0.00    +0.000 A 
BRANCH  17  20
ATOM     18  N   UNL     1      -4.942  -3.084   0.645  0.00  0.00    +0.000 N 
ATOM     19  N   UNL     1      -5.459  -2.022  -1.372  0.00  0.00    +0.000 NA
ATOM     20  C   UNL     1      -4.878  -1.967  -0.186  0.00  0.00    +0.000 C 
ATOM     21  H   UNL     1      -5.429  -3.920   0.339  0.00  0.00    +0.000 HD
ATOM     22  H   UNL     1      -4.524  -3.127   1.565  0.00  0.00    +0.000 HD
ATOM     23  H   UNL     1      -5.888  -2.947  -1.477  0.00  0.00    +0.000 HD
ENDBRANCH  17  20
ENDBRANCH  11  12
ENDBRANCH   8  11
ENDBRANCH   3   9
BRANCH   6  24
ATOM     24  C   UNL     1       2.295  -0.548  -0.239  0.00  0.00    +0.000 C 
BRANCH  24  25
ATOM     25  C   UNL     1       3.603  -1.004   0.404  0.00  0.00    +0.000 C 
ATOM     26  C   UNL     1       4.072  -2.332  -0.205  0.00  0.00    +0.000 C 
ATOM     27  C   UNL     1       4.684   0.076   0.259  0.00  0.00    +0.000 C 
ATOM     28  C   UNL     1       5.407  -2.782   0.385  0.00  0.00    +0.000 C 
ATOM     29  C   UNL     1       6.017  -0.378   0.847  0.00  0.00    +0.000 C 
ATOM     30  C   UNL     1       6.476  -1.703   0.246  0.00  0.00    +0.000 C 
ENDBRANCH  24  25
BRANCH  24  31
ATOM     31  N   UNL     1       1.255  -1.544  -0.037  0.00  0.00    +0.000 NA
ATOM     32  H   UNL     1       0.892  -1.501   0.914  0.00  0.00    +0.000 HD
BRANCH  31  33
ATOM     33  C   UNL     1       0.183  -1.387  -1.013  0.00  0.00    +0.000 C 
BRANCH  33  35
ATOM     34  O   UNL     1      -0.767  -3.291   0.120  0.00  0.00    +0.000 OA
ATOM     35  C   UNL     1      -0.852  -2.449  -0.765  0.00  0.00    +0.000 C 
BRANCH  35  36
ATOM     36  O   UNL     1      -1.877  -2.406  -1.654  0.00  0.00    +0.000 OA
ATOM     37  H   UNL     1      -2.529  -3.121  -1.494  0.00  0.00    +0.000 HD
ENDBRANCH  35  36
ENDBRANCH  33  35
ENDBRANCH  31  33
ENDBRANCH  24  31
ENDBRANCH   6  24
TORSDOF 10
