REMARK  Name = 5464096
REMARK  11 active torsions:
REMARK  status: ('A' for Active; 'I' for Inactive)
REMARK    1  A    between atoms: O_2  and  C_16
REMARK    2  A    between atoms: O_4  and  C_21
REMARK    3  A    between atoms: N_7  and  CA_17
REMARK    4  A    between atoms: N_7  and  CA_19
REMARK    5  A    between atoms: CA_13  and  C_16
REMARK    6  A    between atoms: C_15  and  CA_17
REMARK    7  A    between atoms: CA_17  and  CB_18
REMARK    8  A    between atoms: CA_19  and  C_20
REMARK    9  A    between atoms: CA_19  and  C_21
REMARK   10  A    between atoms: C_20  and  C_22
REMARK   11  A    between atoms: C_22  and  C_23
REMARK                            x       y       z     vdW  Elec       q    Type
REMARK                         _______ _______ _______ _____ _____    ______ ____
ROOT
ATOM      1  CA  UNL     1       1.126   1.549   1.359  0.00  0.00    +0.000 C 
ATOM      2  CB  UNL     1       1.747   2.404   2.445  0.00  0.00    +0.000 C 
ENDROOT
BRANCH   1  12
ATOM      3  O   UNL     1       1.005  -0.676   2.188  0.00  0.00    +0.000 OA
ATOM      4  N   UNL     1       2.761  -0.188   0.763  0.00  0.00    +0.000 N 
ATOM      5  C   UNL     1       4.742  -1.381   0.146  0.00  0.00    +0.000 C 
ATOM      6  C   UNL     1       3.415  -1.484   0.913  0.00  0.00    +0.000 C 
ATOM      7  C   UNL     1       4.931   0.104  -0.151  0.00  0.00    +0.000 C 
ATOM      8  C   UNL     1       4.580  -2.279  -1.078  0.00  0.00    +0.000 C 
ATOM      9  C   UNL     1       2.637  -2.636   0.265  0.00  0.00    +0.000 C 
ATOM     10  CA  UNL     1       3.531   0.708  -0.092  0.00  0.00    +0.000 C 
ATOM     11  C   UNL     1       3.663  -3.382  -0.577  0.00  0.00    +0.000 C 
ATOM     12  C   UNL     1       1.615   0.128   1.480  0.00  0.00    +0.000 C 
BRANCH  10  14
ATOM     13  OXT UNL     1       1.877   0.151  -1.765  0.00  0.00    +0.000 OA
ATOM     14  C   UNL     1       2.893   0.751  -1.448  0.00  0.00    +0.000 C 
BRANCH  14  15
ATOM     15  O   UNL     1       3.600   1.551  -2.284  0.00  0.00    +0.000 OA
ATOM     16  H   UNL     1       3.199   1.591  -3.178  0.00  0.00    +0.000 HD
ENDBRANCH  14  15
ENDBRANCH  10  14
ENDBRANCH   1  12
BRANCH   1  17
ATOM     17  N   UNL     1      -0.320   1.510   1.488  0.00  0.00    +0.000 NA
ATOM     18  H   UNL     1      -0.691   2.410   1.791  0.00  0.00    +0.000 HD
BRANCH  17  19
ATOM     19  CA  UNL     1      -0.948   1.099   0.238  0.00  0.00    +0.000 C 
BRANCH  19  21
ATOM     20  OXT UNL     1      -1.155   3.474  -0.257  0.00  0.00    +0.000 OA
ATOM     21  C   UNL     1      -1.000   2.326  -0.655  0.00  0.00    +0.000 C 
BRANCH  21  22
ATOM     22  O   UNL     1      -0.829   2.022  -1.967  0.00  0.00    +0.000 OA
ATOM     23  H   UNL     1      -0.853   2.822  -2.534  0.00  0.00    +0.000 HD
ENDBRANCH  21  22
ENDBRANCH  19  21
BRANCH  19  24
ATOM     24  C   UNL     1      -2.358   0.567   0.530  0.00  0.00    +0.000 C 
BRANCH  24  25
ATOM     25  C   UNL     1      -3.123   0.077  -0.709  0.00  0.00    +0.000 C 
BRANCH  25  26
ATOM     26  C   UNL     1      -4.479  -0.516  -0.413  0.00  0.00    +0.000 A 
ATOM     27  C   UNL     1      -4.601  -1.882  -0.156  0.00  0.00    +0.000 A 
ATOM     28  C   UNL     1      -5.610   0.300  -0.396  0.00  0.00    +0.000 A 
ATOM     29  C   UNL     1      -5.854  -2.431   0.118  0.00  0.00    +0.000 A 
ATOM     30  C   UNL     1      -6.862  -0.249  -0.122  0.00  0.00    +0.000 A 
ATOM     31  C   UNL     1      -6.984  -1.615   0.135  0.00  0.00    +0.000 A 
ENDBRANCH  25  26
ENDBRANCH  24  25
ENDBRANCH  19  24
ENDBRANCH  17  19
ENDBRANCH   1  17
TORSDOF 10
