REMARK  Name = 
REMARK  13 active torsions:
REMARK  status: ('A' for Active; 'I' for Inactive)
REMARK    1  A    between atoms: CG_2  and  CB_6
REMARK    2  A    between atoms: CB_6  and  CA_7
REMARK    3  A    between atoms: CA_7  and  C_8
REMARK    4  A    between atoms: CA_7  and  N_20
REMARK    5  A    between atoms: N_10  and  CA_11
REMARK    6  A    between atoms: CA_11  and  CB_12
REMARK    7  A    between atoms: CA_11  and  C_17
REMARK    8  A    between atoms: CB_12  and  CG_13
REMARK    9  A    between atoms: CG_13  and  CD_14
REMARK   10  A    between atoms: CD_14  and  CE_15
REMARK   11  A    between atoms: CE_15  and  NZ_16
REMARK   12  A    between atoms: C_21  and  CA_23
REMARK   13  A    between atoms: CA_23  and  N_24
REMARK                            x       y       z     vdW  Elec       q    Type
REMARK                         _______ _______ _______ _____ _____    ______ ____
ROOT
ATOM      1  CA  HIS A   2       1.221   0.714   0.000  0.00  0.00    +0.000 C 
ENDROOT
BRANCH   1   2
ATOM      2  C   HIS A   2       0.396   0.714   0.000  0.00  0.00    +0.000 C 
ATOM      3  O   HIS A   2      -0.016   1.429   0.000  0.00  0.00    +0.000 OA
ATOM      4  N   LYS A   3      -0.016   0.000   0.000  0.00  0.00    +0.000 N 
ATOM      5  H   LYS A   3       0.476  -0.853   0.000  0.00  0.00    +0.000 HD
BRANCH   4   6
ATOM      6  CA  LYS A   3      -0.841   0.000   0.000  0.00  0.00    +0.000 C 
BRANCH   6   7
ATOM      7  C   LYS A   3      -1.254   0.714   0.000  0.00  0.00    +0.000 C 
ATOM      8  O   LYS A   3      -2.079   0.714   0.000  0.00  0.00    +0.000 OA
ATOM      9  OXT LYS A   3      -0.841   1.429   0.000  0.00  0.00    +0.000 OA
ENDBRANCH   6   7
BRANCH   6  10
ATOM     10  CB  LYS A   3      -1.254  -0.714   0.000  0.00  0.00    +0.000 C 
BRANCH  10  11
ATOM     11  CG  LYS A   3      -2.079  -0.714   0.000  0.00  0.00    +0.000 C 
BRANCH  11  12
ATOM     12  CD  LYS A   3      -2.491  -1.429   0.000  0.00  0.00    +0.000 C 
BRANCH  12  13
ATOM     13  CE  LYS A   3      -3.316  -1.429   0.000  0.00  0.00    +0.000 C 
BRANCH  13  14
ATOM     14  NZ  LYS A   3      -3.728  -2.143   0.000  0.00  0.00    +0.000 NA
ATOM     15  HZ1 LYS A   3      -4.748  -2.143   0.000  0.00  0.00    +0.000 HD
ATOM     16  HZ2 LYS A   3      -3.218  -3.027   0.000  0.00  0.00    +0.000 HD
ENDBRANCH  13  14
ENDBRANCH  12  13
ENDBRANCH  11  12
ENDBRANCH  10  11
ENDBRANCH   6  10
ENDBRANCH   4   6
ENDBRANCH   1   2
BRANCH   1  17
ATOM     17  N   HIS A   2       1.634   0.000   0.000  0.00  0.00    +0.000 N 
ATOM     18  C   GLY A   1       1.221  -0.714   0.000  0.00  0.00    +0.000 C 
ATOM     19  O   GLY A   1       0.396  -0.714   0.000  0.00  0.00    +0.000 OA
ATOM     20  H   HIS A   2       2.618   0.000   0.000  0.00  0.00    +0.000 HD
BRANCH  18  21
ATOM     21  CA  GLY A   1       1.634  -1.429   0.000  0.00  0.00    +0.000 C 
BRANCH  21  22
ATOM     22  N   GLY A   1       1.221  -2.143   0.000  0.00  0.00    +0.000 NA
ATOM     23  H1  GLY A   1       0.201  -2.143   0.000  0.00  0.00    +0.000 HD
ATOM     24  H2  GLY A   1       1.731  -3.027   0.000  0.00  0.00    +0.000 HD
ENDBRANCH  21  22
ENDBRANCH  18  21
ENDBRANCH   1  17
BRANCH   1  25
ATOM     25  CB  HIS A   2       1.634   1.429   0.000  0.00  0.00    +0.000 C 
BRANCH  25  27
ATOM     26  CD2 HIS A   2       2.944   0.761   0.000  0.00  0.00    +0.000 A 
ATOM     27  CG  HIS A   2       2.459   1.429   0.000  0.00  0.00    +0.000 A 
ATOM     28  ND1 HIS A   2       2.944   2.096   0.000  0.00  0.00    +0.000 N 
ATOM     29  CE1 HIS A   2       3.728   1.841   0.000  0.00  0.00    +0.000 A 
ATOM     30  NE2 HIS A   2       3.728   1.016   0.000  0.00  0.00    +0.000 NA
ATOM     31  HD1 HIS A   2       2.640   3.033   0.000  0.00  0.00    +0.000 HD
ENDBRANCH  25  27
ENDBRANCH   1  25
TORSDOF 13
REMARK  Name = 
REMARK  13 active torsions:
REMARK  status: ('A' for Active; 'I' for Inactive)
REMARK    1  A    between atoms: CG_2  and  CB_6
REMARK    2  A    between atoms: CB_6  and  CA_7
REMARK    3  A    between atoms: CA_7  and  C_8
REMARK    4  A    between atoms: CA_7  and  N_20
REMARK    5  A    between atoms: N_10  and  CA_11
REMARK    6  A    between atoms: CA_11  and  CB_12
REMARK    7  A    between atoms: CA_11  and  C_17
REMARK    8  A    between atoms: CB_12  and  CG_13
REMARK    9  A    between atoms: CG_13  and  CD_14
REMARK   10  A    between atoms: CD_14  and  CE_15
REMARK   11  A    between atoms: CE_15  and  NZ_16
REMARK   12  A    between atoms: C_21  and  CA_23
REMARK   13  A    between atoms: CA_23  and  N_24
REMARK                            x       y       z     vdW  Elec       q    Type
REMARK                         _______ _______ _______ _____ _____    ______ ____
ROOT
ATOM      1 CU   UNL     1      -0.428   2.143   0.000  0.00  0.00    +0.000 Cu
ENDROOT
TORSDOF 0
