REMARK  Name = 
REMARK  24 active torsions:
REMARK  status: ('A' for Active; 'I' for Inactive)
REMARK    1  A    between atoms: C_4  and  C_31
REMARK    2  A    between atoms: C_6  and  C_8
REMARK    3  A    between atoms: C_8  and  C_9
REMARK    4  A    between atoms: C_8  and  N_13
REMARK    5  A    between atoms: C_9  and  C_10
REMARK    6  A    between atoms: C_9  and  C_11
REMARK    7  A    between atoms: C_9  and  C_12
REMARK    8  A    between atoms: N_16  and  C_17
REMARK    9  A    between atoms: C_17  and  C_23
REMARK   10  A    between atoms: C_23  and  S_24
REMARK   11  A    between atoms: S_24  and  C_27
REMARK   12  A    between atoms: C_27  and  C_28
REMARK   13  A    between atoms: C_27  and  C_29
REMARK   14  A    between atoms: C_27  and  C_30
REMARK   15  A    between atoms: N_33  and  C_34
REMARK   16  A    between atoms: C_34  and  C_35
REMARK   17  A    between atoms: C_34  and  C_43
REMARK   18  A    between atoms: C_35  and  C_37
REMARK   19  A    between atoms: N_39  and  C_40
REMARK   20  A    between atoms: C_43  and  C_44
REMARK   21  A    between atoms: C_44  and  C_45
REMARK   22  A    between atoms: C_45  and  C_46
REMARK   23  A    between atoms: C_47  and  C_48
REMARK   24  A    between atoms: C_47  and  C_49
REMARK                            x       y       z     vdW  Elec       q    Type
REMARK                         _______ _______ _______ _____ _____    ______ ____
ROOT
ATOM      1  C   UNL     1       0.131  -1.449   0.000  0.00  0.00    +0.000 C 
ATOM      2  C   UNL     1      -0.649  -1.720   0.000  0.00  0.00    +0.000 C 
ATOM      3  C   UNL     1      -1.147  -1.062   0.000  0.00  0.00    +0.000 C 
ATOM      4  C   UNL     1      -0.675  -0.385   0.000  0.00  0.00    +0.000 C 
ATOM      5  N   UNL     1       0.115  -0.625   0.000  0.00  0.00    +0.000 N 
ATOM      6  C   UNL     1       0.773  -0.127   0.000  0.00  0.00    +0.000 C 
ATOM      7  O   UNL     1       0.671   0.692   0.000  0.00  0.00    +0.000 OA
ATOM      8  C   UNL     1      -1.468  -1.821   0.000  0.00  0.00    +0.000 C 
ATOM      9  C   UNL     1      -2.292  -1.852   0.000  0.00  0.00    +0.000 C 
ATOM     10  C   UNL     1      -1.721  -2.607   0.000  0.00  0.00    +0.000 C 
ENDROOT
BRANCH   4  11
ATOM     11  C   UNL     1      -0.945   0.395   0.000  0.00  0.00    +0.000 C 
ATOM     12  O   UNL     1      -0.405   1.018   0.000  0.00  0.00    +0.000 OA
ATOM     13  N   UNL     1      -1.755   0.550   0.000  0.00  0.00    +0.000 N 
ATOM     14  H   UNL     1      -2.399  -0.194   0.000  0.00  0.00    +0.000 HD
BRANCH  13  15
ATOM     15  C   UNL     1      -2.025   1.330   0.000  0.00  0.00    +0.000 C 
BRANCH  15  16
ATOM     16  C   UNL     1      -2.835   1.486   0.000  0.00  0.00    +0.000 C 
ATOM     17  O   UNL     1      -3.375   0.862   0.000  0.00  0.00    +0.000 OA
BRANCH  16  18
ATOM     18  C   UNL     1      -3.105   2.265   0.000  0.00  0.00    +0.000 C 
ATOM     19  O   UNL     1      -2.565   2.889   0.000  0.00  0.00    +0.000 OA
ATOM     20  N   UNL     1      -3.915   2.421   0.000  0.00  0.00    +0.000 N 
ATOM     21  H   UNL     1      -4.560   1.677   0.000  0.00  0.00    +0.000 HD
BRANCH  20  22
ATOM     22  C   UNL     1      -4.185   3.201   0.000  0.00  0.00    +0.000 C 
ATOM     23  C   UNL     1      -4.809   3.741   0.000  0.00  0.00    +0.000 C 
ATOM     24  C   UNL     1      -4.029   4.011   0.000  0.00  0.00    +0.000 C 
ENDBRANCH  20  22
ENDBRANCH  16  18
ENDBRANCH  15  16
BRANCH  15  25
ATOM     25  C   UNL     1      -1.485   1.954   0.000  0.00  0.00    +0.000 C 
BRANCH  25  26
ATOM     26  C   UNL     1      -0.675   1.798   0.000  0.00  0.00    +0.000 C 
BRANCH  26  27
ATOM     27  C   UNL     1      -0.135   2.421   0.000  0.00  0.00    +0.000 C 
ATOM     28  C   UNL     1       0.675   2.265   0.000  0.00  0.00    +0.000 C 
ENDBRANCH  26  27
ENDBRANCH  25  26
ENDBRANCH  15  25
ENDBRANCH  13  15
ENDBRANCH   4  11
BRANCH   6  29
ATOM     29  C   UNL     1       1.533  -0.448   0.000  0.00  0.00    +0.000 C 
BRANCH  29  30
ATOM     30  N   UNL     1       1.635  -1.266   0.000  0.00  0.00    +0.000 N 
ATOM     31  C   UNL     1       2.395  -1.587   0.000  0.00  0.00    +0.000 C 
ATOM     32  O   UNL     1       3.053  -1.090   0.000  0.00  0.00    +0.000 OA
ATOM     33  N   UNL     1       2.497  -2.406   0.000  0.00  0.00    +0.000 N 
ATOM     34  H   UNL     1       0.850  -1.860   0.000  0.00  0.00    +0.000 HD
ATOM     35  H   UNL     1       3.404  -2.789   0.000  0.00  0.00    +0.000 HD
BRANCH  33  36
ATOM     36  C   UNL     1       1.839  -2.904   0.000  0.00  0.00    +0.000 C 
ATOM     37  C   UNL     1       1.391  -3.596   0.000  0.00  0.00    +0.000 C 
ATOM     38  C   UNL     1       0.567  -3.555   0.000  0.00  0.00    +0.000 C 
ATOM     39  C   UNL     1       0.191  -2.821   0.000  0.00  0.00    +0.000 C 
ATOM     40  C   UNL     1       0.639  -2.128   0.000  0.00  0.00    +0.000 C 
ATOM     41  C   UNL     1       1.463  -2.169   0.000  0.00  0.00    +0.000 C 
BRANCH  36  42
ATOM     42  C   UNL     1       2.443  -3.465   0.000  0.00  0.00    +0.000 C 
BRANCH  42  43
ATOM     43  S   UNL     1       3.232  -3.223   0.000  0.00  0.00    +0.000 S 
ATOM     44  O   UNL     1       2.989  -2.434   0.000  0.00  0.00    +0.000 OA
ATOM     45  O   UNL     1       3.474  -4.011   0.000  0.00  0.00    +0.000 OA
BRANCH  43  46
ATOM     46  C   UNL     1       4.020  -2.980   0.000  0.00  0.00    +0.000 C 
ATOM     47  C   UNL     1       4.809  -2.737   0.000  0.00  0.00    +0.000 C 
ATOM     48  C   UNL     1       3.778  -2.192   0.000  0.00  0.00    +0.000 C 
ATOM     49  C   UNL     1       4.263  -3.768   0.000  0.00  0.00    +0.000 C 
ENDBRANCH  43  46
ENDBRANCH  42  43
ENDBRANCH  36  42
ENDBRANCH  33  36
ENDBRANCH  29  30
BRANCH  29  50
ATOM     50  C   UNL     1       2.191   0.050   0.000  0.00  0.00    +0.000 C 
ATOM     51  C   UNL     1       2.849   0.548   0.000  0.00  0.00    +0.000 C 
ATOM     52  C   UNL     1       1.693   0.708   0.000  0.00  0.00    +0.000 C 
ATOM     53  C   UNL     1       2.688  -0.608   0.000  0.00  0.00    +0.000 C 
ENDBRANCH  29  50
ENDBRANCH   6  29
TORSDOF 15
