REMARK  Name = 124093
REMARK  7 active torsions:
REMARK  status: ('A' for Active; 'I' for Inactive)
REMARK    1  A    between atoms: O_3  and  C_15
REMARK    2  A    between atoms: O_3  and  C_31
REMARK    3  A    between atoms: O_5  and  C_30
REMARK    4  A    between atoms: N_7  and  C_9
REMARK    5  A    between atoms: C_16  and  C_30
REMARK    6  A    between atoms: C_17  and  C_22
REMARK    7  A    between atoms: C_19  and  C_29
REMARK                            x       y       z     vdW  Elec       q    Type
REMARK                         _______ _______ _______ _____ _____    ______ ____
ROOT
ATOM      1  O   UNL     1      -4.023  -2.769  -0.038  0.00  0.00    +0.000 OA
ATOM      2  N   UNL     1      -2.606   1.052   0.045  0.00  0.00    +0.000 N 
ATOM      3  C   UNL     1      -1.668  -0.018   0.104  0.00  0.00    +0.000 A 
ATOM      4  C   UNL     1      -3.956   0.772  -0.038  0.00  0.00    +0.000 A 
ATOM      5  C   UNL     1      -2.131  -1.351   0.077  0.00  0.00    +0.000 A 
ATOM      6  C   UNL     1      -0.282   0.195   0.190  0.00  0.00    +0.000 A 
ATOM      7  C   UNL     1      -4.499  -0.452  -0.071  0.00  0.00    +0.000 A 
ATOM      8  C   UNL     1       0.608  -0.882   0.247  0.00  0.00    +0.000 A 
ATOM      9  C   UNL     1      -3.589  -1.624  -0.014  0.00  0.00    +0.000 A 
ATOM     10  C   UNL     1      -1.238  -2.429   0.134  0.00  0.00    +0.000 A 
ATOM     11  C   UNL     1       0.131  -2.189   0.219  0.00  0.00    +0.000 A 
ENDROOT
BRANCH   8  16
ATOM     12  N   UNL     1       6.487  -0.265  -1.086  0.00  0.00    +0.000 NA
ATOM     13  C   UNL     1       6.234  -0.013   0.354  0.00  0.00    +0.000 C 
ATOM     14  C   UNL     1       4.768  -0.263   0.541  0.00  0.00    +0.000 A 
ATOM     15  C   UNL     1       4.158  -0.363  -0.709  0.00  0.00    +0.000 A 
ATOM     16  C   UNL     1       2.040  -0.668   0.335  0.00  0.00    +0.000 A 
ATOM     17  C   UNL     1       5.184  -0.196  -1.779  0.00  0.00    +0.000 C 
ATOM     18  C   UNL     1       2.795  -0.563  -0.833  0.00  0.00    +0.000 A 
ATOM     19  C   UNL     1       4.024  -0.355   1.705  0.00  0.00    +0.000 A 
ATOM     20  C   UNL     1       2.647  -0.565   1.595  0.00  0.00    +0.000 A 
ATOM     21  C   UNL     1       7.126  -0.889   1.226  0.00  0.00    +0.000 C 
ATOM     22  H   UNL     1       6.852  -1.212  -1.195  0.00  0.00    +0.000 HD
ENDBRANCH   8  16
BRANCH   2  23
ATOM     23  C   UNL     1      -2.225   2.484   0.068  0.00  0.00    +0.000 C 
ATOM     24  C   UNL     1      -2.817   3.414   1.072  0.00  0.00    +0.000 C 
ATOM     25  C   UNL     1      -1.369   3.028   1.161  0.00  0.00    +0.000 C 
ENDBRANCH   2  23
BRANCH   7  27
ATOM     26  O   UNL     1      -6.741   0.249   0.293  0.00  0.00    +0.000 OA
ATOM     27  C   UNL     1      -5.955  -0.565  -0.160  0.00  0.00    +0.000 C 
BRANCH  27  28
ATOM     28  O   UNL     1      -6.283  -1.698  -0.816  0.00  0.00    +0.000 OA
ATOM     29  H   UNL     1      -7.254  -1.810  -0.897  0.00  0.00    +0.000 HD
ENDBRANCH  27  28
ENDBRANCH   7  27
BRANCH   6  30
ATOM     30  O   UNL     1       0.262   1.448   0.223  0.00  0.00    +0.000 OA
BRANCH  30  33
ATOM     31  F   UNL     1       1.933   2.291  -1.006  0.00  0.00    +0.000 F 
ATOM     32  F   UNL     1       0.387   1.143  -2.017  0.00  0.00    +0.000 F 
ATOM     33  C   UNL     1       0.598   2.041  -1.023  0.00  0.00    +0.000 C 
ENDBRANCH  30  33
ENDBRANCH   6  30
TORSDOF 6
