REMARK  Name = 154699467
REMARK  18 active torsions:
REMARK  status: ('A' for Active; 'I' for Inactive)
REMARK    1  A    between atoms: P_1  and  O_5
REMARK    2  A    between atoms: P_1  and  O_8
REMARK    3  A    between atoms: P_1  and  O_9
REMARK    4  A    between atoms: O_5  and  C_26
REMARK    5  A    between atoms: O_7  and  C_34
REMARK    6  A    between atoms: O_7  and  C_38
REMARK    7  A    between atoms: N_12  and  C_18
REMARK    8  A    between atoms: N_13  and  C_21
REMARK    9  A    between atoms: C_15  and  C_16
REMARK   10  A    between atoms: C_16  and  C_18
REMARK   11  A    between atoms: C_18  and  C_23
REMARK   12  A    between atoms: C_21  and  C_22
REMARK   13  A    between atoms: C_21  and  C_24
REMARK   14  A    between atoms: C_22  and  C_25
REMARK   15  A    between atoms: C_23  and  C_26
REMARK   16  A    between atoms: C_25  and  C_27
REMARK   17  A    between atoms: C_25  and  C_28
REMARK   18  A    between atoms: C_29  and  C_30
REMARK                            x       y       z     vdW  Elec       q    Type
REMARK                         _______ _______ _______ _____ _____    ______ ____
ROOT
ATOM      1  O   UNL     1       0.666   1.052   0.534  0.00  0.00    +0.000 OA
ATOM      2  N   UNL     1       1.919  -0.191  -0.972  0.00  0.00    +0.000 N 
ATOM      3  C   UNL     1       0.816   0.552  -0.580  0.00  0.00    +0.000 C 
ATOM      4  H   UNL     1       1.991  -0.499  -1.937  0.00  0.00    +0.000 HD
ENDROOT
BRANCH   2   5
ATOM      5  C   UNL     1       3.030  -0.458  -0.089  0.00  0.00    +0.000 C 
BRANCH   5   7
ATOM      6  O   UNL     1       4.187   1.296  -1.277  0.00  0.00    +0.000 OA
ATOM      7  C   UNL     1       3.987   0.721  -0.207  0.00  0.00    +0.000 C 
BRANCH   7   8
ATOM      8  C   UNL     1       4.714   1.121   1.062  0.00  0.00    +0.000 C 
BRANCH   8   9
ATOM      9  O   UNL     1       5.580   2.210   0.820  0.00  0.00    +0.000 OA
BRANCH   9  10
ATOM     10  P   UNL     1       6.455   2.794   2.053  0.00  0.00    +0.000 P 
ATOM     11  O   UNL     1       7.351   3.950   1.716  0.00  0.00    +0.000 OA
BRANCH  10  12
ATOM     12  O   UNL     1       7.222   1.491   2.629  0.00  0.00    +0.000 OA
ATOM     13  H   UNL     1       7.884   1.607   3.343  0.00  0.00    +0.000 HD
ENDBRANCH  10  12
BRANCH  10  14
ATOM     14  O   UNL     1       5.346   3.097   3.189  0.00  0.00    +0.000 OA
ATOM     15  H   UNL     1       5.625   3.544   4.017  0.00  0.00    +0.000 HD
ENDBRANCH  10  14
ENDBRANCH   9  10
ENDBRANCH   8   9
ENDBRANCH   7   8
ENDBRANCH   5   7
BRANCH   5  16
ATOM     16  C   UNL     1       3.751  -1.760  -0.434  0.00  0.00    +0.000 C 
BRANCH  16  19
ATOM     17  O   UNL     1       4.350  -4.401  -1.631  0.00  0.00    +0.000 OA
ATOM     18  N   UNL     1       3.025  -5.253   0.099  0.00  0.00    +0.000 N 
ATOM     19  C   UNL     1       2.837  -2.967  -0.355  0.00  0.00    +0.000 C 
ATOM     20  C   UNL     1       2.338  -3.258   1.063  0.00  0.00    +0.000 C 
ATOM     21  C   UNL     1       2.067  -4.749   1.045  0.00  0.00    +0.000 C 
ATOM     22  C   UNL     1       3.533  -4.261  -0.734  0.00  0.00    +0.000 C 
ATOM     23  H   UNL     1       3.290  -6.230   0.030  0.00  0.00    +0.000 HD
ENDBRANCH  16  19
ENDBRANCH   5  16
ENDBRANCH   2   5
BRANCH   3  24
ATOM     24  C   UNL     1      -0.236   0.660  -1.677  0.00  0.00    +0.000 C 
BRANCH  24  26
ATOM     25  O   UNL     1      -1.724  -1.707  -1.021  0.00  0.00    +0.000 OA
ATOM     26  N   UNL     1      -1.513   0.603  -1.006  0.00  0.00    +0.000 N 
ATOM     27  C   UNL     1      -2.157  -0.594  -0.731  0.00  0.00    +0.000 C 
ATOM     28  H   UNL     1      -1.909   1.479  -0.682  0.00  0.00    +0.000 HD
BRANCH  27  30
ATOM     29  N   UNL     1      -4.248  -1.558   0.286  0.00  0.00    +0.000 N 
ATOM     30  C   UNL     1      -3.476  -0.481  -0.059  0.00  0.00    +0.000 A 
ATOM     31  C   UNL     1      -4.143   0.659   0.328  0.00  0.00    +0.000 A 
ATOM     32  C   UNL     1      -5.368   0.260   0.931  0.00  0.00    +0.000 A 
ATOM     33  C   UNL     1      -5.410  -1.135   0.892  0.00  0.00    +0.000 A 
ATOM     34  C   UNL     1      -6.450   0.955   1.509  0.00  0.00    +0.000 A 
ATOM     35  C   UNL     1      -6.483  -1.874   1.404  0.00  0.00    +0.000 A 
ATOM     36  C   UNL     1      -7.530   0.229   2.025  0.00  0.00    +0.000 A 
ATOM     37  C   UNL     1      -7.544  -1.163   1.972  0.00  0.00    +0.000 A 
ATOM     38  H   UNL     1      -4.003  -2.525   0.121  0.00  0.00    +0.000 HD
BRANCH  34  39
ATOM     39  O   UNL     1      -6.466   2.322   1.576  0.00  0.00    +0.000 OA
ATOM     40  C   UNL     1      -7.047   3.011   0.474  0.00  0.00    +0.000 C 
ENDBRANCH  34  39
ENDBRANCH  27  30
ENDBRANCH  24  26
BRANCH  24  41
ATOM     41  C   UNL     1      -0.103   1.971  -2.459  0.00  0.00    +0.000 C 
BRANCH  41  42
ATOM     42  C   UNL     1      -1.171   2.196  -3.549  0.00  0.00    +0.000 C 
ATOM     43  C   UNL     1      -1.155   1.100  -4.615  0.00  0.00    +0.000 C 
ATOM     44  C   UNL     1      -0.951   3.559  -4.212  0.00  0.00    +0.000 C 
ENDBRANCH  41  42
ENDBRANCH  24  41
ENDBRANCH   3  24
TORSDOF 15
