REMARK  Name = 449366
REMARK  15 active torsions:
REMARK  status: ('A' for Active; 'I' for Inactive)
REMARK    1  A    between atoms: SG_1  and  C_12
REMARK    2  A    between atoms: SG_1  and  CB_18
REMARK    3  A    between atoms: O_2  and  C_13
REMARK    4  A    between atoms: O_5  and  C_34
REMARK    5  A    between atoms: O_7  and  C_35
REMARK    6  A    between atoms: N_9  and  CA_20
REMARK    7  A    between atoms: N_10  and  CA_33
REMARK    8  A    between atoms: N_11  and  CA_32
REMARK    9  A    between atoms: CB_18  and  CA_20
REMARK   10  A    between atoms: CA_20  and  C_28
REMARK   11  A    between atoms: C_29  and  C_30
REMARK   12  A    between atoms: C_29  and  C_31
REMARK   13  A    between atoms: C_31  and  CA_32
REMARK   14  A    between atoms: CA_32  and  C_34
REMARK   15  A    between atoms: CA_33  and  C_35
REMARK                            x       y       z     vdW  Elec       q    Type
REMARK                         _______ _______ _______ _____ _____    ______ ____
ROOT
ATOM      1  CA  UNL     1      -0.218  -2.728   0.804  0.00  0.00    +0.000 C 
ENDROOT
BRANCH   1   4
ATOM      2  O   UNL     1      -0.707  -3.749  -1.343  0.00  0.00    +0.000 OA
ATOM      3  N   UNL     1      -2.173  -4.104   0.420  0.00  0.00    +0.000 N 
ATOM      4  C   ACE A   1      -1.032  -3.579  -0.169  0.00  0.00    +0.000 C 
ATOM      5  H   UNL     1      -2.359  -3.931   1.403  0.00  0.00    +0.000 HD
BRANCH   3   6
ATOM      6  CA  UNL     1      -3.117  -4.922  -0.304  0.00  0.00    +0.000 C 
BRANCH   6   8
ATOM      7  OXT UNL     1      -5.115  -4.622  -1.614  0.00  0.00    +0.000 OA
ATOM      8  C   UNL     1      -4.210  -4.117  -0.960  0.00  0.00    +0.000 C 
BRANCH   8   9
ATOM      9  O   UNL     1      -4.096  -2.784  -0.758  0.00  0.00    +0.000 OA
ATOM     10  H   UNL     1      -4.817  -2.283  -1.194  0.00  0.00    +0.000 HD
ENDBRANCH   8   9
ENDBRANCH   6   8
ENDBRANCH   3   6
ENDBRANCH   1   4
BRANCH   1  12
ATOM     11  O   UNL     1       2.369  -2.385   2.035  0.00  0.00    +0.000 OA
ATOM     12  N   UNL     1       1.002  -2.317   0.158  0.00  0.00    +0.000 N 
ATOM     13  C   UNL     1       2.207  -2.179   0.836  0.00  0.00    +0.000 C 
ATOM     14  H   UNL     1       0.968  -2.097  -0.834  0.00  0.00    +0.000 HD
BRANCH  13  15
ATOM     15  C   UNL     1       3.323  -1.725  -0.090  0.00  0.00    +0.000 C 
BRANCH  15  16
ATOM     16  C   UNL     1       4.658  -1.567   0.640  0.00  0.00    +0.000 C 
BRANCH  16  17
ATOM     17  CA  UNL     1       5.807  -1.180  -0.298  0.00  0.00    +0.000 C 
BRANCH  17  18
ATOM     18  N   UNL     1       7.045  -1.047   0.473  0.00  0.00    +0.000 NA
ATOM     19  H1  UNL     1       7.253  -1.930   0.939  0.00  0.00    +0.000 HD
ATOM     20  H2  UNL     1       7.825  -0.871  -0.160  0.00  0.00    +0.000 HD
ENDBRANCH  17  18
BRANCH  17  22
ATOM     21  OXT UNL     1       5.848   1.252  -0.463  0.00  0.00    +0.000 OA
ATOM     22  C   UNL     1       5.556   0.167  -0.952  0.00  0.00    +0.000 C 
BRANCH  22  23
ATOM     23  O   UNL     1       4.934   0.048  -2.154  0.00  0.00    +0.000 OA
ATOM     24  H   UNL     1       4.760   0.922  -2.563  0.00  0.00    +0.000 HD
ENDBRANCH  22  23
ENDBRANCH  17  22
ENDBRANCH  16  17
ENDBRANCH  15  16
ENDBRANCH  13  15
ENDBRANCH   1  12
BRANCH   1  25
ATOM     25  CB  UNL     1      -1.002  -1.544   1.377  0.00  0.00    +0.000 C 
BRANCH  25  26
ATOM     26  SG  UNL     1      -1.569  -0.374   0.125  0.00  0.00    +0.000 S 
BRANCH  26  27
ATOM     27  C   UNL     1      -1.756   1.087   1.219  0.00  0.00    +0.000 C 
ATOM     28  C   UNL     1      -0.384   1.691   1.569  0.00  0.00    +0.000 C 
ATOM     29  C   UNL     1      -2.675   2.113   0.584  0.00  0.00    +0.000 A 
ATOM     30  C   UNL     1       0.190   2.539   0.456  0.00  0.00    +0.000 A 
ATOM     31  C   UNL     1      -2.142   3.162  -0.204  0.00  0.00    +0.000 A 
ATOM     32  C   UNL     1      -0.675   3.259  -0.400  0.00  0.00    +0.000 A 
ATOM     33  C   UNL     1      -4.064   1.999   0.774  0.00  0.00    +0.000 A 
ATOM     34  C   UNL     1       1.584   2.622   0.303  0.00  0.00    +0.000 A 
ATOM     35  C   UNL     1      -3.048   4.085  -0.759  0.00  0.00    +0.000 A 
ATOM     36  C   UNL     1      -0.086   4.029  -1.420  0.00  0.00    +0.000 A 
ATOM     37  C   UNL     1      -4.934   2.921   0.203  0.00  0.00    +0.000 A 
ATOM     38  C   UNL     1      -4.426   3.965  -0.560  0.00  0.00    +0.000 A 
ATOM     39  C   UNL     1       2.136   3.400  -0.709  0.00  0.00    +0.000 A 
ATOM     40  C   UNL     1       1.302   4.099  -1.572  0.00  0.00    +0.000 A 
BRANCH  28  41
ATOM     41  O   UNL     1      -0.534   2.489   2.749  0.00  0.00    +0.000 OA
ATOM     42  H   UNL     1      -0.819   1.899   3.468  0.00  0.00    +0.000 HD
ENDBRANCH  28  41
ENDBRANCH  26  27
ENDBRANCH  25  26
ENDBRANCH   1  25
TORSDOF 15
