REMARK  Name = 
REMARK  23 active torsions:
REMARK  status: ('A' for Active; 'I' for Inactive)
REMARK    1  A    between atoms: C_2  and  C_4
REMARK    2  A    between atoms: C_4  and  C_5
REMARK    3  A    between atoms: C_4  and  N_19
REMARK    4  A    between atoms: C_5  and  C_6
REMARK    5  A    between atoms: C_9  and  C_10
REMARK    6  A    between atoms: C_10  and  P_13
REMARK    7  A    between atoms: P_13  and  O_15
REMARK    8  A    between atoms: P_13  and  O_16
REMARK    9  A    between atoms: C_20  and  C_22
REMARK   10  A    between atoms: C_22  and  C_23
REMARK   11  A    between atoms: C_22  and  N_37
REMARK   12  A    between atoms: C_23  and  C_24
REMARK   13  A    between atoms: C_27  and  C_28
REMARK   14  A    between atoms: C_28  and  P_31
REMARK   15  A    between atoms: P_31  and  O_33
REMARK   16  A    between atoms: P_31  and  O_34
REMARK   17  A    between atoms: C_38  and  C_40
REMARK   18  A    between atoms: C_40  and  C_41
REMARK   19  A    between atoms: C_40  and  N_46
REMARK   20  A    between atoms: C_41  and  C_42
REMARK   21  A    between atoms: C_42  and  C_43
REMARK   22  A    between atoms: C_43  and  O_45
REMARK   23  A    between atoms: C_47  and  C_49
REMARK                            x       y       z     vdW  Elec       q    Type
REMARK                         _______ _______ _______ _____ _____    ______ ____
ROOT
ATOM      1  C   UNL     1      -1.335   0.488  -0.043  0.00  0.00    +0.000 C 
ENDROOT
BRANCH   1   3
ATOM      2  N   UNL     1       0.733  -0.839   0.748  0.00  0.00    +0.000 N 
ATOM      3  C   UNL     1       0.107   0.421   0.746  0.00  0.00    +0.000 C 
ATOM      4  O   UNL     1       0.772   1.374   0.229  0.00  0.00    +0.000 OA
ATOM      5  H   UNL     1       0.369  -1.607   1.246  0.00  0.00    +0.000 HD
BRANCH   2   6
ATOM      6  C   UNL     1       2.082  -0.940  -0.117  0.00  0.00    +0.000 C 
BRANCH   6   8
ATOM      7  N   UNL     1       1.012  -1.937  -2.118  0.00  0.00    +0.000 N 
ATOM      8  C   UNL     1       1.581  -2.301  -0.886  0.00  0.00    +0.000 C 
ATOM      9  O   UNL     1       1.071  -3.161  -0.169  0.00  0.00    +0.000 OA
ATOM     10  H   UNL     1       0.654  -2.630  -2.719  0.00  0.00    +0.000 HD
ATOM     11  H   UNL     1       0.970  -0.989  -2.380  0.00  0.00    +0.000 HD
ENDBRANCH   6   8
BRANCH   6  12
ATOM     12  C   UNL     1       2.872  -1.810   1.077  0.00  0.00    +0.000 C 
BRANCH  12  13
ATOM     13  C   UNL     1       4.318  -1.594   0.747  0.00  0.00    +0.000 A 
ATOM     14  C   UNL     1       4.723  -0.646  -0.183  0.00  0.00    +0.000 A 
ATOM     15  C   UNL     1       6.008  -0.643  -0.712  0.00  0.00    +0.000 A 
ATOM     16  C   UNL     1       7.018  -1.268  -0.005  0.00  0.00    +0.000 A 
ATOM     17  C   UNL     1       6.646  -2.255   0.882  0.00  0.00    +0.000 A 
ATOM     18  C   UNL     1       5.296  -2.466   1.138  0.00  0.00    +0.000 A 
BRANCH  16  19
ATOM     19  C   UNL     1       8.356  -0.655  -0.071  0.00  0.00    +0.000 C 
ATOM     20  F   UNL     1       8.388   0.438   0.790  0.00  0.00    +0.000 F 
ATOM     21  F   UNL     1       8.508  -0.124  -1.346  0.00  0.00    +0.000 F 
BRANCH  19  22
ATOM     22  P   UNL     1       9.701  -1.760   0.325  0.00  0.00    +0.000 P 
ATOM     23  O   UNL     1       9.175  -3.049   0.883  0.00  0.00    +0.000 OA
BRANCH  22  24
ATOM     24  O   UNL     1      10.743  -1.004   1.435  0.00  0.00    +0.000 OA
ATOM     25  H   UNL     1      10.254  -0.796   2.246  0.00  0.00    +0.000 HD
ENDBRANCH  22  24
BRANCH  22  26
ATOM     26  O   UNL     1      10.536  -2.136  -1.110  0.00  0.00    +0.000 OA
ATOM     27  H   UNL     1       9.931  -2.567  -1.733  0.00  0.00    +0.000 HD
ENDBRANCH  22  26
ENDBRANCH  19  22
ENDBRANCH  16  19
ENDBRANCH  12  13
ENDBRANCH   6  12
ENDBRANCH   2   6
ENDBRANCH   1   3
BRANCH   1  28
ATOM     28  N   UNL     1      -1.910  -0.809   0.707  0.00  0.00    +0.000 N 
ATOM     29  C   UNL     1      -3.043  -1.407   0.047  0.00  0.00    +0.000 C 
ATOM     30  O   UNL     1      -3.658  -0.588  -0.711  0.00  0.00    +0.000 OA
ATOM     31  H   UNL     1      -1.524  -1.164   1.541  0.00  0.00    +0.000 HD
BRANCH  29  32
ATOM     32  C   UNL     1      -2.632  -2.786  -0.766  0.00  0.00    +0.000 C 
BRANCH  32  33
ATOM     33  N   UNL     1      -3.076  -3.779   0.411  0.00  0.00    +0.000 N 
ATOM     34  C   UNL     1      -4.267  -3.498   1.063  0.00  0.00    +0.000 C 
ATOM     35  O   UNL     1      -4.412  -2.311   1.417  0.00  0.00    +0.000 OA
ATOM     36  H   UNL     1      -2.526  -4.556   0.660  0.00  0.00    +0.000 HD
BRANCH  34  37
ATOM     37  C   UNL     1      -5.179  -4.528   1.608  0.00  0.00    +0.000 A 
ATOM     38  C   UNL     1      -5.887  -5.174   0.596  0.00  0.00    +0.000 A 
ATOM     39  C   UNL     1      -7.250  -5.391   0.649  0.00  0.00    +0.000 A 
ATOM     40  C   UNL     1      -7.853  -5.328   1.894  0.00  0.00    +0.000 A 
ATOM     41  C   UNL     1      -7.061  -4.990   2.985  0.00  0.00    +0.000 A 
ATOM     42  C   UNL     1      -5.931  -4.218   2.735  0.00  0.00    +0.000 A 
ENDBRANCH  34  37
ENDBRANCH  32  33
BRANCH  32  43
ATOM     43  C   UNL     1      -4.114  -2.911  -1.542  0.00  0.00    +0.000 C 
BRANCH  43  44
ATOM     44  C   UNL     1      -3.911  -2.073  -2.799  0.00  0.00    +0.000 C 
BRANCH  44  45
ATOM     45  C   UNL     1      -5.302  -1.796  -3.272  0.00  0.00    +0.000 C 
ATOM     46  O   UNL     1      -5.721  -0.630  -3.474  0.00  0.00    +0.000 OA
BRANCH  45  47
ATOM     47  O   UNL     1      -6.296  -2.769  -3.137  0.00  0.00    +0.000 OA
ATOM     48  H   UNL     1      -6.059  -3.663  -2.985  0.00  0.00    +0.000 HD
ENDBRANCH  45  47
ENDBRANCH  44  45
ENDBRANCH  43  44
ENDBRANCH  32  43
ENDBRANCH  29  32
ENDBRANCH   1  28
BRANCH   1  49
ATOM     49  C   UNL     1      -1.975   1.509   1.120  0.00  0.00    +0.000 C 
BRANCH  49  50
ATOM     50  C   UNL     1      -1.600   2.848   0.567  0.00  0.00    +0.000 A 
ATOM     51  C   UNL     1      -2.095   3.243  -0.669  0.00  0.00    +0.000 A 
ATOM     52  C   UNL     1      -2.054   4.568  -1.029  0.00  0.00    +0.000 A 
ATOM     53  C   UNL     1      -1.680   5.514  -0.106  0.00  0.00    +0.000 A 
ATOM     54  C   UNL     1      -1.142   5.120   1.101  0.00  0.00    +0.000 A 
ATOM     55  C   UNL     1      -0.888   3.788   1.278  0.00  0.00    +0.000 A 
BRANCH  53  56
ATOM     56  C   UNL     1      -2.096   6.948  -0.186  0.00  0.00    +0.000 C 
ATOM     57  F   UNL     1      -2.530   7.199  -1.457  0.00  0.00    +0.000 F 
ATOM     58  F   UNL     1      -3.151   7.095   0.707  0.00  0.00    +0.000 F 
BRANCH  56  59
ATOM     59  P   UNL     1      -0.693   7.986   0.286  0.00  0.00    +0.000 P 
ATOM     60  O   UNL     1       0.414   7.180   0.936  0.00  0.00    +0.000 OA
BRANCH  59  61
ATOM     61  O   UNL     1      -1.247   9.123   1.392  0.00  0.00    +0.000 OA
ATOM     62  H   UNL     1      -1.598   8.669   2.174  0.00  0.00    +0.000 HD
ENDBRANCH  59  61
BRANCH  59  63
ATOM     63  O   UNL     1      -0.073   8.732  -1.093  0.00  0.00    +0.000 OA
ATOM     64  H   UNL     1       0.239   8.055  -1.714  0.00  0.00    +0.000 HD
ENDBRANCH  59  63
ENDBRANCH  56  59
ENDBRANCH  53  56
ENDBRANCH  49  50
ENDBRANCH   1  49
TORSDOF 23
