REMARK  Name = 449124
REMARK  13 active torsions:
REMARK  status: ('A' for Active; 'I' for Inactive)
REMARK    1  A    between atoms: O_4  and  C_41
REMARK    2  A    between atoms: O_8  and  C_45
REMARK    3  A    between atoms: N_11  and  C_27
REMARK    4  A    between atoms: N_16  and  C_32
REMARK    5  A    between atoms: N_19  and  C_48
REMARK    6  A    between atoms: C_20  and  C_24
REMARK    7  A    between atoms: C_21  and  C_22
REMARK    8  A    between atoms: C_22  and  C_25
REMARK    9  A    between atoms: C_24  and  C_28
REMARK   10  A    between atoms: C_25  and  C_32
REMARK   11  A    between atoms: C_29  and  C_41
REMARK   12  A    between atoms: C_30  and  C_38
REMARK   13  A    between atoms: C_34  and  C_45
REMARK                            x       y       z     vdW  Elec       q    Type
REMARK                         _______ _______ _______ _____ _____    ______ ____
ROOT
ATOM      1  O   UNK A   1       0.412  -1.299  -2.000  0.00  0.00    +0.000 OA
ATOM      2  O   UNK A   1      -2.107   3.466  -1.593  0.00  0.00    +0.000 OA
ATOM      3  O   UNK A   1      -1.237  -1.111   1.764  0.00  0.00    +0.000 OA
ATOM      4  O   UNK A   2      -3.929  -0.289  -1.384  0.00  0.00    +0.000 OA
ATOM      5  O   UNK A   2      -1.910  -4.379  -0.786  0.00  0.00    +0.000 OA
ATOM      6  N   UNK A   1       0.008   0.979  -1.866  0.00  0.00    +0.000 N 
ATOM      7  N   UNK A   1       0.703  -1.629   0.602  0.00  0.00    +0.000 N 
ATOM      8  N   UNK A   2      -2.154   1.819   0.038  0.00  0.00    +0.000 N 
ATOM      9  N   UNK A   2      -1.996  -3.706   1.439  0.00  0.00    +0.000 N 
ATOM     10  N   UNK A   2      -4.500  -1.732   0.348  0.00  0.00    +0.000 N 
ATOM     11  C   UNK A   1      -0.059   2.258  -1.118  0.00  0.00    +0.000 C 
ATOM     12  C   UNK A   1       0.961  -0.285   0.096  0.00  0.00    +0.000 C 
ATOM     13  C   UNK A   1       0.416  -0.255  -1.335  0.00  0.00    +0.000 C 
ATOM     14  C   UNK A   1      -1.538   2.604  -0.926  0.00  0.00    +0.000 C 
ATOM     15  C   ACE A   0      -0.429   1.004  -3.266  0.00  0.00    +0.000 C 
ATOM     16  C   UNK A   2      -3.571   1.913   0.349  0.00  0.00    +0.000 C 
ATOM     17  C   UNK A   1      -0.578  -3.428   1.602  0.00  0.00    +0.000 C 
ATOM     18  C   UNK A   1      -0.430  -1.936   1.340  0.00  0.00    +0.000 C 
ATOM     19  C   UNK A   2      -4.137   0.592   0.862  0.00  0.00    +0.000 C 
ATOM     20  C   UNK A   2      -4.637  -2.942  -0.445  0.00  0.00    +0.000 C 
ATOM     21  C   UNK A   2      -4.059  -4.164   0.260  0.00  0.00    +0.000 C 
ATOM     22  C   UNK A   1      -0.098  -3.768   3.003  0.00  0.00    +0.000 C 
ATOM     23  C   UNK A   2      -4.165  -0.499  -0.197  0.00  0.00    +0.000 C 
ATOM     24  C   UNK A   2      -2.544  -4.116   0.234  0.00  0.00    +0.000 C 
ATOM     25  H   UNK A   1       1.310  -2.380   0.286  0.00  0.00    +0.000 HD
ATOM     26  H   UNK A   2      -1.593   1.174   0.585  0.00  0.00    +0.000 HD
ATOM     27  H   UNK A   2      -2.616  -3.463   2.207  0.00  0.00    +0.000 HD
ATOM     28  H   UNK A   2      -4.732  -1.785   1.337  0.00  0.00    +0.000 HD
ENDROOT
BRANCH  16  30
ATOM     29  O   UNK A   2      -2.803   3.161   2.269  0.00  0.00    +0.000 OA
ATOM     30  C   UNK A   2      -3.654   2.960   1.415  0.00  0.00    +0.000 C 
BRANCH  30  31
ATOM     31  O   UNK A   2      -4.809   3.661   1.308  0.00  0.00    +0.000 OA
ATOM     32  H   UNK A   2      -4.883   4.353   2.000  0.00  0.00    +0.000 HD
ENDBRANCH  30  31
ENDBRANCH  16  30
BRANCH  20  34
ATOM     33  O   UNK A   1      -6.966  -2.766   0.163  0.00  0.00    +0.000 OA
ATOM     34  C   UNK A   1      -6.111  -3.094  -0.646  0.00  0.00    +0.000 C 
BRANCH  34  35
ATOM     35  O   UNK A   1      -6.375  -3.651  -1.853  0.00  0.00    +0.000 OA
ATOM     36  H   UNK A   1      -7.338  -3.760  -2.003  0.00  0.00    +0.000 HD
ENDBRANCH  34  35
ENDBRANCH  20  34
BRANCH  12  37
ATOM     37  C   UNK A   1       2.451   0.021   0.101  0.00  0.00    +0.000 C 
BRANCH  37  38
ATOM     38  C   UNK A   1       3.013   0.041   1.524  0.00  0.00    +0.000 C 
BRANCH  38  39
ATOM     39  C   UNK A   1       4.509   0.332   1.556  0.00  0.00    +0.000 C 
BRANCH  39  41
ATOM     40  O   UNK A   1       5.545  -3.017  -0.672  0.00  0.00    +0.000 OA
ATOM     41  N   UNK A   1       5.234  -0.715   0.835  0.00  0.00    +0.000 NA
ATOM     42  N   UNK A   1       7.240  -1.617   0.131  0.00  0.00    +0.000 N 
ATOM     43  N   UNK A   1       7.312   0.337   1.391  0.00  0.00    +0.000 N 
ATOM     44  N   UNK A   1       7.778  -3.485  -1.111  0.00  0.00    +0.000 N 
ATOM     45  C   UNK A   1       6.521  -0.628   0.814  0.00  0.00    +0.000 C 
ATOM     46  C   UNK A   1       6.737  -2.736  -0.563  0.00  0.00    +0.000 C 
ATOM     47  C   UNK A   1       7.573  -4.691  -1.879  0.00  0.00    +0.000 C 
ATOM     48  H   UNK A   1       8.251  -1.512   0.137  0.00  0.00    +0.000 HD
ATOM     49  H   UNK A   1       6.924   1.114   1.913  0.00  0.00    +0.000 HD
ATOM     50  H   UNK A   1       8.323   0.304   1.308  0.00  0.00    +0.000 HD
ATOM     51  H   UNK A   1       8.733  -3.187  -0.939  0.00  0.00    +0.000 HD
ENDBRANCH  39  41
ENDBRANCH  38  39
ENDBRANCH  37  38
ENDBRANCH  12  37
BRANCH  11  52
ATOM     52  C   UNK A   1       0.703   3.385  -1.817  0.00  0.00    +0.000 C 
BRANCH  52  53
ATOM     53  C   UNK A   1       1.002   4.517  -0.874  0.00  0.00    +0.000 A 
ATOM     54  C   UNK A   1       0.094   5.566  -0.732  0.00  0.00    +0.000 A 
ATOM     55  C   UNK A   1       2.189   4.518  -0.140  0.00  0.00    +0.000 A 
ATOM     56  C   UNK A   1       0.372   6.616   0.143  0.00  0.00    +0.000 A 
ATOM     57  C   UNK A   1       2.466   5.568   0.735  0.00  0.00    +0.000 A 
ATOM     58  C   UNK A   1       1.558   6.617   0.876  0.00  0.00    +0.000 A 
ENDBRANCH  52  53
ENDBRANCH  11  52
TORSDOF 10
