REMARK  Name = 444695
REMARK  11 active torsions:
REMARK  status: ('A' for Active; 'I' for Inactive)
REMARK    1  A    between atoms: P_1  and  O_5
REMARK    2  A    between atoms: P_1  and  O_6
REMARK    3  A    between atoms: P_1  and  C_20
REMARK    4  A    between atoms: O_9  and  C_29
REMARK    5  A    between atoms: N_11  and  C_13
REMARK    6  A    between atoms: C_13  and  C_14
REMARK    7  A    between atoms: C_13  and  C_28
REMARK    8  A    between atoms: C_14  and  C_22
REMARK    9  A    between atoms: C_17  and  C_20
REMARK   10  A    between atoms: C_18  and  C_24
REMARK   11  A    between atoms: C_22  and  C_29
REMARK                            x       y       z     vdW  Elec       q    Type
REMARK                         _______ _______ _______ _____ _____    ______ ____
ROOT
ATOM      1  C   UNL     1      -1.674   0.538  -0.495  0.00  0.00    +0.000 A 
ATOM      2  C   UNL     1      -1.357   0.909   0.834  0.00  0.00    +0.000 A 
ATOM      3  C   UNL     1      -4.030   0.447   0.106  0.00  0.00    +0.000 A 
ATOM      4  C   UNL     1       0.969   0.995   0.225  0.00  0.00    +0.000 A 
ATOM      5  C   UNL     1      -3.016   0.310  -0.843  0.00  0.00    +0.000 A 
ATOM      6  C   UNL     1      -0.015   1.137   1.181  0.00  0.00    +0.000 A 
ATOM      7  C   UNL     1      -2.391   1.042   1.775  0.00  0.00    +0.000 A 
ATOM      8  C   UNL     1      -0.641   0.405  -1.436  0.00  0.00    +0.000 A 
ATOM      9  C   UNL     1      -3.718   0.812   1.412  0.00  0.00    +0.000 A 
ATOM     10  C   UNL     1       0.686   0.635  -1.073  0.00  0.00    +0.000 A 
ENDROOT
BRANCH   4  13
ATOM     11  O   UNL     1       2.629   1.987   1.550  0.00  0.00    +0.000 OA
ATOM     12  N   UNL     1       3.338   0.560  -0.134  0.00  0.00    +0.000 N 
ATOM     13  C   UNL     1       2.383   1.238   0.609  0.00  0.00    +0.000 C 
ATOM     14  H   UNL     1       3.064  -0.064  -0.885  0.00  0.00    +0.000 HD
BRANCH  12  15
ATOM     15  C   UNL     1       4.752   0.673   0.134  0.00  0.00    +0.000 C 
BRANCH  15  18
ATOM     16  O   UNL     1       4.789   2.166  -1.778  0.00  0.00    +0.000 OA
ATOM     17  N   UNL     1       6.260   2.557  -0.057  0.00  0.00    +0.000 N 
ATOM     18  C   UNL     1       5.239   1.867  -0.673  0.00  0.00    +0.000 C 
ATOM     19  H   UNL     1       6.633   2.287   0.847  0.00  0.00    +0.000 HD
ATOM     20  H   UNL     1       6.680   3.369  -0.498  0.00  0.00    +0.000 HD
ENDBRANCH  15  18
BRANCH  15  21
ATOM     21  C   UNL     1       5.487  -0.611  -0.264  0.00  0.00    +0.000 C 
BRANCH  21  22
ATOM     22  C   UNL     1       5.044  -1.827   0.551  0.00  0.00    +0.000 C 
BRANCH  22  24
ATOM     23  O   UNL     1       6.694  -3.131  -0.675  0.00  0.00    +0.000 OA
ATOM     24  C   UNL     1       5.807  -3.074   0.165  0.00  0.00    +0.000 C 
BRANCH  24  25
ATOM     25  O   UNL     1       5.391  -4.152   0.880  0.00  0.00    +0.000 OA
ATOM     26  H   UNL     1       5.885  -4.964   0.637  0.00  0.00    +0.000 HD
ENDBRANCH  24  25
ENDBRANCH  22  24
ENDBRANCH  21  22
ENDBRANCH  15  21
ENDBRANCH  12  15
ENDBRANCH   4  13
BRANCH   3  29
ATOM     27  F   UNL     1      -6.358   0.926   0.421  0.00  0.00    +0.000 F 
ATOM     28  F   UNL     1      -5.725   0.406  -1.596  0.00  0.00    +0.000 F 
ATOM     29  C   UNL     1      -5.449   0.201  -0.281  0.00  0.00    +0.000 C 
BRANCH  29  30
ATOM     30  P   UNL     1      -6.119  -1.423  -0.059  0.00  0.00    +0.000 P 
ATOM     31  O   UNL     1      -6.106  -1.918   1.357  0.00  0.00    +0.000 OA
BRANCH  30  32
ATOM     32  O   UNL     1      -5.284  -2.333  -1.103  0.00  0.00    +0.000 OA
ATOM     33  H   UNL     1      -5.453  -3.299  -1.131  0.00  0.00    +0.000 HD
ENDBRANCH  30  32
BRANCH  30  34
ATOM     34  O   UNL     1      -7.586  -1.343  -0.734  0.00  0.00    +0.000 OA
ATOM     35  H   UNL     1      -8.169  -2.131  -0.696  0.00  0.00    +0.000 HD
ENDBRANCH  30  34
ENDBRANCH  29  30
ENDBRANCH   3  29
TORSDOF 11
