REMARK  Name = 
REMARK  27 active torsions:
REMARK  status: ('A' for Active; 'I' for Inactive)
REMARK    1  A    between atoms: C_1  and  C_2
REMARK    2  A    between atoms: C_2  and  C_3
REMARK    3  A    between atoms: C_3  and  C_4
REMARK    4  A    between atoms: C_3  and  C_5
REMARK    5  A    between atoms: C_5  and  N_6
REMARK    6  A    between atoms: C_5  and  C_43
REMARK    7  A    between atoms: C_7  and  C_9
REMARK    8  A    between atoms: C_9  and  O_10
REMARK    9  A    between atoms: C_9  and  C_18
REMARK   10  A    between atoms: O_10  and  C_11
REMARK   11  A    between atoms: C_11  and  C_12
REMARK   12  A    between atoms: C_18  and  O_19
REMARK   13  A    between atoms: C_18  and  C_20
REMARK   14  A    between atoms: C_20  and  O_21
REMARK   15  A    between atoms: C_20  and  C_22
REMARK   16  A    between atoms: C_22  and  O_23
REMARK   17  A    between atoms: C_22  and  C_31
REMARK   18  A    between atoms: O_23  and  C_24
REMARK   19  A    between atoms: C_24  and  C_25
REMARK   20  A    between atoms: N_33  and  C_34
REMARK   21  A    between atoms: C_34  and  C_35
REMARK   22  A    between atoms: C_34  and  C_39
REMARK   23  A    between atoms: N_37  and  C_38
REMARK   24  A    between atoms: C_39  and  C_40
REMARK   25  A    between atoms: C_39  and  C_41
REMARK   26  A    between atoms: C_41  and  C_42
REMARK   27  A    between atoms: N_45  and  C_46
REMARK                            x       y       z     vdW  Elec       q    Type
REMARK                         _______ _______ _______ _____ _____    ______ ____
ROOT
ATOM      1  C   UNL     1      -0.644  -0.908  -0.422  0.00  0.00    +0.000 C 
ENDROOT
BRANCH   1   2
ATOM      2  O   UNL     1      -0.347  -0.347   0.933  0.00  0.00    +0.000 OA
ATOM      3  H   UNL     1      -0.245   0.616   0.869  0.00  0.00    +0.000 HD
ENDBRANCH   1   2
BRANCH   1   4
ATOM      4  C   UNL     1      -1.835   0.287  -0.743  0.00  0.00    +0.000 C 
BRANCH   4   6
ATOM      5  N   UNL     1      -3.936   0.592   0.589  0.00  0.00    +0.000 N 
ATOM      6  C   UNL     1      -2.739  -0.087   0.535  0.00  0.00    +0.000 C 
ATOM      7  O   UNL     1      -2.689  -1.258   0.938  0.00  0.00    +0.000 OA
ATOM      8  H   UNL     1      -3.987   1.491   0.191  0.00  0.00    +0.000 HD
BRANCH   5   9
ATOM      9  C   UNL     1      -5.215  -0.006   1.257  0.00  0.00    +0.000 C 
BRANCH   9  10
ATOM     10  C   UNL     1      -5.297   1.167   2.346  0.00  0.00    +0.000 C 
ATOM     11  O   UNL     1      -6.253   0.947   3.152  0.00  0.00    +0.000 OA
ATOM     12  N   UNL     1      -5.300   2.497   1.826  0.00  0.00    +0.000 N 
ATOM     13  C   UNL     1      -5.341   3.613   2.747  0.00  0.00    +0.000 C 
ATOM     14  H   UNL     1      -5.274   2.652   0.854  0.00  0.00    +0.000 HD
ENDBRANCH   9  10
BRANCH   9  15
ATOM     15  C   UNL     1      -4.369  -1.167   2.185  0.00  0.00    +0.000 C 
ATOM     16  C   UNL     1      -4.054  -0.305   3.512  0.00  0.00    +0.000 C 
BRANCH  15  18
ATOM     17  C   UNL     1      -5.877  -3.082   1.995  0.00  0.00    +0.000 C 
ATOM     18  C   UNL     1      -5.742  -1.782   2.782  0.00  0.00    +0.000 C 
ENDBRANCH  15  18
ENDBRANCH   9  15
ENDBRANCH   5   9
ENDBRANCH   4   6
BRANCH   4  19
ATOM     19  O   UNL     1      -2.600  -0.671  -1.628  0.00  0.00    +0.000 OA
BRANCH  19  20
ATOM     20  C   UNL     1      -3.536   0.172  -2.252  0.00  0.00    +0.000 C 
BRANCH  20  21
ATOM     21  C   UNL     1      -2.952   0.529  -3.567  0.00  0.00    +0.000 A 
ATOM     22  C   UNL     1      -3.022   1.857  -3.955  0.00  0.00    +0.000 A 
ATOM     23  C   UNL     1      -2.532   2.242  -5.180  0.00  0.00    +0.000 A 
ATOM     24  C   UNL     1      -1.861   1.320  -5.963  0.00  0.00    +0.000 A 
ATOM     25  C   UNL     1      -1.948  -0.024  -5.650  0.00  0.00    +0.000 A 
ATOM     26  C   UNL     1      -2.336  -0.414  -4.379  0.00  0.00    +0.000 A 
ENDBRANCH  20  21
ENDBRANCH  19  20
ENDBRANCH   4  19
ENDBRANCH   1   4
BRANCH   1  27
ATOM     27  C   UNL     1       0.573  -0.070  -1.272  0.00  0.00    +0.000 C 
BRANCH  27  28
ATOM     28  O   UNL     1       0.426   1.226  -0.543  0.00  0.00    +0.000 OA
ATOM     29  H   UNL     1       0.380   1.057   0.411  0.00  0.00    +0.000 HD
ENDBRANCH  27  28
BRANCH  27  30
ATOM     30  C   UNL     1       1.793  -0.659  -0.219  0.00  0.00    +0.000 C 
BRANCH  30  31
ATOM     31  C   UNL     1       2.755   0.621  -0.388  0.00  0.00    +0.000 C 
ATOM     32  O   UNL     1       2.706   1.264  -1.434  0.00  0.00    +0.000 OA
ATOM     33  N   UNL     1       2.854   1.274   0.833  0.00  0.00    +0.000 N 
ATOM     34  H   UNL     1       2.627   0.808   1.670  0.00  0.00    +0.000 HD
BRANCH  33  35
ATOM     35  C   UNL     1       3.333   2.761   0.856  0.00  0.00    +0.000 C 
BRANCH  35  36
ATOM     36  C   UNL     1       4.895   2.414   0.767  0.00  0.00    +0.000 C 
ATOM     37  O   UNL     1       5.396   3.531   0.395  0.00  0.00    +0.000 OA
ATOM     38  N   UNL     1       5.328   1.366  -0.055  0.00  0.00    +0.000 N 
ATOM     39  C   UNL     1       6.469   1.486  -0.963  0.00  0.00    +0.000 C 
ATOM     40  H   UNL     1       4.843   0.510  -0.020  0.00  0.00    +0.000 HD
ENDBRANCH  35  36
BRANCH  35  41
ATOM     41  C   UNL     1       3.230   2.934   2.562  0.00  0.00    +0.000 C 
ATOM     42  C   UNL     1       3.547   1.405   2.987  0.00  0.00    +0.000 C 
BRANCH  41  43
ATOM     43  C   UNL     1       4.725   3.494   2.824  0.00  0.00    +0.000 C 
ATOM     44  C   UNL     1       5.611   2.466   3.397  0.00  0.00    +0.000 C 
ENDBRANCH  41  43
ENDBRANCH  35  41
ENDBRANCH  33  35
ENDBRANCH  30  31
BRANCH  30  45
ATOM     45  O   UNL     1       2.483  -1.391  -1.347  0.00  0.00    +0.000 OA
BRANCH  45  46
ATOM     46  C   UNL     1       3.651  -1.904  -0.759  0.00  0.00    +0.000 C 
BRANCH  46  47
ATOM     47  C   UNL     1       3.497  -3.288  -0.288  0.00  0.00    +0.000 A 
ATOM     48  C   UNL     1       3.996  -4.343  -1.043  0.00  0.00    +0.000 A 
ATOM     49  C   UNL     1       4.143  -5.568  -0.421  0.00  0.00    +0.000 A 
ATOM     50  C   UNL     1       3.543  -5.784   0.811  0.00  0.00    +0.000 A 
ATOM     51  C   UNL     1       2.704  -4.836   1.385  0.00  0.00    +0.000 A 
ATOM     52  C   UNL     1       2.764  -3.570   0.857  0.00  0.00    +0.000 A 
ENDBRANCH  46  47
ENDBRANCH  45  46
ENDBRANCH  30  45
ENDBRANCH  27  30
ENDBRANCH   1  27
TORSDOF 21
