REMARK  Name = 
REMARK  19 active torsions:
REMARK  status: ('A' for Active; 'I' for Inactive)
REMARK    1  A    between atoms: C_1  and  C_2
REMARK    2  A    between atoms: C_2  and  C_3
REMARK    3  A    between atoms: C_3  and  C_4
REMARK    4  A    between atoms: C_4  and  C_5
REMARK    5  A    between atoms: C_5  and  C_6
REMARK    6  A    between atoms: C_6  and  S_7
REMARK    7  A    between atoms: S_7  and  C_8
REMARK    8  A    between atoms: C_8  and  C_9
REMARK    9  A    between atoms: C_9  and  N_10
REMARK   10  A    between atoms: C_9  and  C_20
REMARK   11  A    between atoms: C_11  and  C_13
REMARK   12  A    between atoms: C_13  and  C_14
REMARK   13  A    between atoms: C_14  and  C_15
REMARK   14  A    between atoms: C_15  and  N_16
REMARK   15  A    between atoms: C_15  and  C_17
REMARK   16  A    between atoms: C_17  and  O_19
REMARK   17  A    between atoms: N_22  and  CA_23
REMARK   18  A    between atoms: CA_23  and  C_24
REMARK   19  A    between atoms: C_24  and  OXT_26
REMARK                            x       y       z     vdW  Elec       q    Type
REMARK                         _______ _______ _______ _____ _____    ______ ____
ROOT
ATOM      1  C   UNK A   1       0.164  -0.475   0.702  0.00  0.00    +0.000 C 
ENDROOT
BRANCH   1   2
ATOM      2  N   UNK A   1       0.853   0.226  -0.547  0.00  0.00    +0.000 N 
ATOM      3  C   UNK A   1       1.405   1.494  -0.294  0.00  0.00    +0.000 C 
ATOM      4  O   UNK A   1       0.789   2.290   0.477  0.00  0.00    +0.000 OA
ATOM      5  H   UNK A   1       0.890  -0.198  -1.435  0.00  0.00    +0.000 HD
BRANCH   3   6
ATOM      6  C   UNK A   1       2.710   1.980  -0.817  0.00  0.00    +0.000 C 
BRANCH   6   7
ATOM      7  C   UNK A   1       3.660   0.916  -1.199  0.00  0.00    +0.000 C 
BRANCH   7   8
ATOM      8  C   UNK A   1       4.872   0.881  -0.068  0.00  0.00    +0.000 C 
BRANCH   8   9
ATOM      9  N   UNK A   1       3.871   1.124   1.146  0.00  0.00    +0.000 NA
ATOM     10  H   UNK A   1       3.231   1.883   0.912  0.00  0.00    +0.000 HD
ATOM     11  H   UNK A   1       4.402   1.372   1.981  0.00  0.00    +0.000 HD
ENDBRANCH   8   9
BRANCH   8  12
ATOM     12  C   UNK A   1       5.220   2.450  -0.286  0.00  0.00    +0.000 C 
ATOM     13  O   UNK A   1       4.556   3.308   0.257  0.00  0.00    +0.000 OA
BRANCH  12  14
ATOM     14  O   UNK A   1       6.123   2.713  -1.291  0.00  0.00    +0.000 OA
ATOM     15  H   UNK A   1       6.611   2.013  -1.678  0.00  0.00    +0.000 HD
ENDBRANCH  12  14
ENDBRANCH   8  12
ENDBRANCH   7   8
ENDBRANCH   6   7
ENDBRANCH   3   6
ENDBRANCH   1   2
BRANCH   1  16
ATOM     16  C   UNK A   1      -0.400  -1.698  -0.213  0.00  0.00    +0.000 C 
ATOM     17  O   UNK A   1      -1.632  -1.950  -0.043  0.00  0.00    +0.000 OA
ATOM     18  N   GLY A   2       0.362  -2.904  -0.004  0.00  0.00    +0.000 N 
ATOM     19  H   GLY A   2       1.255  -2.846   0.407  0.00  0.00    +0.000 HD
BRANCH  18  20
ATOM     20  CA  GLY A   2      -0.163  -4.205  -0.386  0.00  0.00    +0.000 C 
BRANCH  20  21
ATOM     21  C   GLY A   2       0.207  -5.277   0.591  0.00  0.00    +0.000 C 
ATOM     22  O   GLY A   2       1.428  -5.558   0.796  0.00  0.00    +0.000 OA
BRANCH  21  23
ATOM     23  OXT GLY A   2      -0.621  -6.406   0.519  0.00  0.00    +0.000 OA
ATOM     24  HXT GLY A   2      -1.540  -6.304   0.370  0.00  0.00    +0.000 HD
ENDBRANCH  21  23
ENDBRANCH  20  21
ENDBRANCH  18  20
ENDBRANCH   1  16
BRANCH   1  25
ATOM     25  C   UNK A   1      -1.214   0.440   0.552  0.00  0.00    +0.000 C 
BRANCH  25  26
ATOM     26  S   UNK A   1      -1.635   0.514  -1.146  0.00  0.00    +0.000 S 
BRANCH  26  27
ATOM     27  C   UNK A   1      -3.238   0.167  -1.700  0.00  0.00    +0.000 C 
BRANCH  27  28
ATOM     28  C   UNK A   1      -4.390   0.301  -0.784  0.00  0.00    +0.000 C 
BRANCH  28  29
ATOM     29  C   UNK A   1      -4.314   1.462   0.159  0.00  0.00    +0.000 C 
BRANCH  29  30
ATOM     30  C   UNK A   1      -5.649   1.792   0.778  0.00  0.00    +0.000 C 
BRANCH  30  32
ATOM     31  C   UNK A   1      -6.800   3.379  -0.172  0.00  0.00    +0.000 C 
ATOM     32  C   UNK A   1      -6.164   3.038   0.116  0.00  0.00    +0.000 C 
ENDBRANCH  30  32
ENDBRANCH  29  30
ENDBRANCH  28  29
ENDBRANCH  27  28
ENDBRANCH  26  27
ENDBRANCH  25  26
ENDBRANCH   1  25
TORSDOF 18
