REMARK  Name = 5496715
REMARK  12 active torsions:
REMARK  status: ('A' for Active; 'I' for Inactive)
REMARK    1  A    between atoms: S_1  and  C_27
REMARK    2  A    between atoms: N_5  and  C_17
REMARK    3  A    between atoms: N_6  and  C_20
REMARK    4  A    between atoms: N_9  and  C_22
REMARK    5  A    between atoms: N_10  and  C_25
REMARK    6  A    between atoms: C_11  and  C_17
REMARK    7  A    between atoms: C_17  and  C_18
REMARK    8  A    between atoms: C_20  and  C_21
REMARK    9  A    between atoms: C_22  and  C_23
REMARK   10  A    between atoms: C_22  and  C_24
REMARK   11  A    between atoms: C_25  and  C_26
REMARK   12  A    between atoms: C_26  and  C_27
REMARK                            x       y       z     vdW  Elec       q    Type
REMARK                         _______ _______ _______ _____ _____    ______ ____
ROOT
ATOM      1  O   UNL     1       1.171   1.368  -1.198  0.00  0.00    +0.000 OA
ATOM      2  N   UNL     1       1.069   1.952   1.047  0.00  0.00    +0.000 N 
ATOM      3  C   UNL     1       1.611   1.303  -0.053  0.00  0.00    +0.000 C 
ATOM      4  H   UNL     1       1.488   1.815   1.962  0.00  0.00    +0.000 HD
ENDROOT
BRANCH   3   5
ATOM      5  C   UNL     1       2.835   0.483   0.312  0.00  0.00    +0.000 C 
BRANCH   5   6
ATOM      6  N   UNL     1       3.735   0.469  -0.841  0.00  0.00    +0.000 NA
ATOM      7  N   UNL     1       4.794   2.467  -0.030  0.00  0.00    +0.000 N 
ATOM      8  N   UNL     1       5.490   1.485  -1.965  0.00  0.00    +0.000 N 
ATOM      9  C   UNL     1       4.607   1.427  -0.912  0.00  0.00    +0.000 C 
ATOM     10  H   UNL     1       5.521   3.156  -0.191  0.00  0.00    +0.000 HD
ATOM     11  H   UNL     1       4.210   2.618   0.784  0.00  0.00    +0.000 HD
ATOM     12  H   UNL     1       6.179   2.225  -2.039  0.00  0.00    +0.000 HD
ATOM     13  H   UNL     1       5.476   0.786  -2.699  0.00  0.00    +0.000 HD
ENDBRANCH   5   6
BRANCH   5  14
ATOM     14  C   UNL     1       2.448  -0.953   0.659  0.00  0.00    +0.000 C 
ATOM     15  C   UNL     1       3.685  -1.764   1.067  0.00  0.00    +0.000 C 
ATOM     16  C   UNL     1       1.722  -1.618  -0.518  0.00  0.00    +0.000 C 
ATOM     17  C   UNL     1       3.331  -3.219   1.367  0.00  0.00    +0.000 C 
ATOM     18  C   UNL     1       1.372  -3.073  -0.215  0.00  0.00    +0.000 C 
ATOM     19  C   UNL     1       2.602  -3.874   0.198  0.00  0.00    +0.000 C 
ENDBRANCH   5  14
ENDBRANCH   3   5
BRANCH   2  20
ATOM     20  C   UNL     1      -0.101   2.797   0.971  0.00  0.00    +0.000 C 
BRANCH  20  23
ATOM     21  O   UNL     1      -1.346   0.928   1.861  0.00  0.00    +0.000 OA
ATOM     22  N   UNL     1      -2.440   2.493   0.536  0.00  0.00    +0.000 N 
ATOM     23  C   UNL     1      -1.344   1.964   1.201  0.00  0.00    +0.000 C 
ATOM     24  H   UNL     1      -2.316   3.324  -0.036  0.00  0.00    +0.000 HD
BRANCH  22  25
ATOM     25  C   UNL     1      -3.746   1.873   0.541  0.00  0.00    +0.000 C 
ATOM     26  C   UNL     1      -4.851   2.909   0.409  0.00  0.00    +0.000 C 
BRANCH  25  29
ATOM     27  O   UNL     1      -3.216   1.049  -1.675  0.00  0.00    +0.000 OA
ATOM     28  N   UNL     1      -4.602  -0.218  -0.313  0.00  0.00    +0.000 N 
ATOM     29  C   UNL     1      -3.797   0.873  -0.606  0.00  0.00    +0.000 C 
ATOM     30  H   UNL     1      -5.054  -0.278   0.595  0.00  0.00    +0.000 HD
BRANCH  28  31
ATOM     31  C   UNL     1      -4.845  -1.284  -1.256  0.00  0.00    +0.000 C 
BRANCH  31  32
ATOM     32  C   UNL     1      -3.825  -2.415  -1.149  0.00  0.00    +0.000 C 
BRANCH  32  33
ATOM     33  C   UNL     1      -3.794  -3.042   0.244  0.00  0.00    +0.000 C 
BRANCH  33  34
ATOM     34  S   UNL     1      -2.566  -4.379   0.317  0.00  0.00    +0.000 S 
ATOM     35  H   UNL     1      -2.771  -4.704   1.602  0.00  0.00    +0.000 HD
ENDBRANCH  33  34
ENDBRANCH  32  33
ENDBRANCH  31  32
ENDBRANCH  28  31
ENDBRANCH  25  29
ENDBRANCH  22  25
ENDBRANCH  20  23
ENDBRANCH   2  20
TORSDOF 11
