REMARK  Name = 443600
REMARK  16 active torsions:
REMARK  status: ('A' for Active; 'I' for Inactive)
REMARK    1  A    between atoms: O_1  and  C_15
REMARK    2  A    between atoms: O_5  and  N_8
REMARK    3  A    between atoms: N_7  and  CA_13
REMARK    4  A    between atoms: CA_9  and  C_15
REMARK    5  A    between atoms: CA_13  and  C_14
REMARK    6  A    between atoms: CA_13  and  CB_16
REMARK    7  A    between atoms: CB_16  and  CG1_20
REMARK    8  A    between atoms: CB_16  and  CG2_21
REMARK    9  A    between atoms: C_17  and  C_18
REMARK   10  A    between atoms: C_17  and  C_19
REMARK   11  A    between atoms: C_17  and  C_23
REMARK   12  A    between atoms: C_19  and  C_22
REMARK   13  A    between atoms: C_22  and  C_24
REMARK   14  A    between atoms: C_23  and  C_26
REMARK   15  A    between atoms: C_24  and  C_25
REMARK   16  A    between atoms: C_25  and  C_27
REMARK                            x       y       z     vdW  Elec       q    Type
REMARK                         _______ _______ _______ _____ _____    ______ ____
ROOT
ATOM      1  O   UNL     1      -0.618   0.114   2.173  0.00  0.00    +0.000 OA
ATOM      2  N   UNL     1      -0.074  -0.298  -0.041  0.00  0.00    +0.000 N 
ATOM      3  C   ACE A   0      -0.867   0.219   0.973  0.00  0.00    +0.000 C 
ATOM      4  H   UNL     1      -0.317  -0.106  -1.008  0.00  0.00    +0.000 HD
ENDROOT
BRANCH   2   5
ATOM      5  CA  UNL     1       1.144  -1.023   0.234  0.00  0.00    +0.000 C 
BRANCH   5  12
ATOM      6  O   UNL     1       1.973   0.506  -1.392  0.00  0.00    +0.000 OA
ATOM      7  N   UNL     1       3.401  -0.081   0.331  0.00  0.00    +0.000 N 
ATOM      8  CA  UNL     1       4.498   0.811  -0.050  0.00  0.00    +0.000 C 
ATOM      9  CB  UNL     1       5.388   0.847   1.195  0.00  0.00    +0.000 C 
ATOM     10  CD  UNL     1       3.715  -0.811   1.557  0.00  0.00    +0.000 C 
ATOM     11  CG  UNL     1       5.189  -0.532   1.811  0.00  0.00    +0.000 C 
ATOM     12  C   UNL     1       2.201  -0.125  -0.359  0.00  0.00    +0.000 C 
BRANCH   8  13
ATOM     13  C   UNL     1       5.243   0.287  -1.276  0.00  0.00    +0.000 C 
BRANCH  13  14
ATOM     14  O   UNL     1       4.543   0.696  -2.436  0.00  0.00    +0.000 OA
ATOM     15  H   UNL     1       5.034   0.357  -3.204  0.00  0.00    +0.000 HD
ENDBRANCH  13  14
ENDBRANCH   8  13
ENDBRANCH   5  12
BRANCH   5  16
ATOM     16  CB  UNL     1       1.156  -2.427  -0.392  0.00  0.00    +0.000 C 
ATOM     17  CG1 UNL     1       0.923  -2.364  -1.905  0.00  0.00    +0.000 C 
ATOM     18  CG2 UNL     1       0.089  -3.324   0.245  0.00  0.00    +0.000 C 
ENDBRANCH   5  16
ENDBRANCH   2   5
BRANCH   3  19
ATOM     19  C   UNL     1      -2.114   0.934   0.444  0.00  0.00    +0.000 C 
BRANCH  19  20
ATOM     20  C   UNL     1      -3.034  -0.055  -0.303  0.00  0.00    +0.000 C 
BRANCH  20  21
ATOM     21  C   UNL     1      -3.499  -1.258   0.528  0.00  0.00    +0.000 C 
BRANCH  21  22
ATOM     22  C   UNL     1      -4.349  -2.212  -0.316  0.00  0.00    +0.000 C 
BRANCH  22  23
ATOM     23  C   UNL     1      -4.824  -3.446   0.456  0.00  0.00    +0.000 C 
ATOM     24  C   UNL     1      -5.609  -4.431  -0.396  0.00  0.00    +0.000 C 
ENDBRANCH  22  23
ENDBRANCH  21  22
ENDBRANCH  20  21
ENDBRANCH  19  20
BRANCH  19  25
ATOM     25  C   UNL     1      -1.718   2.163  -0.390  0.00  0.00    +0.000 C 
BRANCH  25  28
ATOM     26  O   UNL     1      -3.650   3.265  -1.347  0.00  0.00    +0.000 OA
ATOM     27  N   UNL     1      -2.684   4.140   0.559  0.00  0.00    +0.000 N 
ATOM     28  C   UNL     1      -2.799   3.228  -0.463  0.00  0.00    +0.000 C 
ATOM     29  H   UNL     1      -1.927   4.205   1.228  0.00  0.00    +0.000 HD
BRANCH  27  30
ATOM     30  O   UNL     1      -3.626   5.178   0.560  0.00  0.00    +0.000 OA
ATOM     31  H   UNL     1      -4.284   4.812   1.175  0.00  0.00    +0.000 HD
ENDBRANCH  27  30
ENDBRANCH  25  28
ENDBRANCH  19  25
ENDBRANCH   3  19
TORSDOF 13
