REMARK  Name = 
REMARK  23 active torsions:
REMARK  status: ('A' for Active; 'I' for Inactive)
REMARK    1  A    between atoms: C_1  and  C_2
REMARK    2  A    between atoms: C_2  and  C_3
REMARK    3  A    between atoms: C_3  and  C_4
REMARK    4  A    between atoms: C_4  and  C_5
REMARK    5  A    between atoms: C_5  and  N_6
REMARK    6  A    between atoms: C_7  and  C_9
REMARK    7  A    between atoms: C_9  and  C_10
REMARK    8  A    between atoms: C_9  and  N_25
REMARK    9  A    between atoms: C_10  and  C_11
REMARK   10  A    between atoms: C_14  and  O_15
REMARK   11  A    between atoms: O_15  and  C_16
REMARK   12  A    between atoms: C_16  and  C_17
REMARK   13  A    between atoms: C_17  and  O_19
REMARK   14  A    between atoms: C_20  and  C_21
REMARK   15  A    between atoms: C_21  and  O_23
REMARK   16  A    between atoms: C_26  and  C_28
REMARK   17  A    between atoms: C_28  and  C_29
REMARK   18  A    between atoms: C_28  and  N_36
REMARK   19  A    between atoms: C_29  and  C_30
REMARK   20  A    between atoms: C_37  and  C_39
REMARK   21  A    between atoms: C_39  and  C_40
REMARK   22  A    between atoms: C_40  and  C_41
REMARK   23  A    between atoms: C_41  and  O_43
REMARK                            x       y       z     vdW  Elec       q    Type
REMARK                         _______ _______ _______ _____ _____    ______ ____
ROOT
ATOM      1  C   UNL     1       0.660   1.185   1.265  0.00  0.00    +0.000 C 
ENDROOT
BRANCH   1   3
ATOM      2  N   UNL     1       2.417   2.484   0.147  0.00  0.00    +0.000 N 
ATOM      3  C   UNL     1       1.658   1.280  -0.046  0.00  0.00    +0.000 C 
ATOM      4  O   UNL     1       0.991   1.301  -1.128  0.00  0.00    +0.000 OA
ATOM      5  H   UNL     1       2.860   2.627   1.014  0.00  0.00    +0.000 HD
BRANCH   2   6
ATOM      6  C   UNL     1       2.560   3.505  -0.884  0.00  0.00    +0.000 C 
BRANCH   6   7
ATOM      7  C   UNL     1       1.521   4.603  -0.710  0.00  0.00    +0.000 C 
BRANCH   7   8
ATOM      8  C   UNL     1       1.982   5.692   0.220  0.00  0.00    +0.000 C 
BRANCH   8  10
ATOM      9  C   UNL     1       3.470   7.098  -0.346  0.00  0.00    +0.000 C 
ATOM     10  C   UNL     1       3.144   6.415  -0.411  0.00  0.00    +0.000 C 
ENDBRANCH   8  10
ENDBRANCH   7   8
ENDBRANCH   6   7
ENDBRANCH   2   6
ENDBRANCH   1   3
BRANCH   1  11
ATOM     11  N   UNL     1      -0.103  -0.119   0.716  0.00  0.00    +0.000 N 
ATOM     12  C   UNL     1      -1.473   0.310   0.844  0.00  0.00    +0.000 C 
ATOM     13  O   UNL     1      -1.845   1.007  -0.097  0.00  0.00    +0.000 OA
ATOM     14  H   UNL     1       0.263  -0.970   0.384  0.00  0.00    +0.000 HD
BRANCH  12  15
ATOM     15  C   UNL     1      -2.489  -0.895   1.300  0.00  0.00    +0.000 C 
BRANCH  15  16
ATOM     16  N   UNL     1      -3.809  -0.011   1.034  0.00  0.00    +0.000 N 
ATOM     17  C   UNL     1      -4.670   0.010   2.174  0.00  0.00    +0.000 C 
ATOM     18  O   UNL     1      -4.155  -0.014   3.321  0.00  0.00    +0.000 OA
ATOM     19  H   UNL     1      -3.999   0.458   0.189  0.00  0.00    +0.000 HD
BRANCH  17  20
ATOM     20  C   UNL     1      -6.031   0.571   2.047  0.00  0.00    +0.000 C 
BRANCH  20  21
ATOM     21  C   UNL     1      -7.093  -0.501   1.917  0.00  0.00    +0.000 C 
BRANCH  21  22
ATOM     22  C   UNL     1      -7.505  -0.553   0.481  0.00  0.00    +0.000 C 
ATOM     23  O   UNL     1      -8.455   0.149   0.025  0.00  0.00    +0.000 OA
BRANCH  22  24
ATOM     24  O   UNL     1      -7.183  -1.686  -0.254  0.00  0.00    +0.000 OA
ATOM     25  H   UNL     1      -6.489  -2.248   0.030  0.00  0.00    +0.000 HD
ENDBRANCH  22  24
ENDBRANCH  21  22
ENDBRANCH  20  21
ENDBRANCH  17  20
ENDBRANCH  15  16
BRANCH  15  26
ATOM     26  C   UNL     1      -2.427  -1.567  -0.231  0.00  0.00    +0.000 C 
BRANCH  26  27
ATOM     27  C   UNL     1      -3.658  -1.293  -0.917  0.00  0.00    +0.000 A 
ATOM     28  C   UNL     1      -3.580  -0.566  -2.101  0.00  0.00    +0.000 A 
ATOM     29  C   UNL     1      -4.736   0.052  -2.563  0.00  0.00    +0.000 A 
ATOM     30  C   UNL     1      -5.955  -0.472  -2.174  0.00  0.00    +0.000 A 
ATOM     31  C   UNL     1      -5.958  -1.597  -1.377  0.00  0.00    +0.000 A 
ATOM     32  C   UNL     1      -4.796  -2.085  -0.815  0.00  0.00    +0.000 A 
ENDBRANCH  26  27
ENDBRANCH  15  26
ENDBRANCH  12  15
ENDBRANCH   1  11
BRANCH   1  33
ATOM     33  C   UNL     1       1.690   0.243   2.178  0.00  0.00    +0.000 C 
BRANCH  33  34
ATOM     34  C   UNL     1       2.574  -0.474   1.302  0.00  0.00    +0.000 A 
ATOM     35  C   UNL     1       3.818  -0.733   1.874  0.00  0.00    +0.000 A 
ATOM     36  C   UNL     1       4.637  -1.736   1.447  0.00  0.00    +0.000 A 
ATOM     37  C   UNL     1       4.480  -2.219   0.181  0.00  0.00    +0.000 A 
ATOM     38  C   UNL     1       3.248  -2.000  -0.425  0.00  0.00    +0.000 A 
ATOM     39  C   UNL     1       2.245  -1.332   0.268  0.00  0.00    +0.000 A 
BRANCH  38  40
ATOM     40  C   UNL     1       2.986  -2.760  -1.647  0.00  0.00    +0.000 C 
ATOM     41  O   UNL     1       3.053  -2.195  -2.766  0.00  0.00    +0.000 OA
BRANCH  40  42
ATOM     42  O   UNL     1       3.214  -4.141  -1.632  0.00  0.00    +0.000 OA
ATOM     43  H   UNL     1       3.176  -4.613  -0.824  0.00  0.00    +0.000 HD
ENDBRANCH  40  42
ENDBRANCH  38  40
BRANCH  37  44
ATOM     44  O   UNL     1       5.595  -2.620  -0.564  0.00  0.00    +0.000 OA
BRANCH  44  45
ATOM     45  C   UNL     1       6.488  -1.661  -1.126  0.00  0.00    +0.000 C 
BRANCH  45  46
ATOM     46  C   UNL     1       7.474  -1.169  -0.123  0.00  0.00    +0.000 C 
ATOM     47  O   UNL     1       7.201  -0.189   0.632  0.00  0.00    +0.000 OA
BRANCH  46  48
ATOM     48  O   UNL     1       8.812  -1.318  -0.446  0.00  0.00    +0.000 OA
ATOM     49  H   UNL     1       9.085  -2.022  -1.001  0.00  0.00    +0.000 HD
ENDBRANCH  46  48
ENDBRANCH  45  46
ENDBRANCH  44  45
ENDBRANCH  37  44
ENDBRANCH  33  34
ENDBRANCH   1  33
TORSDOF 22
