REMARK  Name = 
REMARK  18 active torsions:
REMARK  status: ('A' for Active; 'I' for Inactive)
REMARK    1  A    between atoms: C_1  and  C_2
REMARK    2  A    between atoms: C_2  and  C_3
REMARK    3  A    between atoms: C_3  and  S_4
REMARK    4  A    between atoms: S_4  and  N_7
REMARK    5  A    between atoms: N_7  and  C_8
REMARK    6  A    between atoms: C_8  and  C_9
REMARK    7  A    between atoms: C_8  and  C_30
REMARK    8  A    between atoms: N_11  and  C_12
REMARK    9  A    between atoms: C_12  and  C_13
REMARK   10  A    between atoms: C_12  and  C_17
REMARK   11  A    between atoms: C_13  and  C_14
REMARK   12  A    between atoms: C_14  and  S_15
REMARK   13  A    between atoms: S_15  and  C_16
REMARK   14  A    between atoms: N_19  and  C_20
REMARK   15  A    between atoms: C_20  and  C_21
REMARK   16  A    between atoms: C_24  and  C_25
REMARK   17  A    between atoms: C_30  and  C_31
REMARK   18  A    between atoms: C_30  and  O_32
REMARK                            x       y       z     vdW  Elec       q    Type
REMARK                         _______ _______ _______ _____ _____    ______ ____
ROOT
ATOM      1  C   UNL     1      -0.520   1.618  -1.123  0.00  0.00    +0.000 C 
ENDROOT
BRANCH   1   4
ATOM      2  C   UNL     1      -2.839   0.887  -0.405  0.00  0.00    +0.000 C 
ATOM      3  O   UNL     1      -3.264   1.828  -1.043  0.00  0.00    +0.000 OA
ATOM      4  N   UNL     1      -1.494   1.140   0.060  0.00  0.00    +0.000 N 
ATOM      5  H   UNL     1      -1.208   1.032   0.996  0.00  0.00    +0.000 HD
BRANCH   2   6
ATOM      6  C   UNL     1      -3.605   0.347   0.921  0.00  0.00    +0.000 C 
BRANCH   6   7
ATOM      7  N   UNL     1      -4.488  -0.712   0.145  0.00  0.00    +0.000 NA
ATOM      8  H   UNL     1      -5.051  -1.229   0.821  0.00  0.00    +0.000 HD
BRANCH   7   9
ATOM      9  S   UNL     1      -3.568  -1.783  -0.712  0.00  0.00    +0.000 S 
ATOM     10  O   UNL     1      -4.601  -2.522  -1.550  0.00  0.00    +0.000 OA
ATOM     11  O   UNL     1      -2.626  -1.246  -1.733  0.00  0.00    +0.000 OA
BRANCH   9  12
ATOM     12  C   UNL     1      -2.762  -3.042   0.271  0.00  0.00    +0.000 C 
BRANCH  12  14
ATOM     13  C   UNL     1      -4.614  -3.978   0.136  0.00  0.00    +0.000 C 
ATOM     14  C   UNL     1      -3.733  -4.205   0.439  0.00  0.00    +0.000 C 
ENDBRANCH  12  14
ENDBRANCH   9  12
ENDBRANCH   7   9
ENDBRANCH   6   7
BRANCH   6  15
ATOM     15  C   UNL     1      -4.849   1.598   0.895  0.00  0.00    +0.000 C 
ATOM     16  C   UNL     1      -5.950   0.606   1.651  0.00  0.00    +0.000 C 
BRANCH  15  17
ATOM     17  O   UNL     1      -5.390   1.212  -0.483  0.00  0.00    +0.000 OA
ATOM     18  H   UNL     1      -5.501   0.250  -0.530  0.00  0.00    +0.000 HD
ENDBRANCH  15  17
ENDBRANCH   6  15
ENDBRANCH   2   6
ENDBRANCH   1   4
BRANCH   1  19
ATOM     19  C   UNL     1       0.816   1.308  -0.211  0.00  0.00    +0.000 C 
ATOM     20  O   UNL     1       0.870   0.074   0.082  0.00  0.00    +0.000 OA
ATOM     21  N   UNL     1       2.014   1.770  -0.853  0.00  0.00    +0.000 N 
ATOM     22  H   UNL     1       2.024   2.100  -1.780  0.00  0.00    +0.000 HD
BRANCH  21  23
ATOM     23  C   UNL     1       3.198   1.716  -0.039  0.00  0.00    +0.000 C 
BRANCH  23  24
ATOM     24  C   UNL     1       4.090   0.595  -0.343  0.00  0.00    +0.000 A 
ATOM     25  C   UNL     1       3.701  -0.480  -1.114  0.00  0.00    +0.000 A 
ATOM     26  C   UNL     1       4.335  -1.686  -0.881  0.00  0.00    +0.000 A 
ATOM     27  C   UNL     1       5.623  -1.722  -0.385  0.00  0.00    +0.000 A 
ATOM     28  C   UNL     1       6.115  -0.580   0.202  0.00  0.00    +0.000 A 
ATOM     29  C   UNL     1       5.345   0.580   0.221  0.00  0.00    +0.000 A 
BRANCH  27  30
ATOM     30  C   UNL     1       6.119  -2.998   0.130  0.00  0.00    +0.000 C 
ATOM     31  N   UNL     1       5.612  -3.434   1.228  0.00  0.00    +0.000 NA
ATOM     32  N   UNL     1       6.680  -3.928  -0.781  0.00  0.00    +0.000 N 
ATOM     33  H   UNL     1       5.218  -2.803   1.873  0.00  0.00    +0.000 HD
ATOM     34  H   UNL     1       7.072  -3.613  -1.627  0.00  0.00    +0.000 HD
ATOM     35  H   UNL     1       6.677  -4.889  -0.568  0.00  0.00    +0.000 HD
ENDBRANCH  27  30
ENDBRANCH  23  24
ENDBRANCH  21  23
ENDBRANCH   1  19
BRANCH   1  36
ATOM     36  C   UNL     1      -0.588   3.208  -0.606  0.00  0.00    +0.000 C 
BRANCH  36  37
ATOM     37  C   UNL     1      -0.343   3.165   0.869  0.00  0.00    +0.000 C 
BRANCH  37  38
ATOM     38  S   UNL     1       0.511   4.726   1.280  0.00  0.00    +0.000 S 
ATOM     39  C   UNL     1       0.206   5.938  -0.049  0.00  0.00    +0.000 C 
ENDBRANCH  37  38
ENDBRANCH  36  37
ENDBRANCH   1  36
TORSDOF 15
