REMARK  Name = 
REMARK  28 active torsions:
REMARK  status: ('A' for Active; 'I' for Inactive)
REMARK    1  A    between atoms: N_1  and  C_2
REMARK    2  A    between atoms: C_2  and  C_3
REMARK    3  A    between atoms: C_2  and  C_45
REMARK    4  A    between atoms: C_3  and  C_4
REMARK    5  A    between atoms: C_4  and  C_5
REMARK    6  A    between atoms: N_7  and  C_8
REMARK    7  A    between atoms: C_8  and  C_9
REMARK    8  A    between atoms: C_8  and  C_32
REMARK    9  A    between atoms: C_9  and  S_10
REMARK   10  A    between atoms: S_10  and  C_13
REMARK   11  A    between atoms: C_13  and  C_14
REMARK   12  A    between atoms: C_14  and  O_15
REMARK   13  A    between atoms: O_15  and  P_16
REMARK   14  A    between atoms: P_16  and  N_18
REMARK   15  A    between atoms: P_16  and  N_25
REMARK   16  A    between atoms: N_18  and  C_19
REMARK   17  A    between atoms: N_18  and  C_22
REMARK   18  A    between atoms: C_19  and  C_20
REMARK   19  A    between atoms: C_22  and  C_23
REMARK   20  A    between atoms: N_25  and  C_26
REMARK   21  A    between atoms: N_25  and  C_29
REMARK   22  A    between atoms: C_26  and  C_27
REMARK   23  A    between atoms: C_29  and  C_30
REMARK   24  A    between atoms: N_34  and  C_35
REMARK   25  A    between atoms: C_35  and  C_36
REMARK   26  A    between atoms: C_35  and  C_39
REMARK   27  A    between atoms: C_36  and  O_38
REMARK   28  A    between atoms: C_45  and  O_47
REMARK                            x       y       z     vdW  Elec       q    Type
REMARK                         _______ _______ _______ _____ _____    ______ ____
ROOT
ATOM      1  C   UNK A   1      -1.623   0.937  -1.178  0.00  0.00    +0.000 C 
ENDROOT
BRANCH   1   4
ATOM      2  C   UNK A   1      -3.415   2.087   0.238  0.00  0.00    +0.000 C 
ATOM      3  O   UNK A   1      -3.071   1.359   1.223  0.00  0.00    +0.000 OA
ATOM      4  N   UNK A   1      -2.466   2.237  -0.773  0.00  0.00    +0.000 N 
ATOM      5  H   UNK A   1      -2.321   3.103  -1.218  0.00  0.00    +0.000 HD
BRANCH   2   6
ATOM      6  C   UNK A   1      -4.247   3.242   0.621  0.00  0.00    +0.000 C 
BRANCH   6   7
ATOM      7  C   UNK A   1      -4.945   3.942  -0.489  0.00  0.00    +0.000 C 
BRANCH   7   8
ATOM      8  C   UNK A   1      -4.624   5.568  -0.250  0.00  0.00    +0.000 C 
BRANCH   8   9
ATOM      9  N   UNK A   1      -3.053   5.271  -0.097  0.00  0.00    +0.000 NA
ATOM     10  H   UNK A   1      -2.613   5.284  -1.017  0.00  0.00    +0.000 HD
ATOM     11  H   UNK A   1      -2.921   4.353   0.329  0.00  0.00    +0.000 HD
ENDBRANCH   8   9
BRANCH   8  12
ATOM     12  C   UNK A   1      -4.933   5.461   1.361  0.00  0.00    +0.000 C 
ATOM     13  O   UNK A   1      -4.017   5.892   2.093  0.00  0.00    +0.000 OA
BRANCH  12  14
ATOM     14  O   UNK A   1      -6.153   6.137   1.540  0.00  0.00    +0.000 OA
ATOM     15  H   UNK A   1      -6.904   5.889   1.037  0.00  0.00    +0.000 HD
ENDBRANCH  12  14
ENDBRANCH   8  12
ENDBRANCH   7   8
ENDBRANCH   6   7
ENDBRANCH   2   6
ENDBRANCH   1   4
BRANCH   1  16
ATOM     16  C   UNK A   1      -2.960  -0.020  -1.220  0.00  0.00    +0.000 C 
ATOM     17  O   UNK A   1      -3.227  -0.163  -2.454  0.00  0.00    +0.000 OA
ATOM     18  N   UNK A   2      -2.969  -1.153  -0.426  0.00  0.00    +0.000 N 
ATOM     19  H   UNK A   2      -2.754  -1.110   0.534  0.00  0.00    +0.000 HD
BRANCH  18  20
ATOM     20  C   UNK A   2      -3.346  -2.540  -1.141  0.00  0.00    +0.000 C 
BRANCH  20  21
ATOM     21  C   UNK A   2      -4.669  -2.736  -0.174  0.00  0.00    +0.000 A 
ATOM     22  C   UNK A   2      -5.693  -1.865  -0.517  0.00  0.00    +0.000 A 
ATOM     23  C   UNK A   2      -7.006  -2.291  -0.352  0.00  0.00    +0.000 A 
ATOM     24  C   UNK A   2      -7.237  -3.572   0.109  0.00  0.00    +0.000 A 
ATOM     25  C   UNK A   2      -6.223  -4.503   0.259  0.00  0.00    +0.000 A 
ATOM     26  C   UNK A   2      -4.951  -4.087  -0.081  0.00  0.00    +0.000 A 
ENDBRANCH  20  21
BRANCH  20  27
ATOM     27  C   UNK A   2      -2.369  -3.392  -0.121  0.00  0.00    +0.000 C 
ATOM     28  O   UNK A   2      -1.203  -3.266  -0.613  0.00  0.00    +0.000 OA
BRANCH  27  29
ATOM     29  O   UNK A   2      -2.489  -3.076   1.207  0.00  0.00    +0.000 OA
ATOM     30  H   UNK A   2      -3.321  -3.147   1.632  0.00  0.00    +0.000 HD
ENDBRANCH  27  29
ENDBRANCH  20  27
ENDBRANCH  18  20
ENDBRANCH   1  16
BRANCH   1  31
ATOM     31  C   UNK A   1      -1.257   0.597   0.423  0.00  0.00    +0.000 C 
BRANCH  31  32
ATOM     32  S   UNK A   1       0.257  -0.340   0.247  0.00  0.00    +0.000 S 
ATOM     33  O   UNK A   1       0.435  -1.183   1.481  0.00  0.00    +0.000 OA
ATOM     34  O   UNK A   1       0.183  -1.210  -0.983  0.00  0.00    +0.000 OA
BRANCH  32  35
ATOM     35  C   UNK A   1       1.575   0.850   0.118  0.00  0.00    +0.000 C 
BRANCH  35  36
ATOM     36  C   UNK A   1       2.616   0.446  -0.886  0.00  0.00    +0.000 C 
BRANCH  36  37
ATOM     37  O   UNK A   1       3.234  -0.750  -0.564  0.00  0.00    +0.000 OA
BRANCH  37  38
ATOM     38  P   UNK A   1       4.546  -0.578   0.458  0.00  0.00    +0.000 P 
ATOM     39  O   UNK A   1       4.023  -0.650   1.886  0.00  0.00    +0.000 OA
BRANCH  38  40
ATOM     40  N   UNK A   1       5.668  -1.919   0.237  0.00  0.00    +0.000 NA
BRANCH  40  41
ATOM     41  C   UNK A   1       5.489  -2.492  -1.083  0.00  0.00    +0.000 C 
BRANCH  41  42
ATOM     42  C   UNK A   1       6.771  -3.018  -1.668  0.00  0.00    +0.000 C 
ATOM     43 CL   UNK A   1       8.032  -1.756  -1.728  0.00  0.00    +0.000 Cl
ENDBRANCH  41  42
ENDBRANCH  40  41
BRANCH  40  44
ATOM     44  C   UNK A   1       5.327  -2.953   1.187  0.00  0.00    +0.000 C 
BRANCH  44  45
ATOM     45  C   UNK A   1       3.879  -3.310   0.966  0.00  0.00    +0.000 C 
ATOM     46 CL   UNK A   1       3.809  -5.015   0.441  0.00  0.00    +0.000 Cl
ENDBRANCH  44  45
ENDBRANCH  40  44
ENDBRANCH  38  40
BRANCH  38  47
ATOM     47  N   UNK A   1       5.364   0.950   0.270  0.00  0.00    +0.000 NA
BRANCH  47  48
ATOM     48  C   UNK A   1       5.639   1.279  -1.104  0.00  0.00    +0.000 C 
BRANCH  48  49
ATOM     49  C   UNK A   1       7.042   1.841  -1.189  0.00  0.00    +0.000 C 
ATOM     50 CL   UNK A   1       8.032   0.661  -2.063  0.00  0.00    +0.000 Cl
ENDBRANCH  48  49
ENDBRANCH  47  48
BRANCH  47  51
ATOM     51  C   UNK A   1       4.608   2.008   0.902  0.00  0.00    +0.000 C 
BRANCH  51  52
ATOM     52  C   UNK A   1       5.253   3.342   0.585  0.00  0.00    +0.000 C 
ATOM     53 CL   UNK A   1       6.364   3.731   1.928  0.00  0.00    +0.000 Cl
ENDBRANCH  51  52
ENDBRANCH  47  51
ENDBRANCH  38  47
ENDBRANCH  37  38
ENDBRANCH  36  37
ENDBRANCH  35  36
ENDBRANCH  32  35
ENDBRANCH  31  32
ENDBRANCH   1  31
TORSDOF 28
