REMARK  Name = 
REMARK  26 active torsions:
REMARK  status: ('A' for Active; 'I' for Inactive)
REMARK    1  A    between atoms: C_1  and  C_2
REMARK    2  A    between atoms: C_2  and  C_3
REMARK    3  A    between atoms: C_2  and  C_4
REMARK    4  A    between atoms: C_4  and  C_5
REMARK    5  A    between atoms: C_5  and  C_6
REMARK    6  A    between atoms: C_5  and  N_9
REMARK    7  A    between atoms: C_10  and  C_12
REMARK    8  A    between atoms: C_12  and  C_13
REMARK    9  A    between atoms: C_12  and  N_20
REMARK   10  A    between atoms: C_13  and  C_14
REMARK   11  A    between atoms: C_21  and  C_23
REMARK   12  A    between atoms: C_23  and  C_24
REMARK   13  A    between atoms: C_23  and  N_31
REMARK   14  A    between atoms: C_24  and  C_25
REMARK   15  A    between atoms: C_32  and  C_34
REMARK   16  A    between atoms: C_34  and  C_35
REMARK   17  A    between atoms: C_34  and  N_38
REMARK   18  A    between atoms: C_35  and  C_36
REMARK   19  A    between atoms: C_35  and  C_37
REMARK   20  A    between atoms: C_39  and  C_41
REMARK   21  A    between atoms: C_41  and  C_42
REMARK   22  A    between atoms: C_41  and  N_46
REMARK   23  A    between atoms: C_42  and  C_43
REMARK   24  A    between atoms: C_43  and  C_44
REMARK   25  A    between atoms: C_43  and  C_45
REMARK   26  A    between atoms: N_46  and  C_47
REMARK                            x       y       z     vdW  Elec       q    Type
REMARK                         _______ _______ _______ _____ _____    ______ ____
ROOT
ATOM      1  C   UNL     1      -2.858   3.300   0.000  0.00  0.00    +0.000 C 
ENDROOT
BRANCH   1   3
ATOM      2  N   UNL     1      -3.572   2.062   0.000  0.00  0.00    +0.000 N 
ATOM      3  C   UNL     1      -3.572   2.888   0.000  0.00  0.00    +0.000 C 
ATOM      4  O   UNL     1      -4.287   3.300   0.000  0.00  0.00    +0.000 OA
ATOM      5  H   UNL     1      -2.720   1.570   0.000  0.00  0.00    +0.000 HD
BRANCH   2   6
ATOM      6  C   UNL     1      -4.287   1.650   0.000  0.00  0.00    +0.000 C 
BRANCH   6   8
ATOM      7  N   UNL     1      -5.001   0.412   0.000  0.00  0.00    +0.000 N 
ATOM      8  C   UNL     1      -4.287   0.825   0.000  0.00  0.00    +0.000 C 
ATOM      9  O   UNL     1      -3.572   0.412   0.000  0.00  0.00    +0.000 OA
ATOM     10  H   UNL     1      -5.854   0.905   0.000  0.00  0.00    +0.000 HD
BRANCH   7  11
ATOM     11  C   UNL     1      -5.001  -0.412   0.000  0.00  0.00    +0.000 C 
BRANCH  11  12
ATOM     12  C   UNL     1      -4.287  -0.825   0.000  0.00  0.00    +0.000 C 
ATOM     13  O   UNL     1      -4.287  -1.650   0.000  0.00  0.00    +0.000 OA
ATOM     14  N   UNL     1      -3.572  -0.412   0.000  0.00  0.00    +0.000 N 
ATOM     15  H   UNL     1      -2.720  -0.905   0.000  0.00  0.00    +0.000 HD
ATOM     16  H   UNL     1      -3.572   0.572   0.000  0.00  0.00    +0.000 HD
ENDBRANCH  11  12
BRANCH  11  17
ATOM     17  C   UNL     1      -5.716  -0.825   0.000  0.00  0.00    +0.000 C 
BRANCH  17  19
ATOM     18  C   UNL     1      -6.430  -2.062   0.000  0.00  0.00    +0.000 C 
ATOM     19  C   UNL     1      -5.716  -1.650   0.000  0.00  0.00    +0.000 C 
ATOM     20  C   UNL     1      -5.001  -2.062   0.000  0.00  0.00    +0.000 C 
ENDBRANCH  17  19
ENDBRANCH  11  17
ENDBRANCH   7  11
ENDBRANCH   6   8
BRANCH   6  21
ATOM     21  C   UNL     1      -5.001   2.062   0.000  0.00  0.00    +0.000 C 
BRANCH  21  22
ATOM     22  C   UNL     1      -5.716   1.650   0.000  0.00  0.00    +0.000 A 
ATOM     23  C   UNL     1      -5.716   0.825   0.000  0.00  0.00    +0.000 A 
ATOM     24  C   UNL     1      -6.430   0.412   0.000  0.00  0.00    +0.000 A 
ATOM     25  C   UNL     1      -7.145   0.825   0.000  0.00  0.00    +0.000 A 
ATOM     26  C   UNL     1      -7.145   1.650   0.000  0.00  0.00    +0.000 A 
ATOM     27  C   UNL     1      -6.430   2.062   0.000  0.00  0.00    +0.000 A 
ENDBRANCH  21  22
ENDBRANCH   6  21
ENDBRANCH   2   6
ENDBRANCH   1   3
BRANCH   1  28
ATOM     28  N   UNL     1      -2.143   2.888   0.000  0.00  0.00    +0.000 N 
ATOM     29  C   UNL     1      -2.143   2.062   0.000  0.00  0.00    +0.000 C 
ATOM     30  O   UNL     1      -2.858   1.650   0.000  0.00  0.00    +0.000 OA
ATOM     31  H   UNL     1      -1.291   3.380   0.000  0.00  0.00    +0.000 HD
BRANCH  29  32
ATOM     32  C   UNL     1      -1.429   1.650   0.000  0.00  0.00    +0.000 C 
BRANCH  32  33
ATOM     33  N   UNL     1      -1.429   0.825   0.000  0.00  0.00    +0.000 N 
ATOM     34  C   UNL     1      -0.715   0.412   0.000  0.00  0.00    +0.000 C 
ATOM     35  O   UNL     1       0.000   0.825   0.000  0.00  0.00    +0.000 OA
ATOM     36  H   UNL     1      -2.282   0.333   0.000  0.00  0.00    +0.000 HD
BRANCH  34  37
ATOM     37  C   UNL     1      -0.715  -0.412   0.000  0.00  0.00    +0.000 C 
BRANCH  37  38
ATOM     38  N   UNL     1      -1.429  -0.825   0.000  0.00  0.00    +0.000 NA
ATOM     39  C   UNL     1      -2.143  -0.412   0.000  0.00  0.00    +0.000 C 
ATOM     40  H   UNL     1      -1.429  -1.845   0.000  0.00  0.00    +0.000 HD
ENDBRANCH  37  38
BRANCH  37  41
ATOM     41  C   UNL     1       0.000  -0.825   0.000  0.00  0.00    +0.000 C 
BRANCH  41  42
ATOM     42  C   UNL     1       0.000  -1.650   0.000  0.00  0.00    +0.000 C 
ATOM     43  C   UNL     1       0.715  -2.062   0.000  0.00  0.00    +0.000 C 
ATOM     44  C   UNL     1      -0.715  -2.062   0.000  0.00  0.00    +0.000 C 
ENDBRANCH  41  42
ENDBRANCH  37  41
ENDBRANCH  34  37
ENDBRANCH  32  33
BRANCH  32  45
ATOM     45  C   UNL     1      -0.715   2.062   0.000  0.00  0.00    +0.000 C 
ATOM     46  C   UNL     1       0.000   1.650   0.000  0.00  0.00    +0.000 C 
ATOM     47  C   UNL     1      -0.715   2.888   0.000  0.00  0.00    +0.000 C 
ENDBRANCH  32  45
ENDBRANCH  29  32
ENDBRANCH   1  28
BRANCH   1  48
ATOM     48  C   UNL     1      -2.858   4.125   0.000  0.00  0.00    +0.000 C 
BRANCH  48  49
ATOM     49  C   UNL     1      -3.572   4.537   0.000  0.00  0.00    +0.000 A 
ATOM     50  C   UNL     1      -4.287   4.125   0.000  0.00  0.00    +0.000 A 
ATOM     51  C   UNL     1      -5.001   4.537   0.000  0.00  0.00    +0.000 A 
ATOM     52  C   UNL     1      -5.001   5.362   0.000  0.00  0.00    +0.000 A 
ATOM     53  C   UNL     1      -4.287   5.775   0.000  0.00  0.00    +0.000 A 
ATOM     54  C   UNL     1      -3.572   5.362   0.000  0.00  0.00    +0.000 A 
ENDBRANCH  48  49
ENDBRANCH   1  48
TORSDOF 19
