REMARK  Name = 
REMARK  27 active torsions:
REMARK  status: ('A' for Active; 'I' for Inactive)
REMARK    1  A    between atoms: C_1  and  O_2
REMARK    2  A    between atoms: O_2  and  C_3
REMARK    3  A    between atoms: C_3  and  C_4
REMARK    4  A    between atoms: C_4  and  O_5
REMARK    5  A    between atoms: O_5  and  C_6
REMARK    6  A    between atoms: N_8  and  C_9
REMARK    7  A    between atoms: C_9  and  C_10
REMARK    8  A    between atoms: C_10  and  C_11
REMARK    9  A    between atoms: C_11  and  C_12
REMARK   10  A    between atoms: C_12  and  C_13
REMARK   11  A    between atoms: C_13  and  C_14
REMARK   12  A    between atoms: C_13  and  N_28
REMARK   13  A    between atoms: N_16  and  C_17
REMARK   14  A    between atoms: C_17  and  C_18
REMARK   15  A    between atoms: C_18  and  C_19
REMARK   16  A    between atoms: C_19  and  C_20
REMARK   17  A    between atoms: C_20  and  C_21
REMARK   18  A    between atoms: C_21  and  C_22
REMARK   19  A    between atoms: C_22  and  O_23
REMARK   20  A    between atoms: O_23  and  P_24
REMARK   21  A    between atoms: P_24  and  O_26
REMARK   22  A    between atoms: P_24  and  O_27
REMARK   23  A    between atoms: C_29  and  O_31
REMARK   24  A    between atoms: O_31  and  C_32
REMARK   25  A    between atoms: C_32  and  C_33
REMARK   26  A    between atoms: C_33  and  O_34
REMARK   27  A    between atoms: O_34  and  C_35
REMARK                            x       y       z     vdW  Elec       q    Type
REMARK                         _______ _______ _______ _____ _____    ______ ____
ROOT
ATOM      1  C   UNL     1      16.330   6.128   0.000  0.00  0.00    +0.000 C 
ENDROOT
BRANCH   1   2
ATOM      2  C   UNL     1      17.045   5.716   0.000  0.00  0.00    +0.000 C 
ATOM      3  O   UNL     1      17.045   4.891   0.000  0.00  0.00    +0.000 OA
ATOM      4  N   UNL     1      17.759   6.128   0.000  0.00  0.00    +0.000 N 
ATOM      5  H   UNL     1      17.759   7.113   0.000  0.00  0.00    +0.000 HD
BRANCH   4   6
ATOM      6  C   UNL     1      18.474   5.716   0.000  0.00  0.00    +0.000 C 
BRANCH   6   7
ATOM      7  C   UNL     1      19.188   6.128   0.000  0.00  0.00    +0.000 C 
BRANCH   7   8
ATOM      8  C   UNL     1      19.903   5.716   0.000  0.00  0.00    +0.000 C 
BRANCH   8   9
ATOM      9  C   UNL     1      20.617   6.128   0.000  0.00  0.00    +0.000 C 
BRANCH   9  10
ATOM     10  C   UNL     1      21.331   5.716   0.000  0.00  0.00    +0.000 C 
BRANCH  10  11
ATOM     11  C   UNL     1      22.046   6.128   0.000  0.00  0.00    +0.000 C 
BRANCH  11  12
ATOM     12  O   UNL     1      22.761   5.716   0.000  0.00  0.00    +0.000 OA
BRANCH  12  13
ATOM     13  P   UNL     1      23.475   6.128   0.000  0.00  0.00    +0.000 P 
ATOM     14  O   UNL     1      24.189   6.541   0.000  0.00  0.00    +0.000 OA
BRANCH  13  15
ATOM     15  O   UNL     1      23.887   5.414   0.000  0.00  0.00    +0.000 OA
ATOM     16  H   UNL     1      23.402   4.574   0.000  0.00  0.00    +0.000 HD
ENDBRANCH  13  15
BRANCH  13  17
ATOM     17  O   UNL     1      23.062   6.843   0.000  0.00  0.00    +0.000 OA
ATOM     18  H   UNL     1      23.547   7.683   0.000  0.00  0.00    +0.000 HD
ENDBRANCH  13  17
ENDBRANCH  12  13
ENDBRANCH  11  12
ENDBRANCH  10  11
ENDBRANCH   9  10
ENDBRANCH   8   9
ENDBRANCH   7   8
ENDBRANCH   6   7
ENDBRANCH   4   6
ENDBRANCH   1   2
BRANCH   1  19
ATOM     19  N   UNL     1      16.330   6.953   0.000  0.00  0.00    +0.000 N 
ATOM     20  C   UNL     1      15.616   7.366   0.000  0.00  0.00    +0.000 C 
ATOM     21  O   UNL     1      14.901   6.953   0.000  0.00  0.00    +0.000 OA
ATOM     22  H   UNL     1      17.183   7.446   0.000  0.00  0.00    +0.000 HD
BRANCH  20  23
ATOM     23  O   UNL     1      15.616   8.191   0.000  0.00  0.00    +0.000 OA
BRANCH  23  24
ATOM     24  C   UNL     1      14.901   8.603   0.000  0.00  0.00    +0.000 C 
BRANCH  24  25
ATOM     25  C   UNL     1      14.901   9.428   0.000  0.00  0.00    +0.000 C 
BRANCH  25  26
ATOM     26  O   UNL     1      14.187   9.841   0.000  0.00  0.00    +0.000 OA
ATOM     27  C   UNL     1      14.187  10.666   0.000  0.00  0.00    +0.000 C 
ENDBRANCH  25  26
ENDBRANCH  24  25
ENDBRANCH  23  24
ENDBRANCH  20  23
ENDBRANCH   1  19
BRANCH   1  28
ATOM     28  C   UNL     1      15.616   5.716   0.000  0.00  0.00    +0.000 C 
BRANCH  28  29
ATOM     29  C   UNL     1      14.901   6.128   0.000  0.00  0.00    +0.000 C 
BRANCH  29  30
ATOM     30  C   UNL     1      14.187   5.716   0.000  0.00  0.00    +0.000 C 
BRANCH  30  31
ATOM     31  C   UNL     1      13.472   6.128   0.000  0.00  0.00    +0.000 C 
BRANCH  31  34
ATOM     32  C   UNL     1      12.043   6.128   0.000  0.00  0.00    +0.000 C 
ATOM     33  O   UNL     1      12.043   6.953   0.000  0.00  0.00    +0.000 OA
ATOM     34  N   UNL     1      12.758   5.716   0.000  0.00  0.00    +0.000 N 
ATOM     35  H   UNL     1      12.758   4.731   0.000  0.00  0.00    +0.000 HD
BRANCH  32  36
ATOM     36  O   UNL     1      11.329   5.716   0.000  0.00  0.00    +0.000 OA
BRANCH  36  37
ATOM     37  C   UNL     1      10.614   6.128   0.000  0.00  0.00    +0.000 C 
BRANCH  37  38
ATOM     38  C   UNL     1       9.900   5.716   0.000  0.00  0.00    +0.000 C 
BRANCH  38  40
ATOM     39  C   UNL     1       8.471   5.716   0.000  0.00  0.00    +0.000 C 
ATOM     40  O   UNL     1       9.185   6.128   0.000  0.00  0.00    +0.000 OA
ENDBRANCH  38  40
ENDBRANCH  37  38
ENDBRANCH  36  37
ENDBRANCH  32  36
ENDBRANCH  31  34
ENDBRANCH  30  31
ENDBRANCH  29  30
ENDBRANCH  28  29
ENDBRANCH   1  28
TORSDOF 25
