REMARK  Name = 444107
REMARK  13 active torsions:
REMARK  status: ('A' for Active; 'I' for Inactive)
REMARK    1  A    between atoms: P_1  and  O_2
REMARK    2  A    between atoms: P_1  and  O_3
REMARK    3  A    between atoms: P_1  and  C_9
REMARK    4  A    between atoms: O_2  and  C_16
REMARK    5  A    between atoms: O_6  and  C_20
REMARK    6  A    between atoms: N_8  and  C_9
REMARK    7  A    between atoms: C_9  and  C_10
REMARK    8  A    between atoms: C_10  and  C_11
REMARK    9  A    between atoms: C_11  and  C_12
REMARK   10  A    between atoms: C_12  and  C_14
REMARK   11  A    between atoms: C_13  and  C_15
REMARK   12  A    between atoms: C_15  and  C_17
REMARK   13  A    between atoms: C_17  and  C_20
REMARK                            x       y       z     vdW  Elec       q    Type
REMARK                         _______ _______ _______ _____ _____    ______ ____
ROOT
ATOM      1  C   UNL     1       0.177   1.340   0.945  0.00  0.00    +0.000 C 
ENDROOT
BRANCH   1   3
ATOM      2  O   UNL     1       2.436  -0.187   1.948  0.00  0.00    +0.000 OA
ATOM      3  N   UNL     1       1.014   0.405   0.209  0.00  0.00    +0.000 N 
ATOM      4  C   UNL     1       2.074  -0.279   0.777  0.00  0.00    +0.000 C 
ATOM      5  H   UNL     1       0.826   0.280  -0.782  0.00  0.00    +0.000 HD
BRANCH   4   6
ATOM      6  C   UNL     1       2.788  -1.181  -0.211  0.00  0.00    +0.000 C 
BRANCH   6   7
ATOM      7  C   UNL     1       3.952  -1.924   0.436  0.00  0.00    +0.000 C 
BRANCH   7   9
ATOM      8  O   UNL     1       4.385  -2.878  -1.748  0.00  0.00    +0.000 OA
ATOM      9  C   UNL     1       4.712  -2.740  -0.578  0.00  0.00    +0.000 C 
BRANCH   9  10
ATOM     10  O   UNL     1       5.799  -3.327  -0.021  0.00  0.00    +0.000 OA
ATOM     11  H   UNL     1       6.295  -3.870  -0.670  0.00  0.00    +0.000 HD
ENDBRANCH   9  10
ENDBRANCH   7   9
ENDBRANCH   6   7
ENDBRANCH   4   6
ENDBRANCH   1   3
BRANCH   1  12
ATOM     12  P   UNL     1      -1.461   1.139   0.237  0.00  0.00    +0.000 P 
ATOM     13  O   UNL     1      -1.538   1.577  -1.198  0.00  0.00    +0.000 OA
BRANCH  12  14
ATOM     14  O   UNL     1      -2.414   1.965   1.250  0.00  0.00    +0.000 OA
ATOM     15  H   UNL     1      -3.368   2.061   1.047  0.00  0.00    +0.000 HD
ENDBRANCH  12  14
BRANCH  12  16
ATOM     16  O   UNL     1      -1.821  -0.408   0.511  0.00  0.00    +0.000 OA
BRANCH  16  17
ATOM     17  C   UNL     1      -2.981  -1.034   0.147  0.00  0.00    +0.000 A 
ATOM     18  C   UNL     1      -3.977  -0.322  -0.522  0.00  0.00    +0.000 A 
ATOM     19  C   UNL     1      -3.168  -2.383   0.445  0.00  0.00    +0.000 A 
ATOM     20  C   UNL     1      -5.160  -0.960  -0.893  0.00  0.00    +0.000 A 
ATOM     21  C   UNL     1      -4.352  -3.021   0.074  0.00  0.00    +0.000 A 
ATOM     22  C   UNL     1      -5.348  -2.309  -0.595  0.00  0.00    +0.000 A 
ENDBRANCH  16  17
ENDBRANCH  12  16
ENDBRANCH   1  12
BRANCH   1  23
ATOM     23  C   UNL     1       0.776   2.751   0.986  0.00  0.00    +0.000 C 
BRANCH  23  24
ATOM     24  C   UNL     1       0.932   3.428  -0.378  0.00  0.00    +0.000 C 
BRANCH  24  25
ATOM     25  C   UNL     1       1.488   4.845  -0.233  0.00  0.00    +0.000 C 
ATOM     26  C   UNL     1       1.688   5.504  -1.589  0.00  0.00    +0.000 C 
ENDBRANCH  24  25
ENDBRANCH  23  24
ENDBRANCH   1  23
TORSDOF 12
