REMARK  Name = 
REMARK  31 active torsions:
REMARK  status: ('A' for Active; 'I' for Inactive)
REMARK    1  A    between atoms: C_1  and  C_2
REMARK    2  A    between atoms: C_2  and  C_3
REMARK    3  A    between atoms: C_3  and  C_4
REMARK    4  A    between atoms: C_4  and  C_5
REMARK    5  A    between atoms: C_5  and  C_6
REMARK    6  A    between atoms: C_7  and  C_8
REMARK    7  A    between atoms: C_8  and  C_9
REMARK    8  A    between atoms: C_10  and  C_11
REMARK    9  A    between atoms: C_12  and  C_13
REMARK   10  A    between atoms: C_14  and  C_15
REMARK   11  A    between atoms: C_15  and  S_16
REMARK   12  A    between atoms: C_15  and  C_36
REMARK   13  A    between atoms: S_16  and  C_17
REMARK   14  A    between atoms: C_17  and  C_18
REMARK   15  A    between atoms: C_18  and  N_19
REMARK   16  A    between atoms: C_18  and  C_29
REMARK   17  A    between atoms: C_20  and  C_22
REMARK   18  A    between atoms: C_22  and  C_23
REMARK   19  A    between atoms: C_23  and  C_24
REMARK   20  A    between atoms: C_24  and  N_25
REMARK   21  A    between atoms: C_24  and  C_26
REMARK   22  A    between atoms: C_26  and  O_28
REMARK   23  A    between atoms: N_31  and  CA_32
REMARK   24  A    between atoms: CA_32  and  C_33
REMARK   25  A    between atoms: C_33  and  OXT_35
REMARK   26  A    between atoms: C_36  and  O_37
REMARK   27  A    between atoms: C_36  and  C_38
REMARK   28  A    between atoms: C_38  and  C_39
REMARK   29  A    between atoms: C_39  and  C_40
REMARK   30  A    between atoms: C_40  and  C_41
REMARK   31  A    between atoms: C_41  and  O_43
REMARK                            x       y       z     vdW  Elec       q    Type
REMARK                         _______ _______ _______ _____ _____    ______ ____
ROOT
ATOM      1  S   UNK A   1      -0.943   0.301   0.024  0.00  0.00    +0.000 S 
ENDROOT
BRANCH   1   2
ATOM      2  C   UNK A   1       0.489  -0.850   0.410  0.00  0.00    +0.000 C 
BRANCH   2   4
ATOM      3  C   UNK A   1       2.380   0.704   0.841  0.00  0.00    +0.000 C 
ATOM      4  C   UNK A   1       1.617   0.105  -0.030  0.00  0.00    +0.000 C 
BRANCH   3   6
ATOM      5  C   UNK A   1       4.716   0.269   0.201  0.00  0.00    +0.000 C 
ATOM      6  C   UNK A   1       3.781   0.484   1.088  0.00  0.00    +0.000 C 
BRANCH   5   8
ATOM      7  C   UNK A   1       6.072  -1.300  -0.893  0.00  0.00    +0.000 C 
ATOM      8  C   UNK A   1       5.601  -0.902   0.291  0.00  0.00    +0.000 C 
BRANCH   7   9
ATOM      9  C   UNK A   1       6.852  -0.292  -1.623  0.00  0.00    +0.000 C 
BRANCH   9  11
ATOM     10  C   UNK A   1       6.758   1.983  -2.341  0.00  0.00    +0.000 C 
ATOM     11  C   UNK A   1       6.084   0.839  -2.152  0.00  0.00    +0.000 C 
BRANCH  10  12
ATOM     12  C   UNK A   1       7.754   2.431  -1.359  0.00  0.00    +0.000 C 
BRANCH  12  13
ATOM     13  C   UNK A   1       8.802   1.409  -1.021  0.00  0.00    +0.000 C 
BRANCH  13  14
ATOM     14  C   UNK A   1       8.838   1.262   0.484  0.00  0.00    +0.000 C 
BRANCH  14  16
ATOM     15  C   UNK A   1       9.514   2.341   2.553  0.00  0.00    +0.000 C 
ATOM     16  C   UNK A   1       9.954   2.054   1.121  0.00  0.00    +0.000 C 
ENDBRANCH  14  16
ENDBRANCH  13  14
ENDBRANCH  12  13
ENDBRANCH  10  12
ENDBRANCH   9  11
ENDBRANCH   7   9
ENDBRANCH   5   8
ENDBRANCH   3   6
ENDBRANCH   2   4
BRANCH   2  17
ATOM     17  C   UNK A   1       0.422  -1.710  -1.063  0.00  0.00    +0.000 C 
BRANCH  17  18
ATOM     18  O   UNK A   1       1.906  -2.126  -0.928  0.00  0.00    +0.000 OA
ATOM     19  H   UNK A   1       2.076  -2.427  -0.022  0.00  0.00    +0.000 HD
ENDBRANCH  17  18
BRANCH  17  20
ATOM     20  C   UNK A   1      -0.107  -3.082  -0.252  0.00  0.00    +0.000 C 
BRANCH  20  21
ATOM     21  C   UNK A   1       0.717  -4.208  -0.775  0.00  0.00    +0.000 C 
BRANCH  21  22
ATOM     22  C   UNK A   1      -0.032  -5.493  -0.969  0.00  0.00    +0.000 C 
BRANCH  22  23
ATOM     23  C   UNK A   1      -0.264  -5.621  -2.437  0.00  0.00    +0.000 C 
ATOM     24  O   UNK A   1      -0.137  -4.629  -3.216  0.00  0.00    +0.000 OA
BRANCH  23  25
ATOM     25  O   UNK A   1      -0.520  -6.843  -3.006  0.00  0.00    +0.000 OA
ATOM     26  H   UNK A   1      -0.620  -7.601  -2.464  0.00  0.00    +0.000 HD
ENDBRANCH  23  25
ENDBRANCH  22  23
ENDBRANCH  21  22
ENDBRANCH  20  21
ENDBRANCH  17  20
ENDBRANCH   2  17
ENDBRANCH   1   2
BRANCH   1  27
ATOM     27  C   UNK A   1      -2.242  -0.448  -0.811  0.00  0.00    +0.000 C 
BRANCH  27  28
ATOM     28  C   UNK A   1      -3.569  -0.719   0.174  0.00  0.00    +0.000 C 
BRANCH  28  29
ATOM     29  N   UNK A   1      -4.216   0.692  -0.249  0.00  0.00    +0.000 N 
ATOM     30  C   UNK A   1      -5.554   0.819   0.249  0.00  0.00    +0.000 C 
ATOM     31  O   UNK A   1      -6.224  -0.216   0.532  0.00  0.00    +0.000 OA
ATOM     32  H   UNK A   1      -3.754   1.379  -0.782  0.00  0.00    +0.000 HD
BRANCH  30  33
ATOM     33  C   UNK A   1      -6.184   2.124   0.581  0.00  0.00    +0.000 C 
BRANCH  33  34
ATOM     34  C   UNK A   1      -5.373   3.248  -0.058  0.00  0.00    +0.000 C 
BRANCH  34  35
ATOM     35  C   UNK A   1      -6.557   4.376  -0.441  0.00  0.00    +0.000 C 
BRANCH  35  36
ATOM     36  N   UNK A   1      -7.365   3.291  -1.311  0.00  0.00    +0.000 NA
ATOM     37  H   UNK A   1      -6.717   2.792  -1.920  0.00  0.00    +0.000 HD
ATOM     38  H   UNK A   1      -8.068   3.765  -1.878  0.00  0.00    +0.000 HD
ENDBRANCH  35  36
BRANCH  35  39
ATOM     39  C   UNK A   1      -5.735   4.917  -1.757  0.00  0.00    +0.000 C 
ATOM     40  O   UNK A   1      -5.247   4.051  -2.481  0.00  0.00    +0.000 OA
BRANCH  39  41
ATOM     41  O   UNK A   1      -4.916   5.959  -1.345  0.00  0.00    +0.000 OA
ATOM     42  H   UNK A   1      -5.258   6.634  -0.793  0.00  0.00    +0.000 HD
ENDBRANCH  39  41
ENDBRANCH  35  39
ENDBRANCH  34  35
ENDBRANCH  33  34
ENDBRANCH  30  33
ENDBRANCH  28  29
BRANCH  28  43
ATOM     43  C   UNK A   1      -2.897  -0.044   1.521  0.00  0.00    +0.000 C 
ATOM     44  O   UNK A   1      -2.149  -0.921   2.036  0.00  0.00    +0.000 OA
ATOM     45  N   GLY A   2      -3.921   0.447   2.400  0.00  0.00    +0.000 N 
ATOM     46  H   GLY A   2      -4.637   1.014   2.032  0.00  0.00    +0.000 HD
BRANCH  45  47
ATOM     47  CA  GLY A   2      -3.930   0.127   3.827  0.00  0.00    +0.000 C 
BRANCH  47  48
ATOM     48  C   GLY A   2      -4.459  -1.231   4.084  0.00  0.00    +0.000 C 
ATOM     49  O   GLY A   2      -5.080  -1.528   5.121  0.00  0.00    +0.000 OA
BRANCH  48  50
ATOM     50  OXT GLY A   2      -4.636  -2.069   2.979  0.00  0.00    +0.000 OA
ATOM     51  HXT GLY A   2      -4.189  -1.886   2.176  0.00  0.00    +0.000 HD
ENDBRANCH  48  50
ENDBRANCH  47  48
ENDBRANCH  45  47
ENDBRANCH  28  43
ENDBRANCH  27  28
ENDBRANCH   1  27
TORSDOF 30
