REMARK  Name = 
REMARK  21 active torsions:
REMARK  status: ('A' for Active; 'I' for Inactive)
REMARK    1  A    between atoms: CD1_1  and  CG_2
REMARK    2  A    between atoms: CG_2  and  CD2_3
REMARK    3  A    between atoms: CG_2  and  CB_4
REMARK    4  A    between atoms: CB_4  and  CA_5
REMARK    5  A    between atoms: CA_5  and  N_6
REMARK    6  A    between atoms: CA_5  and  C_39
REMARK    7  A    between atoms: C_7  and  CA_9
REMARK    8  A    between atoms: CA_9  and  CB_10
REMARK    9  A    between atoms: CA_9  and  N_17
REMARK   10  A    between atoms: CB_10  and  CG_11
REMARK   11  A    between atoms: C_18  and  CA_20
REMARK   12  A    between atoms: CA_20  and  N_21
REMARK   13  A    between atoms: C_22  and  CA_24
REMARK   14  A    between atoms: CA_24  and  CB_25
REMARK   15  A    between atoms: CA_24  and  N_26
REMARK   16  A    between atoms: C_27  and  CA_29
REMARK   17  A    between atoms: CA_29  and  N_30
REMARK   18  A    between atoms: CA_29  and  CB_31
REMARK   19  A    between atoms: CB_31  and  CG_32
REMARK   20  A    between atoms: CZ_35  and  OH_36
REMARK   21  A    between atoms: C_39  and  OXT_41
REMARK                            x       y       z     vdW  Elec       q    Type
REMARK                         _______ _______ _______ _____ _____    ______ ____
ROOT
ATOM      1  N   PHE A   4      -1.549  -1.166   1.252  0.00  0.00    +0.000 N 
ATOM      2  C   GLY A   3      -0.813  -1.734   0.200  0.00  0.00    +0.000 C 
ATOM      3  O   GLY A   3      -1.581  -2.283  -0.649  0.00  0.00    +0.000 OA
ATOM      4  H   PHE A   4      -1.400  -1.425   2.190  0.00  0.00    +0.000 HD
ENDROOT
BRANCH   1   5
ATOM      5  CA  PHE A   4      -2.642  -0.078   0.840  0.00  0.00    +0.000 C 
BRANCH   5   7
ATOM      6  N   LEU A   5      -5.088  -0.264   1.218  0.00  0.00    +0.000 N 
ATOM      7  C   PHE A   4      -3.841  -0.848   1.644  0.00  0.00    +0.000 C 
ATOM      8  O   PHE A   4      -3.831  -2.107   1.493  0.00  0.00    +0.000 OA
ATOM      9  H   LEU A   5      -5.199   0.492   0.597  0.00  0.00    +0.000 HD
BRANCH   6  10
ATOM     10  CA  LEU A   5      -6.256  -1.076   1.946  0.00  0.00    +0.000 C 
BRANCH  10  11
ATOM     11  C   LEU A   5      -6.442   0.072   3.093  0.00  0.00    +0.000 C 
ATOM     12  O   LEU A   5      -7.479  -0.228   3.762  0.00  0.00    +0.000 OA
BRANCH  11  13
ATOM     13  OXT LEU A   5      -5.275   0.500   3.679  0.00  0.00    +0.000 OA
ATOM     14  HXT LEU A   5      -4.533   0.711   3.147  0.00  0.00    +0.000 HD
ENDBRANCH  11  13
ENDBRANCH  10  11
BRANCH  10  15
ATOM     15  CB  LEU A   5      -7.423  -0.368   0.993  0.00  0.00    +0.000 C 
BRANCH  15  17
ATOM     16  CD1 LEU A   5      -7.836  -1.114  -0.968  0.00  0.00    +0.000 C 
ATOM     17  CG  LEU A   5      -6.982  -0.692  -0.428  0.00  0.00    +0.000 C 
ATOM     18  CD2 LEU A   5      -6.654   0.648  -1.068  0.00  0.00    +0.000 C 
ENDBRANCH  15  17
ENDBRANCH  10  15
ENDBRANCH   6  10
ENDBRANCH   5   7
BRANCH   5  19
ATOM     19  CB  PHE A   4      -3.077  -0.806  -0.598  0.00  0.00    +0.000 C 
BRANCH  19  20
ATOM     20  CG  PHE A   4      -3.251   0.422  -1.430  0.00  0.00    +0.000 A 
ATOM     21  CD1 PHE A   4      -4.404   0.489  -2.187  0.00  0.00    +0.000 A 
ATOM     22  CE1 PHE A   4      -4.630   1.582  -3.016  0.00  0.00    +0.000 A 
ATOM     23  CZ  PHE A   4      -3.764   2.668  -2.955  0.00  0.00    +0.000 A 
ATOM     24  CE2 PHE A   4      -2.499   2.436  -2.431  0.00  0.00    +0.000 A 
ATOM     25  CD2 PHE A   4      -2.289   1.397  -1.536  0.00  0.00    +0.000 A 
ENDBRANCH  19  20
ENDBRANCH   5  19
ENDBRANCH   1   5
BRANCH   2  26
ATOM     26  CA  GLY A   3       0.603  -2.192   0.319  0.00  0.00    +0.000 C 
BRANCH  26  27
ATOM     27  N   GLY A   3       1.396  -0.973   0.466  0.00  0.00    +0.000 N 
ATOM     28  C   ALA A   2       1.053   0.105  -0.347  0.00  0.00    +0.000 C 
ATOM     29  O   ALA A   2       0.718  -0.044  -1.550  0.00  0.00    +0.000 OA
ATOM     30  H   GLY A   3       2.139  -0.917   1.109  0.00  0.00    +0.000 HD
BRANCH  28  31
ATOM     31  CA  ALA A   2       1.812   1.524  -0.067  0.00  0.00    +0.000 C 
ATOM     32  CB  ALA A   2       1.607   1.414   1.585  0.00  0.00    +0.000 C 
BRANCH  31  33
ATOM     33  N   ALA A   2       3.243   0.826   0.010  0.00  0.00    +0.000 N 
ATOM     34  C   TYR A   1       4.204   1.275  -0.903  0.00  0.00    +0.000 C 
ATOM     35  O   TYR A   1       3.892   1.885  -1.961  0.00  0.00    +0.000 OA
ATOM     36  H   ALA A   2       3.440   0.118   0.665  0.00  0.00    +0.000 HD
BRANCH  34  37
ATOM     37  CA  TYR A   1       5.575   1.879  -0.245  0.00  0.00    +0.000 C 
BRANCH  37  38
ATOM     38  N   TYR A   1       5.729   0.637   0.747  0.00  0.00    +0.000 NA
ATOM     39  H1  TYR A   1       5.576  -0.231   0.233  0.00  0.00    +0.000 HD
ATOM     40  H2  TYR A   1       5.042   0.713   1.497  0.00  0.00    +0.000 HD
ENDBRANCH  37  38
BRANCH  37  41
ATOM     41  CB  TYR A   1       6.503   1.166  -1.426  0.00  0.00    +0.000 C 
BRANCH  41  42
ATOM     42  CG  TYR A   1       7.588   0.453  -0.753  0.00  0.00    +0.000 A 
ATOM     43  CD1 TYR A   1       7.620  -0.922  -0.971  0.00  0.00    +0.000 A 
ATOM     44  CE1 TYR A   1       8.555  -1.740  -0.377  0.00  0.00    +0.000 A 
ATOM     45  CZ  TYR A   1       9.503  -1.066   0.385  0.00  0.00    +0.000 A 
ATOM     46  CE2 TYR A   1       9.075   0.070   1.057  0.00  0.00    +0.000 A 
ATOM     47  CD2 TYR A   1       8.337   0.969   0.298  0.00  0.00    +0.000 A 
BRANCH  45  48
ATOM     48  OH  TYR A   1      10.591  -1.756   0.879  0.00  0.00    +0.000 OA
ATOM     49  HH  TYR A   1      10.897  -2.525   0.441  0.00  0.00    +0.000 HD
ENDBRANCH  45  48
ENDBRANCH  41  42
ENDBRANCH  37  41
ENDBRANCH  34  37
ENDBRANCH  31  33
ENDBRANCH  28  31
ENDBRANCH  26  27
ENDBRANCH   2  26
TORSDOF 18
