REMARK  Name = 
REMARK  24 active torsions:
REMARK  status: ('A' for Active; 'I' for Inactive)
REMARK    1  A    between atoms: N_1  and  C_2
REMARK    2  A    between atoms: C_2  and  C_3
REMARK    3  A    between atoms: C_2  and  C_10
REMARK    4  A    between atoms: C_3  and  C_4
REMARK    5  A    between atoms: N_11  and  C_12
REMARK    6  A    between atoms: C_12  and  C_13
REMARK    7  A    between atoms: C_12  and  C_20
REMARK    8  A    between atoms: C_13  and  C_14
REMARK    9  A    between atoms: N_22  and  C_23
REMARK   10  A    between atoms: C_23  and  C_24
REMARK   11  A    between atoms: C_23  and  C_45
REMARK   12  A    between atoms: N_25  and  C_26
REMARK   13  A    between atoms: C_26  and  C_27
REMARK   14  A    between atoms: C_26  and  C_39
REMARK   15  A    between atoms: C_32  and  C_35
REMARK   16  A    between atoms: C_32  and  N_38
REMARK   17  A    between atoms: C_35  and  O_36
REMARK   18  A    between atoms: C_39  and  C_40
REMARK   19  A    between atoms: C_40  and  C_41
REMARK   20  A    between atoms: C_41  and  C_42
REMARK   21  A    between atoms: C_42  and  N_43
REMARK   22  A    between atoms: C_45  and  C_46
REMARK   23  A    between atoms: C_46  and  C_47
REMARK   24  A    between atoms: C_46  and  C_48
REMARK                            x       y       z     vdW  Elec       q    Type
REMARK                         _______ _______ _______ _____ _____    ______ ____
ROOT
ATOM      1  C   UNL     1       0.098   0.634   0.000  0.00  0.00    +0.000 C 
ENDROOT
BRANCH   1   4
ATOM      2  C   UNL     1      -1.330   0.620   0.000  0.00  0.00    +0.000 C 
ATOM      3  O   UNL     1      -1.330   1.445   0.000  0.00  0.00    +0.000 OA
ATOM      4  N   UNL     1      -0.611   0.212   0.000  0.00  0.00    +0.000 N 
ATOM      5  H   UNL     1      -0.601  -0.772   0.000  0.00  0.00    +0.000 HD
BRANCH   2   6
ATOM      6  C   UNL     1      -2.039   0.203   0.000  0.00  0.00    +0.000 C 
BRANCH   6   8
ATOM      7  C   UNL     1      -3.466   0.189   0.000  0.00  0.00    +0.000 C 
ATOM      8  N   UNL     1      -2.757   0.611   0.000  0.00  0.00    +0.000 N 
ATOM      9  O   UNL     1      -3.466  -0.631   0.000  0.00  0.00    +0.000 OA
ATOM     10  H   UNL     1      -2.767   1.595   0.000  0.00  0.00    +0.000 HD
BRANCH   7  11
ATOM     11  C   UNL     1      -4.185   0.597   0.000  0.00  0.00    +0.000 C 
BRANCH  11  12
ATOM     12  N   UNL     1      -4.894   0.180   0.000  0.00  0.00    +0.000 NA
ATOM     13  H   UNL     1      -5.781   0.683   0.000  0.00  0.00    +0.000 HD
ATOM     14  H   UNL     1      -4.886  -0.840   0.000  0.00  0.00    +0.000 HD
ENDBRANCH  11  12
BRANCH  11  15
ATOM     15  C   UNL     1      -4.185   1.422   0.000  0.00  0.00    +0.000 C 
BRANCH  15  16
ATOM     16  C   UNL     1      -4.912   1.825   0.000  0.00  0.00    +0.000 A 
ATOM     17  C   UNL     1      -4.912   2.648   0.000  0.00  0.00    +0.000 A 
ATOM     18  C   UNL     1      -5.637   3.051   0.000  0.00  0.00    +0.000 A 
ATOM     19  C   UNL     1      -6.345   2.629   0.000  0.00  0.00    +0.000 A 
ATOM     20  C   UNL     1      -6.345   1.806   0.000  0.00  0.00    +0.000 A 
ATOM     21  C   UNL     1      -5.616   1.404   0.000  0.00  0.00    +0.000 A 
ENDBRANCH  15  16
ENDBRANCH  11  15
ENDBRANCH   7  11
ENDBRANCH   6   8
BRANCH   6  22
ATOM     22  C   UNL     1      -2.039  -0.617   0.000  0.00  0.00    +0.000 C 
BRANCH  22  23
ATOM     23  C   UNL     1      -1.320  -1.030   0.000  0.00  0.00    +0.000 A 
ATOM     24  C   UNL     1      -1.320  -1.853   0.000  0.00  0.00    +0.000 A 
ATOM     25  C   UNL     1      -0.607  -2.261   0.000  0.00  0.00    +0.000 A 
ATOM     26  C   UNL     1       0.108  -1.847   0.000  0.00  0.00    +0.000 A 
ATOM     27  C   UNL     1       0.108  -1.019   0.000  0.00  0.00    +0.000 A 
ATOM     28  C   UNL     1      -0.616  -0.613   0.000  0.00  0.00    +0.000 A 
ENDBRANCH  22  23
ENDBRANCH   6  22
ENDBRANCH   2   6
ENDBRANCH   1   4
BRANCH   1  29
ATOM     29  C   UNL     1       0.816   0.226   0.000  0.00  0.00    +0.000 C 
ATOM     30  N   UNL     1       1.525   0.643   0.000  0.00  0.00    +0.000 N 
ATOM     31  O   UNL     1       0.816  -0.599   0.000  0.00  0.00    +0.000 OA
ATOM     32  H   UNL     1       1.516   1.628   0.000  0.00  0.00    +0.000 HD
BRANCH  30  33
ATOM     33  C   UNL     1       2.244   0.240   0.000  0.00  0.00    +0.000 C 
BRANCH  33  34
ATOM     34  C   UNL     1       2.953   0.657   0.000  0.00  0.00    +0.000 C 
ATOM     35  O   UNL     1       2.953   1.478   0.000  0.00  0.00    +0.000 OA
ATOM     36  N   UNL     1       3.671   0.249   0.000  0.00  0.00    +0.000 N 
ATOM     37  C   UNL     1       3.671  -0.575   0.000  0.00  0.00    +0.000 C 
ATOM     38  C   UNL     1       4.393  -0.983   0.000  0.00  0.00    +0.000 C 
ATOM     39  C   UNL     1       5.107  -0.564   0.000  0.00  0.00    +0.000 C 
ATOM     40  C   UNL     1       5.107   0.260   0.000  0.00  0.00    +0.000 C 
ATOM     41  C   UNL     1       4.384   0.671   0.000  0.00  0.00    +0.000 C 
BRANCH  39  42
ATOM     42  N   UNL     1       5.183  -1.614   0.000  0.00  0.00    +0.000 NA
ATOM     43  H   UNL     1       4.338  -2.186   0.000  0.00  0.00    +0.000 HD
ATOM     44  H   UNL     1       6.100  -2.059   0.000  0.00  0.00    +0.000 HD
ENDBRANCH  39  42
BRANCH  39  45
ATOM     45  C   UNL     1       5.929  -0.564   0.000  0.00  0.00    +0.000 C 
ATOM     46  O   UNL     1       6.338   0.156   0.000  0.00  0.00    +0.000 OA
BRANCH  45  47
ATOM     47  O   UNL     1       6.345  -1.272   0.000  0.00  0.00    +0.000 OA
ATOM     48  H   UNL     1       5.883  -2.087   0.000  0.00  0.00    +0.000 HD
ENDBRANCH  45  47
ENDBRANCH  39  45
ENDBRANCH  33  34
BRANCH  33  49
ATOM     49  C   UNL     1       2.244  -0.585   0.000  0.00  0.00    +0.000 C 
BRANCH  49  50
ATOM     50  C   UNL     1       2.962  -0.993   0.000  0.00  0.00    +0.000 C 
BRANCH  50  51
ATOM     51  C   UNL     1       2.962  -1.818   0.000  0.00  0.00    +0.000 C 
BRANCH  51  52
ATOM     52  C   UNL     1       3.681  -2.226   0.000  0.00  0.00    +0.000 C 
BRANCH  52  53
ATOM     53  N   UNL     1       3.681  -3.051   0.000  0.00  0.00    +0.000 NA
ATOM     54  H   UNL     1       2.797  -3.561   0.000  0.00  0.00    +0.000 HD
ATOM     55  H   UNL     1       4.564  -3.561   0.000  0.00  0.00    +0.000 HD
ENDBRANCH  52  53
ENDBRANCH  51  52
ENDBRANCH  50  51
ENDBRANCH  49  50
ENDBRANCH  33  49
ENDBRANCH  30  33
ENDBRANCH   1  29
BRANCH   1  56
ATOM     56  C   UNL     1       0.098   1.459   0.000  0.00  0.00    +0.000 C 
BRANCH  56  57
ATOM     57  C   UNL     1       0.798   1.872   0.000  0.00  0.00    +0.000 C 
ATOM     58  C   UNL     1       1.516   1.468   0.000  0.00  0.00    +0.000 C 
ATOM     59  C   UNL     1       0.798   2.697   0.000  0.00  0.00    +0.000 C 
ENDBRANCH  56  57
ENDBRANCH   1  56
TORSDOF 22
