REMARK  Name = 
REMARK  30 active torsions:
REMARK  status: ('A' for Active; 'I' for Inactive)
REMARK    1  A    between atoms: CE_1  and  SD_2
REMARK    2  A    between atoms: SD_2  and  CG_3
REMARK    3  A    between atoms: CG_3  and  CB_4
REMARK    4  A    between atoms: CB_4  and  CA_5
REMARK    5  A    between atoms: CA_5  and  N_6
REMARK    6  A    between atoms: CA_5  and  C_9
REMARK    7  A    between atoms: N_11  and  CA_12
REMARK    8  A    between atoms: CA_12  and  CB_13
REMARK    9  A    between atoms: CA_12  and  C_17
REMARK   10  A    between atoms: CB_13  and  CG_14
REMARK   11  A    between atoms: CG_14  and  OD2_16
REMARK   12  A    between atoms: N_19  and  CA_20
REMARK   13  A    between atoms: CA_20  and  C_21
REMARK   14  A    between atoms: N_23  and  CA_24
REMARK   15  A    between atoms: CA_24  and  CB_25
REMARK   16  A    between atoms: CA_24  and  C_27
REMARK   17  A    between atoms: CB_25  and  SG_26
REMARK   18  A    between atoms: N_29  and  CA_30
REMARK   19  A    between atoms: CA_30  and  CB_31
REMARK   20  A    between atoms: CA_30  and  C_36
REMARK   21  A    between atoms: CB_31  and  CG_32
REMARK   22  A    between atoms: CG_32  and  CD_33
REMARK   23  A    between atoms: CD_33  and  OE2_35
REMARK   24  A    between atoms: N_38  and  CA_39
REMARK   25  A    between atoms: CA_39  and  CB_40
REMARK   26  A    between atoms: CA_39  and  C_44
REMARK   27  A    between atoms: CB_40  and  CG_41
REMARK   28  A    between atoms: CG_41  and  CD1_42
REMARK   29  A    between atoms: CG_41  and  CD2_43
REMARK   30  A    between atoms: C_44  and  OXT_46
REMARK                            x       y       z     vdW  Elec       q    Type
REMARK                         _______ _______ _______ _____ _____    ______ ____
ROOT
ATOM      1  C   GLY A   3       0.642   1.862  -0.125  0.00  0.00    +0.000 C 
ATOM      2  O   GLY A   3       0.240   1.631  -1.278  0.00  0.00    +0.000 OA
ATOM      3  N   CYS A   4       0.346   0.997   0.911  0.00  0.00    +0.000 N 
ATOM      4  H   CYS A   4       0.853   1.046   1.753  0.00  0.00    +0.000 HD
ENDROOT
BRANCH   1   5
ATOM      5  CA  GLY A   3       1.714   2.853   0.209  0.00  0.00    +0.000 C 
BRANCH   5   8
ATOM      6  C   ASP A   2       3.574   1.154   0.309  0.00  0.00    +0.000 C 
ATOM      7  O   ASP A   2       3.008   0.366  -0.380  0.00  0.00    +0.000 OA
ATOM      8  N   GLY A   3       2.787   2.178   0.940  0.00  0.00    +0.000 N 
ATOM      9  H   GLY A   3       2.971   2.428   1.874  0.00  0.00    +0.000 HD
BRANCH   6  10
ATOM     10  CA  ASP A   2       4.790   0.774   1.298  0.00  0.00    +0.000 C 
BRANCH  10  13
ATOM     11  C   MET A   1       5.816  -1.308   0.258  0.00  0.00    +0.000 C 
ATOM     12  O   MET A   1       5.262  -1.194  -0.854  0.00  0.00    +0.000 OA
ATOM     13  N   ASP A   2       4.782  -0.790   1.065  0.00  0.00    +0.000 N 
ATOM     14  H   ASP A   2       4.094  -1.371   1.463  0.00  0.00    +0.000 HD
BRANCH  11  15
ATOM     15  CA  MET A   1       6.326  -2.798   0.590  0.00  0.00    +0.000 C 
BRANCH  15  16
ATOM     16  N   MET A   1       6.951  -3.021  -0.843  0.00  0.00    +0.000 N 
ATOM     17  C   UNK A   0       7.490  -4.287  -1.097  0.00  0.00    +0.000 C 
ATOM     18  O   UNK A   0       7.802  -5.073  -0.179  0.00  0.00    +0.000 OA
ATOM     19  H   MET A   1       6.961  -2.308  -1.522  0.00  0.00    +0.000 HD
ENDBRANCH  15  16
BRANCH  15  20
ATOM     20  CB  MET A   1       7.740  -2.267   1.234  0.00  0.00    +0.000 C 
BRANCH  20  21
ATOM     21  CG  MET A   1       8.556  -1.603   0.218  0.00  0.00    +0.000 C 
BRANCH  21  23
ATOM     22  CE  MET A   1      10.115   0.898  -0.262  0.00  0.00    +0.000 C 
ATOM     23  SD  MET A   1       8.528   0.199   0.275  0.00  0.00    +0.000 S 
ENDBRANCH  21  23
ENDBRANCH  20  21
ENDBRANCH  15  20
ENDBRANCH  11  15
ENDBRANCH  10  13
BRANCH  10  24
ATOM     24  CB  ASP A   2       5.984   1.184   0.251  0.00  0.00    +0.000 C 
BRANCH  24  25
ATOM     25  CG  ASP A   2       5.556   1.732  -0.965  0.00  0.00    +0.000 C 
ATOM     26  OD1 ASP A   2       4.845   2.725  -1.239  0.00  0.00    +0.000 OA
BRANCH  25  27
ATOM     27  OD2 ASP A   2       6.456   1.522  -2.030  0.00  0.00    +0.000 OA
ATOM     28  HD2 ASP A   2       7.069   0.815  -1.993  0.00  0.00    +0.000 HD
ENDBRANCH  25  27
ENDBRANCH  24  25
ENDBRANCH  10  24
ENDBRANCH   6  10
ENDBRANCH   5   8
ENDBRANCH   1   5
BRANCH   3  29
ATOM     29  CA  CYS A   4      -0.798  -0.067   0.745  0.00  0.00    +0.000 C 
BRANCH  29  30
ATOM     30  C   CYS A   4      -1.831   0.975   0.074  0.00  0.00    +0.000 C 
ATOM     31  O   CYS A   4      -1.927   2.092   0.562  0.00  0.00    +0.000 OA
ATOM     32  N   GLU A   5      -2.923   0.385  -0.642  0.00  0.00    +0.000 N 
ATOM     33  H   GLU A   5      -2.795  -0.249  -1.385  0.00  0.00    +0.000 HD
BRANCH  32  34
ATOM     34  CA  GLU A   5      -4.348   0.838  -0.141  0.00  0.00    +0.000 C 
BRANCH  34  35
ATOM     35  C   GLU A   5      -5.125  -0.198  -1.105  0.00  0.00    +0.000 C 
ATOM     36  O   GLU A   5      -6.093   0.286  -1.748  0.00  0.00    +0.000 OA
ATOM     37  N   LEU A   6      -5.370  -1.496  -0.618  0.00  0.00    +0.000 N 
ATOM     38  H   LEU A   6      -4.699  -2.208  -0.720  0.00  0.00    +0.000 HD
BRANCH  37  39
ATOM     39  CA  LEU A   6      -6.746  -1.779   0.096  0.00  0.00    +0.000 C 
BRANCH  39  40
ATOM     40  C   LEU A   6      -6.877  -3.268  -0.517  0.00  0.00    +0.000 C 
ATOM     41  O   LEU A   6      -5.923  -4.004  -0.111  0.00  0.00    +0.000 OA
BRANCH  40  42
ATOM     42  OXT LEU A   6      -8.115  -3.794  -0.112  0.00  0.00    +0.000 OA
ATOM     43  HXT LEU A   6      -8.909  -3.353  -0.342  0.00  0.00    +0.000 HD
ENDBRANCH  40  42
ENDBRANCH  39  40
BRANCH  39  44
ATOM     44  CB  LEU A   6      -7.628  -1.134  -1.133  0.00  0.00    +0.000 C 
BRANCH  44  45
ATOM     45  CG  LEU A   6      -8.713  -0.351  -0.402  0.00  0.00    +0.000 C 
ATOM     46  CD1 LEU A   6      -8.819  -0.697   1.044  0.00  0.00    +0.000 C 
ATOM     47  CD2 LEU A   6      -9.998  -0.288  -1.148  0.00  0.00    +0.000 C 
ENDBRANCH  44  45
ENDBRANCH  39  44
ENDBRANCH  37  39
ENDBRANCH  34  35
BRANCH  34  48
ATOM     48  CB  GLU A   5      -4.391   2.082  -1.215  0.00  0.00    +0.000 C 
BRANCH  48  49
ATOM     49  CG  GLU A   5      -4.866   3.277  -0.406  0.00  0.00    +0.000 C 
BRANCH  49  50
ATOM     50  CD  GLU A   5      -5.582   2.897   0.820  0.00  0.00    +0.000 C 
ATOM     51  OE1 GLU A   5      -6.758   3.348   0.973  0.00  0.00    +0.000 OA
BRANCH  50  52
ATOM     52  OE2 GLU A   5      -5.007   2.303   1.925  0.00  0.00    +0.000 OA
ATOM     53  HE2 GLU A   5      -4.140   1.952   1.870  0.00  0.00    +0.000 HD
ENDBRANCH  50  52
ENDBRANCH  49  50
ENDBRANCH  48  49
ENDBRANCH  34  48
ENDBRANCH  32  34
ENDBRANCH  29  30
BRANCH  29  54
ATOM     54  CB  CYS A   4      -1.377   0.197   2.261  0.00  0.00    +0.000 C 
BRANCH  54  55
ATOM     55  SG  CYS A   4      -0.092   0.664   3.364  0.00  0.00    +0.000 S 
ATOM     56  HG  CYS A   4       0.828  -0.334   3.437  0.00  0.00    +0.000 HD
ENDBRANCH  54  55
ENDBRANCH  29  54
ENDBRANCH   3  29
TORSDOF 27
