REMARK  Name = 
REMARK  30 active torsions:
REMARK  status: ('A' for Active; 'I' for Inactive)
REMARK    1  A    between atoms: C_2  and  O_3
REMARK    2  A    between atoms: C_2  and  C_4
REMARK    3  A    between atoms: C_4  and  C_5
REMARK    4  A    between atoms: C_5  and  C_6
REMARK    5  A    between atoms: C_6  and  N_7
REMARK    6  A    between atoms: C_6  and  C_46
REMARK    7  A    between atoms: N_7  and  P_8
REMARK    8  A    between atoms: P_8  and  O_10
REMARK    9  A    between atoms: P_8  and  O_11
REMARK   10  A    between atoms: O_11  and  C_12
REMARK   11  A    between atoms: C_12  and  C_13
REMARK   12  A    between atoms: C_13  and  C_14
REMARK   13  A    between atoms: C_14  and  C_15
REMARK   14  A    between atoms: C_15  and  N_16
REMARK   15  A    between atoms: C_15  and  C_43
REMARK   16  A    between atoms: C_17  and  C_19
REMARK   17  A    between atoms: C_19  and  C_20
REMARK   18  A    between atoms: C_20  and  C_21
REMARK   19  A    between atoms: C_21  and  N_22
REMARK   20  A    between atoms: C_21  and  C_40
REMARK   21  A    between atoms: C_23  and  C_25
REMARK   22  A    between atoms: C_25  and  C_26
REMARK   23  A    between atoms: C_26  and  C_27
REMARK   24  A    between atoms: C_27  and  C_28
REMARK   25  A    between atoms: C_28  and  C_29
REMARK   26  A    between atoms: C_29  and  N_30
REMARK   27  A    between atoms: C_31  and  C_33
REMARK   28  A    between atoms: C_40  and  O_42
REMARK   29  A    between atoms: C_43  and  O_45
REMARK   30  A    between atoms: C_46  and  O_48
REMARK                            x       y       z     vdW  Elec       q    Type
REMARK                         _______ _______ _______ _____ _____    ______ ____
ROOT
ATOM      1  N   UNK A   1      -1.656  -0.075   1.633  0.00  0.00    +0.000 N 
ATOM      2  C   UNK A   1      -0.959   0.947   0.987  0.00  0.00    +0.000 C 
ATOM      3  O   UNK A   1      -1.438   1.455  -0.072  0.00  0.00    +0.000 OA
ATOM      4  H   UNK A   1      -1.410  -0.356   2.543  0.00  0.00    +0.000 HD
ENDROOT
BRANCH   1   5
ATOM      5  C   UNK A   1      -2.845  -0.766   0.869  0.00  0.00    +0.000 C 
BRANCH   5   6
ATOM      6  C   UNK A   1      -1.993  -0.965  -0.489  0.00  0.00    +0.000 C 
ATOM      7  O   UNK A   1      -2.639  -0.828  -1.553  0.00  0.00    +0.000 OA
BRANCH   6   8
ATOM      8  O   UNK A   1      -1.322  -2.191  -0.381  0.00  0.00    +0.000 OA
ATOM      9  H   UNK A   1      -0.813  -2.380   0.382  0.00  0.00    +0.000 HD
ENDBRANCH   6   8
ENDBRANCH   5   6
BRANCH   5  10
ATOM     10  C   UNK A   1      -3.477   0.674   0.382  0.00  0.00    +0.000 C 
BRANCH  10  11
ATOM     11  C   UNK A   1      -4.947   0.367   0.388  0.00  0.00    +0.000 C 
BRANCH  11  12
ATOM     12  C   UNK A   1      -5.231  -1.087   0.104  0.00  0.00    +0.000 C 
BRANCH  12  13
ATOM     13  O   UNK A   1      -6.138  -1.257  -0.946  0.00  0.00    +0.000 OA
BRANCH  13  14
ATOM     14  P   UNK A   1      -7.330  -0.060  -0.692  0.00  0.00    +0.000 P 
ATOM     15  O   UNK A   1      -8.419  -0.368  -1.645  0.00  0.00    +0.000 OA
BRANCH  14  16
ATOM     16  N   UNK A   1      -7.611   0.054   0.949  0.00  0.00    +0.000 NA
ATOM     17  H   UNK A   1      -7.079  -0.678   1.419  0.00  0.00    +0.000 HD
BRANCH  16  18
ATOM     18  C   UNK A   1      -9.126  -0.103   1.336  0.00  0.00    +0.000 C 
BRANCH  18  19
ATOM     19  C   UNK A   1      -9.312  -1.415   0.416  0.00  0.00    +0.000 C 
ATOM     20  O   UNK A   1      -8.589  -2.357   0.863  0.00  0.00    +0.000 OA
BRANCH  19  21
ATOM     21  O   UNK A   1     -10.646  -1.704   0.183  0.00  0.00    +0.000 OA
ATOM     22  H   UNK A   1     -11.218  -1.040  -0.147  0.00  0.00    +0.000 HD
ENDBRANCH  19  21
ENDBRANCH  18  19
BRANCH  18  23
ATOM     23  C   UNK A   1      -9.604   0.932   0.145  0.00  0.00    +0.000 C 
BRANCH  23  24
ATOM     24  C   UNK A   1      -9.002   2.189   0.756  0.00  0.00    +0.000 C 
BRANCH  24  26
ATOM     25  O   UNK A   1      -8.921   3.505  -0.862  0.00  0.00    +0.000 OA
ATOM     26  C   UNK A   1      -9.317   3.417  -0.037  0.00  0.00    +0.000 C 
BRANCH  26  27
ATOM     27  O   UNK A   1      -9.424   4.566   0.761  0.00  0.00    +0.000 OA
ATOM     28  H   UNK A   1      -9.822   4.514   1.608  0.00  0.00    +0.000 HD
ENDBRANCH  26  27
ENDBRANCH  24  26
ENDBRANCH  23  24
ENDBRANCH  18  23
ENDBRANCH  16  18
ENDBRANCH  14  16
BRANCH  14  29
ATOM     29  O   UNK A   1      -6.597   1.368  -1.273  0.00  0.00    +0.000 OA
ATOM     30  H   UNK A   1      -7.210   2.112  -1.167  0.00  0.00    +0.000 HD
ENDBRANCH  14  29
ENDBRANCH  13  14
ENDBRANCH  12  13
ENDBRANCH  11  12
ENDBRANCH  10  11
ENDBRANCH   5  10
ENDBRANCH   1   5
BRANCH   2  31
ATOM     31  C   UNK A   1       0.332   1.488   1.508  0.00  0.00    +0.000 C 
BRANCH  31  32
ATOM     32  C   UNK A   1       1.331   1.260   0.378  0.00  0.00    +0.000 C 
BRANCH  32  33
ATOM     33  C   UNK A   1       2.667   0.711   1.172  0.00  0.00    +0.000 C 
BRANCH  33  34
ATOM     34  N   UNK A   1       3.468   0.307  -0.119  0.00  0.00    +0.000 N 
ATOM     35  C   UNK A   0       2.799  -0.098  -1.260  0.00  0.00    +0.000 C 
ATOM     36  O   UNK A   0       1.852   0.682  -1.584  0.00  0.00    +0.000 OA
ATOM     37  H   UNK A   1       4.452   0.343  -0.115  0.00  0.00    +0.000 HD
BRANCH  35  38
ATOM     38  C   UNK A   0       3.555  -0.784  -2.346  0.00  0.00    +0.000 C 
BRANCH  38  39
ATOM     39  C   UNK A   0       3.850  -2.203  -1.956  0.00  0.00    +0.000 C 
BRANCH  39  40
ATOM     40  C   UNK A   0       5.303  -2.537  -1.888  0.00  0.00    +0.000 C 
BRANCH  40  41
ATOM     41  C   UNK A   0       6.150  -1.504  -1.210  0.00  0.00    +0.000 C 
BRANCH  41  42
ATOM     42  C   UNK A   0       6.534  -1.889   0.206  0.00  0.00    +0.000 C 
BRANCH  42  43
ATOM     43  N   UNK A   0       7.916  -1.624   0.502  0.00  0.00    +0.000 N 
ATOM     44  C   UNK A   0       8.433  -0.329   0.803  0.00  0.00    +0.000 C 
ATOM     45  O   UNK A   0       7.633   0.493   1.301  0.00  0.00    +0.000 OA
ATOM     46  H   UNK A   0       8.543  -2.382   0.496  0.00  0.00    +0.000 HD
BRANCH  44  47
ATOM     47  C   UNK A   0       9.746   0.063   0.293  0.00  0.00    +0.000 A 
ATOM     48  C   UNK A   0      10.843  -0.610   0.789  0.00  0.00    +0.000 A 
ATOM     49  C   UNK A   0      12.106  -0.233   0.384  0.00  0.00    +0.000 A 
ATOM     50  C   UNK A   0      12.232   0.723  -0.604  0.00  0.00    +0.000 A 
ATOM     51  F   UNK A   0      13.385   1.445  -0.713  0.00  0.00    +0.000 F 
ATOM     52  C   UNK A   0      11.139   0.933  -1.414  0.00  0.00    +0.000 A 
ATOM     53  C   UNK A   0       9.864   0.619  -0.962  0.00  0.00    +0.000 A 
ENDBRANCH  44  47
ENDBRANCH  42  43
ENDBRANCH  41  42
ENDBRANCH  40  41
ENDBRANCH  39  40
ENDBRANCH  38  39
ENDBRANCH  35  38
ENDBRANCH  33  34
BRANCH  33  54
ATOM     54  C   UNK A   1       2.071  -0.774   1.381  0.00  0.00    +0.000 C 
ATOM     55  O   UNK A   1       1.416  -1.287   0.487  0.00  0.00    +0.000 OA
BRANCH  54  56
ATOM     56  O   UNK A   1       1.914  -1.155   2.706  0.00  0.00    +0.000 OA
ATOM     57  H   UNK A   1       2.428  -0.747   3.375  0.00  0.00    +0.000 HD
ENDBRANCH  54  56
ENDBRANCH  33  54
ENDBRANCH  32  33
ENDBRANCH  31  32
ENDBRANCH   2  31
TORSDOF 30
