REMARK  Name = 60778
REMARK  9 active torsions:
REMARK  status: ('A' for Active; 'I' for Inactive)
REMARK    1  A    between atoms: S_1  and  C_16
REMARK    2  A    between atoms: O_5  and  C_17
REMARK    3  A    between atoms: N_7  and  C_10
REMARK    4  A    between atoms: N_8  and  C_11
REMARK    5  A    between atoms: N_9  and  C_14
REMARK    6  A    between atoms: C_10  and  C_13
REMARK    7  A    between atoms: C_11  and  C_12
REMARK    8  A    between atoms: C_14  and  C_17
REMARK    9  A    between atoms: C_15  and  C_16
REMARK                            x       y       z     vdW  Elec       q    Type
REMARK                         _______ _______ _______ _____ _____    ______ ____
ROOT
ATOM      1  O   UNL     1      -1.003   0.409  -1.210  0.00  0.00    +0.000 OA
ATOM      2  N   UNL     1      -0.084   2.232  -0.098  0.00  0.00    +0.000 N 
ATOM      3  C   UNL     1      -1.098   1.339  -0.412  0.00  0.00    +0.000 C 
ATOM      4  H   UNL     1      -0.258   2.954   0.596  0.00  0.00    +0.000 HD
ENDROOT
BRANCH   2   5
ATOM      5  C   UNL     1       1.235   2.172  -0.686  0.00  0.00    +0.000 C 
BRANCH   5   8
ATOM      6  O   UNL     1       2.025   1.207   1.383  0.00  0.00    +0.000 OA
ATOM      7  N   UNL     1       3.088   0.650  -0.607  0.00  0.00    +0.000 N 
ATOM      8  C   UNL     1       2.128   1.292   0.162  0.00  0.00    +0.000 C 
ATOM      9  H   UNL     1       3.090   0.781  -1.614  0.00  0.00    +0.000 HD
BRANCH   7  10
ATOM     10  C   UNL     1       4.104  -0.214  -0.049  0.00  0.00    +0.000 C 
BRANCH  10  12
ATOM     11  O   UNL     1       4.379  -2.546   0.480  0.00  0.00    +0.000 OA
ATOM     12  C   UNL     1       3.669  -1.655   0.030  0.00  0.00    +0.000 C 
BRANCH  12  13
ATOM     13  O   UNL     1       2.420  -1.871  -0.444  0.00  0.00    +0.000 OA
ATOM     14  H   UNL     1       2.161  -2.815  -0.382  0.00  0.00    +0.000 HD
ENDBRANCH  12  13
ENDBRANCH  10  12
ENDBRANCH   7  10
ENDBRANCH   5   8
ENDBRANCH   2   5
BRANCH   3  15
ATOM     15  C   UNL     1      -2.348   1.612   0.397  0.00  0.00    +0.000 C 
BRANCH  15  17
ATOM     16  O   UNL     1      -2.863  -0.983   1.573  0.00  0.00    +0.000 OA
ATOM     17  N   UNL     1      -3.372   0.680   0.028  0.00  0.00    +0.000 N 
ATOM     18  C   UNL     1      -3.551  -0.553   0.648  0.00  0.00    +0.000 C 
ATOM     19  H   UNL     1      -3.977   0.931  -0.749  0.00  0.00    +0.000 HD
BRANCH  18  20
ATOM     20  C   UNL     1      -4.688  -1.359   0.063  0.00  0.00    +0.000 C 
BRANCH  20  21
ATOM     21  S   UNL     1      -4.041  -2.411  -1.259  0.00  0.00    +0.000 S 
ATOM     22  H   UNL     1      -5.207  -2.996  -1.571  0.00  0.00    +0.000 HD
ENDBRANCH  20  21
ENDBRANCH  18  20
ENDBRANCH  15  17
ENDBRANCH   3  15
TORSDOF 9
