REMARK  Name = 9926791
REMARK  5 active torsions:
REMARK  status: ('A' for Active; 'I' for Inactive)
REMARK    1  A    between atoms: N_3  and  C_8
REMARK    2  A    between atoms: N_3  and  C_16
REMARK    3  A    between atoms: C_9  and  C_13
REMARK    4  A    between atoms: C_15  and  C_18
REMARK    5  A    between atoms: C_18  and  C_23
REMARK                            x       y       z     vdW  Elec       q    Type
REMARK                         _______ _______ _______ _____ _____    ______ ____
ROOT
ATOM      1  N   UNL     1       0.891   0.112   0.583  0.00  0.00    +0.000 N 
ATOM      2  N   UNL     1       1.873  -1.459  -0.923  0.00  0.00    +0.000 NA
ATOM      3  N   UNL     1       5.533  -0.218   0.255  0.00  0.00    +0.000 N 
ATOM      4  N   UNL     1       4.282  -1.709  -1.169  0.00  0.00    +0.000 NA
ATOM      5  C   UNL     1       2.018  -0.484   0.010  0.00  0.00    +0.000 A 
ATOM      6  C   UNL     1       0.934   0.617   1.953  0.00  0.00    +0.000 C 
ATOM      7  C   UNL     1       3.308  -0.092   0.382  0.00  0.00    +0.000 A 
ATOM      8  C   UNL     1       4.368  -0.740  -0.241  0.00  0.00    +0.000 A 
ATOM      9  C   UNL     1       3.871   0.850   1.282  0.00  0.00    +0.000 A 
ATOM     10  C   UNL     1       2.995  -2.002  -1.446  0.00  0.00    +0.000 A 
ATOM     11  C   UNL     1       5.242   0.750   1.182  0.00  0.00    +0.000 A 
ATOM     12  H   UNL     1       6.463  -0.501  -0.022  0.00  0.00    +0.000 HD
ENDROOT
BRANCH   1  15
ATOM     13  O   UNL     1      -3.839  -1.186   1.233  0.00  0.00    +0.000 OA
ATOM     14  N   UNL     1      -2.786   0.539   0.085  0.00  0.00    +0.000 N 
ATOM     15  C   UNL     1      -0.348   0.233  -0.154  0.00  0.00    +0.000 C 
ATOM     16  C   UNL     1      -0.279   1.394  -1.169  0.00  0.00    +0.000 C 
ATOM     17  C   UNL     1      -1.640   1.522  -1.877  0.00  0.00    +0.000 C 
ATOM     18  C   UNL     1      -1.525   0.379   0.814  0.00  0.00    +0.000 C 
ATOM     19  C   UNL     1      -2.807   1.634  -0.894  0.00  0.00    +0.000 C 
ATOM     20  C   UNL     1       0.144   2.733  -0.551  0.00  0.00    +0.000 C 
ATOM     21  C   UNL     1      -3.876  -0.270   0.407  0.00  0.00    +0.000 C 
BRANCH  21  22
ATOM     22  C   UNL     1      -5.167   0.013  -0.320  0.00  0.00    +0.000 C 
BRANCH  22  24
ATOM     23  N   UNL     1      -7.009  -1.682   0.447  0.00  0.00    +0.000 NA
ATOM     24  C   UNL     1      -6.186  -0.935   0.113  0.00  0.00    +0.000 C 
ENDBRANCH  22  24
ENDBRANCH  21  22
ENDBRANCH   1  15
TORSDOF 3
