REMARK  Name = 
REMARK  11 active torsions:
REMARK  status: ('A' for Active; 'I' for Inactive)
REMARK    1  A    between atoms: C_1  and  O_2
REMARK    2  A    between atoms: O_2  and  C_3
REMARK    3  A    between atoms: C_8  and  O_9
REMARK    4  A    between atoms: O_9  and  C_10
REMARK    5  A    between atoms: N_14  and  C_15
REMARK    6  A    between atoms: C_16  and  C_17
REMARK    7  A    between atoms: C_19  and  C_20
REMARK    8  A    between atoms: C_22  and  C_23
REMARK    9  A    between atoms: N_24  and  C_25
REMARK   10  A    between atoms: C_25  and  C_26
REMARK   11  A    between atoms: C_26  and  N_27
REMARK                            x       y       z     vdW  Elec       q    Type
REMARK                         _______ _______ _______ _____ _____    ______ ____
ROOT
ATOM      1  C   UNL     1       4.816  -1.168  -0.566  0.00  0.00    +0.000 A 
ATOM      2  C   UNL     1       4.528   0.110  -1.010  0.00  0.00    +0.000 A 
ATOM      3  C   UNL     1       3.338   0.684  -0.635  0.00  0.00    +0.000 A 
ATOM      4  C   UNL     1       2.312  -0.182  -0.276  0.00  0.00    +0.000 A 
ATOM      5  C   UNL     1       2.578  -1.455   0.211  0.00  0.00    +0.000 A 
ATOM      6  C   UNL     1       3.888  -1.911   0.142  0.00  0.00    +0.000 A 
ATOM      7  C   UNL     1       1.026   0.405   0.117  0.00  0.00    +0.000 A 
ATOM      8  C   UNL     1      -0.115  -0.388   0.076  0.00  0.00    +0.000 A 
ATOM      9  C   UNL     1      -1.320   0.278   0.258  0.00  0.00    +0.000 A 
ATOM     10  N   UNL     1      -2.421  -0.341   0.541  0.00  0.00    +0.000 NA
ATOM     11  N   UNL     1      -1.441   1.612   0.049  0.00  0.00    +0.000 N 
ATOM     12  C   UNL     1      -0.319   2.355   0.141  0.00  0.00    +0.000 A 
ATOM     13  O   UNL     1      -0.298   3.592  -0.085  0.00  0.00    +0.000 OA
ATOM     14  N   UNL     1       0.874   1.740   0.269  0.00  0.00    +0.000 N 
ATOM     15  C   UNL     1       2.096   2.483   0.552  0.00  0.00    +0.000 C 
ATOM     16  C   UNL     1       3.183   2.159  -0.448  0.00  0.00    +0.000 C 
ENDROOT
BRANCH  10  17
ATOM     17  C   UNL     1      -2.502  -1.747   0.280  0.00  0.00    +0.000 A 
ATOM     18  C   UNL     1      -3.562  -2.176  -0.504  0.00  0.00    +0.000 A 
ATOM     19  C   UNL     1      -4.589  -1.230  -1.039  0.00  0.00    +0.000 C 
ATOM     20  C   UNL     1      -3.842  -3.528  -0.659  0.00  0.00    +0.000 A 
ATOM     21  C   UNL     1      -3.074  -4.442   0.050  0.00  0.00    +0.000 A 
ATOM     22  C   UNL     1      -3.115  -5.870  -0.396  0.00  0.00    +0.000 C 
ATOM     23  C   UNL     1      -2.139  -3.987   0.969  0.00  0.00    +0.000 A 
ATOM     24  C   UNL     1      -1.886  -2.635   1.144  0.00  0.00    +0.000 A 
ATOM     25  C   UNL     1      -1.409  -2.226   2.500  0.00  0.00    +0.000 C 
ENDBRANCH  10  17
BRANCH   1  27
ATOM     26  C   UNL     1       7.109  -0.881  -1.336  0.00  0.00    +0.000 C 
ATOM     27  O   UNL     1       6.142  -1.604  -0.596  0.00  0.00    +0.000 OA
ENDBRANCH   1  27
BRANCH   6  28
ATOM     28  O   UNL     1       4.387  -2.855   1.045  0.00  0.00    +0.000 OA
ATOM     29  C   UNL     1       5.052  -2.399   2.220  0.00  0.00    +0.000 C 
ENDBRANCH   6  28
BRANCH  11  30
ATOM     30  C   UNL     1      -2.551   2.128  -0.746  0.00  0.00    +0.000 C 
BRANCH  30  31
ATOM     31  C   UNL     1      -3.598   2.802   0.095  0.00  0.00    +0.000 C 
BRANCH  31  32
ATOM     32  N   UNL     1      -3.250   4.173   0.362  0.00  0.00    +0.000 N 
ATOM     33  C   UNL     1      -3.506   5.245  -0.551  0.00  0.00    +0.000 C 
ATOM     34  N   UNL     1      -2.629   6.372  -0.437  0.00  0.00    +0.000 N 
ATOM     35  O   UNL     1      -3.765   4.889  -1.740  0.00  0.00    +0.000 OA
ATOM     36  H   UNL     1      -2.814   4.385   1.219  0.00  0.00    +0.000 HD
ATOM     37  H   UNL     1      -2.377   6.713   0.452  0.00  0.00    +0.000 HD
ATOM     38  H   UNL     1      -2.277   6.806  -1.248  0.00  0.00    +0.000 HD
ENDBRANCH  31  32
ENDBRANCH  30  31
ENDBRANCH  11  30
TORSDOF 6
