REMARK  Name = 
REMARK  8 active torsions:
REMARK  status: ('A' for Active; 'I' for Inactive)
REMARK    1  A    between atoms: C_2  and  C_3
REMARK    2  A    between atoms: C_2  and  O_13
REMARK    3  A    between atoms: C_4  and  C_5
REMARK    4  A    between atoms: C_8  and  O_9
REMARK    5  A    between atoms: C_10  and  O_11
REMARK    6  A    between atoms: O_13  and  C_14
REMARK    7  A    between atoms: C_14  and  C_15
REMARK    8  A    between atoms: C_15  and  C_16
REMARK                            x       y       z     vdW  Elec       q    Type
REMARK                         _______ _______ _______ _____ _____    ______ ____
ROOT
ATOM      1  C   UNL     1      -0.598  -0.890  -0.696  0.00  0.00    +0.000 C 
ATOM      2  C   UNL     1      -1.634  -0.092  -0.741  0.00  0.00    +0.000 C 
ENDROOT
BRANCH   2   3
ATOM      3  C   UNL     1      -3.018  -0.529  -0.540  0.00  0.00    +0.000 A 
ATOM      4  C   UNL     1      -3.440  -1.094   0.658  0.00  0.00    +0.000 A 
ATOM      5  C   UNL     1      -4.679  -0.758   1.190  0.00  0.00    +0.000 A 
ATOM      6  C   UNL     1      -5.566   0.040   0.477  0.00  0.00    +0.000 A 
ATOM      7  C   UNL     1      -5.320   0.144  -0.885  0.00  0.00    +0.000 A 
ATOM      8  C   UNL     1      -4.038  -0.083  -1.372  0.00  0.00    +0.000 A 
BRANCH   6   9
ATOM      9  O   UNL     1      -6.412   0.938   1.134  0.00  0.00    +0.000 OA
ATOM     10  H   UNL     1      -6.566   0.851   2.054  0.00  0.00    +0.000 HD
ENDBRANCH   6   9
BRANCH   7  11
ATOM     11  O   UNL     1      -6.331   0.679  -1.662  0.00  0.00    +0.000 OA
ATOM     12  H   UNL     1      -7.182   0.816  -1.294  0.00  0.00    +0.000 HD
ENDBRANCH   7  11
ENDBRANCH   2   3
BRANCH   1  14
ATOM     13  O   UNL     1       1.356  -0.027  -1.674  0.00  0.00    +0.000 OA
ATOM     14  C   UNL     1       0.784  -0.401  -0.606  0.00  0.00    +0.000 C 
BRANCH  14  15
ATOM     15  O   UNL     1       1.274  -0.010   0.633  0.00  0.00    +0.000 OA
BRANCH  15  16
ATOM     16  C   UNL     1       2.255   1.018   0.698  0.00  0.00    +0.000 C 
BRANCH  16  17
ATOM     17  C   UNL     1       3.125   0.898  -0.537  0.00  0.00    +0.000 C 
BRANCH  17  18
ATOM     18  C   UNL     1       4.369   0.209  -0.127  0.00  0.00    +0.000 A 
ATOM     19  C   UNL     1       5.459   0.987   0.216  0.00  0.00    +0.000 A 
ATOM     20  C   UNL     1       6.401   0.454   1.076  0.00  0.00    +0.000 A 
ATOM     21  C   UNL     1       6.244  -0.806   1.610  0.00  0.00    +0.000 A 
ATOM     22  C   UNL     1       5.353  -1.682   1.007  0.00  0.00    +0.000 A 
ATOM     23  C   UNL     1       4.416  -1.137   0.141  0.00  0.00    +0.000 A 
ENDBRANCH  17  18
ENDBRANCH  16  17
ENDBRANCH  15  16
ENDBRANCH  14  15
ENDBRANCH   1  14
TORSDOF 8
