REMARK  Name = 68723
REMARK  10 active torsions:
REMARK  status: ('A' for Active; 'I' for Inactive)
REMARK    1  A    between atoms: O_7  and  C_19
REMARK    2  A    between atoms: O_7  and  C_26
REMARK    3  A    between atoms: N_9  and  C_17
REMARK    4  A    between atoms: N_10  and  C_18
REMARK    5  A    between atoms: N_11  and  C_28
REMARK    6  A    between atoms: N_11  and  C_29
REMARK    7  A    between atoms: C_17  and  C_19
REMARK    8  A    between atoms: C_22  and  C_25
REMARK    9  A    between atoms: C_26  and  C_27
REMARK   10  A    between atoms: C_38  and  C_42
REMARK                            x       y       z     vdW  Elec       q    Type
REMARK                         _______ _______ _______ _____ _____    ______ ____
ROOT
ATOM      1  C   UNL     1       5.247  -0.111  -0.205  0.00  0.00    +0.000 A 
ATOM      2  C   UNL     1       4.226  -0.848  -0.806  0.00  0.00    +0.000 A 
ATOM      3  C   UNL     1       6.527  -0.111  -0.760  0.00  0.00    +0.000 A 
ATOM      4  C   UNL     1       4.486  -1.585  -1.962  0.00  0.00    +0.000 A 
ATOM      5  C   UNL     1       6.786  -0.848  -1.915  0.00  0.00    +0.000 A 
ATOM      6  C   UNL     1       5.765  -1.585  -2.517  0.00  0.00    +0.000 A 
ENDROOT
BRANCH   1   8
ATOM      7  O   UNL     1       5.597   0.490   2.075  0.00  0.00    +0.000 OA
ATOM      8  C   UNL     1       5.004   0.683   1.025  0.00  0.00    +0.000 C 
BRANCH   8   9
ATOM      9  O   UNL     1       4.050   1.630   0.808  0.00  0.00    +0.000 OA
BRANCH   9  10
ATOM     10  C   UNL     1       3.729   2.460   1.917  0.00  0.00    +0.000 C 
BRANCH  10  11
ATOM     11  C   UNL     1       2.655   3.449   1.494  0.00  0.00    +0.000 C 
BRANCH  11  12
ATOM     12  N   UNL     1       1.457   2.745   1.037  0.00  0.00    +0.000 NA
ATOM     13  N   UNL     1      -1.348   2.291   0.747  0.00  0.00    +0.000 N 
ATOM     14  C   UNL     1       0.655   2.297   2.183  0.00  0.00    +0.000 C 
ATOM     15  C   UNL     1       0.649   3.612   0.171  0.00  0.00    +0.000 C 
ATOM     16  C   UNL     1      -0.573   1.510   1.719  0.00  0.00    +0.000 C 
ATOM     17  C   UNL     1      -0.580   2.869  -0.359  0.00  0.00    +0.000 C 
BRANCH  13  18
ATOM     18  C   UNL     1      -2.693   1.954   0.556  0.00  0.00    +0.000 A 
ATOM     19  C   UNL     1      -3.143   1.564  -0.705  0.00  0.00    +0.000 A 
ATOM     20  C   UNL     1      -3.584   2.008   1.628  0.00  0.00    +0.000 A 
ATOM     21  C   UNL     1      -4.483   1.227  -0.894  0.00  0.00    +0.000 A 
ATOM     22  C   UNL     1      -4.925   1.672   1.439  0.00  0.00    +0.000 A 
ATOM     23  C   UNL     1      -5.374   1.282   0.178  0.00  0.00    +0.000 A 
BRANCH  21  27
ATOM     24  F   UNL     1      -6.297   0.510  -2.280  0.00  0.00    +0.000 F 
ATOM     25  F   UNL     1      -4.787   1.761  -3.206  0.00  0.00    +0.000 F 
ATOM     26  F   UNL     1      -4.326  -0.304  -2.706  0.00  0.00    +0.000 F 
ATOM     27  C   UNL     1      -4.965   0.809  -2.243  0.00  0.00    +0.000 C 
ENDBRANCH  21  27
ENDBRANCH  13  18
ENDBRANCH  11  12
ENDBRANCH  10  11
ENDBRANCH   9  10
ENDBRANCH   8   9
ENDBRANCH   1   8
BRANCH   2  28
ATOM     28  N   UNL     1       2.923  -0.862  -0.261  0.00  0.00    +0.000 N 
ATOM     29  H   UNL     1       2.898  -0.647   0.731  0.00  0.00    +0.000 HD
BRANCH  28  31
ATOM     30  N   UNL     1      -0.839  -1.256  -2.060  0.00  0.00    +0.000 NA
ATOM     31  C   UNL     1       1.650  -1.007  -0.841  0.00  0.00    +0.000 A 
ATOM     32  C   UNL     1       0.583  -1.588  -0.143  0.00  0.00    +0.000 A 
ATOM     33  C   UNL     1      -0.661  -1.694  -0.799  0.00  0.00    +0.000 A 
ATOM     34  C   UNL     1       0.732  -2.056   1.174  0.00  0.00    +0.000 A 
ATOM     35  C   UNL     1       1.470  -0.554  -2.140  0.00  0.00    +0.000 A 
ATOM     36  C   UNL     1      -1.721  -2.272  -0.105  0.00  0.00    +0.000 A 
ATOM     37  C   UNL     1      -1.572  -2.737   1.204  0.00  0.00    +0.000 A 
ATOM     38  C   UNL     1      -0.344  -2.629   1.844  0.00  0.00    +0.000 A 
ATOM     39  C   UNL     1       0.217  -0.702  -2.699  0.00  0.00    +0.000 A 
BRANCH  37  43
ATOM     40  F   UNL     1      -2.444  -3.761   3.182  0.00  0.00    +0.000 F 
ATOM     41  F   UNL     1      -3.800  -2.508   2.044  0.00  0.00    +0.000 F 
ATOM     42  F   UNL     1      -3.215  -4.455   1.271  0.00  0.00    +0.000 F 
ATOM     43  C   UNL     1      -2.733  -3.350   1.912  0.00  0.00    +0.000 C 
ENDBRANCH  37  43
ENDBRANCH  28  31
ENDBRANCH   2  28
TORSDOF 10
