REMARK  Name = 4369379
REMARK  4 active torsions:
REMARK  status: ('A' for Active; 'I' for Inactive)
REMARK    1  A    between atoms: C_6  and  C_10
REMARK    2  A    between atoms: C_10  and  C_12
REMARK    3  A    between atoms: C_16  and  C_21
REMARK    4  A    between atoms: C_17  and  C_20
REMARK                            x       y       z     vdW  Elec       q    Type
REMARK                         _______ _______ _______ _____ _____    ______ ____
ROOT
ATOM      1  N   UNL     1       2.429   2.070  -0.298  0.00  0.00    +0.000 N 
ATOM      2  N   UNL     1       5.152   2.906  -0.157  0.00  0.00    +0.000 NA
ATOM      3  N   UNL     1       0.133   2.672   0.054  0.00  0.00    +0.000 NA
ATOM      4  N   UNL     1      -1.187   2.347   0.074  0.00  0.00    +0.000 NA
ATOM      5  C   UNL     1       4.805   1.495   0.041  0.00  0.00    +0.000 C 
ATOM      6  C   UNL     1       3.370   1.356   0.573  0.00  0.00    +0.000 C 
ATOM      7  C   UNL     1       2.791   3.454  -0.629  0.00  0.00    +0.000 C 
ATOM      8  C   UNL     1       4.237   3.525  -1.115  0.00  0.00    +0.000 C 
ATOM      9  C   UNL     1       1.070   1.734  -0.275  0.00  0.00    +0.000 A 
ATOM     10  C   UNL     1       0.688   0.430  -0.594  0.00  0.00    +0.000 A 
ATOM     11  C   UNL     1      -0.656   0.099  -0.574  0.00  0.00    +0.000 A 
ATOM     12  C   UNL     1      -1.559   1.086  -0.234  0.00  0.00    +0.000 A 
ATOM     13  H   UNL     1       6.106   2.978  -0.511  0.00  0.00    +0.000 HD
ENDROOT
BRANCH  12  14
ATOM     14  C   UNL     1      -2.987   0.865  -0.180  0.00  0.00    +0.000 A 
ATOM     15  C   UNL     1      -3.584   0.444   1.010  0.00  0.00    +0.000 A 
ATOM     16  C   UNL     1      -3.768   1.072  -1.314  0.00  0.00    +0.000 A 
ATOM     17  C   UNL     1      -4.969   0.225   1.079  0.00  0.00    +0.000 A 
ATOM     18  C   UNL     1      -5.762   0.435  -0.074  0.00  0.00    +0.000 A 
ATOM     19  C   UNL     1      -5.146   0.859  -1.263  0.00  0.00    +0.000 A 
ATOM     20  C   UNL     1      -5.585  -0.199   2.268  0.00  0.00    +0.000 A 
ATOM     21  C   UNL     1      -7.147   0.216  -0.005  0.00  0.00    +0.000 A 
ATOM     22  C   UNL     1      -6.963  -0.412   2.319  0.00  0.00    +0.000 A 
ATOM     23  C   UNL     1      -7.742  -0.205   1.184  0.00  0.00    +0.000 A 
ENDBRANCH  12  14
BRANCH  11  25
ATOM     24  N   UNL     1      -1.851  -3.854  -1.540  0.00  0.00    +0.000 NA
ATOM     25  C   UNL     1      -1.064  -1.250  -0.903  0.00  0.00    +0.000 A 
ATOM     26  C   UNL     1      -1.166  -2.211   0.096  0.00  0.00    +0.000 A 
ATOM     27  C   UNL     1      -1.355  -1.588  -2.220  0.00  0.00    +0.000 A 
ATOM     28  C   UNL     1      -1.560  -3.487  -0.271  0.00  0.00    +0.000 A 
ATOM     29  C   UNL     1      -1.740  -2.893  -2.483  0.00  0.00    +0.000 A 
ENDBRANCH  11  25
BRANCH   5  30
ATOM     30  C   UNL     1       5.801   0.865   1.013  0.00  0.00    +0.000 C 
BRANCH  30  31
ATOM     31  C   UNL     1       5.845  -0.631   0.869  0.00  0.00    +0.000 A 
ATOM     32  C   UNL     1       4.992  -1.418   1.631  0.00  0.00    +0.000 A 
ATOM     33  C   UNL     1       6.739  -1.208  -0.024  0.00  0.00    +0.000 A 
ATOM     34  C   UNL     1       5.032  -2.806   1.498  0.00  0.00    +0.000 A 
ATOM     35  C   UNL     1       6.780  -2.596  -0.157  0.00  0.00    +0.000 A 
ATOM     36  C   UNL     1       5.927  -3.395   0.604  0.00  0.00    +0.000 A 
ENDBRANCH  30  31
ENDBRANCH   5  30
TORSDOF 4
