REMARK  Name = 24821094
REMARK  6 active torsions:
REMARK  status: ('A' for Active; 'I' for Inactive)
REMARK    1  A    between atoms: O_2  and  C_27
REMARK    2  A    between atoms: O_2  and  C_28
REMARK    3  A    between atoms: N_4  and  C_9
REMARK    4  A    between atoms: N_8  and  C_18
REMARK    5  A    between atoms: C_16  and  C_20
REMARK    6  A    between atoms: C_17  and  C_19
REMARK                            x       y       z     vdW  Elec       q    Type
REMARK                         _______ _______ _______ _____ _____    ______ ____
ROOT
ATOM      1  N   UNL     1      -2.093   0.460   0.516  0.00  0.00    +0.000 N 
ATOM      2  N   UNL     1      -1.074  -0.399   0.329  0.00  0.00    +0.000 NA
ATOM      3  N   UNL     1      -2.542   2.838   0.475  0.00  0.00    +0.000 NA
ATOM      4  N   UNL     1      -0.544   4.124  -0.076  0.00  0.00    +0.000 NA
ATOM      5  C   UNL     1      -1.743   1.767   0.353  0.00  0.00    +0.000 A 
ATOM      6  C   UNL     1      -0.396   1.764   0.035  0.00  0.00    +0.000 A 
ATOM      7  C   UNL     1      -0.043   0.402   0.036  0.00  0.00    +0.000 A 
ATOM      8  C   UNL     1       0.204   3.000  -0.183  0.00  0.00    +0.000 A 
ATOM      9  C   UNL     1      -1.852   3.976   0.242  0.00  0.00    +0.000 A 
ENDROOT
BRANCH   1  12
ATOM     10  O   UNL     1      -7.660  -1.706  -0.189  0.00  0.00    +0.000 OA
ATOM     11  N   UNL     1      -5.373  -1.467   0.158  0.00  0.00    +0.000 N 
ATOM     12  C   UNL     1      -3.466  -0.077   0.874  0.00  0.00    +0.000 C 
ATOM     13  C   UNL     1      -3.457  -0.819   2.225  0.00  0.00    +0.000 C 
ATOM     14  C   UNL     1      -4.040  -0.982  -0.230  0.00  0.00    +0.000 C 
ATOM     15  C   UNL     1      -4.843  -1.379   2.555  0.00  0.00    +0.000 C 
ATOM     16  C   UNL     1      -5.389  -2.228   1.409  0.00  0.00    +0.000 C 
ATOM     17  C   UNL     1      -6.561  -1.276  -0.542  0.00  0.00    +0.000 C 
BRANCH  17  18
ATOM     18  C   UNL     1      -6.503  -0.497  -1.795  0.00  0.00    +0.000 C 
ATOM     19  C   UNL     1      -7.376  -0.772  -2.766  0.00  0.00    +0.000 C 
ENDBRANCH  17  18
ENDBRANCH   1  12
BRANCH   7  20
ATOM     20  C   UNL     1       1.253  -0.168  -0.235  0.00  0.00    +0.000 A 
ATOM     21  C   UNL     1       2.156  -0.372   0.808  0.00  0.00    +0.000 A 
ATOM     22  C   UNL     1       1.603  -0.517  -1.539  0.00  0.00    +0.000 A 
ATOM     23  C   UNL     1       3.410  -0.924   0.546  0.00  0.00    +0.000 A 
ATOM     24  C   UNL     1       2.857  -1.070  -1.801  0.00  0.00    +0.000 A 
ATOM     25  C   UNL     1       3.760  -1.273  -0.758  0.00  0.00    +0.000 A 
BRANCH  25  26
ATOM     26  O   UNL     1       4.985  -1.809  -1.014  0.00  0.00    +0.000 OA
BRANCH  26  27
ATOM     27  C   UNL     1       6.085  -1.215  -0.419  0.00  0.00    +0.000 A 
ATOM     28  C   UNL     1       6.213   0.174  -0.420  0.00  0.00    +0.000 A 
ATOM     29  C   UNL     1       7.066  -2.005   0.181  0.00  0.00    +0.000 A 
ATOM     30  C   UNL     1       7.322   0.773   0.179  0.00  0.00    +0.000 A 
ATOM     31  C   UNL     1       8.174  -1.407   0.780  0.00  0.00    +0.000 A 
ATOM     32  C   UNL     1       8.302  -0.018   0.778  0.00  0.00    +0.000 A 
ENDBRANCH  26  27
ENDBRANCH  25  26
ENDBRANCH   7  20
BRANCH   8  33
ATOM     33  N   UNL     1       1.568   3.101  -0.513  0.00  0.00    +0.000 N 
ATOM     34  H   UNL     1       1.965   4.019  -0.664  0.00  0.00    +0.000 HD
ATOM     35  H   UNL     1       2.151   2.281  -0.600  0.00  0.00    +0.000 HD
ENDBRANCH   8  33
TORSDOF 6
