REMARK  Name = 71226662
REMARK  6 active torsions:
REMARK  status: ('A' for Active; 'I' for Inactive)
REMARK    1  A    between atoms: N_8  and  C_31
REMARK    2  A    between atoms: C_10  and  C_14
REMARK    3  A    between atoms: C_16  and  C_22
REMARK    4  A    between atoms: C_17  and  C_20
REMARK    5  A    between atoms: C_27  and  C_29
REMARK    6  A    between atoms: C_28  and  C_30
REMARK                            x       y       z     vdW  Elec       q    Type
REMARK                         _______ _______ _______ _____ _____    ______ ____
ROOT
ATOM      1  N   UNL     1       3.003  -2.040  -0.245  0.00  0.00    +0.000 N 
ATOM      2  N   UNL     1       2.162  -0.135   0.523  0.00  0.00    +0.000 NA
ATOM      3  N   UNL     1       1.860  -4.408  -1.130  0.00  0.00    +0.000 NA
ATOM      4  N   UNL     1      -0.304  -3.657  -0.771  0.00  0.00    +0.000 N 
ATOM      5  C   UNL     1       3.269  -0.788   0.234  0.00  0.00    +0.000 A 
ATOM      6  C   UNL     1       1.638  -2.193  -0.262  0.00  0.00    +0.000 A 
ATOM      7  C   UNL     1       1.140  -1.004   0.217  0.00  0.00    +0.000 A 
ATOM      8  C   UNL     1       3.819  -3.068  -0.669  0.00  0.00    +0.000 A 
ATOM      9  C   UNL     1       1.055  -3.442  -0.729  0.00  0.00    +0.000 A 
ATOM     10  C   UNL     1       3.229  -4.199  -1.091  0.00  0.00    +0.000 A 
ATOM     11  H   UNL     1      -0.982  -2.963  -0.480  0.00  0.00    +0.000 HD
ATOM     12  H   UNL     1      -0.674  -4.541  -1.104  0.00  0.00    +0.000 HD
ENDROOT
BRANCH   5  15
ATOM     13  O   UNL     1       4.393   1.314  -2.023  0.00  0.00    +0.000 OA
ATOM     14  N   UNL     1       4.792   1.200   0.260  0.00  0.00    +0.000 N 
ATOM     15  C   UNL     1       4.681  -0.256   0.396  0.00  0.00    +0.000 C 
ATOM     16  C   UNL     1       5.258  -0.539   1.789  0.00  0.00    +0.000 C 
ATOM     17  C   UNL     1       4.966   0.738   2.571  0.00  0.00    +0.000 C 
ATOM     18  C   UNL     1       5.145   1.831   1.529  0.00  0.00    +0.000 C 
ATOM     19  C   UNL     1       4.690   1.850  -0.961  0.00  0.00    +0.000 C 
BRANCH  19  20
ATOM     20  C   UNL     1       4.956   3.271  -0.977  0.00  0.00    +0.000 C 
ATOM     21  C   UNL     1       5.177   4.451  -0.990  0.00  0.00    +0.000 C 
ATOM     22  C   UNL     1       5.447   5.888  -1.006  0.00  0.00    +0.000 C 
ENDBRANCH  19  20
ENDBRANCH   5  15
BRANCH   7  23
ATOM     23  C   UNL     1      -0.237  -0.659   0.394  0.00  0.00    +0.000 A 
ATOM     24  C   UNL     1      -0.944  -0.052  -0.645  0.00  0.00    +0.000 A 
ATOM     25  C   UNL     1      -0.873  -0.929   1.606  0.00  0.00    +0.000 A 
ATOM     26  C   UNL     1      -2.286   0.285  -0.471  0.00  0.00    +0.000 A 
ATOM     27  C   UNL     1      -2.215  -0.592   1.779  0.00  0.00    +0.000 A 
ATOM     28  C   UNL     1      -2.922   0.015   0.741  0.00  0.00    +0.000 A 
BRANCH  28  31
ATOM     29  O   UNL     1      -4.746   0.583   2.068  0.00  0.00    +0.000 OA
ATOM     30  N   UNL     1      -5.098   0.405  -0.245  0.00  0.00    +0.000 N 
ATOM     31  C   UNL     1      -4.322   0.365   0.921  0.00  0.00    +0.000 C 
ATOM     32  H   UNL     1      -4.669   0.168  -1.134  0.00  0.00    +0.000 HD
BRANCH  30  34
ATOM     33  N   UNL     1      -7.028   0.672  -1.611  0.00  0.00    +0.000 NA
ATOM     34  C   UNL     1      -6.480   0.689  -0.375  0.00  0.00    +0.000 A 
ATOM     35  C   UNL     1      -7.187   0.969   0.783  0.00  0.00    +0.000 A 
ATOM     36  C   UNL     1      -8.544   1.248   0.666  0.00  0.00    +0.000 A 
ATOM     37  C   UNL     1      -8.349   0.949  -1.686  0.00  0.00    +0.000 A 
ATOM     38  C   UNL     1      -9.144   1.240  -0.589  0.00  0.00    +0.000 A 
ENDBRANCH  30  34
ENDBRANCH  28  31
ENDBRANCH   7  23
TORSDOF 5
