REMARK  Name = 24856436
REMARK  10 active torsions:
REMARK  status: ('A' for Active; 'I' for Inactive)
REMARK    1  A    between atoms: O_1  and  C_24
REMARK    2  A    between atoms: N_3  and  C_15
REMARK    3  A    between atoms: N_4  and  C_16
REMARK    4  A    between atoms: N_5  and  C_25
REMARK    5  A    between atoms: N_6  and  C_28
REMARK    6  A    between atoms: N_7  and  C_20
REMARK    7  A    between atoms: C_24  and  C_27
REMARK    8  A    between atoms: C_24  and  C_32
REMARK    9  A    between atoms: C_24  and  C_33
REMARK   10  A    between atoms: C_28  and  C_36
REMARK                            x       y       z     vdW  Elec       q    Type
REMARK                         _______ _______ _______ _____ _____    ______ ____
ROOT
ATOM      1  O   UNL     1       5.385  -2.850  -0.261  0.00  0.00    +0.000 OA
ATOM      2  N   UNL     1       2.860  -0.495   0.294  0.00  0.00    +0.000 N 
ATOM      3  N   UNL     1       4.229  -0.846   0.232  0.00  0.00    +0.000 N 
ATOM      4  N   UNL     1      -0.944  -3.294  -0.731  0.00  0.00    +0.000 N 
ATOM      5  N   UNL     1       0.814  -1.839  -0.195  0.00  0.00    +0.000 NA
ATOM      6  N   UNL     1       1.242  -4.133  -0.887  0.00  0.00    +0.000 NA
ATOM      7  C   UNL     1       2.140  -1.675  -0.067  0.00  0.00    +0.000 A 
ATOM      8  C   UNL     1       3.031  -2.691  -0.360  0.00  0.00    +0.000 A 
ATOM      9  C   UNL     1       4.378  -2.175  -0.155  0.00  0.00    +0.000 A 
ATOM     10  C   UNL     1       0.441  -3.077  -0.596  0.00  0.00    +0.000 A 
ATOM     11  C   UNL     1       2.564  -3.911  -0.761  0.00  0.00    +0.000 A 
ATOM     12  H   UNL     1      -1.159  -4.188  -1.163  0.00  0.00    +0.000 HD
ENDROOT
BRANCH   2  14
ATOM     13  N   UNL     1       3.031   1.750  -0.474  0.00  0.00    +0.000 NA
ATOM     14  C   UNL     1       2.404   0.842   0.307  0.00  0.00    +0.000 A 
ATOM     15  C   UNL     1       2.556   3.014  -0.424  0.00  0.00    +0.000 A 
ATOM     16  C   UNL     1       1.331   1.137   1.132  0.00  0.00    +0.000 A 
ATOM     17  C   UNL     1       1.489   3.411   0.366  0.00  0.00    +0.000 A 
ATOM     18  C   UNL     1       0.871   2.449   1.156  0.00  0.00    +0.000 A 
BRANCH  15  19
ATOM     19  C   UNL     1       3.244   4.022  -1.284  0.00  0.00    +0.000 C 
ATOM     20  C   UNL     1       3.860   3.453  -2.587  0.00  0.00    +0.000 C 
ATOM     21  C   UNL     1       4.346   4.757  -0.490  0.00  0.00    +0.000 C 
BRANCH  19  22
ATOM     22  O   UNL     1       2.307   5.030  -1.728  0.00  0.00    +0.000 OA
ATOM     23  H   UNL     1       2.801   5.706  -2.222  0.00  0.00    +0.000 HD
ENDBRANCH  19  22
ENDBRANCH  15  19
ENDBRANCH   2  14
BRANCH   4  27
ATOM     24  C   UNL     1      -4.283  -0.819  -0.123  0.00  0.00    +0.000 A 
ATOM     25  C   UNL     1      -4.333  -1.836  -1.077  0.00  0.00    +0.000 A 
ATOM     26  C   UNL     1      -3.124  -0.624   0.629  0.00  0.00    +0.000 A 
ATOM     27  C   UNL     1      -2.066  -2.463  -0.526  0.00  0.00    +0.000 A 
ATOM     28  C   UNL     1      -3.224  -2.658  -1.278  0.00  0.00    +0.000 A 
ATOM     29  C   UNL     1      -2.016  -1.447   0.427  0.00  0.00    +0.000 A 
BRANCH  24  30
ATOM     30  N   UNL     1      -5.396   0.005   0.081  0.00  0.00    +0.000 N 
ATOM     31  N   UNL     1      -7.656   1.619   0.746  0.00  0.00    +0.000 NA
ATOM     32  C   UNL     1      -5.204   1.389   0.524  0.00  0.00    +0.000 C 
ATOM     33  C   UNL     1      -6.655  -0.627   0.494  0.00  0.00    +0.000 C 
ATOM     34  C   UNL     1      -6.440   2.233   0.200  0.00  0.00    +0.000 C 
ATOM     35  C   UNL     1      -7.843   0.282   0.170  0.00  0.00    +0.000 C 
ATOM     36  C   UNL     1      -8.821   2.461   0.476  0.00  0.00    +0.000 C 
ENDBRANCH  24  30
ENDBRANCH   4  27
BRANCH   3  37
ATOM     37  C   UNL     1       5.234  -0.104   0.961  0.00  0.00    +0.000 C 
BRANCH  37  38
ATOM     38  C   UNL     1       5.233  -0.552   2.385  0.00  0.00    +0.000 C 
ATOM     39  C   UNL     1       5.016   0.264   3.423  0.00  0.00    +0.000 C 
ENDBRANCH  37  38
ENDBRANCH   3  37
TORSDOF 7
