REMARK  Name = 10052040
REMARK  6 active torsions:
REMARK  status: ('A' for Active; 'I' for Inactive)
REMARK    1  A    between atoms: N_5  and  C_11
REMARK    2  A    between atoms: N_5  and  C_18
REMARK    3  A    between atoms: N_8  and  C_24
REMARK    4  A    between atoms: C_11  and  C_16
REMARK    5  A    between atoms: C_18  and  C_20
REMARK    6  A    between atoms: C_22  and  C_25
REMARK                            x       y       z     vdW  Elec       q    Type
REMARK                         _______ _______ _______ _____ _____    ______ ____
ROOT
ATOM      1  N   UNL     1       2.444   0.905  -0.062  0.00  0.00    +0.000 N 
ATOM      2  N   UNL     1       1.115   2.912  -0.050  0.00  0.00    +0.000 NA
ATOM      3  N   UNL     1      -2.173   0.600  -0.110  0.00  0.00    +0.000 N 
ATOM      4  N   UNL     1      -0.249  -0.525  -0.104  0.00  0.00    +0.000 NA
ATOM      5  N   UNL     1      -1.325   2.876  -0.074  0.00  0.00    +0.000 NA
ATOM      6  C   UNL     1       5.067  -0.343  -0.036  0.00  0.00    +0.000 C 
ATOM      7  C   UNL     1       4.634   0.609  -1.158  0.00  0.00    +0.000 C 
ATOM      8  C   UNL     1       3.842  -1.017   0.592  0.00  0.00    +0.000 C 
ATOM      9  C   UNL     1       3.569   1.606  -0.695  0.00  0.00    +0.000 C 
ATOM     10  C   UNL     1       2.780  -0.006   1.036  0.00  0.00    +0.000 C 
ATOM     11  C   UNL     1       1.201   1.549  -0.066  0.00  0.00    +0.000 A 
ATOM     12  C   UNL     1       0.001   0.824  -0.086  0.00  0.00    +0.000 A 
ATOM     13  C   UNL     1      -1.184   1.542  -0.089  0.00  0.00    +0.000 A 
ATOM     14  C   UNL     1      -1.561  -0.626  -0.117  0.00  0.00    +0.000 A 
ATOM     15  C   UNL     1      -0.116   3.478  -0.055  0.00  0.00    +0.000 A 
ENDROOT
BRANCH  14  17
ATOM     16 CL   UNL     1      -2.300  -1.887   2.598  0.00  0.00    +0.000 Cl
ATOM     17  C   UNL     1      -2.287  -1.878  -0.139  0.00  0.00    +0.000 A 
ATOM     18  C   UNL     1      -2.669  -2.527   1.034  0.00  0.00    +0.000 A 
ATOM     19  C   UNL     1      -2.605  -2.432  -1.379  0.00  0.00    +0.000 A 
ATOM     20  C   UNL     1      -3.369  -3.732   0.968  0.00  0.00    +0.000 A 
ATOM     21  C   UNL     1      -3.306  -3.636  -1.445  0.00  0.00    +0.000 A 
ATOM     22  C   UNL     1      -3.688  -4.286  -0.272  0.00  0.00    +0.000 A 
ENDBRANCH  14  17
BRANCH   3  24
ATOM     23 CL   UNL     1      -7.966   1.684  -0.155  0.00  0.00    +0.000 Cl
ATOM     24  C   UNL     1      -3.545   0.857  -0.120  0.00  0.00    +0.000 A 
ATOM     25  C   UNL     1      -4.205   0.997  -1.334  0.00  0.00    +0.000 A 
ATOM     26  C   UNL     1      -4.230   0.968   1.082  0.00  0.00    +0.000 A 
ATOM     27  C   UNL     1      -5.577   1.253  -1.345  0.00  0.00    +0.000 A 
ATOM     28  C   UNL     1      -5.601   1.225   1.071  0.00  0.00    +0.000 A 
ATOM     29  C   UNL     1      -6.274   1.367  -0.142  0.00  0.00    +0.000 A 
ENDBRANCH   3  24
BRANCH   6  32
ATOM     30  O   UNL     1       6.083   1.594   0.944  0.00  0.00    +0.000 OA
ATOM     31  N   UNL     1       6.339  -0.427   2.014  0.00  0.00    +0.000 N 
ATOM     32  C   UNL     1       5.868   0.386   1.010  0.00  0.00    +0.000 C 
ATOM     33  H   UNL     1       6.891  -0.045   2.775  0.00  0.00    +0.000 HD
ATOM     34  H   UNL     1       6.194  -1.431   2.021  0.00  0.00    +0.000 HD
ENDBRANCH   6  32
BRANCH   6  35
ATOM     35  N   UNL     1       5.979  -1.363  -0.557  0.00  0.00    +0.000 NA
ATOM     36  H   UNL     1       5.508  -1.923  -1.268  0.00  0.00    +0.000 HD
BRANCH  35  37
ATOM     37  C   UNL     1       7.169  -0.749  -1.124  0.00  0.00    +0.000 C 
ATOM     38  C   UNL     1       8.138  -1.800  -1.637  0.00  0.00    +0.000 C 
ENDBRANCH  35  37
ENDBRANCH   6  35
TORSDOF 5
