REMARK  Name = 122262
REMARK  6 active torsions:
REMARK  status: ('A' for Active; 'I' for Inactive)
REMARK    1  A    between atoms: N_3  and  C_9
REMARK    2  A    between atoms: N_4  and  C_10
REMARK    3  A    between atoms: N_5  and  C_20
REMARK    4  A    between atoms: N_6  and  C_21
REMARK    5  A    between atoms: C_9  and  C_11
REMARK    6  A    between atoms: C_10  and  C_11
REMARK                            x       y       z     vdW  Elec       q    Type
REMARK                         _______ _______ _______ _____ _____    ______ ____
ROOT
ATOM      1  C   UNL     1       0.021  -3.373   0.055  0.00  0.00    +0.000 C 
ENDROOT
BRANCH   1   2
ATOM      2  C   UNL     1      -0.858  -2.663   1.087  0.00  0.00    +0.000 C 
BRANCH   2   3
ATOM      3  N   UNL     1      -2.229  -2.551   0.590  0.00  0.00    +0.000 NA
ATOM      4  N   UNL     1      -4.623  -1.193  -0.174  0.00  0.00    +0.000 N 
ATOM      5  C   UNL     1      -2.268  -1.748  -0.638  0.00  0.00    +0.000 C 
ATOM      6  C   UNL     1      -3.098  -1.949   1.609  0.00  0.00    +0.000 C 
ATOM      7  C   UNL     1      -3.690  -1.670  -1.199  0.00  0.00    +0.000 C 
ATOM      8  C   UNL     1      -4.547  -1.879   1.122  0.00  0.00    +0.000 C 
BRANCH   4  11
ATOM      9 CL   UNL     1      -7.458   4.906   0.786  0.00  0.00    +0.000 Cl
ATOM     10  N   UNL     1      -8.343   0.393  -1.358  0.00  0.00    +0.000 NA
ATOM     11  C   UNL     1      -5.851  -0.642  -0.555  0.00  0.00    +0.000 A 
ATOM     12  C   UNL     1      -6.233   0.687  -0.233  0.00  0.00    +0.000 A 
ATOM     13  C   UNL     1      -6.756  -1.425  -1.288  0.00  0.00    +0.000 A 
ATOM     14  C   UNL     1      -7.491   1.163  -0.655  0.00  0.00    +0.000 A 
ATOM     15  C   UNL     1      -5.368   1.518   0.499  0.00  0.00    +0.000 A 
ATOM     16  C   UNL     1      -7.965  -0.871  -1.657  0.00  0.00    +0.000 A 
ATOM     17  C   UNL     1      -7.841   2.470  -0.326  0.00  0.00    +0.000 A 
ATOM     18  C   UNL     1      -5.744   2.821   0.815  0.00  0.00    +0.000 A 
ATOM     19  C   UNL     1      -6.982   3.297   0.402  0.00  0.00    +0.000 A 
ENDBRANCH   4  11
ENDBRANCH   2   3
ENDBRANCH   1   2
BRANCH   1  20
ATOM     20  C   UNL     1       1.470  -3.539   0.519  0.00  0.00    +0.000 C 
BRANCH  20  21
ATOM     21  N   UNL     1       2.104  -2.253   0.805  0.00  0.00    +0.000 NA
ATOM     22  N   UNL     1       4.062  -0.192   0.526  0.00  0.00    +0.000 N 
ATOM     23  C   UNL     1       3.469  -2.452   1.308  0.00  0.00    +0.000 C 
ATOM     24  C   UNL     1       2.134  -1.414  -0.400  0.00  0.00    +0.000 C 
ATOM     25  C   UNL     1       4.123  -1.116   1.665  0.00  0.00    +0.000 C 
ATOM     26  C   UNL     1       2.745  -0.043  -0.100  0.00  0.00    +0.000 C 
BRANCH  22  29
ATOM     27 CL   UNL     1      10.318   0.476  -2.037  0.00  0.00    +0.000 Cl
ATOM     28  N   UNL     1       6.743   3.060   0.470  0.00  0.00    +0.000 NA
ATOM     29  C   UNL     1       4.971   0.872   0.492  0.00  0.00    +0.000 A 
ATOM     30  C   UNL     1       6.250   0.774  -0.114  0.00  0.00    +0.000 A 
ATOM     31  C   UNL     1       4.615   2.095   1.082  0.00  0.00    +0.000 A 
ATOM     32  C   UNL     1       7.105   1.896  -0.101  0.00  0.00    +0.000 A 
ATOM     33  C   UNL     1       6.661  -0.425  -0.719  0.00  0.00    +0.000 A 
ATOM     34  C   UNL     1       5.520   3.137   1.044  0.00  0.00    +0.000 A 
ATOM     35  C   UNL     1       8.355   1.773  -0.703  0.00  0.00    +0.000 A 
ATOM     36  C   UNL     1       7.916  -0.520  -1.314  0.00  0.00    +0.000 A 
ATOM     37  C   UNL     1       8.764   0.581  -1.305  0.00  0.00    +0.000 A 
ENDBRANCH  22  29
ENDBRANCH  20  21
ENDBRANCH   1  20
TORSDOF 6
