REMARK  Name = 447522
REMARK  17 active torsions:
REMARK  status: ('A' for Active; 'I' for Inactive)
REMARK    1  A    between atoms: O_5  and  C_40
REMARK    2  A    between atoms: O_5  and  C_48
REMARK    3  A    between atoms: O_7  and  C_41
REMARK    4  A    between atoms: O_8  and  C_42
REMARK    5  A    between atoms: N_11  and  C_20
REMARK    6  A    between atoms: N_12  and  C_14
REMARK    7  A    between atoms: N_13  and  C_21
REMARK    8  A    between atoms: C_20  and  C_23
REMARK    9  A    between atoms: C_21  and  C_22
REMARK   10  A    between atoms: C_21  and  C_24
REMARK   11  A    between atoms: C_24  and  C_25
REMARK   12  A    between atoms: C_32  and  C_37
REMARK   13  A    between atoms: C_33  and  C_38
REMARK   14  A    between atoms: C_34  and  C_40
REMARK   15  A    between atoms: C_35  and  C_39
REMARK   16  A    between atoms: C_37  and  C_41
REMARK   17  A    between atoms: C_37  and  C_42
REMARK                            x       y       z     vdW  Elec       q    Type
REMARK                         _______ _______ _______ _____ _____    ______ ____
ROOT
ATOM      1  C   UNL     1       3.724   2.794  -1.112  0.00  0.00    +0.000 C 
ENDROOT
BRANCH   1   3
ATOM      2  O   UNL     1       2.683   5.218  -2.324  0.00  0.00    +0.000 OA
ATOM      3  N   UNL     1       4.392   4.064  -1.244  0.00  0.00    +0.000 N 
ATOM      4  C   UNL     1       3.811   5.172  -1.841  0.00  0.00    +0.000 C 
ATOM      5  C   UNL     1       4.718   6.373  -1.824  0.00  0.00    +0.000 C 
ATOM      6  H   UNL     1       5.308   4.165  -0.814  0.00  0.00    +0.000 HD
ENDBRANCH   1   3
BRANCH   1   9
ATOM      7  O   UNL     1       3.293   3.439   1.185  0.00  0.00    +0.000 OA
ATOM      8  N   UNL     1       1.698   2.185   0.055  0.00  0.00    +0.000 N 
ATOM      9  C   UNL     1       2.914   2.843   0.179  0.00  0.00    +0.000 C 
ATOM     10  H   UNL     1       1.463   1.746  -0.831  0.00  0.00    +0.000 HD
BRANCH   8  13
ATOM     11  O   UNL     1       0.184   0.045   0.014  0.00  0.00    +0.000 OA
ATOM     12  N   UNL     1      -0.870   0.458   2.034  0.00  0.00    +0.000 N 
ATOM     13  C   UNL     1       0.717   2.122   1.115  0.00  0.00    +0.000 C 
ATOM     14  C   UNL     1      -0.260   3.293   0.996  0.00  0.00    +0.000 C 
ATOM     15  C   UNL     1      -0.922   3.667   2.320  0.00  0.00    +0.000 C 
ATOM     16  C   UNL     1      -1.806   2.577   2.921  0.00  0.00    +0.000 C 
ATOM     17  C   UNL     1      -1.051   1.288   3.226  0.00  0.00    +0.000 C 
ATOM     18  C   UNL     1       0.004   0.775   0.992  0.00  0.00    +0.000 C 
BRANCH  12  19
ATOM     19  C   UNL     1      -1.668  -0.761   1.968  0.00  0.00    +0.000 C 
BRANCH  19  20
ATOM     20  C   UNL     1      -2.973  -0.540   1.260  0.00  0.00    +0.000 A 
ATOM     21  C   UNL     1      -4.101  -0.152   1.983  0.00  0.00    +0.000 A 
ATOM     22  C   UNL     1      -3.058  -0.722  -0.120  0.00  0.00    +0.000 A 
ATOM     23  C   UNL     1      -5.314   0.053   1.326  0.00  0.00    +0.000 A 
ATOM     24  C   UNL     1      -4.271  -0.517  -0.777  0.00  0.00    +0.000 A 
ATOM     25  C   UNL     1      -5.399  -0.130  -0.055  0.00  0.00    +0.000 A 
BRANCH  25  26
ATOM     26  C   UNL     1      -6.657   0.083  -0.737  0.00  0.00    +0.000 A 
ATOM     27  C   UNL     1      -6.974   1.345  -1.237  0.00  0.00    +0.000 A 
ATOM     28  C   UNL     1      -7.552  -0.975  -0.895  0.00  0.00    +0.000 A 
ATOM     29  C   UNL     1      -8.187   1.551  -1.895  0.00  0.00    +0.000 A 
ATOM     30  C   UNL     1      -8.765  -0.770  -1.553  0.00  0.00    +0.000 A 
ATOM     31  C   UNL     1      -9.082   0.493  -2.054  0.00  0.00    +0.000 A 
ENDBRANCH  25  26
ENDBRANCH  19  20
ENDBRANCH  12  19
ENDBRANCH   8  13
ENDBRANCH   1   9
BRANCH   1  32
ATOM     32  C   UNL     1       4.710   1.621  -1.078  0.00  0.00    +0.000 C 
BRANCH  32  33
ATOM     33  C   UNL     1       4.021   0.283  -0.958  0.00  0.00    +0.000 A 
ATOM     34  C   UNL     1       3.757  -0.255   0.302  0.00  0.00    +0.000 A 
ATOM     35  C   UNL     1       3.649  -0.415  -2.107  0.00  0.00    +0.000 A 
ATOM     36  C   UNL     1       2.749  -2.190  -0.737  0.00  0.00    +0.000 A 
ATOM     37  C   UNL     1       3.121  -1.492   0.412  0.00  0.00    +0.000 A 
ATOM     38  C   UNL     1       3.013  -1.651  -1.996  0.00  0.00    +0.000 A 
BRANCH  36  40
ATOM     39  F   UNL     1       1.268  -3.618   0.479  0.00  0.00    +0.000 F 
ATOM     40  C   UNL     1       2.067  -3.516  -0.648  0.00  0.00    +0.000 C 
BRANCH  40  42
ATOM     41  O   UNL     1       1.446  -4.236  -2.921  0.00  0.00    +0.000 OA
ATOM     42  C   UNL     1       1.137  -3.723  -1.855  0.00  0.00    +0.000 C 
BRANCH  42  43
ATOM     43  O   UNL     1      -0.087  -3.185  -1.614  0.00  0.00    +0.000 OA
ATOM     44  H   UNL     1      -0.685  -3.276  -2.386  0.00  0.00    +0.000 HD
ENDBRANCH  42  43
ENDBRANCH  40  42
BRANCH  40  46
ATOM     45  O   UNL     1       4.231  -4.630  -1.027  0.00  0.00    +0.000 OA
ATOM     46  C   UNL     1       3.106  -4.645  -0.547  0.00  0.00    +0.000 C 
BRANCH  46  47
ATOM     47  O   UNL     1       2.639  -5.660   0.226  0.00  0.00    +0.000 OA
ATOM     48  H   UNL     1       3.303  -6.375   0.329  0.00  0.00    +0.000 HD
ENDBRANCH  46  47
ENDBRANCH  40  46
ENDBRANCH  36  40
BRANCH  37  50
ATOM     49  O   UNL     1       3.303  -3.108   2.155  0.00  0.00    +0.000 OA
ATOM     50  C   UNL     1       2.858  -2.032   1.739  0.00  0.00    +0.000 C 
BRANCH  50  51
ATOM     51  O   UNL     1       2.057  -1.198   2.469  0.00  0.00    +0.000 OA
ATOM     52  C   UNL     1       1.727  -1.620   3.797  0.00  0.00    +0.000 C 
ENDBRANCH  50  51
ENDBRANCH  37  50
ENDBRANCH  32  33
ENDBRANCH   1  32
TORSDOF 15
