REMARK  Name = 49784002
REMARK  7 active torsions:
REMARK  status: ('A' for Active; 'I' for Inactive)
REMARK    1  A    between atoms: N_2  and  C_12
REMARK    2  A    between atoms: N_3  and  C_13
REMARK    3  A    between atoms: C_12  and  C_14
REMARK    4  A    between atoms: C_12  and  C_15
REMARK    5  A    between atoms: C_13  and  C_16
REMARK    6  A    between atoms: C_18  and  C_19
REMARK    7  A    between atoms: C_21  and  C_24
REMARK                            x       y       z     vdW  Elec       q    Type
REMARK                         _______ _______ _______ _____ _____    ______ ____
ROOT
ATOM      1  N   UNL     1       4.202   3.251   1.427  0.00  0.00    +0.000 N 
ATOM      2  N   UNL     1       3.417   4.325   1.617  0.00  0.00    +0.000 NA
ATOM      3  C   UNL     1       1.382   1.793  -0.105  0.00  0.00    +0.000 A 
ATOM      4  C   UNL     1       2.286   2.647   0.547  0.00  0.00    +0.000 A 
ATOM      5  C   UNL     1       3.131   0.106  -0.234  0.00  0.00    +0.000 A 
ATOM      6  C   UNL     1       1.823   0.521  -0.490  0.00  0.00    +0.000 A 
ATOM      7  C   UNL     1       3.583   2.209   0.791  0.00  0.00    +0.000 A 
ATOM      8  C   UNL     1       4.043   0.945   0.415  0.00  0.00    +0.000 A 
ATOM      9  C   UNL     1       2.252   3.954   1.081  0.00  0.00    +0.000 A 
ATOM     10  H   UNL     1       5.157   3.293   1.759  0.00  0.00    +0.000 HD
ENDROOT
BRANCH   5  12
ATOM     11  N   UNL     1       3.557  -4.437   0.866  0.00  0.00    +0.000 N 
ATOM     12  C   UNL     1       3.554  -1.216  -0.645  0.00  0.00    +0.000 A 
ATOM     13  C   UNL     1       3.401  -2.301   0.241  0.00  0.00    +0.000 A 
ATOM     14  C   UNL     1       3.814  -3.570  -0.172  0.00  0.00    +0.000 A 
ATOM     15  C   UNL     1       4.114  -1.440  -1.909  0.00  0.00    +0.000 A 
ATOM     16  C   UNL     1       2.888  -2.438   1.561  0.00  0.00    +0.000 A 
ATOM     17  C   UNL     1       4.375  -3.809  -1.432  0.00  0.00    +0.000 A 
ATOM     18  C   UNL     1       4.517  -2.717  -2.294  0.00  0.00    +0.000 A 
ATOM     19  C   UNL     1       2.997  -3.763   1.917  0.00  0.00    +0.000 A 
ATOM     20  H   UNL     1       3.754  -5.428   0.852  0.00  0.00    +0.000 HD
ENDBRANCH   5  12
BRANCH   3  25
ATOM     21  O   UNL     1      -0.764   1.360  -0.994  0.00  0.00    +0.000 OA
ATOM     22  N   UNL     1      -0.513   3.403  -0.059  0.00  0.00    +0.000 NA
ATOM     23  C   UNL     1      -1.947   2.025  -1.107  0.00  0.00    +0.000 A 
ATOM     24  C   UNL     1      -1.790   3.265  -0.538  0.00  0.00    +0.000 A 
ATOM     25  C   UNL     1       0.043   2.251  -0.356  0.00  0.00    +0.000 A 
BRANCH  23  26
ATOM     26  C   UNL     1      -3.082   1.303  -1.783  0.00  0.00    +0.000 C 
BRANCH  26  28
ATOM     27  N   UNL     1      -5.892  -1.181   0.206  0.00  0.00    +0.000 NA
ATOM     28  N   UNL     1      -4.065   0.812  -0.819  0.00  0.00    +0.000 NA
ATOM     29  C   UNL     1      -6.383   0.029  -0.467  0.00  0.00    +0.000 C 
ATOM     30  C   UNL     1      -4.607  -0.915   0.863  0.00  0.00    +0.000 C 
ATOM     31  C   UNL     1      -5.352   0.548  -1.475  0.00  0.00    +0.000 C 
ATOM     32  C   UNL     1      -3.576  -0.397  -0.145  0.00  0.00    +0.000 C 
BRANCH  27  33
ATOM     33  C   UNL     1      -6.876  -1.674   1.168  0.00  0.00    +0.000 C 
ATOM     34  C   UNL     1      -6.346  -2.917   1.876  0.00  0.00    +0.000 C 
ATOM     35  C   UNL     1      -8.187  -1.970   0.448  0.00  0.00    +0.000 C 
ENDBRANCH  27  33
ENDBRANCH  26  28
ENDBRANCH  23  26
ENDBRANCH   3  25
TORSDOF 5
