REMARK  Name = 
REMARK  10 active torsions:
REMARK  status: ('A' for Active; 'I' for Inactive)
REMARK    1  A    between atoms: C_1  and  O_2
REMARK    2  A    between atoms: O_2  and  C_3
REMARK    3  A    between atoms: C_8  and  N_9
REMARK    4  A    between atoms: N_9  and  C_10
REMARK    5  A    between atoms: C_13  and  C_14
REMARK    6  A    between atoms: C_13  and  C_33
REMARK    7  A    between atoms: N_22  and  C_23
REMARK    8  A    between atoms: C_25  and  C_26
REMARK    9  A    between atoms: C_33  and  C_34
REMARK   10  A    between atoms: C_33  and  C_35
REMARK                            x       y       z     vdW  Elec       q    Type
REMARK                         _______ _______ _______ _____ _____    ______ ____
ROOT
ATOM      1  C   UNL     1      -0.697  -0.319  -0.847  0.00  0.00    +0.000 C 
ATOM      2  O   UNL     1      -0.596   0.904  -0.535  0.00  0.00    +0.000 OA
ATOM      3  N   UNL     1       0.476  -1.163  -0.828  0.00  0.00    +0.000 N 
ATOM      4  C   UNL     1       1.372  -0.994   0.229  0.00  0.00    +0.000 C 
ATOM      5  C   UNL     1       2.293   0.275  -0.242  0.00  0.00    +0.000 C 
ATOM      6  C   UNL     1       1.610   0.555  -1.687  0.00  0.00    +0.000 C 
ATOM      7  C   UNL     1       1.280  -0.964  -2.163  0.00  0.00    +0.000 C 
ATOM      8  C   UNL     1       2.653  -1.661  -1.614  0.00  0.00    +0.000 C 
ATOM      9  N   UNL     1       3.324  -0.674  -0.946  0.00  0.00    +0.000 N 
ENDROOT
BRANCH   9  10
ATOM     10  C   UNL     1       4.450  -0.922  -0.099  0.00  0.00    +0.000 A 
ATOM     11  C   UNL     1       5.555  -0.137  -0.449  0.00  0.00    +0.000 A 
ATOM     12  C   UNL     1       6.393   0.394   0.494  0.00  0.00    +0.000 A 
ATOM     13  N   UNL     1       6.122   0.136   1.775  0.00  0.00    +0.000 NA
ATOM     14  C   UNL     1       5.418  -0.997   2.048  0.00  0.00    +0.000 A 
ATOM     15  N   UNL     1       4.379  -1.251   1.204  0.00  0.00    +0.000 NA
BRANCH  12  16
ATOM     16  C   UNL     1       7.454   1.298   0.007  0.00  0.00    +0.000 C 
ATOM     17  F   UNL     1       7.492   2.469   0.713  0.00  0.00    +0.000 F 
ATOM     18  F   UNL     1       8.621   0.565   0.086  0.00  0.00    +0.000 F 
ATOM     19  F   UNL     1       7.201   1.652  -1.317  0.00  0.00    +0.000 F 
ENDBRANCH  12  16
ENDBRANCH   9  10
BRANCH   1  23
ATOM     20  C   UNL     1      -4.265  -0.650   0.292  0.00  0.00    +0.000 C 
ATOM     21  C   UNL     1      -3.339  -1.247   1.510  0.00  0.00    +0.000 C 
ATOM     22  C   UNL     1      -1.978  -0.744   1.237  0.00  0.00    +0.000 C 
ATOM     23  C   UNL     1      -1.876  -1.026  -0.250  0.00  0.00    +0.000 C 
ATOM     24  C   UNL     1      -3.012  -0.271  -0.685  0.00  0.00    +0.000 C 
BRANCH  23  25
ATOM     25  C   UNL     1      -1.824  -2.484  -0.456  0.00  0.00    +0.000 C 
ATOM     26  C   UNL     1      -3.133  -3.010  -0.896  0.00  0.00    +0.000 C 
ATOM     27  C   UNL     1      -1.425  -3.286   0.756  0.00  0.00    +0.000 C 
ENDBRANCH  23  25
BRANCH  20  28
ATOM     28  N   UNL     1      -4.344   0.807   0.884  0.00  0.00    +0.000 NA
ATOM     29  H   UNL     1      -5.060   0.863   1.608  0.00  0.00    +0.000 HD
BRANCH  28  35
ATOM     30  C   UNL     1      -6.303   2.187   0.182  0.00  0.00    +0.000 C 
ATOM     31  C   UNL     1      -6.585   0.883   1.141  0.00  0.00    +0.000 C 
ATOM     32  O   UNL     1      -7.251   0.092   0.191  0.00  0.00    +0.000 OA
ATOM     33  C   UNL     1      -6.703   0.208  -1.034  0.00  0.00    +0.000 C 
ATOM     34  C   UNL     1      -5.396   0.578  -1.299  0.00  0.00    +0.000 C 
ATOM     35  C   UNL     1      -4.722   1.708  -0.337  0.00  0.00    +0.000 C 
BRANCH  30  37
ATOM     36  C   UNL     1      -6.818   3.999   1.071  0.00  0.00    +0.000 C 
ATOM     37  O   UNL     1      -5.826   3.090   1.318  0.00  0.00    +0.000 OA
ENDBRANCH  30  37
ENDBRANCH  28  35
ENDBRANCH  20  28
ENDBRANCH   1  23
TORSDOF 7
