REMARK  Name = 16850
REMARK  2 active torsions:
REMARK  status: ('A' for Active; 'I' for Inactive)
REMARK    1  A    between atoms: O_4  and  C_24
REMARK    2  A    between atoms: O_5  and  C_25
REMARK                            x       y       z     vdW  Elec       q    Type
REMARK                         _______ _______ _______ _____ _____    ______ ____
ROOT
ATOM      1  O   UNL     1       0.002   0.960   1.714  0.00  0.00    +0.000 OA
ATOM      2  O   UNL     1      -0.007  -2.431  -0.547  0.00  0.00    +0.000 OA
ATOM      3  O   UNL     1       0.009   3.095   2.609  0.00  0.00    +0.000 OA
ATOM      4  C   UNL     1       0.001   0.336   0.390  0.00  0.00    +0.000 C 
ATOM      5  C   UNL     1       0.004   1.532  -0.506  0.00  0.00    +0.000 A 
ATOM      6  C   UNL     1       1.257  -0.503   0.262  0.00  0.00    +0.000 A 
ATOM      7  C   UNL     1      -1.260  -0.496   0.261  0.00  0.00    +0.000 A 
ATOM      8  C   UNL     1       0.007   2.687   0.254  0.00  0.00    +0.000 A 
ATOM      9  C   UNL     1       1.176  -1.817  -0.212  0.00  0.00    +0.000 A 
ATOM     10  C   UNL     1      -1.186  -1.810  -0.212  0.00  0.00    +0.000 A 
ATOM     11  C   UNL     1       0.006   2.331   1.665  0.00  0.00    +0.000 C 
ATOM     12  C   UNL     1       0.005   1.609  -1.890  0.00  0.00    +0.000 A 
ATOM     13  C   UNL     1       2.526   0.014   0.579  0.00  0.00    +0.000 A 
ATOM     14  C   UNL     1      -2.526   0.028   0.578  0.00  0.00    +0.000 A 
ATOM     15  C   UNL     1       0.011   3.951  -0.306  0.00  0.00    +0.000 A 
ATOM     16  C   UNL     1       2.329  -2.592  -0.376  0.00  0.00    +0.000 A 
ATOM     17  C   UNL     1      -2.343  -2.579  -0.376  0.00  0.00    +0.000 A 
ATOM     18  C   UNL     1       0.009   2.873  -2.486  0.00  0.00    +0.000 A 
ATOM     19  C   UNL     1       3.676  -0.761   0.422  0.00  0.00    +0.000 A 
ATOM     20  C   UNL     1      -3.681  -0.741   0.421  0.00  0.00    +0.000 A 
ATOM     21  C   UNL     1       0.012   4.037  -1.698  0.00  0.00    +0.000 A 
ATOM     22  C   UNL     1       3.577  -2.064  -0.057  0.00  0.00    +0.000 A 
ATOM     23  C   UNL     1      -3.589  -2.045  -0.058  0.00  0.00    +0.000 A 
ENDROOT
BRANCH  22  24
ATOM     24  O   UNL     1       4.698  -2.820  -0.214  0.00  0.00    +0.000 OA
ATOM     25  H   UNL     1       4.443  -3.694  -0.555  0.00  0.00    +0.000 HD
ENDBRANCH  22  24
BRANCH  23  26
ATOM     26  O   UNL     1      -4.713  -2.795  -0.214  0.00  0.00    +0.000 OA
ATOM     27  H   UNL     1      -5.485  -2.266   0.054  0.00  0.00    +0.000 HD
ENDBRANCH  23  26
TORSDOF 2
