REMARK  Name = 160478
REMARK  3 active torsions:
REMARK  status: ('A' for Active; 'I' for Inactive)
REMARK    1  A    between atoms: O_1  and  C_8
REMARK    2  A    between atoms: O_2  and  C_9
REMARK    3  A    between atoms: O_3  and  C_12
REMARK                            x       y       z     vdW  Elec       q    Type
REMARK                         _______ _______ _______ _____ _____    ______ ____
ROOT
ATOM      1  O   UNL     1      -1.489  -2.539  -0.001  0.00  0.00    +0.000 OA
ATOM      2  O   UNL     1      -3.615  -0.927   0.001  0.00  0.00    +0.000 OA
ATOM      3  C   UNL     1       0.168   0.671  -0.000  0.00  0.00    +0.000 A 
ATOM      4  C   UNL     1       0.044  -0.727   0.000  0.00  0.00    +0.000 A 
ATOM      5  C   UNL     1       1.461   1.217  -0.000  0.00  0.00    +0.000 A 
ATOM      6  C   UNL     1      -1.032   1.528  -0.001  0.00  0.00    +0.000 C 
ATOM      7  C   UNL     1       1.170  -1.558   0.001  0.00  0.00    +0.000 A 
ATOM      8  C   UNL     1      -1.300  -1.333  -0.000  0.00  0.00    +0.000 C 
ATOM      9  C   UNL     1       2.443  -0.994   0.001  0.00  0.00    +0.000 A 
ATOM     10  C   UNL     1       2.589   0.391   0.000  0.00  0.00    +0.000 A 
ATOM     11  C   UNL     1      -2.274   1.026  -0.002  0.00  0.00    +0.000 C 
ATOM     12  C   UNL     1      -2.499  -0.430  -0.001  0.00  0.00    +0.000 C 
ENDROOT
BRANCH   5  13
ATOM     13  O   UNL     1       1.702   2.561  -0.003  0.00  0.00    +0.000 OA
ATOM     14  H   UNL     1       0.869   3.055  -0.009  0.00  0.00    +0.000 HD
ENDBRANCH   5  13
BRANCH   6  15
ATOM     15  O   UNL     1      -0.911   2.908   0.005  0.00  0.00    +0.000 OA
ATOM     16  H   UNL     1      -1.798   3.307   0.005  0.00  0.00    +0.000 HD
ENDBRANCH   6  15
BRANCH   9  17
ATOM     17  O   UNL     1       3.544  -1.794   0.001  0.00  0.00    +0.000 OA
ATOM     18  H   UNL     1       4.340  -1.236   0.001  0.00  0.00    +0.000 HD
ENDBRANCH   9  17
TORSDOF 3
