REMARK  Name = 5496910
REMARK  5 active torsions:
REMARK  status: ('A' for Active; 'I' for Inactive)
REMARK    1  A    between atoms: O_4  and  C_15
REMARK    2  A    between atoms: N_5  and  C_6
REMARK    3  A    between atoms: C_6  and  C_7
REMARK    4  A    between atoms: C_6  and  C_8
REMARK    5  A    between atoms: C_11  and  C_12
REMARK                            x       y       z     vdW  Elec       q    Type
REMARK                         _______ _______ _______ _____ _____    ______ ____
ROOT
ATOM      1  O   UNL     1       0.493   0.174   2.054  0.00  0.00    +0.000 OA
ATOM      2  N   UNL     1       0.088  -1.208   0.237  0.00  0.00    +0.000 N 
ATOM      3  C   UNL     1       0.863  -0.299   0.966  0.00  0.00    +0.000 C 
ATOM      4  H   UNL     1       0.392  -1.492  -0.689  0.00  0.00    +0.000 HD
ENDROOT
BRANCH   3   6
ATOM      5  F   UNL     1       4.693  -1.300  -1.794  0.00  0.00    +0.000 F 
ATOM      6  C   UNL     1       2.136   0.100   0.382  0.00  0.00    +0.000 A 
ATOM      7  C   UNL     1       2.675   1.361   0.634  0.00  0.00    +0.000 A 
ATOM      8  C   UNL     1       2.818  -0.799  -0.438  0.00  0.00    +0.000 A 
ATOM      9  C   UNL     1       3.896   1.724   0.065  0.00  0.00    +0.000 A 
ATOM     10  C   UNL     1       4.039  -0.437  -1.007  0.00  0.00    +0.000 A 
ATOM     11  C   UNL     1       4.577   0.825  -0.755  0.00  0.00    +0.000 A 
BRANCH   7  12
ATOM     12  O   UNL     1       2.024   2.254   1.432  0.00  0.00    +0.000 OA
ATOM     13  H   UNL     1       1.148   1.919   1.679  0.00  0.00    +0.000 HD
ENDBRANCH   7  12
ENDBRANCH   3   6
BRANCH   2  14
ATOM     14  C   UNL     1      -1.206  -1.681   0.671  0.00  0.00    +0.000 C 
ATOM     15  C   UNL     1      -1.410  -3.130   0.234  0.00  0.00    +0.000 C 
BRANCH  14  17
ATOM     16 BR   UNL     1      -5.731   2.043  -1.265  0.00  0.00    +0.000 Br
ATOM     17  C   UNL     1      -2.317  -0.768   0.196  0.00  0.00    +0.000 A 
ATOM     18  C   UNL     1      -2.196  -0.140  -1.031  0.00  0.00    +0.000 A 
ATOM     19  C   UNL     1      -3.428  -0.582   0.999  0.00  0.00    +0.000 A 
ATOM     20  C   UNL     1      -3.219   0.701  -1.469  0.00  0.00    +0.000 A 
ATOM     21  C   UNL     1      -4.451   0.260   0.562  0.00  0.00    +0.000 A 
ATOM     22  C   UNL     1      -4.346   0.901  -0.673  0.00  0.00    +0.000 A 
ENDBRANCH  14  17
ENDBRANCH   2  14
TORSDOF 4
