REMARK  Name = 6365297
REMARK  5 active torsions:
REMARK  status: ('A' for Active; 'I' for Inactive)
REMARK    1  A    between atoms: O_1  and  C_5
REMARK    2  A    between atoms: C_2  and  C_8
REMARK    3  A    between atoms: C_3  and  C_9
REMARK    4  A    between atoms: C_4  and  C_10
REMARK    5  A    between atoms: C_11  and  C_12
REMARK                            x       y       z     vdW  Elec       q    Type
REMARK                         _______ _______ _______ _____ _____    ______ ____
ROOT
ATOM      1  C   UNL     1       1.021   0.294   0.053  0.00  0.00    +0.000 A 
ATOM      2  C   UNL     1       3.250   1.150  -0.179  0.00  0.00    +0.000 A 
ATOM      3  C   UNL     1       2.886  -1.210   0.190  0.00  0.00    +0.000 A 
ATOM      4  C   UNL     1       3.757  -0.139  -0.011  0.00  0.00    +0.000 A 
ATOM      5  C   UNL     1       1.873   1.368  -0.147  0.00  0.00    +0.000 A 
ATOM      6  C   UNL     1       1.508  -0.992   0.222  0.00  0.00    +0.000 A 
ATOM      7  C   UNL     1       4.167   2.309  -0.394  0.00  0.00    +0.000 C 
ATOM      8  C   UNL     1       3.409  -2.596   0.370  0.00  0.00    +0.000 C 
ENDROOT
BRANCH   4   9
ATOM      9  O   UNL     1       5.104  -0.350  -0.040  0.00  0.00    +0.000 OA
ATOM     10  H   UNL     1       5.589   0.476  -0.186  0.00  0.00    +0.000 HD
ENDBRANCH   4   9
BRANCH   1  11
ATOM     11  C   UNL     1      -0.434   0.524   0.087  0.00  0.00    +0.000 C 
ATOM     12  C   UNL     1      -1.379  -0.425  -0.110  0.00  0.00    +0.000 C 
BRANCH  12  13
ATOM     13  C   UNL     1      -2.816  -0.203  -0.058  0.00  0.00    +0.000 A 
ATOM     14  C   UNL     1      -3.325   0.916   0.603  0.00  0.00    +0.000 A 
ATOM     15  C   UNL     1      -3.685  -1.107  -0.668  0.00  0.00    +0.000 A 
ATOM     16  C   UNL     1      -4.702   1.129   0.654  0.00  0.00    +0.000 A 
ATOM     17  C   UNL     1      -5.062  -0.893  -0.617  0.00  0.00    +0.000 A 
ATOM     18  C   UNL     1      -5.571   0.225   0.044  0.00  0.00    +0.000 A 
ENDBRANCH  12  13
ENDBRANCH   1  11
TORSDOF 3
