REMARK  Name = 19844
REMARK  6 active torsions:
REMARK  status: ('A' for Active; 'I' for Inactive)
REMARK    1  A    between atoms: O_1  and  C_6
REMARK    2  A    between atoms: O_1  and  C_12
REMARK    3  A    between atoms: O_2  and  C_8
REMARK    4  A    between atoms: O_3  and  C_11
REMARK    5  A    between atoms: O_3  and  C_13
REMARK    6  A    between atoms: C_5  and  C_11
REMARK                            x       y       z     vdW  Elec       q    Type
REMARK                         _______ _______ _______ _____ _____    ______ ____
ROOT
ATOM      1  C   UNL     1       0.782  -0.025  -0.054  0.00  0.00    +0.000 A 
ATOM      2  C   UNL     1      -1.595   0.371  -0.236  0.00  0.00    +0.000 A 
ATOM      3  C   UNL     1      -0.286   0.855  -0.229  0.00  0.00    +0.000 A 
ATOM      4  C   UNL     1      -1.835  -0.993  -0.069  0.00  0.00    +0.000 A 
ATOM      5  C   UNL     1       0.541  -1.389   0.114  0.00  0.00    +0.000 A 
ATOM      6  C   UNL     1      -0.767  -1.872   0.106  0.00  0.00    +0.000 A 
ENDROOT
BRANCH   2   7
ATOM      7  O   UNL     1      -2.630   1.240  -0.408  0.00  0.00    +0.000 OA
ATOM      8  C   UNL     1      -3.191   1.820   0.768  0.00  0.00    +0.000 C 
ENDBRANCH   2   7
BRANCH   4   9
ATOM      9  O   UNL     1      -3.108  -1.477  -0.075  0.00  0.00    +0.000 OA
ATOM     10  H   UNL     1      -3.080  -2.441   0.055  0.00  0.00    +0.000 HD
ENDBRANCH   4   9
BRANCH   1  12
ATOM     11  O   UNL     1       2.453   1.671  -0.185  0.00  0.00    +0.000 OA
ATOM     12  C   UNL     1       2.146   0.480  -0.044  0.00  0.00    +0.000 C 
BRANCH  12  13
ATOM     13  O   UNL     1       3.053  -0.527   0.141  0.00  0.00    +0.000 OA
ATOM     14  C   UNL     1       4.435  -0.155   0.171  0.00  0.00    +0.000 C 
ENDBRANCH  12  13
ENDBRANCH   1  12
TORSDOF 4
