REMARK  Name = 8361
REMARK  4 active torsions:
REMARK  status: ('A' for Active; 'I' for Inactive)
REMARK    1  A    between atoms: O_1  and  C_7
REMARK    2  A    between atoms: O_1  and  C_8
REMARK    3  A    between atoms: O_2  and  C_5
REMARK    4  A    between atoms: C_4  and  C_8
REMARK                            x       y       z     vdW  Elec       q    Type
REMARK                         _______ _______ _______ _____ _____    ______ ____
ROOT
ATOM      1  O   UNL     1       0.170  -1.264  -0.913  0.00  0.00    +0.000 OA
ATOM      2  C   UNL     1      -0.239  -0.281  -0.281  0.00  0.00    +0.000 C 
ENDROOT
BRANCH   2   3
ATOM      3  C   UNL     1      -1.645   0.053  -0.101  0.00  0.00    +0.000 A 
ATOM      4  C   UNL     1      -2.619  -0.945  -0.067  0.00  0.00    +0.000 A 
ATOM      5  C   UNL     1      -2.012   1.392   0.038  0.00  0.00    +0.000 A 
ATOM      6  C   UNL     1      -3.961  -0.603   0.106  0.00  0.00    +0.000 A 
ATOM      7  C   UNL     1      -3.353   1.733   0.210  0.00  0.00    +0.000 A 
ATOM      8  C   UNL     1      -4.328   0.735   0.244  0.00  0.00    +0.000 A 
BRANCH   4   9
ATOM      9  O   UNL     1      -2.281  -2.258  -0.202  0.00  0.00    +0.000 OA
ATOM     10  H   UNL     1      -3.086  -2.800  -0.153  0.00  0.00    +0.000 HD
ENDBRANCH   4   9
ENDBRANCH   2   3
BRANCH   2  11
ATOM     11  O   UNL     1       0.580   0.645   0.361  0.00  0.00    +0.000 OA
BRANCH  11  12
ATOM     12  C   UNL     1       1.947   0.386   0.229  0.00  0.00    +0.000 A 
ATOM     13  C   UNL     1       2.624   0.932  -0.838  0.00  0.00    +0.000 A 
ATOM     14  C   UNL     1       2.563  -0.406   1.172  0.00  0.00    +0.000 A 
ATOM     15  C   UNL     1       3.988   0.673  -0.970  0.00  0.00    +0.000 A 
ATOM     16  C   UNL     1       3.927  -0.666   1.041  0.00  0.00    +0.000 A 
ATOM     17  C   UNL     1       4.639  -0.126  -0.030  0.00  0.00    +0.000 A 
ENDBRANCH  11  12
ENDBRANCH   2  11
TORSDOF 4
