REMARK  Name = 84621
REMARK  7 active torsions:
REMARK  status: ('A' for Active; 'I' for Inactive)
REMARK    1  A    between atoms: O_1  and  C_10
REMARK    2  A    between atoms: O_1  and  C_18
REMARK    3  A    between atoms: O_2  and  C_9
REMARK    4  A    between atoms: O_3  and  C_11
REMARK    5  A    between atoms: N_5  and  C_21
REMARK    6  A    between atoms: C_8  and  C_14
REMARK    7  A    between atoms: C_17  and  C_18
REMARK                            x       y       z     vdW  Elec       q    Type
REMARK                         _______ _______ _______ _____ _____    ______ ____
ROOT
ATOM      1  C   UNL     1      -3.420   0.399   0.013  0.00  0.00    +0.000 A 
ATOM      2  C   UNL     1      -2.805  -0.853  -0.230  0.00  0.00    +0.000 A 
ATOM      3  C   UNL     1      -1.248   1.482  -0.142  0.00  0.00    +0.000 A 
ATOM      4  C   UNL     1      -2.627   1.557   0.054  0.00  0.00    +0.000 A 
ATOM      5  C   UNL     1      -0.643   0.252  -0.380  0.00  0.00    +0.000 A 
ATOM      6  C   UNL     1      -1.416  -0.909  -0.424  0.00  0.00    +0.000 A 
ATOM      7  C   UNL     1      -4.810   0.455   0.207  0.00  0.00    +0.000 A 
ATOM      8  C   UNL     1      -3.599  -2.011  -0.271  0.00  0.00    +0.000 A 
ATOM      9  C   UNL     1      -0.416   2.725  -0.095  0.00  0.00    +0.000 C 
ATOM     10  C   UNL     1      -5.582  -0.705   0.163  0.00  0.00    +0.000 A 
ATOM     11  C   UNL     1      -4.978  -1.936  -0.075  0.00  0.00    +0.000 A 
ENDROOT
BRANCH   4  12
ATOM     12  O   UNL     1      -3.193   2.780   0.287  0.00  0.00    +0.000 OA
ATOM     13  H   UNL     1      -4.091   2.806  -0.080  0.00  0.00    +0.000 HD
ENDBRANCH   4  12
BRANCH   6  14
ATOM     14  O   UNL     1      -0.791  -2.102  -0.661  0.00  0.00    +0.000 OA
ATOM     15  H   UNL     1      -1.387  -2.704  -1.133  0.00  0.00    +0.000 HD
ENDBRANCH   6  14
BRANCH   5  16
ATOM     16  O   UNL     1       0.706   0.177  -0.571  0.00  0.00    +0.000 OA
BRANCH  16  18
ATOM     17  O   UNL     1       0.975  -0.120   1.724  0.00  0.00    +0.000 OA
ATOM     18  C   UNL     1       1.440  -0.014   0.600  0.00  0.00    +0.000 C 
BRANCH  18  19
ATOM     19  C   UNL     1       2.896  -0.085   0.312  0.00  0.00    +0.000 A 
ATOM     20  C   UNL     1       3.699  -0.856   1.127  0.00  0.00    +0.000 A 
ATOM     21  C   UNL     1       3.400   0.624  -0.759  0.00  0.00    +0.000 A 
ATOM     22  C   UNL     1       5.600  -0.215  -0.219  0.00  0.00    +0.000 A 
ATOM     23  C   UNL     1       5.066  -0.922   0.858  0.00  0.00    +0.000 A 
ATOM     24  C   UNL     1       4.767   0.558  -1.028  0.00  0.00    +0.000 A 
BRANCH  22  25
ATOM     25  N   UNL     1       6.982  -0.281  -0.490  0.00  0.00    +0.000 N 
ATOM     26  H   UNL     1       7.370   0.230  -1.272  0.00  0.00    +0.000 HD
ATOM     27  H   UNL     1       7.587  -0.843   0.095  0.00  0.00    +0.000 HD
ENDBRANCH  22  25
ENDBRANCH  18  19
ENDBRANCH  16  18
ENDBRANCH   5  16
TORSDOF 6
