REMARK  Name = 3078
REMARK  8 active torsions:
REMARK  status: ('A' for Active; 'I' for Inactive)
REMARK    1  A    between atoms: O_2  and  C_9
REMARK    2  A    between atoms: O_2  and  C_23
REMARK    3  A    between atoms: N_4  and  C_7
REMARK    4  A    between atoms: N_4  and  C_17
REMARK    5  A    between atoms: N_4  and  C_18
REMARK    6  A    between atoms: C_5  and  C_7
REMARK    7  A    between atoms: C_10  and  C_16
REMARK    8  A    between atoms: C_11  and  C_15
REMARK                            x       y       z     vdW  Elec       q    Type
REMARK                         _______ _______ _______ _____ _____    ______ ____
ROOT
ATOM      1  O   UNL     1      -0.245   0.168  -0.143  0.00  0.00    +0.000 OA
ATOM      2  O   UNL     1       0.302  -3.833   0.368  0.00  0.00    +0.000 OA
ATOM      3  C   UNL     1       2.083   0.548  -0.165  0.00  0.00    +0.000 A 
ATOM      4  C   UNL     1       1.020  -0.349  -0.063  0.00  0.00    +0.000 A 
ATOM      5  C   UNL     1       1.268  -1.707   0.110  0.00  0.00    +0.000 A 
ATOM      6  C   UNL     1       3.396   0.081  -0.092  0.00  0.00    +0.000 A 
ATOM      7  C   UNL     1      -1.235  -2.031   0.129  0.00  0.00    +0.000 A 
ATOM      8  C   UNL     1      -1.322  -0.697  -0.049  0.00  0.00    +0.000 A 
ATOM      9  C   UNL     1       0.128  -2.630   0.217  0.00  0.00    +0.000 A 
ATOM     10  C   UNL     1       2.581  -2.179   0.183  0.00  0.00    +0.000 A 
ATOM     11  C   UNL     1       3.644  -1.281   0.082  0.00  0.00    +0.000 A 
ATOM     12  C   UNL     1      -2.379  -2.994   0.263  0.00  0.00    +0.000 C 
ENDROOT
BRANCH   8  13
ATOM     13  C   UNL     1      -2.606   0.009  -0.162  0.00  0.00    +0.000 A 
ATOM     14  C   UNL     1      -3.233   0.503   0.982  0.00  0.00    +0.000 A 
ATOM     15  C   UNL     1      -3.198   0.186  -1.412  0.00  0.00    +0.000 A 
ATOM     16  C   UNL     1      -4.451   1.174   0.875  0.00  0.00    +0.000 A 
ATOM     17  C   UNL     1      -4.416   0.857  -1.519  0.00  0.00    +0.000 A 
ATOM     18  C   UNL     1      -5.043   1.351  -0.375  0.00  0.00    +0.000 A 
ENDBRANCH   8  13
BRANCH   6  19
ATOM     19  O   UNL     1       4.449   0.940  -0.189  0.00  0.00    +0.000 OA
ATOM     20  C   UNL     1       4.963   1.189  -1.496  0.00  0.00    +0.000 C 
ENDBRANCH   6  19
BRANCH   3  21
ATOM     21  C   UNL     1       1.826   2.010  -0.350  0.00  0.00    +0.000 C 
BRANCH  21  22
ATOM     22  N   UNL     1       0.779   2.505   0.542  0.00  0.00    +0.000 NA
ATOM     23  C   UNL     1       0.559   3.935   0.329  0.00  0.00    +0.000 C 
ATOM     24  C   UNL     1       1.131   2.244   1.937  0.00  0.00    +0.000 C 
ENDBRANCH  21  22
ENDBRANCH   3  21
TORSDOF 4
