REMARK  Name = 65687
REMARK  4 active torsions:
REMARK  status: ('A' for Active; 'I' for Inactive)
REMARK    1  A    between atoms: O_2  and  C_13
REMARK    2  A    between atoms: O_2  and  C_24
REMARK    3  A    between atoms: N_4  and  C_10
REMARK    4  A    between atoms: C_10  and  C_11
REMARK                            x       y       z     vdW  Elec       q    Type
REMARK                         _______ _______ _______ _____ _____    ______ ____
ROOT
ATOM      1  O   UNL     1      -0.526  -0.454   0.559  0.00  0.00    +0.000 OA
ATOM      2  O   UNL     1      -3.275   2.214  -0.878  0.00  0.00    +0.000 OA
ATOM      3  C   UNL     1       1.205   1.125   0.321  0.00  0.00    +0.000 A 
ATOM      4  C   UNL     1      -0.149   0.812   0.184  0.00  0.00    +0.000 A 
ATOM      5  C   UNL     1       1.668   2.392  -0.039  0.00  0.00    +0.000 A 
ATOM      6  C   UNL     1      -1.032   1.770  -0.314  0.00  0.00    +0.000 A 
ATOM      7  C   UNL     1       0.780   3.346  -0.536  0.00  0.00    +0.000 A 
ATOM      8  C   UNL     1      -0.573   3.039  -0.676  0.00  0.00    +0.000 A 
ATOM      9  C   UNL     1      -2.454   1.417  -0.451  0.00  0.00    +0.000 A 
ATOM     10  C   UNL     1      -2.837   0.056  -0.043  0.00  0.00    +0.000 A 
ATOM     11  C   UNL     1      -1.849  -0.802   0.439  0.00  0.00    +0.000 A 
ATOM     12  C   UNL     1      -4.164  -0.371  -0.137  0.00  0.00    +0.000 A 
ATOM     13  C   UNL     1      -2.191  -2.098   0.831  0.00  0.00    +0.000 A 
ATOM     14  C   UNL     1      -4.499  -1.666   0.256  0.00  0.00    +0.000 A 
ATOM     15  C   UNL     1      -3.514  -2.529   0.740  0.00  0.00    +0.000 A 
ENDROOT
BRANCH   5  16
ATOM     16  O   UNL     1       2.986   2.715   0.089  0.00  0.00    +0.000 OA
ATOM     17  C   UNL     1       3.395   3.283   1.331  0.00  0.00    +0.000 C 
ENDBRANCH   5  16
BRANCH   3  18
ATOM     18  C   UNL     1       2.167   0.111   0.853  0.00  0.00    +0.000 C 
BRANCH  18  19
ATOM     19  N   UNL     1       2.014  -1.228   0.283  0.00  0.00    +0.000 NA
ATOM     20  C   UNL     1       2.214  -1.192  -1.173  0.00  0.00    +0.000 C 
ATOM     21  C   UNL     1       2.943  -2.169   0.923  0.00  0.00    +0.000 C 
ATOM     22  C   UNL     1       2.010  -2.575  -1.792  0.00  0.00    +0.000 C 
ATOM     23  C   UNL     1       2.763  -3.584   0.373  0.00  0.00    +0.000 C 
ATOM     24  C   UNL     1       2.918  -3.613  -1.143  0.00  0.00    +0.000 C 
ENDBRANCH  18  19
ENDBRANCH   3  18
TORSDOF 3
