REMARK  Name = 5287703
REMARK  6 active torsions:
REMARK  status: ('A' for Active; 'I' for Inactive)
REMARK    1  A    between atoms: O_3  and  C_17
REMARK    2  A    between atoms: N_4  and  C_8
REMARK    3  A    between atoms: N_5  and  C_19
REMARK    4  A    between atoms: C_6  and  C_9
REMARK    5  A    between atoms: C_14  and  C_17
REMARK    6  A    between atoms: C_15  and  C_18
REMARK                            x       y       z     vdW  Elec       q    Type
REMARK                         _______ _______ _______ _____ _____    ______ ____
ROOT
ATOM      1  O   UNL     1       2.003  -2.201  -0.042  0.00  0.00    +0.000 OA
ATOM      2  O   UNL     1       1.320   3.149   0.287  0.00  0.00    +0.000 OA
ATOM      3  N   UNL     1      -0.987   1.261   0.056  0.00  0.00    +0.000 N 
ATOM      4  C   UNL     1       2.987  -0.023   0.147  0.00  0.00    +0.000 C 
ATOM      5  C   UNL     1       0.524  -0.372   0.015  0.00  0.00    +0.000 A 
ATOM      6  C   UNL     1       1.831  -0.989   0.031  0.00  0.00    +0.000 C 
ATOM      7  C   UNL     1       0.355   0.994   0.099  0.00  0.00    +0.000 A 
ATOM      8  C   UNL     1       2.791   1.308   0.228  0.00  0.00    +0.000 C 
ATOM      9  C   UNL     1      -0.767  -0.950  -0.082  0.00  0.00    +0.000 A 
ATOM     10  C   UNL     1      -1.681   0.082  -0.054  0.00  0.00    +0.000 A 
ATOM     11  C   UNL     1       1.435   1.930   0.210  0.00  0.00    +0.000 C 
ATOM     12  C   UNL     1      -1.584   2.579   0.118  0.00  0.00    +0.000 C 
ENDROOT
BRANCH  10  13
ATOM     13  C   UNL     1      -3.126   0.028  -0.123  0.00  0.00    +0.000 A 
ATOM     14  C   UNL     1      -3.872  -0.079   1.047  0.00  0.00    +0.000 A 
ATOM     15  C   UNL     1      -3.761   0.081  -1.361  0.00  0.00    +0.000 A 
ATOM     16  C   UNL     1      -5.264  -0.133   0.980  0.00  0.00    +0.000 A 
ATOM     17  C   UNL     1      -5.154   0.027  -1.428  0.00  0.00    +0.000 A 
ATOM     18  C   UNL     1      -5.905  -0.080  -0.258  0.00  0.00    +0.000 A 
ENDBRANCH  10  13
BRANCH   4  19
ATOM     19  N   UNL     1       4.225  -0.602   0.162  0.00  0.00    +0.000 N 
ATOM     20  C   UNL     1       5.312   0.025  -0.585  0.00  0.00    +0.000 C 
ATOM     21  C   UNL     1       5.278   0.085   0.905  0.00  0.00    +0.000 C 
ATOM     22  C   UNL     1       6.357  -0.778  -1.265  0.00  0.00    +0.000 C 
ENDBRANCH   4  19
BRANCH   9  23
ATOM     23  C   UNL     1      -1.080  -2.391  -0.193  0.00  0.00    +0.000 C 
BRANCH  23  24
ATOM     24  O   UNL     1      -1.242  -2.954   1.107  0.00  0.00    +0.000 OA
ATOM     25  H   UNL     1      -0.382  -2.901   1.558  0.00  0.00    +0.000 HD
ENDBRANCH  23  24
ENDBRANCH   9  23
TORSDOF 4
