REMARK  Name = 
REMARK  26 active torsions:
REMARK  status: ('A' for Active; 'I' for Inactive)
REMARK    1  A    between atoms: C_1  and  C_2
REMARK    2  A    between atoms: C_2  and  C_3
REMARK    3  A    between atoms: C_7  and  C_8
REMARK    4  A    between atoms: C_9  and  O_10
REMARK    5  A    between atoms: O_10  and  C_11
REMARK    6  A    between atoms: C_13  and  C_14
REMARK    7  A    between atoms: C_13  and  O_15
REMARK    8  A    between atoms: O_15  and  C_16
REMARK    9  A    between atoms: C_17  and  O_18
REMARK   10  A    between atoms: C_19  and  C_20
REMARK   11  A    between atoms: C_22  and  C_23
REMARK   12  A    between atoms: C_24  and  O_25
REMARK   13  A    between atoms: O_25  and  C_26
REMARK   14  A    between atoms: C_28  and  C_29
REMARK   15  A    between atoms: C_31  and  N_32
REMARK   16  A    between atoms: N_32  and  C_33
REMARK   17  A    between atoms: N_32  and  C_34
REMARK   18  A    between atoms: C_35  and  O_36
REMARK   19  A    between atoms: C_37  and  C_38
REMARK   20  A    between atoms: C_37  and  O_39
REMARK   21  A    between atoms: C_41  and  C_42
REMARK   22  A    between atoms: N_44  and  C_45
REMARK   23  A    between atoms: C_46  and  C_47
REMARK   24  A    between atoms: C_48  and  O_49
REMARK   25  A    between atoms: C_50  and  C_51
REMARK   26  A    between atoms: C_50  and  O_52
REMARK                            x       y       z     vdW  Elec       q    Type
REMARK                         _______ _______ _______ _____ _____    ______ ____
ROOT
ATOM      1  C   UNL     1      -2.905  -2.854  -0.790  0.00  0.00    +0.000 C 
ATOM      2  O   UNL     1      -3.599  -1.563  -1.271  0.00  0.00    +0.000 OA
ATOM      3  C   UNL     1      -2.580  -0.694  -1.705  0.00  0.00    +0.000 C 
ATOM      4  O   UNL     1      -2.965   0.182  -2.539  0.00  0.00    +0.000 OA
ATOM      5  C   UNL     1      -1.800  -0.151  -0.419  0.00  0.00    +0.000 C 
ATOM      6  C   UNL     1      -2.995   0.864  -0.064  0.00  0.00    +0.000 C 
ATOM      7  C   UNL     1      -0.757   0.833  -1.368  0.00  0.00    +0.000 C 
ATOM      8  C   UNL     1       0.292   1.240  -0.107  0.00  0.00    +0.000 C 
ATOM      9  C   UNL     1       1.186   2.046  -1.186  0.00  0.00    +0.000 C 
ATOM     10  C   UNL     1       1.439  -0.004  -0.309  0.00  0.00    +0.000 C 
ATOM     11  C   UNL     1       1.090  -0.862   1.056  0.00  0.00    +0.000 C 
ATOM     12  C   UNL     1       0.596   0.119   2.066  0.00  0.00    +0.000 C 
ATOM     13  C   UNL     1       0.326  -2.001   0.883  0.00  0.00    +0.000 C 
ATOM     14  C   UNL     1       0.909  -3.462   1.274  0.00  0.00    +0.000 C 
ATOM     15  C   UNL     1       1.658  -3.110   2.691  0.00  0.00    +0.000 C 
ATOM     16  C   UNL     1      -0.433  -3.810   2.154  0.00  0.00    +0.000 C 
ATOM     17  N   UNL     1      -1.431  -4.145   1.230  0.00  0.00    +0.000 NA
ATOM     18  C   UNL     1      -1.546  -5.446   0.770  0.00  0.00    +0.000 C 
ATOM     19  C   UNL     1      -2.778  -3.467   1.623  0.00  0.00    +0.000 C 
ATOM     20  C   UNL     1      -2.861  -4.232   3.069  0.00  0.00    +0.000 C 
ATOM     21  C   UNL     1      -3.716  -4.656   0.792  0.00  0.00    +0.000 C 
ATOM     22  C   UNL     1      -4.303  -3.511  -0.235  0.00  0.00    +0.000 C 
ATOM     23  C   UNL     1      -5.032  -2.494   0.511  0.00  0.00    +0.000 C 
ENDROOT
BRANCH   1  25
ATOM     24  C   UNL     1      -3.379  -3.370  -2.662  0.00  0.00    +0.000 C 
ATOM     25  C   UNL     1      -2.992  -3.536  -2.291  0.00  0.00    +0.000 C 
ENDBRANCH   1  25
BRANCH  11  26
ATOM     26  O   UNL     1       2.361  -1.274   1.471  0.00  0.00    +0.000 OA
ATOM     27  H   UNL     1       2.927  -0.497   1.603  0.00  0.00    +0.000 HD
ENDBRANCH  11  26
BRANCH  21  28
ATOM     28  O   UNL     1      -4.877  -4.540   1.759  0.00  0.00    +0.000 OA
ATOM     29  H   UNL     1      -5.067  -3.603   1.925  0.00  0.00    +0.000 HD
ENDBRANCH  21  28
BRANCH  22  30
ATOM     30  O   UNL     1      -4.896  -4.277  -1.142  0.00  0.00    +0.000 OA
ATOM     31  H   UNL     1      -5.714  -4.642  -0.771  0.00  0.00    +0.000 HD
ENDBRANCH  22  30
BRANCH   7  32
ATOM     32  O   UNL     1      -1.524   2.106  -1.413  0.00  0.00    +0.000 OA
BRANCH  32  33
ATOM     33  C   UNL     1      -1.462   2.893  -0.121  0.00  0.00    +0.000 C 
ATOM     34  C   UNL     1      -0.520   4.172  -0.657  0.00  0.00    +0.000 C 
ATOM     35  C   UNL     1      -0.434   5.003   0.590  0.00  0.00    +0.000 C 
ATOM     36  C   UNL     1       0.082   4.330   1.814  0.00  0.00    +0.000 C 
ATOM     37  C   UNL     1      -2.002   5.204   0.979  0.00  0.00    +0.000 C 
ATOM     38  C   UNL     1      -2.442   5.042  -0.681  0.00  0.00    +0.000 C 
ATOM     39  C   UNL     1      -3.980   5.508  -0.347  0.00  0.00    +0.000 C 
ATOM     40  O   UNL     1      -2.776   3.598  -0.502  0.00  0.00    +0.000 OA
BRANCH  35  41
ATOM     41  O   UNL     1       0.207   6.170   0.410  0.00  0.00    +0.000 OA
ATOM     42  C   UNL     1       1.566   5.817   0.520  0.00  0.00    +0.000 C 
ENDBRANCH  35  41
BRANCH  37  43
ATOM     43  O   UNL     1      -1.999   6.710   0.858  0.00  0.00    +0.000 OA
ATOM     44  H   UNL     1      -1.537   6.968   0.044  0.00  0.00    +0.000 HD
ENDBRANCH  37  43
ENDBRANCH  32  33
ENDBRANCH   7  32
BRANCH  10  45
ATOM     45  O   UNL     1       2.447   0.797   0.478  0.00  0.00    +0.000 OA
BRANCH  45  46
ATOM     46  C   UNL     1       3.611   1.130  -0.429  0.00  0.00    +0.000 C 
ATOM     47  O   UNL     1       3.376   0.060  -1.500  0.00  0.00    +0.000 OA
ATOM     48  C   UNL     1       4.487   0.718  -2.319  0.00  0.00    +0.000 C 
ATOM     49  C   UNL     1       4.166  -0.228  -3.630  0.00  0.00    +0.000 C 
ATOM     50  C   UNL     1       5.615  -0.337  -1.747  0.00  0.00    +0.000 C 
ATOM     51  C   UNL     1       6.051   0.495  -0.410  0.00  0.00    +0.000 C 
ATOM     52  C   UNL     1       4.647   0.039   0.427  0.00  0.00    +0.000 C 
BRANCH  51  53
ATOM     53  N   UNL     1       6.823  -0.745   0.148  0.00  0.00    +0.000 NA
ATOM     54  C   UNL     1       7.973  -0.859  -0.744  0.00  0.00    +0.000 C 
ATOM     55  C   UNL     1       7.183  -0.481   1.501  0.00  0.00    +0.000 C 
ENDBRANCH  51  53
BRANCH  52  56
ATOM     56  O   UNL     1       4.891   1.029   1.517  0.00  0.00    +0.000 OA
ATOM     57  H   UNL     1       5.109   1.890   1.128  0.00  0.00    +0.000 HD
ENDBRANCH  52  56
ENDBRANCH  45  46
ENDBRANCH  10  45
TORSDOF 12
