REMARK  Name = 53232
REMARK  12 active torsions:
REMARK  status: ('A' for Active; 'I' for Inactive)
REMARK    1  A    between atoms: O_1  and  C_8
REMARK    2  A    between atoms: O_1  and  C_23
REMARK    3  A    between atoms: O_3  and  C_22
REMARK    4  A    between atoms: C_7  and  C_10
REMARK    5  A    between atoms: C_9  and  C_18
REMARK    6  A    between atoms: C_10  and  C_15
REMARK    7  A    between atoms: C_13  and  C_20
REMARK    8  A    between atoms: C_15  and  C_19
REMARK    9  A    between atoms: C_23  and  C_25
REMARK   10  A    between atoms: C_25  and  C_27
REMARK   11  A    between atoms: C_25  and  C_28
REMARK   12  A    between atoms: C_27  and  C_29
REMARK                            x       y       z     vdW  Elec       q    Type
REMARK                         _______ _______ _______ _____ _____    ______ ____
ROOT
ATOM      1  C   UNL     1       1.524   1.465   0.464  0.00  0.00    +0.000 C 
ATOM      2  C   UNL     1       0.321   1.366  -0.521  0.00  0.00    +0.000 C 
ATOM      3  C   UNL     1       1.941   0.101   1.061  0.00  0.00    +0.000 C 
ATOM      4  C   UNL     1      -0.071   2.767  -1.076  0.00  0.00    +0.000 C 
ATOM      5  C   UNL     1       2.701   2.180  -0.192  0.00  0.00    +0.000 C 
ATOM      6  C   UNL     1       3.240   0.220   1.863  0.00  0.00    +0.000 C 
ATOM      7  C   UNL     1       4.412   0.794   1.047  0.00  0.00    +0.000 C 
ATOM      8  C   UNL     1       3.981   1.865   0.081  0.00  0.00    +0.000 C 
ATOM      9  C   UNL     1       1.147   3.527  -1.532  0.00  0.00    +0.000 C 
ATOM     10  C   UNL     1       2.394   3.239  -1.137  0.00  0.00    +0.000 C 
ATOM     11  C   UNL     1      -0.866   3.639  -0.099  0.00  0.00    +0.000 C 
ATOM     12  C   UNL     1       5.188  -0.296   0.304  0.00  0.00    +0.000 C 
ENDROOT
BRANCH   3  13
ATOM     13  O   UNL     1       2.084  -0.870   0.029  0.00  0.00    +0.000 OA
BRANCH  13  15
ATOM     14  O   UNL     1       2.619  -2.473   1.599  0.00  0.00    +0.000 OA
ATOM     15  C   UNL     1       2.429  -2.130   0.440  0.00  0.00    +0.000 C 
BRANCH  15  16
ATOM     16  C   UNL     1       2.573  -3.044  -0.765  0.00  0.00    +0.000 C 
ATOM     17  C   UNL     1       3.665  -4.067  -0.464  0.00  0.00    +0.000 C 
BRANCH  16  18
ATOM     18  C   UNL     1       1.247  -3.740  -1.104  0.00  0.00    +0.000 C 
ATOM     19  C   UNL     1       0.133  -2.750  -1.423  0.00  0.00    +0.000 C 
ENDBRANCH  16  18
ENDBRANCH  15  16
ENDBRANCH  13  15
ENDBRANCH   3  13
BRANCH   2  20
ATOM     20  C   UNL     1      -0.886   0.640   0.084  0.00  0.00    +0.000 C 
BRANCH  20  21
ATOM     21  C   UNL     1      -1.993   0.466  -0.947  0.00  0.00    +0.000 C 
BRANCH  21  24
ATOM     22  O   UNL     1      -3.645   0.484   0.783  0.00  0.00    +0.000 OA
ATOM     23  O   UNL     1      -5.138   0.714   2.451  0.00  0.00    +0.000 OA
ATOM     24  C   UNL     1      -3.183  -0.278  -0.353  0.00  0.00    +0.000 C 
ATOM     25  C   UNL     1      -4.275  -0.486  -1.392  0.00  0.00    +0.000 C 
ATOM     26  C   UNL     1      -5.495  -1.090  -0.722  0.00  0.00    +0.000 C 
ATOM     27  C   UNL     1      -5.969  -0.194   0.405  0.00  0.00    +0.000 C 
ATOM     28  C   UNL     1      -4.882   0.331   1.311  0.00  0.00    +0.000 C 
BRANCH  26  29
ATOM     29  O   UNL     1      -5.194  -2.379  -0.195  0.00  0.00    +0.000 OA
ATOM     30  H   UNL     1      -4.884  -2.931  -0.932  0.00  0.00    +0.000 HD
ENDBRANCH  26  29
ENDBRANCH  21  24
ENDBRANCH  20  21
ENDBRANCH   2  20
TORSDOF 8
