REMARK  Name = 
REMARK  17 active torsions:
REMARK  status: ('A' for Active; 'I' for Inactive)
REMARK    1  A    between atoms: C_1  and  C_2
REMARK    2  A    between atoms: C_2  and  C_3
REMARK    3  A    between atoms: C_5  and  C_6
REMARK    4  A    between atoms: C_8  and  C_9
REMARK    5  A    between atoms: C_11  and  O_12
REMARK    6  A    between atoms: O_12  and  C_13
REMARK    7  A    between atoms: C_16  and  O_17
REMARK    8  A    between atoms: C_31  and  C_32
REMARK    9  A    between atoms: C_32  and  C_33
REMARK   10  A    between atoms: C_34  and  C_35
REMARK   11  A    between atoms: C_40  and  O_41
REMARK   12  A    between atoms: O_41  and  C_42
REMARK   13  A    between atoms: C_44  and  C_45
REMARK   14  A    between atoms: C_46  and  O_47
REMARK   15  A    between atoms: C_51  and  C_52
REMARK   16  A    between atoms: C_54  and  O_55
REMARK   17  A    between atoms: O_55  and  C_56
REMARK                            x       y       z     vdW  Elec       q    Type
REMARK                         _______ _______ _______ _____ _____    ______ ____
ROOT
ATOM      1  C   UNL     1      -1.568   5.364  -0.069  0.00  0.00    +0.000 C 
ATOM      2  C   UNL     1      -2.523   4.306   0.679  0.00  0.00    +0.000 C 
ATOM      3  C   UNL     1      -3.745   4.114   0.163  0.00  0.00    +0.000 C 
ATOM      4  C   UNL     1      -4.918   5.011   0.449  0.00  0.00    +0.000 C 
ATOM      5  C   UNL     1      -3.876   2.729  -0.300  0.00  0.00    +0.000 C 
ATOM      6  C   UNL     1      -5.402   2.210  -0.110  0.00  0.00    +0.000 C 
ATOM      7  C   UNL     1      -5.503   2.689   1.452  0.00  0.00    +0.000 C 
ATOM      8  C   UNL     1      -5.030   0.701   0.359  0.00  0.00    +0.000 C 
ATOM      9  C   UNL     1      -3.520   0.438  -0.201  0.00  0.00    +0.000 C 
ATOM     10  C   UNL     1      -3.698  -1.196   0.251  0.00  0.00    +0.000 C 
ATOM     11  O   UNL     1      -2.414  -1.666  -0.365  0.00  0.00    +0.000 OA
ATOM     12  C   UNL     1      -2.342  -2.996  -0.153  0.00  0.00    +0.000 C 
ATOM     13  C   UNL     1      -1.742  -3.906  -1.098  0.00  0.00    +0.000 C 
ATOM     14  O   UNL     1      -2.295  -4.953  -1.593  0.00  0.00    +0.000 OA
ATOM     15  C   UNL     1      -0.771  -3.240  -2.000  0.00  0.00    +0.000 C 
ATOM     16  O   UNL     1      -0.775  -3.414  -3.251  0.00  0.00    +0.000 OA
ATOM     17  N   UNL     1       0.395  -2.599  -1.442  0.00  0.00    +0.000 N 
ATOM     18  C   UNL     1       1.624  -2.905  -2.102  0.00  0.00    +0.000 C 
ATOM     19  C   UNL     1       2.466  -3.985  -1.633  0.00  0.00    +0.000 C 
ATOM     20  C   UNL     1       2.258  -4.364  -0.204  0.00  0.00    +0.000 C 
ATOM     21  C   UNL     1       0.827  -4.310   0.040  0.00  0.00    +0.000 C 
ATOM     22  C   UNL     1       0.284  -2.746   0.115  0.00  0.00    +0.000 C 
ATOM     23  C   UNL     1       1.712  -2.183   0.534  0.00  0.00    +0.000 C 
ATOM     24  O   UNL     1       1.997  -2.686   1.673  0.00  0.00    +0.000 OA
ATOM     25  O   UNL     1       2.042  -0.897   0.420  0.00  0.00    +0.000 OA
ATOM     26  C   UNL     1       1.317  -0.021  -0.597  0.00  0.00    +0.000 C 
ATOM     27  C   UNL     1       1.126   1.162   0.615  0.00  0.00    +0.000 C 
ATOM     28  C   UNL     1      -0.427   0.881   0.885  0.00  0.00    +0.000 C 
ATOM     29  C   UNL     1       0.975   2.449  -0.482  0.00  0.00    +0.000 C 
ATOM     30  C   UNL     1       0.023   3.322   0.532  0.00  0.00    +0.000 C 
ATOM     31  C   UNL     1      -0.472   4.272  -0.494  0.00  0.00    +0.000 C 
ATOM     32  O   UNL     1       0.356   4.868  -1.185  0.00  0.00    +0.000 OA
ATOM     33  C   UNL     1      -2.212  -3.463   1.390  0.00  0.00    +0.000 C 
ATOM     34  C   UNL     1      -3.184  -4.772   1.242  0.00  0.00    +0.000 C 
ATOM     35  C   UNL     1      -3.381  -2.552   2.068  0.00  0.00    +0.000 C 
ATOM     36  C   UNL     1      -2.824  -1.050   1.715  0.00  0.00    +0.000 C 
ENDROOT
BRANCH  26  37
ATOM     37  C   UNL     1       2.693   0.655  -1.094  0.00  0.00    +0.000 C 
ATOM     38  C   UNL     1       2.596   1.477  -2.365  0.00  0.00    +0.000 C 
ATOM     39  C   UNL     1       3.783  -0.080  -1.301  0.00  0.00    +0.000 C 
BRANCH  39  40
ATOM     40  C   UNL     1       5.101   0.805  -0.993  0.00  0.00    +0.000 C 
ATOM     41  C   UNL     1       6.112  -0.475  -1.168  0.00  0.00    +0.000 C 
ATOM     42  C   UNL     1       7.461   0.016  -0.732  0.00  0.00    +0.000 C 
ATOM     43  C   UNL     1       7.200   1.299   0.123  0.00  0.00    +0.000 C 
ATOM     44 CL   UNL     1       8.733   1.155   1.173  0.00  0.00    +0.000 Cl
ATOM     45  C   UNL     1       6.248   0.741   1.393  0.00  0.00    +0.000 C 
ATOM     46  C   UNL     1       4.862   0.527   0.579  0.00  0.00    +0.000 C 
BRANCH  45  47
ATOM     47  O   UNL     1       6.631  -0.730   1.308  0.00  0.00    +0.000 OA
ATOM     48  C   UNL     1       5.730  -1.320   2.214  0.00  0.00    +0.000 C 
ENDBRANCH  45  47
ENDBRANCH  39  40
ENDBRANCH  26  37
BRANCH   1  50
ATOM     49  C   UNL     1      -0.906   7.119   1.368  0.00  0.00    +0.000 C 
ATOM     50  C   UNL     1      -0.795   5.733   1.329  0.00  0.00    +0.000 C 
ENDBRANCH   1  50
BRANCH   9  51
ATOM     51  O   UNL     1      -3.928   0.148  -1.621  0.00  0.00    +0.000 OA
ATOM     52  C   UNL     1      -5.221  -0.203  -1.716  0.00  0.00    +0.000 C 
ENDBRANCH   9  51
BRANCH  12  53
ATOM     53  O   UNL     1      -3.700  -3.282  -0.463  0.00  0.00    +0.000 OA
ATOM     54  H   UNL     1      -3.882  -3.033  -1.383  0.00  0.00    +0.000 HD
ENDBRANCH  12  53
BRANCH  29  55
ATOM     55  O   UNL     1      -0.220   1.876  -1.209  0.00  0.00    +0.000 OA
ATOM     56  H   UNL     1      -0.875   1.568  -0.564  0.00  0.00    +0.000 HD
ENDBRANCH  29  55
BRANCH  36  57
ATOM     57  O   UNL     1      -3.954  -0.366   2.438  0.00  0.00    +0.000 OA
ATOM     58  C   UNL     1      -3.207   0.291   3.435  0.00  0.00    +0.000 C 
ENDBRANCH  36  57
TORSDOF 8
