REMARK  Name = 
REMARK  32 active torsions:
REMARK  status: ('A' for Active; 'I' for Inactive)
REMARK    1  A    between atoms: C_1  and  C_2
REMARK    2  A    between atoms: C_2  and  C_3
REMARK    3  A    between atoms: C_7  and  C_8
REMARK    4  A    between atoms: C_9  and  O_10
REMARK    5  A    between atoms: O_10  and  C_11
REMARK    6  A    between atoms: C_13  and  C_14
REMARK    7  A    between atoms: C_13  and  O_15
REMARK    8  A    between atoms: O_15  and  C_16
REMARK    9  A    between atoms: C_17  and  O_18
REMARK   10  A    between atoms: C_19  and  C_20
REMARK   11  A    between atoms: C_22  and  C_23
REMARK   12  A    between atoms: C_24  and  O_25
REMARK   13  A    between atoms: O_25  and  C_26
REMARK   14  A    between atoms: C_28  and  C_29
REMARK   15  A    between atoms: C_31  and  N_32
REMARK   16  A    between atoms: N_32  and  C_33
REMARK   17  A    between atoms: N_32  and  C_34
REMARK   18  A    between atoms: C_35  and  O_36
REMARK   19  A    between atoms: C_37  and  C_38
REMARK   20  A    between atoms: C_37  and  O_39
REMARK   21  A    between atoms: C_41  and  C_42
REMARK   22  A    between atoms: N_44  and  O_45
REMARK   23  A    between atoms: O_45  and  C_46
REMARK   24  A    between atoms: C_46  and  O_47
REMARK   25  A    between atoms: O_47  and  C_48
REMARK   26  A    between atoms: C_48  and  C_49
REMARK   27  A    between atoms: C_49  and  O_50
REMARK   28  A    between atoms: O_50  and  C_51
REMARK   29  A    between atoms: C_52  and  C_53
REMARK   30  A    between atoms: C_54  and  O_55
REMARK   31  A    between atoms: C_56  and  C_57
REMARK   32  A    between atoms: C_56  and  O_58
REMARK                            x       y       z     vdW  Elec       q    Type
REMARK                         _______ _______ _______ _____ _____    ______ ____
ROOT
ATOM      1  C   UNL     1       0.419  -2.881  -2.631  0.00  0.00    +0.000 C 
ATOM      2  O   UNL     1       0.716  -2.749  -1.125  0.00  0.00    +0.000 OA
ATOM      3  C   UNL     1      -0.475  -2.560  -0.411  0.00  0.00    +0.000 C 
ATOM      4  O   UNL     1      -0.467  -2.782   0.802  0.00  0.00    +0.000 OA
ATOM      5  C   UNL     1      -1.797  -2.200  -1.187  0.00  0.00    +0.000 C 
ATOM      6  C   UNL     1      -1.083  -1.307  -2.348  0.00  0.00    +0.000 C 
ATOM      7  C   UNL     1      -2.325  -0.801  -0.351  0.00  0.00    +0.000 C 
ATOM      8  C   UNL     1      -0.898  -0.421   0.458  0.00  0.00    +0.000 C 
ATOM      9  C   UNL     1      -1.659   0.176   1.734  0.00  0.00    +0.000 C 
ATOM     10  C   UNL     1      -0.571   1.037  -0.373  0.00  0.00    +0.000 C 
ATOM     11  C   UNL     1       1.002   1.069   0.064  0.00  0.00    +0.000 C 
ATOM     12  C   UNL     1       1.480  -0.115   0.760  0.00  0.00    +0.000 C 
ATOM     13  C   UNL     1       1.842   1.643  -0.980  0.00  0.00    +0.000 C 
ATOM     14  C   UNL     1       2.131   0.616  -2.205  0.00  0.00    +0.000 C 
ATOM     15  C   UNL     1       3.182   1.676  -2.890  0.00  0.00    +0.000 C 
ATOM     16  C   UNL     1       3.298  -0.205  -1.499  0.00  0.00    +0.000 C 
ATOM     17  N   UNL     1       4.199   0.331  -0.869  0.00  0.00    +0.000 NA
ATOM     18  C   UNL     1       3.124  -1.779  -1.558  0.00  0.00    +0.000 C 
ATOM     19  C   UNL     1       4.716  -2.057  -1.733  0.00  0.00    +0.000 C 
ATOM     20  C   UNL     1       2.670  -1.792  -3.211  0.00  0.00    +0.000 C 
ATOM     21  C   UNL     1       1.948  -3.239  -3.064  0.00  0.00    +0.000 C 
ATOM     22  C   UNL     1       2.605  -4.112  -2.146  0.00  0.00    +0.000 C 
ENDROOT
BRANCH   1  24
ATOM     23  C   UNL     1       0.213  -4.875  -1.481  0.00  0.00    +0.000 C 
ATOM     24  C   UNL     1       0.058  -4.482  -2.485  0.00  0.00    +0.000 C 
ENDBRANCH   1  24
BRANCH  11  25
ATOM     25  O   UNL     1       1.159   2.020   1.105  0.00  0.00    +0.000 OA
ATOM     26  H   UNL     1       0.637   1.746   1.875  0.00  0.00    +0.000 HD
ENDBRANCH  11  25
BRANCH  20  27
ATOM     27  O   UNL     1       3.912  -2.445  -3.768  0.00  0.00    +0.000 OA
ATOM     28  H   UNL     1       4.143  -3.216  -3.226  0.00  0.00    +0.000 HD
ENDBRANCH  20  27
BRANCH  21  29
ATOM     29  O   UNL     1       1.785  -3.604  -4.376  0.00  0.00    +0.000 OA
ATOM     30  H   UNL     1       2.645  -3.845  -4.754  0.00  0.00    +0.000 HD
ENDBRANCH  21  29
BRANCH   7  31
ATOM     31  O   UNL     1      -2.946  -1.611   0.758  0.00  0.00    +0.000 OA
BRANCH  31  32
ATOM     32  C   UNL     1      -3.520  -2.807  -0.012  0.00  0.00    +0.000 C 
ATOM     33  C   UNL     1      -3.747  -3.742   1.330  0.00  0.00    +0.000 C 
ATOM     34  C   UNL     1      -4.372  -3.078   2.423  0.00  0.00    +0.000 C 
ATOM     35  C   UNL     1      -4.726  -4.193   3.405  0.00  0.00    +0.000 C 
ATOM     36  C   UNL     1      -5.865  -2.578   1.996  0.00  0.00    +0.000 C 
ATOM     37  C   UNL     1      -5.143  -1.364   1.007  0.00  0.00    +0.000 C 
ATOM     38  C   UNL     1      -6.612  -0.919   0.429  0.00  0.00    +0.000 C 
ATOM     39  O   UNL     1      -4.975  -2.364  -0.087  0.00  0.00    +0.000 OA
BRANCH  34  40
ATOM     40  O   UNL     1      -3.751  -2.121   3.132  0.00  0.00    +0.000 OA
ATOM     41  C   UNL     1      -2.919  -2.533   4.146  0.00  0.00    +0.000 C 
ENDBRANCH  34  40
BRANCH  36  42
ATOM     42  O   UNL     1      -6.029  -1.616   3.147  0.00  0.00    +0.000 OA
ATOM     43  H   UNL     1      -5.214  -1.101   3.256  0.00  0.00    +0.000 HD
ENDBRANCH  36  42
ENDBRANCH  31  32
ENDBRANCH   7  31
BRANCH  10  44
ATOM     44  O   UNL     1      -1.020   2.000   0.699  0.00  0.00    +0.000 OA
BRANCH  44  45
ATOM     45  C   UNL     1      -1.701   3.097  -0.100  0.00  0.00    +0.000 C 
ATOM     46  O   UNL     1      -0.389   3.807  -0.435  0.00  0.00    +0.000 OA
ATOM     47  C   UNL     1      -1.014   4.879  -1.308  0.00  0.00    +0.000 C 
ATOM     48  C   UNL     1       0.455   5.506  -1.710  0.00  0.00    +0.000 C 
ATOM     49  C   UNL     1      -1.174   5.935  -0.052  0.00  0.00    +0.000 C 
ATOM     50  C   UNL     1      -2.598   5.332   0.452  0.00  0.00    +0.000 C 
ATOM     51  C   UNL     1      -1.821   4.082   1.313  0.00  0.00    +0.000 C 
BRANCH  50  52
ATOM     52  N   UNL     1      -2.641   6.290   1.685  0.00  0.00    +0.000 NA
ATOM     53  C   UNL     1      -2.916   7.577   1.065  0.00  0.00    +0.000 C 
ATOM     54  C   UNL     1      -3.864   5.907   2.364  0.00  0.00    +0.000 C 
ENDBRANCH  50  52
BRANCH  51  55
ATOM     55  O   UNL     1      -3.138   3.504   1.710  0.00  0.00    +0.000 OA
ATOM     56  H   UNL     1      -3.721   3.467   0.935  0.00  0.00    +0.000 HD
ENDBRANCH  51  55
ENDBRANCH  44  45
ENDBRANCH  10  44
BRANCH  17  57
ATOM     57  O   UNL     1       4.373   1.684  -0.879  0.00  0.00    +0.000 OA
BRANCH  57  58
ATOM     58  C   UNL     1       5.721   1.992  -0.497  0.00  0.00    +0.000 C 
BRANCH  58  59
ATOM     59  O   UNL     1       5.936   1.711   0.837  0.00  0.00    +0.000 OA
BRANCH  59  60
ATOM     60  C   UNL     1       5.941   0.369   1.153  0.00  0.00    +0.000 C 
BRANCH  60  61
ATOM     61  C   UNL     1       7.285  -0.123   1.651  0.00  0.00    +0.000 C 
BRANCH  61  62
ATOM     62  O   UNL     1       7.476   0.141   3.004  0.00  0.00    +0.000 OA
ATOM     63  C   UNL     1       8.509   1.071   3.141  0.00  0.00    +0.000 C 
ENDBRANCH  61  62
ENDBRANCH  60  61
ENDBRANCH  59  60
ENDBRANCH  58  59
ENDBRANCH  57  58
ENDBRANCH  17  57
TORSDOF 18
