REMARK  Name = 9270
REMARK  8 active torsions:
REMARK  status: ('A' for Active; 'I' for Inactive)
REMARK    1  A    between atoms: O_1  and  C_9
REMARK    2  A    between atoms: O_1  and  C_24
REMARK    3  A    between atoms: O_2  and  C_23
REMARK    4  A    between atoms: O_2  and  C_27
REMARK    5  A    between atoms: C_5  and  C_16
REMARK    6  A    between atoms: C_9  and  C_21
REMARK    7  A    between atoms: C_24  and  C_26
REMARK    8  A    between atoms: C_27  and  C_28
REMARK                            x       y       z     vdW  Elec       q    Type
REMARK                         _______ _______ _______ _____ _____    ______ ____
ROOT
ATOM      1  C   UNL     1       2.421  -0.258  -0.491  0.00  0.00    +0.000 C 
ATOM      2  C   UNL     1       1.681   0.929   0.166  0.00  0.00    +0.000 C 
ATOM      3  C   UNL     1       0.250   1.097  -0.353  0.00  0.00    +0.000 C 
ATOM      4  C   UNL     1      -0.553  -0.205  -0.054  0.00  0.00    +0.000 C 
ATOM      5  C   UNL     1       3.837  -0.091   0.139  0.00  0.00    +0.000 C 
ATOM      6  C   UNL     1       1.651  -1.548  -0.154  0.00  0.00    +0.000 C 
ATOM      7  C   UNL     1       2.658   2.091   0.008  0.00  0.00    +0.000 C 
ATOM      8  C   UNL     1       0.175  -1.466  -0.583  0.00  0.00    +0.000 C 
ATOM      9  C   UNL     1      -2.013  -0.092  -0.585  0.00  0.00    +0.000 C 
ATOM     10  C   UNL     1       4.055   1.445   0.102  0.00  0.00    +0.000 C 
ATOM     11  C   UNL     1      -0.452   2.305   0.283  0.00  0.00    +0.000 C 
ATOM     12  C   UNL     1       2.529  -0.144  -2.041  0.00  0.00    +0.000 C 
ATOM     13  C   UNL     1      -2.672   1.189  -0.090  0.00  0.00    +0.000 C 
ATOM     14  C   UNL     1      -1.872   2.455  -0.255  0.00  0.00    +0.000 C 
ATOM     15  C   UNL     1      -2.830  -1.353  -0.223  0.00  0.00    +0.000 C 
ATOM     16  C   UNL     1      -4.329  -1.123  -0.365  0.00  0.00    +0.000 C 
ATOM     17  C   UNL     1      -3.907   1.216   0.442  0.00  0.00    +0.000 C 
ATOM     18  C   UNL     1      -4.792   0.010   0.546  0.00  0.00    +0.000 C 
ENDROOT
BRANCH   5  19
ATOM     19  C   UNL     1       3.926  -0.583   1.528  0.00  0.00    +0.000 C 
ATOM     20  C   UNL     1       3.998  -0.984   2.657  0.00  0.00    +0.000 C 
ENDBRANCH   5  19
BRANCH   5  21
ATOM     21  O   UNL     1       4.832  -0.752  -0.633  0.00  0.00    +0.000 OA
BRANCH  21  23
ATOM     22  O   UNL     1       6.488   0.112   0.727  0.00  0.00    +0.000 OA
ATOM     23  C   UNL     1       6.125  -0.564  -0.226  0.00  0.00    +0.000 C 
ATOM     24  C   UNL     1       7.058  -1.316  -1.126  0.00  0.00    +0.000 C 
ENDBRANCH  21  23
ENDBRANCH   5  21
BRANCH  18  25
ATOM     25  O   UNL     1      -6.123   0.354   0.173  0.00  0.00    +0.000 OA
BRANCH  25  27
ATOM     26  O   UNL     1      -7.006  -1.619   0.987  0.00  0.00    +0.000 OA
ATOM     27  C   UNL     1      -7.035  -0.662   0.226  0.00  0.00    +0.000 C 
ATOM     28  C   UNL     1      -8.102  -0.440  -0.802  0.00  0.00    +0.000 C 
ENDBRANCH  25  27
ENDBRANCH  18  25
TORSDOF 5
