REMARK  Name = 5282381
REMARK  19 active torsions:
REMARK  status: ('A' for Active; 'I' for Inactive)
REMARK    1  A    between atoms: O_1  and  C_8
REMARK    2  A    between atoms: O_3  and  C_16
REMARK    3  A    between atoms: O_4  and  C_26
REMARK    4  A    between atoms: O_4  and  C_27
REMARK    5  A    between atoms: C_6  and  C_10
REMARK    6  A    between atoms: C_7  and  C_12
REMARK    7  A    between atoms: C_10  and  C_13
REMARK    8  A    between atoms: C_13  and  C_14
REMARK    9  A    between atoms: C_14  and  C_18
REMARK   10  A    between atoms: C_15  and  C_17
REMARK   11  A    between atoms: C_16  and  C_17
REMARK   12  A    between atoms: C_16  and  C_19
REMARK   13  A    between atoms: C_16  and  C_20
REMARK   14  A    between atoms: C_18  and  C_21
REMARK   15  A    between atoms: C_19  and  C_22
REMARK   16  A    between atoms: C_21  and  C_24
REMARK   17  A    between atoms: C_22  and  C_23
REMARK   18  A    between atoms: C_23  and  C_25
REMARK   19  A    between atoms: C_24  and  C_26
REMARK                            x       y       z     vdW  Elec       q    Type
REMARK                         _______ _______ _______ _____ _____    ______ ____
ROOT
ATOM      1  O   UNL     1       0.671   4.210  -0.412  0.00  0.00    +0.000 OA
ATOM      2  C   UNL     1       1.655   1.992  -0.325  0.00  0.00    +0.000 C 
ATOM      3  C   UNL     1       3.030   1.670   0.278  0.00  0.00    +0.000 C 
ATOM      4  C   UNL     1       3.926   2.812  -0.222  0.00  0.00    +0.000 C 
ATOM      5  C   UNL     1       3.056   4.061  -0.106  0.00  0.00    +0.000 C 
ATOM      6  C   UNL     1       1.667   3.507  -0.292  0.00  0.00    +0.000 C 
ENDROOT
BRANCH   4   7
ATOM      7  O   UNL     1       5.075   2.928   0.603  0.00  0.00    +0.000 OA
ATOM      8  H   UNL     1       5.571   3.708   0.302  0.00  0.00    +0.000 HD
ENDBRANCH   4   7
BRANCH   3   9
ATOM      9  C   UNL     1       3.532   0.319  -0.121  0.00  0.00    +0.000 C 
ATOM     10  C   UNL     1       3.848  -0.647   0.753  0.00  0.00    +0.000 C 
BRANCH  10  11
ATOM     11  C   UNL     1       4.359  -2.005   0.350  0.00  0.00    +0.000 C 
BRANCH  11  12
ATOM     12  C   UNL     1       3.459  -3.187   0.791  0.00  0.00    +0.000 C 
ATOM     13  C   UNL     1       4.038  -4.536   0.349  0.00  0.00    +0.000 C 
BRANCH  12  14
ATOM     14  O   UNL     1       3.380  -3.198   2.219  0.00  0.00    +0.000 OA
ATOM     15  H   UNL     1       4.282  -3.302   2.569  0.00  0.00    +0.000 HD
ENDBRANCH  12  14
BRANCH  12  16
ATOM     16  C   UNL     1       2.035  -2.965   0.224  0.00  0.00    +0.000 C 
BRANCH  16  17
ATOM     17  C   UNL     1       1.954  -2.890  -1.307  0.00  0.00    +0.000 C 
BRANCH  17  18
ATOM     18  C   UNL     1       0.528  -2.585  -1.770  0.00  0.00    +0.000 C 
ATOM     19  C   UNL     1       0.445  -2.477  -3.284  0.00  0.00    +0.000 C 
ENDBRANCH  17  18
ENDBRANCH  16  17
ENDBRANCH  12  16
ENDBRANCH  11  12
ENDBRANCH  10  11
ENDBRANCH   3   9
BRANCH   2  20
ATOM     20  C   UNL     1       0.498   1.402   0.464  0.00  0.00    +0.000 C 
BRANCH  20  21
ATOM     21  C   UNL     1      -0.812   1.478  -0.320  0.00  0.00    +0.000 C 
BRANCH  21  22
ATOM     22  C   UNL     1      -1.967   0.852   0.463  0.00  0.00    +0.000 C 
BRANCH  22  23
ATOM     23  C   UNL     1      -3.271   0.898  -0.336  0.00  0.00    +0.000 C 
BRANCH  23  24
ATOM     24  C   UNL     1      -4.419   0.241   0.436  0.00  0.00    +0.000 C 
BRANCH  24  25
ATOM     25  C   UNL     1      -5.730   0.247  -0.350  0.00  0.00    +0.000 C 
BRANCH  25  27
ATOM     26  O   UNL     1      -6.831  -0.770   1.567  0.00  0.00    +0.000 OA
ATOM     27  C   UNL     1      -6.892  -0.335   0.425  0.00  0.00    +0.000 C 
BRANCH  27  28
ATOM     28  O   UNL     1      -8.018  -0.267  -0.346  0.00  0.00    +0.000 OA
ATOM     29  C   UNL     1      -9.215  -0.754   0.267  0.00  0.00    +0.000 C 
ENDBRANCH  27  28
ENDBRANCH  25  27
ENDBRANCH  24  25
ENDBRANCH  23  24
ENDBRANCH  22  23
ENDBRANCH  21  22
ENDBRANCH  20  21
ENDBRANCH   2  20
TORSDOF 16
