REMARK  Name = 5282411
REMARK  14 active torsions:
REMARK  status: ('A' for Active; 'I' for Inactive)
REMARK    1  A    between atoms: O_2  and  C_9
REMARK    2  A    between atoms: O_3  and  C_16
REMARK    3  A    between atoms: O_4  and  C_24
REMARK    4  A    between atoms: C_8  and  C_13
REMARK    5  A    between atoms: C_14  and  C_17
REMARK    6  A    between atoms: C_15  and  C_16
REMARK    7  A    between atoms: C_16  and  C_18
REMARK    8  A    between atoms: C_17  and  C_19
REMARK    9  A    between atoms: C_18  and  C_20
REMARK   10  A    between atoms: C_19  and  C_21
REMARK   11  A    between atoms: C_20  and  C_22
REMARK   12  A    between atoms: C_21  and  C_24
REMARK   13  A    between atoms: C_22  and  C_23
REMARK   14  A    between atoms: C_23  and  C_25
REMARK                            x       y       z     vdW  Elec       q    Type
REMARK                         _______ _______ _______ _____ _____    ______ ____
ROOT
ATOM      1  O   UNL     1      -2.524   0.288   1.512  0.00  0.00    +0.000 OA
ATOM      2  C   UNL     1      -0.404  -0.722   1.917  0.00  0.00    +0.000 C 
ATOM      3  C   UNL     1      -1.903  -0.825   2.178  0.00  0.00    +0.000 C 
ATOM      4  C   UNL     1      -0.201  -1.548   0.637  0.00  0.00    +0.000 C 
ATOM      5  C   UNL     1      -1.125  -2.743   0.881  0.00  0.00    +0.000 C 
ATOM      6  C   UNL     1      -2.368  -2.136   1.541  0.00  0.00    +0.000 C 
ATOM      7  C   UNL     1      -0.178   0.764   1.768  0.00  0.00    +0.000 C 
ATOM      8  C   UNL     1      -1.518   1.217   1.291  0.00  0.00    +0.000 C 
ATOM      9  C   UNL     1      -1.758   2.368   0.656  0.00  0.00    +0.000 C 
ENDROOT
BRANCH   5  10
ATOM     10  O   UNL     1      -1.460  -3.379  -0.340  0.00  0.00    +0.000 OA
ATOM     11  H   UNL     1      -2.106  -4.076  -0.138  0.00  0.00    +0.000 HD
ENDBRANCH   5  10
BRANCH   4  12
ATOM     12  C   UNL     1       1.226  -1.933   0.422  0.00  0.00    +0.000 C 
ATOM     13  C   UNL     1       1.922  -1.630  -0.684  0.00  0.00    +0.000 C 
BRANCH  13  14
ATOM     14  C   UNL     1       3.357  -2.021  -0.898  0.00  0.00    +0.000 C 
BRANCH  14  15
ATOM     15  O   UNL     1       3.424  -2.889  -2.031  0.00  0.00    +0.000 OA
ATOM     16  H   UNL     1       2.887  -3.675  -1.832  0.00  0.00    +0.000 HD
ENDBRANCH  14  15
BRANCH  14  17
ATOM     17  C   UNL     1       4.267  -0.819  -1.185  0.00  0.00    +0.000 C 
BRANCH  17  18
ATOM     18  C   UNL     1       4.221   0.249  -0.088  0.00  0.00    +0.000 C 
BRANCH  18  19
ATOM     19  C   UNL     1       5.067   1.486  -0.408  0.00  0.00    +0.000 C 
BRANCH  19  20
ATOM     20  C   UNL     1       5.080   2.523   0.715  0.00  0.00    +0.000 C 
ATOM     21  C   UNL     1       5.923   3.733   0.342  0.00  0.00    +0.000 C 
ENDBRANCH  19  20
ENDBRANCH  18  19
ENDBRANCH  17  18
ENDBRANCH  14  17
ENDBRANCH  13  14
ENDBRANCH   4  12
BRANCH   9  22
ATOM     22  C   UNL     1      -3.116   2.802   0.186  0.00  0.00    +0.000 C 
BRANCH  22  23
ATOM     23  C   UNL     1      -3.152   2.956  -1.338  0.00  0.00    +0.000 C 
BRANCH  23  24
ATOM     24  C   UNL     1      -2.815   1.657  -2.064  0.00  0.00    +0.000 C 
BRANCH  24  26
ATOM     25  O   UNL     1      -4.952   0.734  -1.418  0.00  0.00    +0.000 OA
ATOM     26  C   UNL     1      -3.787   0.549  -1.743  0.00  0.00    +0.000 C 
BRANCH  26  27
ATOM     27  O   UNL     1      -3.228  -0.683  -1.849  0.00  0.00    +0.000 OA
ATOM     28  H   UNL     1      -3.867  -1.395  -1.633  0.00  0.00    +0.000 HD
ENDBRANCH  26  27
ENDBRANCH  24  26
ENDBRANCH  23  24
ENDBRANCH  22  23
ENDBRANCH   9  22
TORSDOF 13
