REMARK  Name = 447573
REMARK  26 active torsions:
REMARK  status: ('A' for Active; 'I' for Inactive)
REMARK    1  A    between atoms: O_1  and  C_19
REMARK    2  A    between atoms: O_1  and  C_31
REMARK    3  A    between atoms: O_2  and  C_20
REMARK    4  A    between atoms: O_3  and  C_21
REMARK    5  A    between atoms: O_4  and  C_30
REMARK    6  A    between atoms: O_4  and  C_38
REMARK    7  A    between atoms: O_6  and  C_32
REMARK    8  A    between atoms: O_6  and  C_40
REMARK    9  A    between atoms: O_7  and  C_34
REMARK   10  A    between atoms: O_8  and  C_35
REMARK   11  A    between atoms: O_8  and  C_41
REMARK   12  A    between atoms: O_9  and  C_37
REMARK   13  A    between atoms: O_10  and  C_39
REMARK   14  A    between atoms: O_10  and  C_42
REMARK   15  A    between atoms: C_13  and  C_27
REMARK   16  A    between atoms: C_15  and  C_29
REMARK   17  A    between atoms: C_18  and  C_30
REMARK   18  A    between atoms: C_25  and  C_28
REMARK   19  A    between atoms: C_28  and  C_32
REMARK   20  A    between atoms: C_28  and  C_33
REMARK   21  A    between atoms: C_36  and  C_39
REMARK   22  A    between atoms: C_40  and  C_43
REMARK   23  A    between atoms: C_41  and  C_44
REMARK   24  A    between atoms: C_42  and  C_45
REMARK   25  A    between atoms: C_42  and  C_46
REMARK   26  A    between atoms: C_42  and  C_47
REMARK                            x       y       z     vdW  Elec       q    Type
REMARK                         _______ _______ _______ _____ _____    ______ ____
ROOT
ATOM      1  C   UNL     1       2.241  -0.980   0.688  0.00  0.00    +0.000 C 
ATOM      2  C   UNL     1       3.954   1.701  -0.434  0.00  0.00    +0.000 C 
ATOM      3  C   UNL     1       3.100   1.782  -1.729  0.00  0.00    +0.000 C 
ATOM      4  C   UNL     1       4.428   0.344   0.066  0.00  0.00    +0.000 C 
ATOM      5  C   UNL     1       1.356   0.237   0.460  0.00  0.00    +0.000 C 
ATOM      6  C   UNL     1       5.944   0.342   0.214  0.00  0.00    +0.000 C 
ATOM      7  C   UNL     1       0.897   0.622  -0.918  0.00  0.00    +0.000 C 
ATOM      8  C   UNL     1       1.907  -1.258   2.187  0.00  0.00    +0.000 C 
ATOM      9  C   UNL     1       1.578   1.876  -1.476  0.00  0.00    +0.000 C 
ATOM     10  C   UNL     1       5.279   2.471  -0.649  0.00  0.00    +0.000 C 
ATOM     11  C   UNL     1       3.728  -0.718   0.504  0.00  0.00    +0.000 C 
ATOM     12  C   UNL     1       6.271   1.828   0.301  0.00  0.00    +0.000 C 
ATOM     13  C   UNL     1       1.047   0.840   1.627  0.00  0.00    +0.000 C 
ATOM     14  C   UNL     1       1.628   0.110   2.798  0.00  0.00    +0.000 C 
ATOM     15  C   UNL     1       1.848  -2.216  -0.138  0.00  0.00    +0.000 C 
ATOM     16  C   UNL     1       3.460   0.718  -2.778  0.00  0.00    +0.000 C 
ENDROOT
BRANCH   8  17
ATOM     17  O   UNL     1       2.940  -1.932   2.886  0.00  0.00    +0.000 OA
ATOM     18  H   UNL     1       2.669  -1.995   3.818  0.00  0.00    +0.000 HD
ENDBRANCH   8  17
BRANCH   9  19
ATOM     19  O   UNL     1       0.958   2.198  -2.731  0.00  0.00    +0.000 OA
ATOM     20  H   UNL     1       1.313   3.054  -3.026  0.00  0.00    +0.000 HD
ENDBRANCH   9  19
BRANCH  13  21
ATOM     21  C   UNL     1       0.245   2.069   1.883  0.00  0.00    +0.000 C 
ATOM     22  C   UNL     1       1.114   3.130   2.560  0.00  0.00    +0.000 C 
BRANCH  21  23
ATOM     23  C   UNL     1      -0.991   1.768   2.741  0.00  0.00    +0.000 C 
BRANCH  23  24
ATOM     24  O   UNL     1      -1.959   2.795   2.557  0.00  0.00    +0.000 OA
BRANCH  24  26
ATOM     25  O   UNL     1      -3.388   1.735   4.031  0.00  0.00    +0.000 OA
ATOM     26  C   UNL     1      -3.118   2.652   3.267  0.00  0.00    +0.000 C 
ATOM     27  C   UNL     1      -4.037   3.800   2.976  0.00  0.00    +0.000 C 
ENDBRANCH  24  26
ENDBRANCH  23  24
ENDBRANCH  21  23
ENDBRANCH  13  21
BRANCH   7  28
ATOM     28  O   UNL     1      -0.517   0.865  -0.882  0.00  0.00    +0.000 OA
BRANCH  28  30
ATOM     29  O   UNL     1      -1.522  -1.273  -1.091  0.00  0.00    +0.000 OA
ATOM     30  C   UNL     1      -1.213  -0.038  -1.740  0.00  0.00    +0.000 C 
ATOM     31  C   UNL     1      -2.476   0.580  -2.342  0.00  0.00    +0.000 C 
ATOM     32  C   UNL     1      -3.577   0.745  -1.296  0.00  0.00    +0.000 C 
ATOM     33  C   UNL     1      -2.461  -1.130  -0.019  0.00  0.00    +0.000 C 
ATOM     34  C   UNL     1      -3.792  -0.562  -0.530  0.00  0.00    +0.000 C 
BRANCH  31  35
ATOM     35  O   UNL     1      -2.180   1.847  -2.919  0.00  0.00    +0.000 OA
ATOM     36  H   UNL     1      -1.471   1.714  -3.571  0.00  0.00    +0.000 HD
ENDBRANCH  31  35
BRANCH  34  37
ATOM     37  O   UNL     1      -4.668  -0.295   0.562  0.00  0.00    +0.000 OA
ATOM     38  H   UNL     1      -4.217   0.319   1.167  0.00  0.00    +0.000 HD
ENDBRANCH  34  37
BRANCH  32  39
ATOM     39  O   UNL     1      -4.800   1.085  -1.954  0.00  0.00    +0.000 OA
BRANCH  39  41
ATOM     40  O   UNL     1      -4.294   3.330  -1.757  0.00  0.00    +0.000 OA
ATOM     41  C   UNL     1      -5.028   2.420  -2.117  0.00  0.00    +0.000 C 
ATOM     42  C   UNL     1      -6.337   2.625  -2.817  0.00  0.00    +0.000 C 
ENDBRANCH  39  41
ENDBRANCH  32  39
BRANCH  33  43
ATOM     43  C   UNL     1      -2.632  -2.510   0.610  0.00  0.00    +0.000 C 
BRANCH  43  44
ATOM     44  O   UNL     1      -3.164  -3.387  -0.366  0.00  0.00    +0.000 OA
BRANCH  44  45
ATOM     45  C   UNL     1      -2.933  -4.751  -0.032  0.00  0.00    +0.000 C 
ATOM     46  C   UNL     1      -3.483  -5.616  -1.171  0.00  0.00    +0.000 C 
ATOM     47  C   UNL     1      -3.699  -5.046   1.263  0.00  0.00    +0.000 C 
BRANCH  45  48
ATOM     48  C   UNL     1      -1.435  -4.927   0.053  0.00  0.00    +0.000 C 
ATOM     49  C   UNL     1      -0.719  -5.306   1.119  0.00  0.00    +0.000 C 
ENDBRANCH  45  48
ENDBRANCH  44  45
ENDBRANCH  43  44
ENDBRANCH  33  43
ENDBRANCH  28  30
ENDBRANCH   7  28
BRANCH   6  50
ATOM     50  C   UNL     1       6.653  -0.352  -0.947  0.00  0.00    +0.000 C 
BRANCH  50  51
ATOM     51  O   UNL     1       6.601  -1.752  -0.736  0.00  0.00    +0.000 OA
ATOM     52  C   UNL     1       7.245  -2.467  -1.783  0.00  0.00    +0.000 C 
ENDBRANCH  50  51
ENDBRANCH   6  50
TORSDOF 18
