REMARK  Name = 5288382
REMARK  13 active torsions:
REMARK  status: ('A' for Active; 'I' for Inactive)
REMARK    1  A    between atoms: O_1  and  C_12
REMARK    2  A    between atoms: O_1  and  C_26
REMARK    3  A    between atoms: O_2  and  C_15
REMARK    4  A    between atoms: O_3  and  C_23
REMARK    5  A    between atoms: O_3  and  C_34
REMARK    6  A    between atoms: O_4  and  C_24
REMARK    7  A    between atoms: O_4  and  C_36
REMARK    8  A    between atoms: O_5  and  C_27
REMARK    9  A    between atoms: O_5  and  C_37
REMARK   10  A    between atoms: C_14  and  C_18
REMARK   11  A    between atoms: C_16  and  C_20
REMARK   12  A    between atoms: C_22  and  C_28
REMARK   13  A    between atoms: C_38  and  C_40
REMARK                            x       y       z     vdW  Elec       q    Type
REMARK                         _______ _______ _______ _____ _____    ______ ____
ROOT
ATOM      1  O   UNL     1      -1.028  -0.420   1.560  0.00  0.00    +0.000 OA
ATOM      2  O   UNL     1      -5.848  -2.042   0.298  0.00  0.00    +0.000 OA
ATOM      3  O   UNL     1      -1.797  -4.512  -1.139  0.00  0.00    +0.000 OA
ATOM      4  N   UNL     1      -1.126  -2.456  -0.242  0.00  0.00    +0.000 N 
ATOM      5  C   UNL     1      -0.472   3.318  -0.842  0.00  0.00    +0.000 C 
ATOM      6  C   UNL     1      -1.078   2.356   0.190  0.00  0.00    +0.000 C 
ATOM      7  C   UNL     1      -2.516   2.672   0.672  0.00  0.00    +0.000 C 
ATOM      8  C   UNL     1       1.035   3.054  -1.073  0.00  0.00    +0.000 C 
ATOM      9  C   UNL     1       1.448   1.619  -1.500  0.00  0.00    +0.000 C 
ATOM     10  C   UNL     1      -2.995   1.647   1.738  0.00  0.00    +0.000 C 
ATOM     11  C   UNL     1      -2.613   4.082   1.266  0.00  0.00    +0.000 C 
ATOM     12  C   UNL     1       2.963   1.501  -1.455  0.00  0.00    +0.000 C 
ATOM     13  C   UNL     1       0.984   1.203  -2.899  0.00  0.00    +0.000 C 
ATOM     14  C   UNL     1      -3.273   0.260   1.196  0.00  0.00    +0.000 C 
ATOM     15  C   UNL     1       3.743   0.805  -0.599  0.00  0.00    +0.000 C 
ATOM     16  C   UNL     1       3.227  -0.038   0.557  0.00  0.00    +0.000 C 
ATOM     17  C   UNL     1      -4.506  -0.193   0.920  0.00  0.00    +0.000 C 
ATOM     18  C   UNL     1      -2.114  -0.662   1.038  0.00  0.00    +0.000 C 
ATOM     19  C   UNL     1       3.569  -1.545   0.441  0.00  0.00    +0.000 C 
ATOM     20  C   UNL     1       5.241   0.881  -0.766  0.00  0.00    +0.000 C 
ATOM     21  C   UNL     1      -2.299  -1.889   0.213  0.00  0.00    +0.000 C 
ATOM     22  C   UNL     1      -4.723  -1.567   0.404  0.00  0.00    +0.000 C 
ATOM     23  C   UNL     1      -3.536  -2.326  -0.039  0.00  0.00    +0.000 C 
ATOM     24  C   UNL     1       2.554  -2.385   1.178  0.00  0.00    +0.000 C 
ATOM     25  C   UNL     1       1.670  -3.242   0.643  0.00  0.00    +0.000 C 
ATOM     26  C   UNL     1      -0.946  -3.658  -0.908  0.00  0.00    +0.000 C 
ATOM     27  C   UNL     1       0.444  -3.828  -1.456  0.00  0.00    +0.000 C 
ATOM     28  C   UNL     1       1.568  -3.585  -0.758  0.00  0.00    +0.000 C 
ATOM     29  C   UNL     1       0.490  -4.266  -2.893  0.00  0.00    +0.000 C 
ATOM     30  H   UNL     1      -0.305  -1.878  -0.079  0.00  0.00    +0.000 HD
ENDROOT
BRANCH   5  31
ATOM     31  O   UNL     1      -1.200   3.269  -2.065  0.00  0.00    +0.000 OA
ATOM     32  C   UNL     1      -0.651   4.153  -3.031  0.00  0.00    +0.000 C 
ENDBRANCH   5  31
BRANCH   8  33
ATOM     33  O   UNL     1       1.514   4.016  -2.018  0.00  0.00    +0.000 OA
ATOM     34  H   UNL     1       1.541   4.878  -1.567  0.00  0.00    +0.000 HD
ENDBRANCH   8  33
BRANCH  17  35
ATOM     35  O   UNL     1      -5.623   0.598   1.102  0.00  0.00    +0.000 OA
ATOM     36  C   UNL     1      -5.915   1.329  -0.072  0.00  0.00    +0.000 C 
ENDBRANCH  17  35
BRANCH  19  37
ATOM     37  O   UNL     1       4.842  -1.843   1.009  0.00  0.00    +0.000 OA
ATOM     38  C   UNL     1       5.162  -3.219   0.870  0.00  0.00    +0.000 C 
ENDBRANCH  19  37
BRANCH  16  39
ATOM     39  O   UNL     1       3.725   0.474   1.796  0.00  0.00    +0.000 OA
BRANCH  39  42
ATOM     40  O   UNL     1       2.346   2.316   1.728  0.00  0.00    +0.000 OA
ATOM     41  N   UNL     1       4.354   2.360   2.848  0.00  0.00    +0.000 N 
ATOM     42  C   UNL     1       3.379   1.762   2.088  0.00  0.00    +0.000 C 
ATOM     43  H   UNL     1       5.193   1.859   3.119  0.00  0.00    +0.000 HD
ATOM     44  H   UNL     1       4.266   3.322   3.159  0.00  0.00    +0.000 HD
ENDBRANCH  39  42
ENDBRANCH  16  39
TORSDOF 6
