REMARK  Name = 5311399
REMARK  13 active torsions:
REMARK  status: ('A' for Active; 'I' for Inactive)
REMARK    1  A    between atoms: O_1  and  C_13
REMARK    2  A    between atoms: O_1  and  C_34
REMARK    3  A    between atoms: O_2  and  C_25
REMARK    4  A    between atoms: O_2  and  C_40
REMARK    5  A    between atoms: N_5  and  C_12
REMARK    6  A    between atoms: N_5  and  C_28
REMARK    7  A    between atoms: N_6  and  C_23
REMARK    8  A    between atoms: C_8  and  C_21
REMARK    9  A    between atoms: C_11  and  C_24
REMARK   10  A    between atoms: C_28  and  C_35
REMARK   11  A    between atoms: C_34  and  C_39
REMARK   12  A    between atoms: C_39  and  C_42
REMARK   13  A    between atoms: C_40  and  C_43
REMARK                            x       y       z     vdW  Elec       q    Type
REMARK                         _______ _______ _______ _____ _____    ______ ____
ROOT
ATOM      1  C   UNL     1      -1.548   0.625  -0.681  0.00  0.00    +0.000 C 
ATOM      2  C   UNL     1      -2.075  -0.547   0.174  0.00  0.00    +0.000 C 
ATOM      3  C   UNL     1      -0.200   1.158  -0.183  0.00  0.00    +0.000 C 
ATOM      4  C   UNL     1       0.845  -0.000  -0.254  0.00  0.00    +0.000 C 
ATOM      5  C   UNL     1       2.287   0.465   0.177  0.00  0.00    +0.000 C 
ATOM      6  C   UNL     1      -3.940   0.612  -0.918  0.00  0.00    +0.000 C 
ATOM      7  C   UNL     1      -3.429  -0.796  -0.530  0.00  0.00    +0.000 C 
ATOM      8  C   UNL     1      -2.745   1.571  -0.761  0.00  0.00    +0.000 C 
ATOM      9  C   UNL     1       2.680   1.710  -0.671  0.00  0.00    +0.000 C 
ATOM     10  C   UNL     1      -1.074  -1.707   0.050  0.00  0.00    +0.000 C 
ATOM     11  C   UNL     1       0.344  -1.280   0.472  0.00  0.00    +0.000 C 
ATOM     12  C   UNL     1       0.261   2.366  -1.007  0.00  0.00    +0.000 C 
ATOM     13  C   UNL     1       1.649   2.844  -0.596  0.00  0.00    +0.000 C 
ATOM     14  C   UNL     1       3.321  -0.676  -0.100  0.00  0.00    +0.000 C 
ATOM     15  C   UNL     1      -2.276  -0.212   1.673  0.00  0.00    +0.000 C 
ATOM     16  C   UNL     1       4.088   2.241  -0.347  0.00  0.00    +0.000 C 
ATOM     17  C   UNL     1       4.676  -0.210  -0.670  0.00  0.00    +0.000 C 
ATOM     18  C   UNL     1       2.318   0.795   1.694  0.00  0.00    +0.000 C 
ATOM     19  C   UNL     1       5.124   1.136  -0.097  0.00  0.00    +0.000 C 
ENDROOT
BRANCH   6  20
ATOM     20  N   UNL     1      -5.113   1.088  -0.051  0.00  0.00    +0.000 N 
ATOM     21  C   UNL     1      -4.646   1.112   1.409  0.00  0.00    +0.000 C 
ATOM     22  C   UNL     1      -5.508   2.494  -0.516  0.00  0.00    +0.000 C 
ATOM     23  C   UNL     1      -5.683   1.748   2.326  0.00  0.00    +0.000 C 
ATOM     24  C   UNL     1      -6.543   3.128   0.406  0.00  0.00    +0.000 C 
ATOM     25  C   UNL     1      -6.079   3.141   1.856  0.00  0.00    +0.000 C 
BRANCH  20  26
ATOM     26  C   UNL     1      -6.258   0.095  -0.251  0.00  0.00    +0.000 C 
BRANCH  26  27
ATOM     27  C   UNL     1      -6.366  -0.388  -1.660  0.00  0.00    +0.000 C 
ATOM     28  C   UNL     1      -7.126   0.195  -2.593  0.00  0.00    +0.000 C 
ENDBRANCH  26  27
ENDBRANCH  20  26
ENDBRANCH   6  20
BRANCH  17  29
ATOM     29  N   UNL     1       5.683  -1.241  -0.420  0.00  0.00    +0.000 NA
ATOM     30  C   UNL     1       5.884  -1.424   1.024  0.00  0.00    +0.000 C 
ATOM     31  C   UNL     1       5.297  -2.503  -1.067  0.00  0.00    +0.000 C 
ATOM     32  C   UNL     1       6.969  -2.465   1.302  0.00  0.00    +0.000 C 
ATOM     33  C   UNL     1       6.363  -3.579  -0.858  0.00  0.00    +0.000 C 
ATOM     34  C   UNL     1       6.651  -3.793   0.624  0.00  0.00    +0.000 C 
ENDBRANCH  17  29
BRANCH   7  35
ATOM     35  O   UNL     1      -4.345  -1.584   0.203  0.00  0.00    +0.000 OA
BRANCH  35  37
ATOM     36  O   UNL     1      -3.497  -3.502  -0.759  0.00  0.00    +0.000 OA
ATOM     37  C   UNL     1      -4.278  -2.941  -0.002  0.00  0.00    +0.000 C 
BRANCH  37  38
ATOM     38  C   UNL     1      -5.315  -3.633   0.850  0.00  0.00    +0.000 C 
ATOM     39  C   UNL     1      -5.304  -5.139   0.654  0.00  0.00    +0.000 C 
ENDBRANCH  37  38
ENDBRANCH  35  37
ENDBRANCH   7  35
BRANCH  19  40
ATOM     40  O   UNL     1       6.364   1.539  -0.679  0.00  0.00    +0.000 OA
BRANCH  40  42
ATOM     41  O   UNL     1       6.937   2.636   1.271  0.00  0.00    +0.000 OA
ATOM     42  C   UNL     1       7.175   2.288   0.123  0.00  0.00    +0.000 C 
ATOM     43  C   UNL     1       8.433   2.634  -0.616  0.00  0.00    +0.000 C 
ENDBRANCH  40  42
ENDBRANCH  19  40
TORSDOF 9
