REMARK  Name = 35330
REMARK  16 active torsions:
REMARK  status: ('A' for Active; 'I' for Inactive)
REMARK    1  A    between atoms: O_1  and  C_9
REMARK    2  A    between atoms: O_2  and  C_16
REMARK    3  A    between atoms: O_2  and  C_19
REMARK    4  A    between atoms: O_3  and  C_18
REMARK    5  A    between atoms: O_3  and  C_20
REMARK    6  A    between atoms: N_6  and  C_7
REMARK    7  A    between atoms: N_6  and  C_8
REMARK    8  A    between atoms: C_7  and  C_10
REMARK    9  A    between atoms: C_7  and  C_11
REMARK   10  A    between atoms: C_7  and  C_12
REMARK   11  A    between atoms: C_8  and  C_9
REMARK   12  A    between atoms: C_9  and  C_13
REMARK   13  A    between atoms: C_19  and  C_21
REMARK   14  A    between atoms: C_20  and  C_22
REMARK   15  A    between atoms: C_27  and  C_33
REMARK   16  A    between atoms: C_28  and  C_34
REMARK                            x       y       z     vdW  Elec       q    Type
REMARK                         _______ _______ _______ _____ _____    ______ ____
ROOT
ATOM      1  C   UNL     1       2.841  -0.895  -1.161  0.00  0.00    +0.000 A 
ATOM      2  C   UNL     1       2.009   0.103  -0.652  0.00  0.00    +0.000 A 
ATOM      3  C   UNL     1       2.298  -2.114  -1.567  0.00  0.00    +0.000 A 
ATOM      4  C   UNL     1       0.636  -0.117  -0.551  0.00  0.00    +0.000 A 
ATOM      5  C   UNL     1       0.925  -2.335  -1.465  0.00  0.00    +0.000 A 
ATOM      6  C   UNL     1       0.094  -1.337  -0.957  0.00  0.00    +0.000 A 
ENDROOT
BRANCH   4   7
ATOM      7  O   UNL     1      -0.166   0.866  -0.054  0.00  0.00    +0.000 OA
BRANCH   7   9
ATOM      8  O   UNL     1      -0.429   1.692  -2.218  0.00  0.00    +0.000 OA
ATOM      9  C   UNL     1      -0.665   1.742  -1.020  0.00  0.00    +0.000 C 
BRANCH   9  10
ATOM     10  C   UNL     1      -1.527   2.782  -0.404  0.00  0.00    +0.000 A 
ATOM     11  C   UNL     1      -2.259   2.489   0.747  0.00  0.00    +0.000 A 
ATOM     12  C   UNL     1      -1.605   4.052  -0.976  0.00  0.00    +0.000 A 
ATOM     13  C   UNL     1      -3.146   4.736   0.754  0.00  0.00    +0.000 A 
ATOM     14  C   UNL     1      -3.069   3.466   1.326  0.00  0.00    +0.000 A 
ATOM     15  C   UNL     1      -2.414   5.029  -0.397  0.00  0.00    +0.000 A 
ATOM     16  C   UNL     1      -4.013   5.781   1.371  0.00  0.00    +0.000 C 
ENDBRANCH   9  10
ENDBRANCH   7   9
ENDBRANCH   4   7
BRANCH   6  17
ATOM     17  O   UNL     1      -1.246  -1.565  -0.863  0.00  0.00    +0.000 OA
BRANCH  17  19
ATOM     18  O   UNL     1      -0.913  -2.418   1.280  0.00  0.00    +0.000 OA
ATOM     19  C   UNL     1      -1.650  -2.124   0.351  0.00  0.00    +0.000 C 
BRANCH  19  20
ATOM     20  C   UNL     1      -3.118  -2.342   0.377  0.00  0.00    +0.000 A 
ATOM     21  C   UNL     1      -3.963  -1.492  -0.337  0.00  0.00    +0.000 A 
ATOM     22  C   UNL     1      -3.653  -3.397   1.117  0.00  0.00    +0.000 A 
ATOM     23  C   UNL     1      -5.877  -2.752   0.427  0.00  0.00    +0.000 A 
ATOM     24  C   UNL     1      -5.342  -1.698  -0.313  0.00  0.00    +0.000 A 
ATOM     25  C   UNL     1      -5.033  -3.602   1.141  0.00  0.00    +0.000 A 
ATOM     26  C   UNL     1      -7.352  -2.972   0.455  0.00  0.00    +0.000 C 
ENDBRANCH  19  20
ENDBRANCH  17  19
ENDBRANCH   6  17
BRANCH   1  27
ATOM     27  C   UNL     1       4.330  -0.656  -1.270  0.00  0.00    +0.000 C 
BRANCH  27  28
ATOM     28  O   UNL     1       4.545   0.409  -2.196  0.00  0.00    +0.000 OA
ATOM     29  H   UNL     1       4.019   0.227  -2.994  0.00  0.00    +0.000 HD
ENDBRANCH  27  28
BRANCH  27  30
ATOM     30  C   UNL     1       4.945  -0.308   0.091  0.00  0.00    +0.000 C 
BRANCH  30  31
ATOM     31  N   UNL     1       6.379  -0.538   0.085  0.00  0.00    +0.000 NA
ATOM     32  H   UNL     1       6.571  -1.514  -0.142  0.00  0.00    +0.000 HD
BRANCH  31  33
ATOM     33  C   UNL     1       6.960  -0.208   1.391  0.00  0.00    +0.000 C 
ATOM     34  C   UNL     1       6.324  -1.091   2.470  0.00  0.00    +0.000 C 
ATOM     35  C   UNL     1       6.683   1.270   1.688  0.00  0.00    +0.000 C 
ATOM     36  C   UNL     1       8.471  -0.457   1.330  0.00  0.00    +0.000 C 
ENDBRANCH  31  33
ENDBRANCH  30  31
ENDBRANCH  27  30
ENDBRANCH   1  27
TORSDOF 11
