REMARK  Name = 
REMARK  26 active torsions:
REMARK  status: ('A' for Active; 'I' for Inactive)
REMARK    1  A    between atoms: C_1  and  O_2
REMARK    2  A    between atoms: O_2  and  C_3
REMARK    3  A    between atoms: C_4  and  O_5
REMARK    4  A    between atoms: C_10  and  C_11
REMARK    5  A    between atoms: C_17  and  O_18
REMARK    6  A    between atoms: O_18  and  C_19
REMARK    7  A    between atoms: C_22  and  N_23
REMARK    8  A    between atoms: N_23  and  C_24
REMARK    9  A    between atoms: N_23  and  C_25
REMARK   10  A    between atoms: C_26  and  C_27
REMARK   11  A    between atoms: C_29  and  C_30
REMARK   12  A    between atoms: C_32  and  C_33
REMARK   13  A    between atoms: C_33  and  C_34
REMARK   14  A    between atoms: C_36  and  O_37
REMARK   15  A    between atoms: O_37  and  C_38
REMARK   16  A    between atoms: C_40  and  C_41
REMARK   17  A    between atoms: C_42  and  O_43
REMARK   18  A    between atoms: O_43  and  C_44
REMARK   19  A    between atoms: C_46  and  C_47
REMARK   20  A    between atoms: C_46  and  O_48
REMARK   21  A    between atoms: C_49  and  O_50
REMARK   22  A    between atoms: C_51  and  C_52
REMARK   23  A    between atoms: C_54  and  N_55
REMARK   24  A    between atoms: N_55  and  C_56
REMARK   25  A    between atoms: N_55  and  C_57
REMARK   26  A    between atoms: C_58  and  O_59
REMARK                            x       y       z     vdW  Elec       q    Type
REMARK                         _______ _______ _______ _____ _____    ______ ____
ROOT
ATOM      1  C   UNL     1      -0.261  -2.567  -0.708  0.00  0.00    +0.000 C 
ATOM      2  C   UNL     1      -1.682  -3.086   0.130  0.00  0.00    +0.000 C 
ATOM      3  C   UNL     1      -1.459  -4.675  -0.203  0.00  0.00    +0.000 C 
ATOM      4  C   UNL     1      -2.680  -5.366   0.132  0.00  0.00    +0.000 C 
ATOM      5  O   UNL     1      -2.709  -6.531   0.634  0.00  0.00    +0.000 OA
ATOM      6  O   UNL     1      -3.855  -4.851  -0.398  0.00  0.00    +0.000 OA
ATOM      7  C   UNL     1      -3.966  -3.394   0.085  0.00  0.00    +0.000 C 
ATOM      8  C   UNL     1      -5.176  -3.764   1.140  0.00  0.00    +0.000 C 
ATOM      9  C   UNL     1      -5.034  -2.998  -1.108  0.00  0.00    +0.000 C 
ATOM     10  C   UNL     1      -5.596  -1.770  -0.430  0.00  0.00    +0.000 C 
ATOM     11  C   UNL     1      -4.992  -0.985   0.059  0.00  0.00    +0.000 C 
ATOM     12  C   UNL     1      -4.750  -0.383   1.329  0.00  0.00    +0.000 C 
ATOM     13  C   UNL     1      -3.929   0.298   1.115  0.00  0.00    +0.000 C 
ATOM     14  C   UNL     1      -3.027   1.549   0.665  0.00  0.00    +0.000 C 
ATOM     15  C   UNL     1      -2.222   0.649  -0.557  0.00  0.00    +0.000 C 
ATOM     16  C   UNL     1      -1.929  -0.369   0.665  0.00  0.00    +0.000 C 
ATOM     17  C   UNL     1      -0.679   1.171  -0.388  0.00  0.00    +0.000 C 
ATOM     18  C   UNL     1       0.231  -0.054  -0.993  0.00  0.00    +0.000 C 
ATOM     19  C   UNL     1       0.089  -1.200   0.262  0.00  0.00    +0.000 C 
ENDROOT
BRANCH   1  21
ATOM     20  C   UNL     1       1.193  -4.300  -0.692  0.00  0.00    +0.000 C 
ATOM     21  O   UNL     1       0.568  -3.484   0.123  0.00  0.00    +0.000 OA
ENDBRANCH   1  21
BRANCH   2  22
ATOM     22  O   UNL     1      -1.075  -3.152   1.516  0.00  0.00    +0.000 OA
ATOM     23  H   UNL     1      -0.231  -3.630   1.477  0.00  0.00    +0.000 HD
ENDBRANCH   2  22
BRANCH  14  24
ATOM     24  O   UNL     1      -4.175   2.102  -0.180  0.00  0.00    +0.000 OA
BRANCH  24  25
ATOM     25  C   UNL     1      -5.110   2.265   1.040  0.00  0.00    +0.000 C 
ATOM     26  C   UNL     1      -5.036   3.917   0.867  0.00  0.00    +0.000 C 
ATOM     27  C   UNL     1      -6.501   4.150   1.228  0.00  0.00    +0.000 C 
ATOM     28  C   UNL     1      -6.649   4.308  -0.390  0.00  0.00    +0.000 C 
ATOM     29  C   UNL     1      -7.117   2.679  -0.669  0.00  0.00    +0.000 C 
ATOM     30  C   UNL     1      -5.955   2.539  -1.848  0.00  0.00    +0.000 C 
ATOM     31  O   UNL     1      -6.340   1.958   0.307  0.00  0.00    +0.000 OA
BRANCH  28  32
ATOM     32  N   UNL     1      -8.120   4.824  -0.295  0.00  0.00    +0.000 NA
ATOM     33  C   UNL     1      -8.922   3.905   0.433  0.00  0.00    +0.000 C 
ATOM     34  C   UNL     1      -8.011   6.056   0.542  0.00  0.00    +0.000 C 
ENDBRANCH  28  32
ENDBRANCH  24  25
ENDBRANCH  14  24
BRANCH  18  35
ATOM     35  C   UNL     1      -0.853  -0.578  -2.080  0.00  0.00    +0.000 C 
BRANCH  35  36
ATOM     36  C   UNL     1      -0.299   0.112  -3.304  0.00  0.00    +0.000 C 
ATOM     37  O   UNL     1      -0.178  -0.686  -4.281  0.00  0.00    +0.000 OA
ENDBRANCH  35  36
ENDBRANCH  18  35
BRANCH  19  38
ATOM     38  O   UNL     1       1.563  -1.453   0.375  0.00  0.00    +0.000 OA
BRANCH  38  39
ATOM     39  C   UNL     1       2.194  -0.058   0.273  0.00  0.00    +0.000 C 
ATOM     40  O   UNL     1       3.076  -0.404  -0.813  0.00  0.00    +0.000 OA
ATOM     41  C   UNL     1       3.878  -1.545  -1.103  0.00  0.00    +0.000 C 
ATOM     42  C   UNL     1       3.625  -2.564   0.153  0.00  0.00    +0.000 C 
ATOM     43  C   UNL     1       5.261  -0.874  -0.350  0.00  0.00    +0.000 C 
ATOM     44  C   UNL     1       4.799  -0.303   1.167  0.00  0.00    +0.000 C 
ATOM     45  C   UNL     1       3.189  -0.539   1.611  0.00  0.00    +0.000 C 
BRANCH  44  46
ATOM     46  N   UNL     1       5.100  -1.707   1.903  0.00  0.00    +0.000 NA
ATOM     47  C   UNL     1       4.556  -1.436   3.230  0.00  0.00    +0.000 C 
ATOM     48  C   UNL     1       6.457  -2.009   1.934  0.00  0.00    +0.000 C 
ENDBRANCH  44  46
BRANCH  45  49
ATOM     49  O   UNL     1       3.138   0.961   1.995  0.00  0.00    +0.000 OA
ATOM     50  H   UNL     1       3.429   1.498   1.241  0.00  0.00    +0.000 HD
ENDBRANCH  45  49
BRANCH  43  51
ATOM     51  O   UNL     1       5.081   0.528  -0.894  0.00  0.00    +0.000 OA
BRANCH  51  52
ATOM     52  C   UNL     1       6.451   0.850  -1.474  0.00  0.00    +0.000 C 
ATOM     53  C   UNL     1       6.049   2.470  -1.508  0.00  0.00    +0.000 C 
ATOM     54  C   UNL     1       6.866   3.160  -0.491  0.00  0.00    +0.000 C 
ATOM     55  C   UNL     1       6.762   4.553  -0.900  0.00  0.00    +0.000 C 
ATOM     56  C   UNL     1       8.433   2.861  -0.837  0.00  0.00    +0.000 C 
ATOM     57  C   UNL     1       8.547   1.189  -0.388  0.00  0.00    +0.000 C 
ATOM     58  C   UNL     1       8.561   0.769  -1.985  0.00  0.00    +0.000 C 
ATOM     59  O   UNL     1       7.093   0.956  -0.101  0.00  0.00    +0.000 OA
BRANCH  54  60
ATOM     60  O   UNL     1       6.604   3.021   0.840  0.00  0.00    +0.000 OA
ATOM     61  H   UNL     1       5.667   3.205   1.006  0.00  0.00    +0.000 HD
ENDBRANCH  54  60
BRANCH  56  62
ATOM     62  O   UNL     1       8.924   3.287   0.533  0.00  0.00    +0.000 OA
ATOM     63  H   UNL     1       8.406   2.834   1.217  0.00  0.00    +0.000 HD
ENDBRANCH  56  62
ENDBRANCH  51  52
ENDBRANCH  43  51
ENDBRANCH  38  39
ENDBRANCH  19  38
TORSDOF 15
