REMARK  Name = 
REMARK  27 active torsions:
REMARK  status: ('A' for Active; 'I' for Inactive)
REMARK    1  A    between atoms: C_1  and  C_2
REMARK    2  A    between atoms: C_1  and  O_6
REMARK    3  A    between atoms: C_3  and  C_4
REMARK    4  A    between atoms: O_6  and  C_18
REMARK    5  A    between atoms: N_8  and  C_9
REMARK    6  A    between atoms: C_10  and  O_15
REMARK    7  A    between atoms: C_16  and  C_26
REMARK    8  A    between atoms: C_16  and  O_58
REMARK    9  A    between atoms: C_19  and  C_25
REMARK   10  A    between atoms: C_20  and  C_22
REMARK   11  A    between atoms: C_22  and  C_23
REMARK   12  A    between atoms: C_22  and  C_24
REMARK   13  A    between atoms: C_26  and  C_27
REMARK   14  A    between atoms: C_26  and  C_30
REMARK   15  A    between atoms: C_27  and  C_28
REMARK   16  A    between atoms: C_27  and  O_57
REMARK   17  A    between atoms: C_28  and  C_29
REMARK   18  A    between atoms: C_28  and  C_32
REMARK   19  A    between atoms: C_33  and  O_54
REMARK   20  A    between atoms: C_37  and  C_51
REMARK   21  A    between atoms: C_39  and  C_50
REMARK   22  A    between atoms: C_40  and  O_56
REMARK   23  A    between atoms: C_41  and  C_49
REMARK   24  A    between atoms: C_43  and  C_48
REMARK   25  A    between atoms: C_45  and  O_52
REMARK   26  A    between atoms: O_52  and  C_53
REMARK   27  A    between atoms: O_54  and  C_55
REMARK                            x       y       z     vdW  Elec       q    Type
REMARK                         _______ _______ _______ _____ _____    ______ ____
ROOT
ATOM      1  C   UNL     1      -1.528  -1.540   0.000  0.00  0.00    +0.000 C 
ENDROOT
BRANCH   1   2
ATOM      2  C   UNL     1      -2.160  -1.010   0.000  0.00  0.00    +0.000 C 
ATOM      3  C   UNL     1      -2.935  -1.292   0.000  0.00  0.00    +0.000 C 
BRANCH   2   4
ATOM      4  C   UNL     1      -2.017  -0.197   0.000  0.00  0.00    +0.000 C 
ATOM      5  C   UNL     1      -1.604   0.517   0.000  0.00  0.00    +0.000 C 
ATOM      6  C   UNL     1      -2.017   1.232   0.000  0.00  0.00    +0.000 C 
ATOM      7  C   UNL     1      -2.842   1.232   0.000  0.00  0.00    +0.000 C 
ATOM      8  C   UNL     1      -3.254   0.517   0.000  0.00  0.00    +0.000 C 
ATOM      9  O   UNL     1      -2.842  -0.197   0.000  0.00  0.00    +0.000 OA
ATOM     10  C   UNL     1      -3.254   1.946   0.000  0.00  0.00    +0.000 C 
BRANCH   8  11
ATOM     11  C   UNL     1      -4.079   0.517   0.000  0.00  0.00    +0.000 C 
ATOM     12  C   UNL     1      -4.492  -0.197   0.000  0.00  0.00    +0.000 C 
ATOM     13  C   UNL     1      -4.492   1.232   0.000  0.00  0.00    +0.000 C 
ENDBRANCH   8  11
BRANCH   4  14
ATOM     14  O   UNL     1      -1.242  -0.479   0.000  0.00  0.00    +0.000 OA
ATOM     15  H   UNL     1      -1.073  -1.435   0.000  0.00  0.00    +0.000 HD
ENDBRANCH   4  14
BRANCH   6  16
ATOM     16  O   UNL     1      -1.604   1.946   0.000  0.00  0.00    +0.000 OA
BRANCH  16  17
ATOM     17  C   UNL     1      -2.017   2.661   0.000  0.00  0.00    +0.000 C 
ATOM     18  O   UNL     1      -2.842   2.661   0.000  0.00  0.00    +0.000 OA
BRANCH  17  19
ATOM     19  C   UNL     1      -1.604   3.375   0.000  0.00  0.00    +0.000 C 
ATOM     20  C   UNL     1      -0.779   3.375   0.000  0.00  0.00    +0.000 C 
BRANCH  20  21
ATOM     21  C   UNL     1      -0.367   4.090   0.000  0.00  0.00    +0.000 C 
ATOM     22  O   UNL     1      -0.779   4.804   0.000  0.00  0.00    +0.000 OA
ATOM     23  N   UNL     1       0.458   4.090   0.000  0.00  0.00    +0.000 N 
ATOM     24  H   UNL     1       0.950   3.237   0.000  0.00  0.00    +0.000 HD
BRANCH  23  25
ATOM     25  C   UNL     1       0.871   4.804   0.000  0.00  0.00    +0.000 C 
ATOM     26  C   UNL     1       1.691   4.890   0.000  0.00  0.00    +0.000 C 
ATOM     27  C   UNL     1       1.863   5.697   0.000  0.00  0.00    +0.000 C 
ATOM     28  C   UNL     1       1.148   6.110   0.000  0.00  0.00    +0.000 C 
ATOM     29  C   UNL     1       0.535   5.558   0.000  0.00  0.00    +0.000 C 
ATOM     30  O   UNL     1      -0.272   5.729   0.000  0.00  0.00    +0.000 OA
BRANCH  26  31
ATOM     31  O   UNL     1       2.243   4.277   0.000  0.00  0.00    +0.000 OA
ATOM     32  H   UNL     1       1.954   3.386   0.000  0.00  0.00    +0.000 HD
ENDBRANCH  26  31
ENDBRANCH  23  25
ENDBRANCH  20  21
ENDBRANCH  17  19
ENDBRANCH  16  17
ENDBRANCH   6  16
ENDBRANCH   2   4
ENDBRANCH   1   2
BRANCH   1  33
ATOM     33  C   UNL     1      -0.753  -1.258   0.000  0.00  0.00    +0.000 C 
ATOM     34  C   UNL     1      -0.610  -0.445   0.000  0.00  0.00    +0.000 C 
BRANCH  33  36
ATOM     35  O   UNL     1       0.712  -1.431   0.000  0.00  0.00    +0.000 OA
ATOM     36  C   UNL     1       0.076  -1.952   0.000  0.00  0.00    +0.000 C 
ATOM     37  C   UNL     1      -0.336  -2.666   0.000  0.00  0.00    +0.000 C 
ATOM     38  C   UNL     1      -0.418  -3.491   0.000  0.00  0.00    +0.000 C 
ATOM     39  C   UNL     1      -0.187  -4.283   0.000  0.00  0.00    +0.000 C 
ATOM     40  C   UNL     1       0.334  -4.918   0.000  0.00  0.00    +0.000 C 
ATOM     41  C   UNL     1       1.048  -5.331   0.000  0.00  0.00    +0.000 C 
ATOM     42  C   UNL     1       1.873  -5.413   0.000  0.00  0.00    +0.000 C 
ATOM     43  C   UNL     1       2.649  -5.191   0.000  0.00  0.00    +0.000 C 
ATOM     44  C   UNL     1       3.300  -4.661   0.000  0.00  0.00    +0.000 C 
ATOM     45  C   UNL     1       3.713  -3.947   0.000  0.00  0.00    +0.000 C 
ATOM     46  C   UNL     1       3.795  -3.122   0.000  0.00  0.00    +0.000 C 
ATOM     47  C   UNL     1       3.573  -2.346   0.000  0.00  0.00    +0.000 C 
ATOM     48  C   UNL     1       3.043  -1.694   0.000  0.00  0.00    +0.000 C 
ATOM     49  C   UNL     1       2.329  -1.282   0.000  0.00  0.00    +0.000 C 
ATOM     50  C   UNL     1       1.504  -1.200   0.000  0.00  0.00    +0.000 C 
ATOM     51  O   UNL     1       1.432  -0.378   0.000  0.00  0.00    +0.000 OA
ATOM     52  C   UNL     1       4.287  -1.933   0.000  0.00  0.00    +0.000 C 
ATOM     53  C   UNL     1       4.492  -4.190   0.000  0.00  0.00    +0.000 C 
ATOM     54  C   UNL     1       3.062  -5.905   0.000  0.00  0.00    +0.000 C 
ATOM     55  C   UNL     1       0.805  -6.110   0.000  0.00  0.00    +0.000 C 
BRANCH  49  56
ATOM     56  O   UNL     1       2.572  -0.503   0.000  0.00  0.00    +0.000 OA
ATOM     57  C   UNL     1       3.378  -0.324   0.000  0.00  0.00    +0.000 C 
ENDBRANCH  49  56
BRANCH  37  58
ATOM     58  O   UNL     1      -1.115  -2.422   0.000  0.00  0.00    +0.000 OA
ATOM     59  C   UNL     1      -1.698  -3.006   0.000  0.00  0.00    +0.000 C 
ENDBRANCH  37  58
BRANCH  44  60
ATOM     60  O   UNL     1       3.940  -5.196   0.000  0.00  0.00    +0.000 OA
ATOM     61  H   UNL     1       3.774  -6.151   0.000  0.00  0.00    +0.000 HD
ENDBRANCH  44  60
ENDBRANCH  33  36
ENDBRANCH   1  33
BRANCH   1  62
ATOM     62  O   UNL     1      -1.671  -2.353   0.000  0.00  0.00    +0.000 OA
ATOM     63  H   UNL     1      -2.583  -2.684   0.000  0.00  0.00    +0.000 HD
ENDBRANCH   1  62
TORSDOF 16
