REMARK  Name = 5287620
REMARK  3 active torsions:
REMARK  status: ('A' for Active; 'I' for Inactive)
REMARK    1  A    between atoms: O_1  and  C_9
REMARK    2  A    between atoms: O_2  and  C_10
REMARK    3  A    between atoms: C_18  and  C_20
REMARK                            x       y       z     vdW  Elec       q    Type
REMARK                         _______ _______ _______ _____ _____    ______ ____
ROOT
ATOM      1  O   UNL     1       2.783   0.626   0.678  0.00  0.00    +0.000 OA
ATOM      2  O   UNL     1       2.523   1.910  -1.234  0.00  0.00    +0.000 OA
ATOM      3  C   UNL     1      -2.413   0.559  -0.105  0.00  0.00    +0.000 C 
ATOM      4  C   UNL     1      -1.840  -0.699   0.603  0.00  0.00    +0.000 C 
ATOM      5  C   UNL     1      -3.864   0.627   0.395  0.00  0.00    +0.000 C 
ATOM      6  C   UNL     1      -3.066  -1.566   0.971  0.00  0.00    +0.000 C 
ATOM      7  C   UNL     1      -4.288  -0.832   0.429  0.00  0.00    +0.000 C 
ATOM      8  C   UNL     1      -1.644   1.866   0.171  0.00  0.00    +0.000 C 
ATOM      9  C   UNL     1      -0.863  -1.468  -0.252  0.00  0.00    +0.000 C 
ATOM     10  C   UNL     1      -0.235   1.805  -0.346  0.00  0.00    +0.000 C 
ATOM     11  C   UNL     1       0.375  -1.809   0.141  0.00  0.00    +0.000 C 
ATOM     12  C   UNL     1       1.333  -2.601  -0.706  0.00  0.00    +0.000 C 
ATOM     13  C   UNL     1       2.580  -1.809  -1.119  0.00  0.00    +0.000 C 
ATOM     14  C   UNL     1       3.576  -1.554   0.027  0.00  0.00    +0.000 C 
ATOM     15  C   UNL     1       0.833   1.761   0.460  0.00  0.00    +0.000 C 
ATOM     16  C   UNL     1       3.946  -0.070   0.183  0.00  0.00    +0.000 C 
ATOM     17  C   UNL     1       2.149   1.495  -0.149  0.00  0.00    +0.000 C 
ATOM     18  C   UNL     1       5.052   0.114   1.214  0.00  0.00    +0.000 C 
ENDROOT
BRANCH   7  19
ATOM     19  O   UNL     1      -4.619  -1.296  -0.875  0.00  0.00    +0.000 OA
ATOM     20  H   UNL     1      -4.838  -2.241  -0.801  0.00  0.00    +0.000 HD
ENDBRANCH   7  19
BRANCH   8  21
ATOM     21  O   UNL     1      -2.318   2.940  -0.487  0.00  0.00    +0.000 OA
ATOM     22  H   UNL     1      -2.370   2.731  -1.435  0.00  0.00    +0.000 HD
ENDBRANCH   8  21
TORSDOF 2
