REMARK  Name = 66440
REMARK  8 active torsions:
REMARK  status: ('A' for Active; 'I' for Inactive)
REMARK    1  A    between atoms: O_1  and  C_10
REMARK    2  A    between atoms: O_1  and  C_22
REMARK    3  A    between atoms: O_3  and  C_24
REMARK    4  A    between atoms: O_4  and  C_27
REMARK    5  A    between atoms: C_6  and  C_16
REMARK    6  A    between atoms: C_22  and  C_25
REMARK    7  A    between atoms: C_25  and  C_26
REMARK    8  A    between atoms: C_26  and  C_27
REMARK                            x       y       z     vdW  Elec       q    Type
REMARK                         _______ _______ _______ _____ _____    ______ ____
ROOT
ATOM      1  C   UNL     1       0.495  -0.012  -0.002  0.00  0.00    +0.000 C 
ATOM      2  C   UNL     1      -0.423  -1.222  -0.270  0.00  0.00    +0.000 C 
ATOM      3  C   UNL     1      -1.862  -0.963   0.175  0.00  0.00    +0.000 C 
ATOM      4  C   UNL     1      -2.428   0.239  -0.640  0.00  0.00    +0.000 C 
ATOM      5  C   UNL     1       1.834  -0.604  -0.483  0.00  0.00    +0.000 C 
ATOM      6  C   UNL     1      -0.021   1.171  -0.830  0.00  0.00    +0.000 C 
ATOM      7  C   UNL     1       0.348  -2.393   0.332  0.00  0.00    +0.000 C 
ATOM      8  C   UNL     1      -1.501   1.479  -0.530  0.00  0.00    +0.000 C 
ATOM      9  C   UNL     1       1.824  -2.043   0.068  0.00  0.00    +0.000 C 
ATOM     10  C   UNL     1      -2.769  -2.177  -0.035  0.00  0.00    +0.000 C 
ATOM     11  C   UNL     1       0.596   0.410   1.486  0.00  0.00    +0.000 C 
ATOM     12  C   UNL     1      -3.894   0.495  -0.301  0.00  0.00    +0.000 A 
ATOM     13  C   UNL     1      -4.147  -1.902   0.559  0.00  0.00    +0.000 C 
ATOM     14  C   UNL     1      -4.700  -0.539   0.224  0.00  0.00    +0.000 A 
ATOM     15  C   UNL     1      -4.501   1.732  -0.585  0.00  0.00    +0.000 A 
ATOM     16  C   UNL     1      -6.058  -0.298   0.499  0.00  0.00    +0.000 A 
ATOM     17  C   UNL     1      -5.853   1.955  -0.316  0.00  0.00    +0.000 A 
ATOM     18  C   UNL     1      -6.631   0.942   0.231  0.00  0.00    +0.000 A 
ENDROOT
BRANCH  18  19
ATOM     19  O   UNL     1      -7.947   1.158   0.497  0.00  0.00    +0.000 OA
ATOM     20  H   UNL     1      -8.173   2.071   0.248  0.00  0.00    +0.000 HD
ENDBRANCH  18  19
BRANCH   5  21
ATOM     21  O   UNL     1       2.957   0.124  -0.027  0.00  0.00    +0.000 OA
BRANCH  21  23
ATOM     22  O   UNL     1       4.373  -1.400  -1.023  0.00  0.00    +0.000 OA
ATOM     23  C   UNL     1       4.188  -0.384  -0.367  0.00  0.00    +0.000 C 
BRANCH  23  24
ATOM     24  C   UNL     1       5.273   0.507   0.197  0.00  0.00    +0.000 C 
BRANCH  24  25
ATOM     25  C   UNL     1       6.676   0.067  -0.204  0.00  0.00    +0.000 C 
BRANCH  25  27
ATOM     26  O   UNL     1       7.467   1.995   1.020  0.00  0.00    +0.000 OA
ATOM     27  C   UNL     1       7.721   1.014   0.334  0.00  0.00    +0.000 C 
BRANCH  27  28
ATOM     28  O   UNL     1       8.982   0.648  -0.007  0.00  0.00    +0.000 OA
ATOM     29  H   UNL     1       9.653   1.265   0.357  0.00  0.00    +0.000 HD
ENDBRANCH  27  28
ENDBRANCH  25  27
ENDBRANCH  24  25
ENDBRANCH  23  24
ENDBRANCH  21  23
ENDBRANCH   5  21
TORSDOF 7
