REMARK  Name = 5282237
REMARK  19 active torsions:
REMARK  status: ('A' for Active; 'I' for Inactive)
REMARK    1  A    between atoms: O_1  and  C_8
REMARK    2  A    between atoms: O_3  and  C_14
REMARK    3  A    between atoms: O_4  and  C_27
REMARK    4  A    between atoms: O_4  and  C_28
REMARK    5  A    between atoms: C_6  and  C_13
REMARK    6  A    between atoms: C_7  and  C_10
REMARK    7  A    between atoms: C_10  and  C_15
REMARK    8  A    between atoms: C_12  and  C_14
REMARK    9  A    between atoms: C_12  and  C_17
REMARK   10  A    between atoms: C_12  and  C_19
REMARK   11  A    between atoms: C_12  and  C_20
REMARK   12  A    between atoms: C_14  and  C_16
REMARK   13  A    between atoms: C_15  and  C_18
REMARK   14  A    between atoms: C_17  and  C_21
REMARK   15  A    between atoms: C_18  and  C_22
REMARK   16  A    between atoms: C_21  and  C_23
REMARK   17  A    between atoms: C_22  and  C_25
REMARK   18  A    between atoms: C_23  and  C_24
REMARK   19  A    between atoms: C_26  and  C_27
REMARK                            x       y       z     vdW  Elec       q    Type
REMARK                         _______ _______ _______ _____ _____    ______ ____
ROOT
ATOM      1  O   UNL     1      -0.198   4.471   0.036  0.00  0.00    +0.000 OA
ATOM      2  C   UNL     1       2.281   1.971  -0.284  0.00  0.00    +0.000 C 
ATOM      3  C   UNL     1       0.777   2.255  -0.153  0.00  0.00    +0.000 C 
ATOM      4  C   UNL     1       2.771   3.035  -1.275  0.00  0.00    +0.000 C 
ATOM      5  C   UNL     1       2.029   4.307  -0.869  0.00  0.00    +0.000 C 
ATOM      6  C   UNL     1       0.751   3.764  -0.284  0.00  0.00    +0.000 C 
ENDROOT
BRANCH   4   7
ATOM      7  O   UNL     1       4.172   3.214  -1.146  0.00  0.00    +0.000 OA
ATOM      8  H   UNL     1       4.426   3.948  -1.731  0.00  0.00    +0.000 HD
ENDBRANCH   4   7
BRANCH   2   9
ATOM      9  C   UNL     1       2.565   0.576  -0.741  0.00  0.00    +0.000 C 
ATOM     10  C   UNL     1       3.308  -0.298  -0.043  0.00  0.00    +0.000 C 
BRANCH  10  11
ATOM     11  C   UNL     1       3.644  -1.717  -0.447  0.00  0.00    +0.000 C 
BRANCH  11  12
ATOM     12  C   UNL     1       3.180  -2.809   0.574  0.00  0.00    +0.000 C 
ATOM     13  C   UNL     1       3.622  -4.215   0.099  0.00  0.00    +0.000 C 
ATOM     14  C   UNL     1       3.859  -2.560   1.941  0.00  0.00    +0.000 C 
BRANCH  12  15
ATOM     15  C   UNL     1       1.633  -2.841   0.765  0.00  0.00    +0.000 C 
BRANCH  15  16
ATOM     16  C   UNL     1       0.814  -3.127  -0.500  0.00  0.00    +0.000 C 
BRANCH  16  17
ATOM     17  C   UNL     1      -0.683  -3.187  -0.183  0.00  0.00    +0.000 C 
ATOM     18  C   UNL     1      -1.502  -3.507  -1.423  0.00  0.00    +0.000 C 
ENDBRANCH  16  17
ENDBRANCH  15  16
ENDBRANCH  12  15
ENDBRANCH  11  12
BRANCH  11  19
ATOM     19  O   UNL     1       5.051  -1.834  -0.679  0.00  0.00    +0.000 OA
ATOM     20  H   UNL     1       5.303  -1.152  -1.325  0.00  0.00    +0.000 HD
ENDBRANCH  11  19
ENDBRANCH  10  11
ENDBRANCH   2   9
BRANCH   3  21
ATOM     21  C   UNL     1       0.184   1.774   1.160  0.00  0.00    +0.000 C 
BRANCH  21  22
ATOM     22  C   UNL     1      -1.343   1.662   1.141  0.00  0.00    +0.000 C 
BRANCH  22  23
ATOM     23  C   UNL     1      -1.932   1.209   2.481  0.00  0.00    +0.000 C 
BRANCH  23  24
ATOM     24  C   UNL     1      -3.461   1.108   2.459  0.00  0.00    +0.000 C 
BRANCH  24  25
ATOM     25  C   UNL     1      -3.969   0.081   1.487  0.00  0.00    +0.000 C 
ATOM     26  C   UNL     1      -4.778   0.377   0.461  0.00  0.00    +0.000 C 
BRANCH  26  28
ATOM     27  O   UNL     1      -4.937  -1.875  -0.361  0.00  0.00    +0.000 OA
ATOM     28  C   UNL     1      -5.235  -0.694  -0.451  0.00  0.00    +0.000 C 
BRANCH  28  29
ATOM     29  O   UNL     1      -6.033  -0.121  -1.392  0.00  0.00    +0.000 OA
ATOM     30  C   UNL     1      -6.570  -1.017  -2.370  0.00  0.00    +0.000 C 
ENDBRANCH  28  29
ENDBRANCH  26  28
ENDBRANCH  24  25
ENDBRANCH  23  24
ENDBRANCH  22  23
ENDBRANCH  21  22
ENDBRANCH   3  21
TORSDOF 15
