REMARK  Name = 6438378
REMARK  18 active torsions:
REMARK  status: ('A' for Active; 'I' for Inactive)
REMARK    1  A    between atoms: O_1  and  C_8
REMARK    2  A    between atoms: O_3  and  C_16
REMARK    3  A    between atoms: O_4  and  C_27
REMARK    4  A    between atoms: C_6  and  C_10
REMARK    5  A    between atoms: C_7  and  C_12
REMARK    6  A    between atoms: C_10  and  C_13
REMARK    7  A    between atoms: C_13  and  C_15
REMARK    8  A    between atoms: C_14  and  C_16
REMARK    9  A    between atoms: C_15  and  C_20
REMARK   10  A    between atoms: C_16  and  C_17
REMARK   11  A    between atoms: C_17  and  C_18
REMARK   12  A    between atoms: C_18  and  C_19
REMARK   13  A    between atoms: C_18  and  C_22
REMARK   14  A    between atoms: C_19  and  C_21
REMARK   15  A    between atoms: C_20  and  C_24
REMARK   16  A    between atoms: C_21  and  C_23
REMARK   17  A    between atoms: C_23  and  C_25
REMARK   18  A    between atoms: C_26  and  C_27
REMARK                            x       y       z     vdW  Elec       q    Type
REMARK                         _______ _______ _______ _____ _____    ______ ____
ROOT
ATOM      1  O   UNL     1       2.023   4.370  -0.124  0.00  0.00    +0.000 OA
ATOM      2  C   UNL     1       2.200   1.959  -0.343  0.00  0.00    +0.000 C 
ATOM      3  C   UNL     1       3.346   1.112   0.231  0.00  0.00    +0.000 C 
ATOM      4  C   UNL     1       4.603   1.935  -0.083  0.00  0.00    +0.000 C 
ATOM      5  C   UNL     1       4.195   3.379   0.198  0.00  0.00    +0.000 C 
ATOM      6  C   UNL     1       2.716   3.361  -0.090  0.00  0.00    +0.000 C 
ENDROOT
BRANCH   4   7
ATOM      7  O   UNL     1       5.668   1.543   0.769  0.00  0.00    +0.000 OA
ATOM      8  H   UNL     1       6.415   2.140   0.594  0.00  0.00    +0.000 HD
ENDBRANCH   4   7
BRANCH   3   9
ATOM      9  C   UNL     1       3.391  -0.265  -0.352  0.00  0.00    +0.000 C 
ATOM     10  C   UNL     1       3.308  -1.385   0.382  0.00  0.00    +0.000 C 
BRANCH  10  11
ATOM     11  C   UNL     1       3.337  -2.809  -0.116  0.00  0.00    +0.000 C 
BRANCH  11  12
ATOM     12  O   UNL     1       4.527  -3.420   0.384  0.00  0.00    +0.000 OA
ATOM     13  H   UNL     1       4.585  -4.311  -0.001  0.00  0.00    +0.000 HD
ENDBRANCH  11  12
BRANCH  11  14
ATOM     14  C   UNL     1       2.129  -3.693   0.243  0.00  0.00    +0.000 C 
BRANCH  14  15
ATOM     15  C   UNL     1       0.765  -3.186  -0.288  0.00  0.00    +0.000 C 
ATOM     16  C   UNL     1       0.836  -3.095  -1.818  0.00  0.00    +0.000 C 
BRANCH  15  17
ATOM     17  C   UNL     1      -0.400  -4.084   0.178  0.00  0.00    +0.000 C 
BRANCH  17  18
ATOM     18  C   UNL     1      -1.773  -3.405   0.094  0.00  0.00    +0.000 C 
BRANCH  18  19
ATOM     19  C   UNL     1      -2.926  -4.327   0.501  0.00  0.00    +0.000 C 
ATOM     20  C   UNL     1      -4.296  -3.684   0.353  0.00  0.00    +0.000 C 
ENDBRANCH  18  19
ENDBRANCH  17  18
ENDBRANCH  15  17
ENDBRANCH  14  15
ENDBRANCH  11  14
ENDBRANCH  10  11
ENDBRANCH   3   9
BRANCH   2  21
ATOM     21  C   UNL     1       0.864   1.700   0.332  0.00  0.00    +0.000 C 
BRANCH  21  22
ATOM     22  C   UNL     1      -0.337   2.200  -0.476  0.00  0.00    +0.000 C 
BRANCH  22  23
ATOM     23  C   UNL     1      -1.678   1.960   0.222  0.00  0.00    +0.000 C 
BRANCH  23  24
ATOM     24  C   UNL     1      -2.842   2.490  -0.620  0.00  0.00    +0.000 C 
BRANCH  24  25
ATOM     25  C   UNL     1      -4.162   2.222   0.045  0.00  0.00    +0.000 C 
ATOM     26  C   UNL     1      -5.147   1.521  -0.531  0.00  0.00    +0.000 C 
BRANCH  26  28
ATOM     27  O   UNL     1      -6.689   1.714   1.308  0.00  0.00    +0.000 OA
ATOM     28  C   UNL     1      -6.415   1.308   0.191  0.00  0.00    +0.000 C 
BRANCH  28  29
ATOM     29  O   UNL     1      -7.244   0.579  -0.591  0.00  0.00    +0.000 OA
ATOM     30  H   UNL     1      -8.106   0.408  -0.155  0.00  0.00    +0.000 HD
ENDBRANCH  28  29
ENDBRANCH  26  28
ENDBRANCH  24  25
ENDBRANCH  23  24
ENDBRANCH  22  23
ENDBRANCH  21  22
ENDBRANCH   2  21
TORSDOF 16
