REMARK  Name = 3343
REMARK  11 active torsions:
REMARK  status: ('A' for Active; 'I' for Inactive)
REMARK    1  A    between atoms: O_1  and  C_9
REMARK    2  A    between atoms: O_2  and  C_17
REMARK    3  A    between atoms: O_3  and  C_18
REMARK    4  A    between atoms: O_4  and  C_21
REMARK    5  A    between atoms: N_5  and  C_6
REMARK    6  A    between atoms: N_5  and  C_8
REMARK    7  A    between atoms: C_6  and  C_7
REMARK    8  A    between atoms: C_6  and  C_10
REMARK    9  A    between atoms: C_7  and  C_11
REMARK   10  A    between atoms: C_8  and  C_9
REMARK   11  A    between atoms: C_9  and  C_12
REMARK                            x       y       z     vdW  Elec       q    Type
REMARK                         _______ _______ _______ _____ _____    ______ ____
ROOT
ATOM      1  C   UNL     1      -0.947   0.365  -0.239  0.00  0.00    +0.000 C 
ENDROOT
BRANCH   1   2
ATOM      2  N   UNL     1       0.246   0.987  -0.791  0.00  0.00    +0.000 NA
ATOM      3  H   UNL     1       0.251   1.981  -0.566  0.00  0.00    +0.000 HD
BRANCH   2   4
ATOM      4  C   UNL     1       1.454   0.354  -0.252  0.00  0.00    +0.000 C 
ATOM      5  C   UNL     1       1.424  -1.130  -0.619  0.00  0.00    +0.000 C 
BRANCH   4   6
ATOM      6  C   UNL     1       2.698   1.074  -0.802  0.00  0.00    +0.000 C 
BRANCH   6   7
ATOM      7  C   UNL     1       4.000   0.521  -0.272  0.00  0.00    +0.000 A 
ATOM      8  C   UNL     1       4.541   1.052   0.887  0.00  0.00    +0.000 A 
ATOM      9  C   UNL     1       4.628  -0.507  -0.956  0.00  0.00    +0.000 A 
ATOM     10  C   UNL     1       5.743   0.541   1.376  0.00  0.00    +0.000 A 
ATOM     11  C   UNL     1       5.831  -1.018  -0.467  0.00  0.00    +0.000 A 
ATOM     12  C   UNL     1       6.388  -0.494   0.699  0.00  0.00    +0.000 A 
BRANCH  12  13
ATOM     13  O   UNL     1       7.561  -0.993   1.177  0.00  0.00    +0.000 OA
ATOM     14  H   UNL     1       7.799  -0.514   1.989  0.00  0.00    +0.000 HD
ENDBRANCH  12  13
ENDBRANCH   6   7
ENDBRANCH   4   6
ENDBRANCH   2   4
ENDBRANCH   1   2
BRANCH   1  15
ATOM     15  C   UNL     1      -2.214   1.025  -0.798  0.00  0.00    +0.000 C 
BRANCH  15  16
ATOM     16  C   UNL     1      -3.465   0.389  -0.233  0.00  0.00    +0.000 A 
ATOM     17  C   UNL     1      -4.378   1.179   0.445  0.00  0.00    +0.000 A 
ATOM     18  C   UNL     1      -3.670  -0.969  -0.406  0.00  0.00    +0.000 A 
ATOM     19  C   UNL     1      -4.823  -1.556   0.115  0.00  0.00    +0.000 A 
ATOM     20  C   UNL     1      -5.531   0.592   0.965  0.00  0.00    +0.000 A 
ATOM     21  C   UNL     1      -5.754  -0.775   0.801  0.00  0.00    +0.000 A 
BRANCH  19  22
ATOM     22  O   UNL     1      -5.041  -2.889  -0.046  0.00  0.00    +0.000 OA
ATOM     23  H   UNL     1      -4.297  -3.273  -0.542  0.00  0.00    +0.000 HD
ENDBRANCH  19  22
BRANCH  20  24
ATOM     24  O   UNL     1      -6.440   1.354   1.634  0.00  0.00    +0.000 OA
ATOM     25  H   UNL     1      -7.175   0.787   1.924  0.00  0.00    +0.000 HD
ENDBRANCH  20  24
ENDBRANCH  15  16
BRANCH  15  26
ATOM     26  O   UNL     1      -2.251   0.898  -2.218  0.00  0.00    +0.000 OA
ATOM     27  H   UNL     1      -1.424   1.274  -2.565  0.00  0.00    +0.000 HD
ENDBRANCH  15  26
ENDBRANCH   1  15
TORSDOF 10
