REMARK  Name = 441145
REMARK  23 active torsions:
REMARK  status: ('A' for Active; 'I' for Inactive)
REMARK    1  A    between atoms: O_6  and  C_30
REMARK    2  A    between atoms: O_7  and  C_37
REMARK    3  A    between atoms: O_8  and  C_39
REMARK    4  A    between atoms: O_8  and  C_47
REMARK    5  A    between atoms: O_9  and  C_43
REMARK    6  A    between atoms: O_10  and  C_46
REMARK    7  A    between atoms: C_12  and  C_15
REMARK    8  A    between atoms: C_12  and  C_24
REMARK    9  A    between atoms: C_13  and  C_14
REMARK   10  A    between atoms: C_13  and  C_28
REMARK   11  A    between atoms: C_19  and  C_32
REMARK   12  A    between atoms: C_22  and  C_26
REMARK   13  A    between atoms: C_24  and  C_35
REMARK   14  A    between atoms: C_27  and  C_33
REMARK   15  A    between atoms: C_29  and  C_38
REMARK   16  A    between atoms: C_31  and  C_40
REMARK   17  A    between atoms: C_33  and  C_39
REMARK   18  A    between atoms: C_33  and  C_41
REMARK   19  A    between atoms: C_36  and  C_42
REMARK   20  A    between atoms: C_37  and  C_43
REMARK   21  A    between atoms: C_39  and  C_44
REMARK   22  A    between atoms: C_44  and  C_45
REMARK   23  A    between atoms: C_44  and  C_46
REMARK                            x       y       z     vdW  Elec       q    Type
REMARK                         _______ _______ _______ _____ _____    ______ ____
ROOT
ATOM      1  O   UNL     1       0.332  -3.232   0.913  0.00  0.00    +0.000 OA
ATOM      2  C   UNL     1       1.703  -3.054   0.499  0.00  0.00    +0.000 C 
ATOM      3  C   UNL     1      -0.434  -3.707  -0.206  0.00  0.00    +0.000 C 
ATOM      4  C   UNL     1       1.796  -3.603  -0.925  0.00  0.00    +0.000 C 
ATOM      5  C   UNL     1       0.391  -3.410  -1.445  0.00  0.00    +0.000 C 
ENDROOT
BRANCH   3   8
ATOM      6  O   UNL     1      -1.587  -1.637  -0.464  0.00  0.00    +0.000 OA
ATOM      7  O   UNL     1      -3.574  -0.760  -1.441  0.00  0.00    +0.000 OA
ATOM      8  C   UNL     1      -1.796  -3.041  -0.214  0.00  0.00    +0.000 C 
ATOM      9  C   UNL     1      -2.252  -1.264  -1.686  0.00  0.00    +0.000 C 
ATOM     10  C   UNL     1      -2.676  -3.559  -1.352  0.00  0.00    +0.000 C 
ATOM     11  C   UNL     1      -2.395  -2.570  -2.462  0.00  0.00    +0.000 C 
ATOM     12  C   UNL     1      -1.415  -0.239  -2.461  0.00  0.00    +0.000 C 
ATOM     13  C   UNL     1      -3.593   0.461  -0.695  0.00  0.00    +0.000 C 
ATOM     14  C   UNL     1      -2.471  -3.197   1.146  0.00  0.00    +0.000 C 
ATOM     15  C   UNL     1      -2.879   1.587  -1.473  0.00  0.00    +0.000 C 
ATOM     16  C   UNL     1      -1.442   1.145  -1.805  0.00  0.00    +0.000 C 
ATOM     17  C   UNL     1      -3.621   1.989  -2.754  0.00  0.00    +0.000 C 
BRANCH  16  18
ATOM     18  O   UNL     1      -0.667   1.093  -0.606  0.00  0.00    +0.000 OA
ATOM     19  H   UNL     1      -0.665   1.985  -0.219  0.00  0.00    +0.000 HD
ENDBRANCH  16  18
BRANCH  13  20
ATOM     20  C   UNL     1      -5.048   0.776  -0.370  0.00  0.00    +0.000 C 
ATOM     21  C   UNL     1      -5.701  -0.440   0.306  0.00  0.00    +0.000 C 
BRANCH  20  22
ATOM     22  C   UNL     1      -5.207   2.034   0.523  0.00  0.00    +0.000 C 
BRANCH  22  23
ATOM     23  O   UNL     1      -6.595   2.337   0.687  0.00  0.00    +0.000 OA
ATOM     24  C   UNL     1      -7.128   2.947  -0.478  0.00  0.00    +0.000 C 
ENDBRANCH  22  23
BRANCH  22  25
ATOM     25  C   UNL     1      -4.518   1.958   1.906  0.00  0.00    +0.000 C 
ATOM     26  C   UNL     1      -5.149   2.927   2.906  0.00  0.00    +0.000 C 
BRANCH  25  28
ATOM     27  O   UNL     1      -2.536   3.307   1.458  0.00  0.00    +0.000 OA
ATOM     28  C   UNL     1      -3.026   2.253   1.841  0.00  0.00    +0.000 C 
BRANCH  28  29
ATOM     29  O   UNL     1      -2.273   1.191   2.228  0.00  0.00    +0.000 OA
ATOM     30  H   UNL     1      -1.312   1.381   2.165  0.00  0.00    +0.000 HD
ENDBRANCH  28  29
ENDBRANCH  25  28
ENDBRANCH  22  25
ENDBRANCH  20  22
ENDBRANCH  13  20
ENDBRANCH   3   8
BRANCH   2  32
ATOM     31  O   UNL     1       3.432  -1.359   0.666  0.00  0.00    +0.000 OA
ATOM     32  C   UNL     1       2.011  -1.556   0.556  0.00  0.00    +0.000 C 
ATOM     33  C   UNL     1       1.375  -0.769   1.703  0.00  0.00    +0.000 C 
ATOM     34  C   UNL     1       3.671  -0.199   1.482  0.00  0.00    +0.000 C 
ATOM     35  C   UNL     1       2.312   0.425   1.768  0.00  0.00    +0.000 C 
ATOM     36  C   UNL     1       1.327  -1.513   3.039  0.00  0.00    +0.000 C 
BRANCH  34  38
ATOM     37  O   UNL     1       4.040   1.030  -0.510  0.00  0.00    +0.000 OA
ATOM     38  C   UNL     1       4.625   0.741   0.768  0.00  0.00    +0.000 C 
ATOM     39  C   UNL     1       4.875   2.051   1.541  0.00  0.00    +0.000 C 
ATOM     40  C   UNL     1       5.730   3.005   0.695  0.00  0.00    +0.000 C 
ATOM     41  C   UNL     1       5.110   3.210  -0.696  0.00  0.00    +0.000 C 
ATOM     42  C   UNL     1       4.849   1.843  -1.373  0.00  0.00    +0.000 C 
ATOM     43  C   UNL     1       5.538   1.819   2.898  0.00  0.00    +0.000 C 
ATOM     44  C   UNL     1       6.003   4.143  -1.519  0.00  0.00    +0.000 C 
BRANCH  42  45
ATOM     45  O   UNL     1       6.094   1.209  -1.676  0.00  0.00    +0.000 OA
ATOM     46  H   UNL     1       5.949   0.595  -2.415  0.00  0.00    +0.000 HD
ENDBRANCH  42  45
BRANCH  42  47
ATOM     47  C   UNL     1       4.057   2.003  -2.673  0.00  0.00    +0.000 C 
BRANCH  47  48
ATOM     48  O   UNL     1       3.866   0.721  -3.238  0.00  0.00    +0.000 OA
ATOM     49  H   UNL     1       3.355   0.840  -4.057  0.00  0.00    +0.000 HD
ENDBRANCH  47  48
ENDBRANCH  42  47
ENDBRANCH  34  38
ENDBRANCH   2  32
BRANCH   2  50
ATOM     50  C   UNL     1       2.607  -3.815   1.464  0.00  0.00    +0.000 C 
ATOM     51  C   UNL     1       2.238  -5.286   1.526  0.00  0.00    +0.000 C 
ENDBRANCH   2  50
TORSDOF 14
