REMARK  Name = 9832912
REMARK  13 active torsions:
REMARK  status: ('A' for Active; 'I' for Inactive)
REMARK    1  A    between atoms: O_5  and  C_11
REMARK    2  A    between atoms: O_6  and  C_19
REMARK    3  A    between atoms: O_8  and  N_9
REMARK    4  A    between atoms: O_8  and  C_46
REMARK    5  A    between atoms: C_21  and  C_29
REMARK    6  A    between atoms: C_22  and  C_30
REMARK    7  A    between atoms: C_25  and  C_32
REMARK    8  A    between atoms: C_29  and  C_35
REMARK    9  A    between atoms: C_34  and  C_40
REMARK   10  A    between atoms: C_37  and  C_42
REMARK   11  A    between atoms: C_39  and  C_43
REMARK   12  A    between atoms: C_40  and  C_44
REMARK   13  A    between atoms: C_40  and  C_45
REMARK                            x       y       z     vdW  Elec       q    Type
REMARK                         _______ _______ _______ _____ _____    ______ ____
ROOT
ATOM      1  O   UNL     1       2.283   0.496   1.393  0.00  0.00    +0.000 OA
ATOM      2  O   UNL     1       2.741  -1.342  -0.101  0.00  0.00    +0.000 OA
ATOM      3  O   UNL     1      -6.153  -0.377   0.943  0.00  0.00    +0.000 OA
ATOM      4  O   UNL     1      -1.518  -0.720   0.389  0.00  0.00    +0.000 OA
ATOM      5  O   UNL     1      -1.671  -2.497  -1.074  0.00  0.00    +0.000 OA
ATOM      6  N   UNL     1       5.116  -1.077   3.142  0.00  0.00    +0.000 NA
ATOM      7  C   UNL     1       2.180  -0.917   1.153  0.00  0.00    +0.000 C 
ATOM      8  C   UNL     1      -4.454  -0.663  -0.625  0.00  0.00    +0.000 C 
ATOM      9  C   UNL     1      -5.952  -0.839  -0.406  0.00  0.00    +0.000 C 
ATOM     10  C   UNL     1       0.695  -1.316   1.159  0.00  0.00    +0.000 C 
ATOM     11  C   UNL     1      -0.112  -0.504   0.148  0.00  0.00    +0.000 C 
ATOM     12  C   UNL     1      -3.632  -1.712   0.172  0.00  0.00    +0.000 C 
ATOM     13  C   UNL     1       0.145   0.988   0.346  0.00  0.00    +0.000 C 
ATOM     14  C   UNL     1       1.635   1.312   0.408  0.00  0.00    +0.000 C 
ATOM     15  C   UNL     1       2.883  -1.643   2.308  0.00  0.00    +0.000 C 
ATOM     16  C   UNL     1      -6.446  -2.272  -0.642  0.00  0.00    +0.000 C 
ATOM     17  C   UNL     1      -4.296   0.703  -0.006  0.00  0.00    +0.000 C 
ATOM     18  C   UNL     1       4.142  -1.066  -0.243  0.00  0.00    +0.000 C 
ATOM     19  C   UNL     1       4.957  -1.843   0.805  0.00  0.00    +0.000 C 
ATOM     20  C   UNL     1       4.377  -1.479   2.160  0.00  0.00    +0.000 C 
ATOM     21  C   UNL     1      -4.209  -3.098   0.110  0.00  0.00    +0.000 C 
ATOM     22  C   UNL     1      -5.480  -3.363  -0.241  0.00  0.00    +0.000 C 
ATOM     23  C   UNL     1      -5.319   0.799   1.089  0.00  0.00    +0.000 C 
ATOM     24  C   UNL     1      -2.167  -1.726  -0.265  0.00  0.00    +0.000 C 
ATOM     25  C   UNL     1       1.878   2.778   0.806  0.00  0.00    +0.000 C 
ATOM     26  C   UNL     1       6.456  -1.569   0.713  0.00  0.00    +0.000 C 
ATOM     27  C   UNL     1      -3.434   1.644  -0.417  0.00  0.00    +0.000 C 
ATOM     28  C   UNL     1      -5.991  -4.775  -0.299  0.00  0.00    +0.000 C 
ATOM     29  C   UNL     1       1.568   3.758  -0.292  0.00  0.00    +0.000 C 
ATOM     30  C   UNL     1      -3.186   2.911   0.230  0.00  0.00    +0.000 C 
ATOM     31  C   UNL     1       0.651   4.747  -0.332  0.00  0.00    +0.000 C 
ATOM     32  C   UNL     1      -0.341   5.069   0.776  0.00  0.00    +0.000 C 
ATOM     33  C   UNL     1      -1.862   5.048   0.454  0.00  0.00    +0.000 C 
ATOM     34  C   UNL     1      -2.277   3.779  -0.244  0.00  0.00    +0.000 C 
ATOM     35  C   UNL     1       0.639   5.660  -1.531  0.00  0.00    +0.000 C 
ATOM     36  C   UNL     1      -2.342   6.272  -0.328  0.00  0.00    +0.000 C 
ENDROOT
BRANCH  18  37
ATOM     37  C   UNL     1       4.502  -1.436  -1.646  0.00  0.00    +0.000 C 
ATOM     38  C   UNL     1       4.949  -0.587  -2.592  0.00  0.00    +0.000 C 
ATOM     39  C   UNL     1       4.327  -2.899  -1.961  0.00  0.00    +0.000 C 
BRANCH  38  40
ATOM     40  C   UNL     1       5.328  -0.894  -4.021  0.00  0.00    +0.000 C 
ATOM     41  C   UNL     1       6.808  -1.274  -4.098  0.00  0.00    +0.000 C 
ATOM     42  C   UNL     1       5.040   0.317  -4.910  0.00  0.00    +0.000 C 
ENDBRANCH  38  40
ENDBRANCH  18  37
BRANCH   8  43
ATOM     43  O   UNL     1      -4.151  -0.681  -2.009  0.00  0.00    +0.000 OA
ATOM     44  H   UNL     1      -4.688  -0.002  -2.452  0.00  0.00    +0.000 HD
ENDBRANCH   8  43
BRANCH  16  45
ATOM     45  O   UNL     1      -7.706  -2.442   0.003  0.00  0.00    +0.000 OA
ATOM     46  H   UNL     1      -8.303  -1.751  -0.332  0.00  0.00    +0.000 HD
ENDBRANCH  16  45
BRANCH   6  47
ATOM     47  O   UNL     1       4.290  -0.855   4.251  0.00  0.00    +0.000 OA
ATOM     48  C   UNL     1       5.108  -0.414   5.324  0.00  0.00    +0.000 C 
ENDBRANCH   6  47
TORSDOF 5
