REMARK  Name = 
REMARK  18 active torsions:
REMARK  status: ('A' for Active; 'I' for Inactive)
REMARK    1  A    between atoms: C_1  and  C_2
REMARK    2  A    between atoms: C_2  and  C_3
REMARK    3  A    between atoms: C_3  and  C_4
REMARK    4  A    between atoms: C_4  and  C_5
REMARK    5  A    between atoms: C_5  and  C_6
REMARK    6  A    between atoms: C_6  and  C_7
REMARK    7  A    between atoms: C_6  and  O_8
REMARK    8  A    between atoms: C_6  and  C_9
REMARK    9  A    between atoms: C_10  and  C_11
REMARK   10  A    between atoms: C_12  and  O_13
REMARK   11  A    between atoms: C_15  and  O_16
REMARK   12  A    between atoms: C_17  and  C_18
REMARK   13  A    between atoms: C_18  and  C_19
REMARK   14  A    between atoms: C_21  and  C_22
REMARK   15  A    between atoms: C_22  and  C_23
REMARK   16  A    between atoms: C_23  and  C_24
REMARK   17  A    between atoms: C_24  and  O_26
REMARK   18  A    between atoms: O_26  and  C_27
REMARK                            x       y       z     vdW  Elec       q    Type
REMARK                         _______ _______ _______ _____ _____    ______ ____
ROOT
ATOM      1  C   UNL     1       1.252  -1.831  -0.557  0.00  0.00    +0.000 C 
ATOM      2  C   UNL     1       0.925  -1.571   1.085  0.00  0.00    +0.000 C 
ATOM      3  C   UNL     1      -0.699  -1.501   0.979  0.00  0.00    +0.000 C 
ATOM      4  C   UNL     1      -0.391  -0.139   0.129  0.00  0.00    +0.000 C 
ATOM      5  C   UNL     1      -0.100  -1.116  -1.224  0.00  0.00    +0.000 C 
ENDROOT
BRANCH   1   7
ATOM      6  C   UNL     1       2.686   0.089   0.230  0.00  0.00    +0.000 C 
ATOM      7  C   UNL     1       2.084  -0.484  -0.731  0.00  0.00    +0.000 C 
BRANCH   6   8
ATOM      8  C   UNL     1       4.070   0.563   0.398  0.00  0.00    +0.000 C 
ATOM      9  C   UNL     1       4.919   0.496  -0.814  0.00  0.00    +0.000 C 
BRANCH   8  10
ATOM     10  O   UNL     1       4.647  -0.288   1.359  0.00  0.00    +0.000 OA
ATOM     11  H   UNL     1       5.567  -0.024   1.514  0.00  0.00    +0.000 HD
ENDBRANCH   8  10
BRANCH   8  12
ATOM     12  C   UNL     1       3.955   1.902   1.053  0.00  0.00    +0.000 C 
BRANCH  12  13
ATOM     13  C   UNL     1       5.079   2.840   0.818  0.00  0.00    +0.000 C 
BRANCH  13  14
ATOM     14  C   UNL     1       5.176   3.197  -0.661  0.00  0.00    +0.000 C 
BRANCH  14  16
ATOM     15  C   UNL     1       7.043   4.846  -0.641  0.00  0.00    +0.000 C 
ATOM     16  C   UNL     1       6.643   3.460  -0.917  0.00  0.00    +0.000 C 
ENDBRANCH  14  16
ENDBRANCH  13  14
ENDBRANCH  12  13
ENDBRANCH   8  12
ENDBRANCH   6   8
ENDBRANCH   1   7
BRANCH   2  17
ATOM     17  O   UNL     1       0.906  -3.069   1.335  0.00  0.00    +0.000 OA
ATOM     18  H   UNL     1       0.342  -3.500   0.675  0.00  0.00    +0.000 HD
ENDBRANCH   2  17
BRANCH   4  19
ATOM     19  O   UNL     1      -1.835   0.058  -0.274  0.00  0.00    +0.000 OA
ATOM     20  H   UNL     1      -2.212  -0.791  -0.554  0.00  0.00    +0.000 HD
ENDBRANCH   4  19
BRANCH   5  21
ATOM     21  C   UNL     1      -1.065  -2.360  -0.895  0.00  0.00    +0.000 C 
BRANCH  21  22
ATOM     22  C   UNL     1      -2.266  -2.348  -1.678  0.00  0.00    +0.000 C 
ATOM     23  C   UNL     1      -3.322  -2.777  -1.008  0.00  0.00    +0.000 C 
ATOM     24  C   UNL     1      -4.368  -2.826  -0.207  0.00  0.00    +0.000 C 
BRANCH  24  25
ATOM     25  C   UNL     1      -5.255  -1.685  -0.290  0.00  0.00    +0.000 C 
BRANCH  25  26
ATOM     26  C   UNL     1      -5.193  -0.659   0.768  0.00  0.00    +0.000 C 
BRANCH  26  27
ATOM     27  C   UNL     1      -5.661   0.634   0.177  0.00  0.00    +0.000 C 
ATOM     28  O   UNL     1      -4.945   1.652   0.417  0.00  0.00    +0.000 OA
BRANCH  27  29
ATOM     29  O   UNL     1      -6.870   0.799  -0.459  0.00  0.00    +0.000 OA
ATOM     30  C   UNL     1      -7.414   2.118  -0.472  0.00  0.00    +0.000 C 
ENDBRANCH  27  29
ENDBRANCH  26  27
ENDBRANCH  25  26
ENDBRANCH  24  25
ENDBRANCH  21  22
ENDBRANCH   5  21
TORSDOF 15
