REMARK  Name = 
REMARK  13 active torsions:
REMARK  status: ('A' for Active; 'I' for Inactive)
REMARK    1  A    between atoms: C_1  and  O_2
REMARK    2  A    between atoms: O_2  and  C_3
REMARK    3  A    between atoms: C_5  and  O_6
REMARK    4  A    between atoms: O_6  and  C_7
REMARK    5  A    between atoms: C_8  and  C_9
REMARK    6  A    between atoms: C_19  and  C_20
REMARK    7  A    between atoms: C_21  and  C_22
REMARK    8  A    between atoms: C_35  and  C_36
REMARK    9  A    between atoms: N_38  and  O_39
REMARK   10  A    between atoms: C_47  and  C_48
REMARK   11  A    between atoms: C_49  and  O_50
REMARK   12  A    between atoms: C_52  and  C_53
REMARK   13  A    between atoms: C_54  and  O_55
REMARK                            x       y       z     vdW  Elec       q    Type
REMARK                         _______ _______ _______ _____ _____    ______ ____
ROOT
ATOM      1  C   UNL     1       3.458  -0.802  -0.296  0.00  0.00    +0.000 C 
ATOM      2  C   UNL     1       2.020  -0.629  -0.993  0.00  0.00    +0.000 C 
ATOM      3  C   UNL     1       1.394   0.191   0.133  0.00  0.00    +0.000 C 
ATOM      4  C   UNL     1       1.169  -1.673  -0.953  0.00  0.00    +0.000 C 
ATOM      5  C   UNL     1       0.175  -2.308  -1.615  0.00  0.00    +0.000 C 
ATOM      6  C   UNL     1      -1.336  -1.663  -1.649  0.00  0.00    +0.000 C 
ATOM      7  C   UNL     1      -0.789  -0.167  -1.998  0.00  0.00    +0.000 C 
ATOM      8  C   UNL     1      -1.920   0.915  -1.495  0.00  0.00    +0.000 C 
ATOM      9  C   UNL     1      -3.069  -0.249  -1.346  0.00  0.00    +0.000 C 
ATOM     10  C   UNL     1      -2.805  -1.087  -0.152  0.00  0.00    +0.000 C 
ATOM     11  C   UNL     1      -3.271  -0.438   1.134  0.00  0.00    +0.000 C 
ATOM     12  C   UNL     1      -4.556   0.267   0.712  0.00  0.00    +0.000 C 
ATOM     13  C   UNL     1      -5.355  -0.749  -0.264  0.00  0.00    +0.000 C 
ATOM     14  C   UNL     1      -6.715  -0.598   0.600  0.00  0.00    +0.000 C 
ATOM     15  C   UNL     1      -4.793  -2.107   0.604  0.00  0.00    +0.000 C 
ATOM     16  O   UNL     1      -3.550  -2.218  -0.250  0.00  0.00    +0.000 OA
ATOM     17  O   UNL     1      -1.429  -1.406  -0.154  0.00  0.00    +0.000 OA
ATOM     18  O   UNL     1      -1.520   0.861  -0.027  0.00  0.00    +0.000 OA
ATOM     19  C   UNL     1      -0.434   1.647   0.146  0.00  0.00    +0.000 C 
ATOM     20  O   UNL     1       0.022   1.303   1.280  0.00  0.00    +0.000 OA
ATOM     21  C   UNL     1      -0.885   3.141   0.468  0.00  0.00    +0.000 C 
ATOM     22  C   UNL     1      -1.962   3.408  -0.719  0.00  0.00    +0.000 C 
ATOM     23  C   UNL     1      -2.436   4.616  -0.347  0.00  0.00    +0.000 C 
ATOM     24  C   UNL     1      -3.823   5.048  -0.317  0.00  0.00    +0.000 C 
ATOM     25  C   UNL     1      -1.469   5.342   0.491  0.00  0.00    +0.000 C 
ATOM     26  N   UNL     1      -1.716   6.289   1.274  0.00  0.00    +0.000 NA
ATOM     27  C   UNL     1      -0.109   5.446  -0.380  0.00  0.00    +0.000 C 
ATOM     28  O   UNL     1       0.737   5.776   0.841  0.00  0.00    +0.000 OA
ATOM     29  C   UNL     1       1.881   5.399   0.109  0.00  0.00    +0.000 C 
ATOM     30  C   UNL     1       1.607   3.899   0.282  0.00  0.00    +0.000 C 
ATOM     31  C   UNL     1       2.274   3.399   1.295  0.00  0.00    +0.000 C 
ATOM     32  C   UNL     1       3.450   2.507   1.135  0.00  0.00    +0.000 C 
ATOM     33  C   UNL     1       3.291   1.502   0.521  0.00  0.00    +0.000 C 
ATOM     34  C   UNL     1       4.095   0.763  -0.627  0.00  0.00    +0.000 C 
ATOM     35  C   UNL     1       3.067   1.255  -1.784  0.00  0.00    +0.000 C 
ATOM     36  C   UNL     1       0.338   3.855  -0.320  0.00  0.00    +0.000 C 
ENDROOT
BRANCH  15  37
ATOM     37  C   UNL     1      -5.560  -3.174  -0.378  0.00  0.00    +0.000 C 
ATOM     38  C   UNL     1      -4.858  -4.425   0.143  0.00  0.00    +0.000 C 
ATOM     39  C   UNL     1      -5.626  -5.672  -0.051  0.00  0.00    +0.000 C 
ATOM     40  C   UNL     1      -7.073  -5.582   0.346  0.00  0.00    +0.000 C 
ATOM     41  C   UNL     1      -7.666  -4.430  -0.435  0.00  0.00    +0.000 C 
ATOM     42  C   UNL     1      -7.009  -3.143  -0.053  0.00  0.00    +0.000 C 
ENDBRANCH  15  37
BRANCH  26  43
ATOM     43  O   UNL     1      -0.664   6.653   2.099  0.00  0.00    +0.000 OA
ATOM     44  H   UNL     1      -0.771   7.353   2.712  0.00  0.00    +0.000 HD
ENDBRANCH  26  43
BRANCH  36  45
ATOM     45  O   UNL     1       0.272   3.559  -1.652  0.00  0.00    +0.000 OA
ATOM     46  H   UNL     1       0.513   2.629  -1.788  0.00  0.00    +0.000 HD
ENDBRANCH  36  45
BRANCH   1  47
ATOM     47  O   UNL     1       4.241  -1.500  -1.427  0.00  0.00    +0.000 OA
BRANCH  47  50
ATOM     48  C   UNL     1       6.795  -3.756   0.093  0.00  0.00    +0.000 C 
ATOM     49  C   UNL     1       5.489  -3.535  -0.834  0.00  0.00    +0.000 C 
ATOM     50  C   UNL     1       4.441  -2.473  -0.238  0.00  0.00    +0.000 C 
ATOM     51  O   UNL     1       5.652  -1.635   0.191  0.00  0.00    +0.000 OA
ATOM     52  C   UNL     1       5.517  -1.975   1.647  0.00  0.00    +0.000 C 
ATOM     53  C   UNL     1       4.217  -2.999   1.638  0.00  0.00    +0.000 C 
ATOM     54  C   UNL     1       6.470  -3.381   1.721  0.00  0.00    +0.000 C 
BRANCH  48  56
ATOM     55  C   UNL     1       6.409  -5.637   0.738  0.00  0.00    +0.000 C 
ATOM     56  O   UNL     1       6.240  -5.156   0.433  0.00  0.00    +0.000 OA
ENDBRANCH  48  56
BRANCH  54  57
ATOM     57  O   UNL     1       7.678  -2.476   1.833  0.00  0.00    +0.000 OA
ATOM     58  H   UNL     1       7.665  -1.828   1.112  0.00  0.00    +0.000 HD
ENDBRANCH  54  57
ENDBRANCH  47  50
ENDBRANCH   1  47
TORSDOF 7
