REMARK  Name = 
REMARK  37 active torsions:
REMARK  status: ('A' for Active; 'I' for Inactive)
REMARK    1  A    between atoms: O_1  and  C_21
REMARK    2  A    between atoms: O_1  and  C_27
REMARK    3  A    between atoms: O_3  and  C_24
REMARK    4  A    between atoms: O_3  and  C_31
REMARK    5  A    between atoms: O_5  and  C_28
REMARK    6  A    between atoms: O_5  and  C_37
REMARK    7  A    between atoms: O_6  and  C_23
REMARK    8  A    between atoms: O_7  and  C_25
REMARK    9  A    between atoms: O_9  and  C_36
REMARK   10  A    between atoms: O_9  and  C_57
REMARK   11  A    between atoms: O_10  and  C_43
REMARK   12  A    between atoms: O_10  and  C_56
REMARK   13  A    between atoms: O_11  and  C_41
REMARK   14  A    between atoms: O_11  and  C_67
REMARK   15  A    between atoms: O_12  and  C_42
REMARK   16  A    between atoms: O_12  and  C_68
REMARK   17  A    between atoms: O_15  and  C_45
REMARK   18  A    between atoms: N_20  and  C_22
REMARK   19  A    between atoms: N_20  and  C_39
REMARK   20  A    between atoms: N_20  and  C_40
REMARK   21  A    between atoms: C_25  and  C_34
REMARK   22  A    between atoms: C_26  and  C_35
REMARK   23  A    between atoms: C_30  and  C_38
REMARK   24  A    between atoms: C_32  and  C_49
REMARK   25  A    between atoms: C_33  and  C_46
REMARK   26  A    between atoms: C_37  and  C_51
REMARK   27  A    between atoms: C_46  and  C_58
REMARK   28  A    between atoms: C_47  and  C_60
REMARK   29  A    between atoms: C_50  and  C_63
REMARK   30  A    between atoms: C_51  and  C_59
REMARK   31  A    between atoms: C_53  and  C_56
REMARK   32  A    between atoms: C_54  and  C_65
REMARK   33  A    between atoms: C_57  and  C_69
REMARK   34  A    between atoms: C_59  and  C_70
REMARK   35  A    between atoms: C_59  and  C_71
REMARK   36  A    between atoms: C_64  and  C_72
REMARK   37  A    between atoms: C_65  and  C_73
REMARK                            x       y       z     vdW  Elec       q    Type
REMARK                         _______ _______ _______ _____ _____    ______ ____
ROOT
ATOM      1  O   UNL     1      -3.355  -0.990   0.000  0.00  0.00    +0.000 OA
ATOM      2  O   UNL     1      -2.658   0.257   0.000  0.00  0.00    +0.000 OA
ATOM      3  O   UNL     1      -1.962   3.978   0.000  0.00  0.00    +0.000 OA
ATOM      4  C   UNL     1      -0.495   0.660   0.000  0.00  0.00    +0.000 C 
ATOM      5  C   UNL     1      -1.210   0.257   0.000  0.00  0.00    +0.000 C 
ATOM      6  C   UNL     1      -0.495   1.485   0.000  0.00  0.00    +0.000 C 
ATOM      7  C   UNL     1      -1.210  -0.587   0.000  0.00  0.00    +0.000 C 
ATOM      8  C   UNL     1      -1.210   1.907   0.000  0.00  0.00    +0.000 C 
ATOM      9  C   UNL     1      -1.962  -0.990   0.000  0.00  0.00    +0.000 C 
ATOM     10  C   UNL     1      -1.907   0.660   0.000  0.00  0.00    +0.000 C 
ATOM     11  C   UNL     1      -1.210   2.732   0.000  0.00  0.00    +0.000 C 
ATOM     12  C   UNL     1      -2.658  -0.587   0.000  0.00  0.00    +0.000 C 
ATOM     13  C   UNL     1      -4.143   0.257   0.000  0.00  0.00    +0.000 C 
ATOM     14  C   UNL     1      -4.143  -0.587   0.000  0.00  0.00    +0.000 C 
ATOM     15  C   UNL     1      -1.962   3.153   0.000  0.00  0.00    +0.000 C 
ATOM     16  C   UNL     1      -3.355   0.660   0.000  0.00  0.00    +0.000 C 
ATOM     17  C   UNL     1      -2.658   2.732   0.000  0.00  0.00    +0.000 C 
ATOM     18  C   UNL     1      -0.495   3.153   0.000  0.00  0.00    +0.000 C 
ATOM     19  C   UNL     1      -3.355   1.485   0.000  0.00  0.00    +0.000 C 
ATOM     20  C   UNL     1      -2.658   1.907   0.000  0.00  0.00    +0.000 C 
ATOM     21  C   UNL     1      -4.106   1.907   0.000  0.00  0.00    +0.000 C 
ENDROOT
BRANCH  14  22
ATOM     22  C   UNL     1      -4.858  -0.990   0.000  0.00  0.00    +0.000 C 
ATOM     23  C   UNL     1      -5.555  -0.587   0.000  0.00  0.00    +0.000 C 
ENDBRANCH  14  22
BRANCH   4  24
ATOM     24  O   UNL     1       0.623   0.037   0.000  0.00  0.00    +0.000 OA
BRANCH  24  29
ATOM     25  O   UNL     1       2.035   0.037   0.000  0.00  0.00    +0.000 OA
ATOM     26  C   UNL     1       2.768  -1.192   0.000  0.00  0.00    +0.000 C 
ATOM     27  C   UNL     1       2.035  -1.650   0.000  0.00  0.00    +0.000 C 
ATOM     28  C   UNL     1       1.320  -1.192   0.000  0.00  0.00    +0.000 C 
ATOM     29  C   UNL     1       1.320  -0.367   0.000  0.00  0.00    +0.000 C 
ATOM     30  C   UNL     1       2.768  -0.367   0.000  0.00  0.00    +0.000 C 
ATOM     31  C   UNL     1       3.483   0.037   0.000  0.00  0.00    +0.000 C 
BRANCH  27  32
ATOM     32  N   UNL     1       2.035  -2.493   0.000  0.00  0.00    +0.000 NA
ATOM     33  C   UNL     1       1.320  -2.897   0.000  0.00  0.00    +0.000 C 
ATOM     34  C   UNL     1       2.732  -2.897   0.000  0.00  0.00    +0.000 C 
ENDBRANCH  27  32
BRANCH  28  35
ATOM     35  O   UNL     1       0.623  -1.650   0.000  0.00  0.00    +0.000 OA
ATOM     36  H   UNL     1      -0.244  -1.215   0.000  0.00  0.00    +0.000 HD
ENDBRANCH  28  35
BRANCH  26  37
ATOM     37  O   UNL     1       3.483  -1.650   0.000  0.00  0.00    +0.000 OA
BRANCH  37  40
ATOM     38  O   UNL     1       4.931  -1.650   0.000  0.00  0.00    +0.000 OA
ATOM     39  C   UNL     1       4.931  -3.318   0.000  0.00  0.00    +0.000 C 
ATOM     40  C   UNL     1       4.216  -2.072   0.000  0.00  0.00    +0.000 C 
ATOM     41  C   UNL     1       5.628  -2.897   0.000  0.00  0.00    +0.000 C 
ATOM     42  C   UNL     1       4.216  -2.897   0.000  0.00  0.00    +0.000 C 
ATOM     43  C   UNL     1       5.628  -2.072   0.000  0.00  0.00    +0.000 C 
ATOM     44  C   UNL     1       5.500  -3.887   0.000  0.00  0.00    +0.000 C 
ATOM     45  C   UNL     1       6.343  -1.650   0.000  0.00  0.00    +0.000 C 
BRANCH  39  46
ATOM     46  O   UNL     1       4.436  -3.978   0.000  0.00  0.00    +0.000 OA
ATOM     47  H   UNL     1       3.473  -3.862   0.000  0.00  0.00    +0.000 HD
ENDBRANCH  39  46
BRANCH  41  48
ATOM     48  O   UNL     1       6.343  -3.318   0.000  0.00  0.00    +0.000 OA
BRANCH  48  50
ATOM     49  O   UNL     1       7.058  -2.072   0.000  0.00  0.00    +0.000 OA
ATOM     50  C   UNL     1       7.058  -2.915   0.000  0.00  0.00    +0.000 C 
BRANCH  50  51
ATOM     51  C   UNL     1       7.755  -3.318   0.000  0.00  0.00    +0.000 C 
BRANCH  51  52
ATOM     52  C   UNL     1       8.470  -2.915   0.000  0.00  0.00    +0.000 C 
ATOM     53  C   UNL     1       9.166  -3.318   0.000  0.00  0.00    +0.000 C 
ATOM     54  C   UNL     1       8.433  -2.072   0.000  0.00  0.00    +0.000 C 
ENDBRANCH  51  52
ENDBRANCH  50  51
ENDBRANCH  48  50
ENDBRANCH  41  48
ENDBRANCH  37  40
ENDBRANCH  26  37
ENDBRANCH  24  29
ENDBRANCH   4  24
BRANCH   7  55
ATOM     55  O   UNL     1      -0.495  -1.008   0.000  0.00  0.00    +0.000 OA
BRANCH  55  57
ATOM     56  O   UNL     1       0.220  -2.236   0.000  0.00  0.00    +0.000 OA
ATOM     57  C   UNL     1      -0.495  -1.833   0.000  0.00  0.00    +0.000 C 
ATOM     58  C   UNL     1      -1.210  -2.255   0.000  0.00  0.00    +0.000 C 
ENDBRANCH  55  57
ENDBRANCH   7  55
BRANCH   6  59
ATOM     59  C   UNL     1       0.202   1.907   0.000  0.00  0.00    +0.000 C 
BRANCH  59  61
ATOM     60  O   UNL     1       1.613   1.907   0.000  0.00  0.00    +0.000 OA
ATOM     61  C   UNL     1       0.898   1.485   0.000  0.00  0.00    +0.000 C 
ENDBRANCH  59  61
ENDBRANCH   6  59
BRANCH  13  62
ATOM     62  C   UNL     1      -4.858   0.660   0.000  0.00  0.00    +0.000 C 
BRANCH  62  63
ATOM     63  O   UNL     1      -5.610   0.257   0.000  0.00  0.00    +0.000 OA
BRANCH  63  67
ATOM     64  O   UNL     1      -6.306   1.540   0.000  0.00  0.00    +0.000 OA
ATOM     65  C   UNL     1      -7.003   0.293   0.000  0.00  0.00    +0.000 C 
ATOM     66  C   UNL     1      -7.755   0.715   0.000  0.00  0.00    +0.000 C 
ATOM     67  C   UNL     1      -6.306   0.715   0.000  0.00  0.00    +0.000 C 
ATOM     68  C   UNL     1      -7.755   1.540   0.000  0.00  0.00    +0.000 C 
ATOM     69  C   UNL     1      -7.003   1.943   0.000  0.00  0.00    +0.000 C 
ATOM     70  C   UNL     1      -7.003   2.787   0.000  0.00  0.00    +0.000 C 
BRANCH  65  71
ATOM     71  O   UNL     1      -7.003  -0.532   0.000  0.00  0.00    +0.000 OA
ATOM     72  C   UNL     1      -7.718  -0.953   0.000  0.00  0.00    +0.000 C 
ENDBRANCH  65  71
BRANCH  66  73
ATOM     73  O   UNL     1      -8.470   0.293   0.000  0.00  0.00    +0.000 OA
ATOM     74  C   UNL     1      -9.166   0.715   0.000  0.00  0.00    +0.000 C 
ENDBRANCH  66  73
BRANCH  68  75
ATOM     75  O   UNL     1      -8.470   1.943   0.000  0.00  0.00    +0.000 OA
ATOM     76  H   UNL     1      -8.480   2.913   0.000  0.00  0.00    +0.000 HD
ENDBRANCH  68  75
ENDBRANCH  63  67
ENDBRANCH  62  63
ENDBRANCH  13  62
TORSDOF 22
