REMARK  Name = 5288674
REMARK  17 active torsions:
REMARK  status: ('A' for Active; 'I' for Inactive)
REMARK    1  A    between atoms: O_1  and  C_13
REMARK    2  A    between atoms: O_1  and  C_27
REMARK    3  A    between atoms: O_2  and  C_16
REMARK    4  A    between atoms: O_3  and  C_25
REMARK    5  A    between atoms: O_3  and  C_38
REMARK    6  A    between atoms: O_4  and  C_28
REMARK    7  A    between atoms: O_4  and  C_40
REMARK    8  A    between atoms: N_9  and  C_24
REMARK    9  A    between atoms: N_9  and  C_33
REMARK   10  A    between atoms: N_11  and  C_35
REMARK   11  A    between atoms: N_11  and  C_42
REMARK   12  A    between atoms: N_11  and  C_43
REMARK   13  A    between atoms: C_15  and  C_19
REMARK   14  A    between atoms: C_17  and  C_22
REMARK   15  A    between atoms: C_23  and  C_29
REMARK   16  A    between atoms: C_33  and  C_35
REMARK   17  A    between atoms: C_39  and  C_44
REMARK                            x       y       z     vdW  Elec       q    Type
REMARK                         _______ _______ _______ _____ _____    ______ ____
ROOT
ATOM      1  O   UNL     1       0.047   1.202  -2.370  0.00  0.00    +0.000 OA
ATOM      2  O   UNL     1      -4.343   2.680   0.110  0.00  0.00    +0.000 OA
ATOM      3  O   UNL     1       0.084   4.021   1.753  0.00  0.00    +0.000 OA
ATOM      4  N   UNL     1       0.388   2.950  -0.308  0.00  0.00    +0.000 N 
ATOM      5  C   UNL     1      -0.478  -2.782   0.510  0.00  0.00    +0.000 C 
ATOM      6  C   UNL     1      -0.557  -1.833  -0.693  0.00  0.00    +0.000 C 
ATOM      7  C   UNL     1      -1.832  -1.970  -1.557  0.00  0.00    +0.000 C 
ATOM      8  C   UNL     1       0.835  -2.600   1.310  0.00  0.00    +0.000 C 
ATOM      9  C   UNL     1       1.185  -1.157   1.771  0.00  0.00    +0.000 C 
ATOM     10  C   UNL     1      -2.022  -0.750  -2.500  0.00  0.00    +0.000 C 
ATOM     11  C   UNL     1      -1.799  -3.257  -2.386  0.00  0.00    +0.000 C 
ATOM     12  C   UNL     1      -2.156   0.558  -1.740  0.00  0.00    +0.000 C 
ATOM     13  C   UNL     1       2.567  -1.119   2.397  0.00  0.00    +0.000 C 
ATOM     14  C   UNL     1       0.179  -0.527   2.740  0.00  0.00    +0.000 C 
ATOM     15  C   UNL     1       3.751  -1.020   1.756  0.00  0.00    +0.000 C 
ATOM     16  C   UNL     1      -3.299   0.952  -1.149  0.00  0.00    +0.000 C 
ATOM     17  C   UNL     1       3.899  -0.981   0.245  0.00  0.00    +0.000 C 
ATOM     18  C   UNL     1      -0.919   1.395  -1.637  0.00  0.00    +0.000 C 
ATOM     19  C   UNL     1       4.862   0.089  -0.308  0.00  0.00    +0.000 C 
ATOM     20  C   UNL     1       5.027  -1.031   2.561  0.00  0.00    +0.000 C 
ATOM     21  C   UNL     1      -0.866   2.428  -0.568  0.00  0.00    +0.000 C 
ATOM     22  C   UNL     1      -3.302   2.188  -0.319  0.00  0.00    +0.000 C 
ATOM     23  C   UNL     1      -2.001   2.791   0.035  0.00  0.00    +0.000 C 
ATOM     24  C   UNL     1       4.561   1.544  -0.064  0.00  0.00    +0.000 C 
ATOM     25  C   UNL     1       3.399   2.106   0.307  0.00  0.00    +0.000 C 
ATOM     26  C   UNL     1       0.770   3.721   0.780  0.00  0.00    +0.000 C 
ATOM     27  C   UNL     1       2.158   4.273   0.669  0.00  0.00    +0.000 C 
ATOM     28  C   UNL     1       3.266   3.542   0.452  0.00  0.00    +0.000 C 
ATOM     29  C   UNL     1       2.229   5.766   0.847  0.00  0.00    +0.000 C 
ATOM     30  H   UNL     1       1.101   2.701  -0.989  0.00  0.00    +0.000 HD
ENDROOT
BRANCH   5  31
ATOM     31  O   UNL     1      -1.611  -2.556   1.345  0.00  0.00    +0.000 OA
ATOM     32  C   UNL     1      -1.853  -3.664   2.199  0.00  0.00    +0.000 C 
ENDBRANCH   5  31
BRANCH   8  33
ATOM     33  O   UNL     1       0.823  -3.497   2.422  0.00  0.00    +0.000 OA
ATOM     34  H   UNL     1       0.811  -4.402   2.067  0.00  0.00    +0.000 HD
ENDBRANCH   8  33
BRANCH  19  35
ATOM     35  O   UNL     1       4.926  -0.092  -1.732  0.00  0.00    +0.000 OA
ATOM     36  C   UNL     1       6.179   0.328  -2.240  0.00  0.00    +0.000 C 
ENDBRANCH  19  35
BRANCH  16  37
ATOM     37  N   UNL     1      -4.497   0.295  -1.197  0.00  0.00    +0.000 N 
ATOM     38  H   UNL     1      -4.553  -0.496  -1.830  0.00  0.00    +0.000 HD
BRANCH  37  39
ATOM     39  C   UNL     1      -5.484   0.374  -0.153  0.00  0.00    +0.000 C 
BRANCH  39  40
ATOM     40  C   UNL     1      -6.456  -0.791  -0.279  0.00  0.00    +0.000 C 
BRANCH  40  41
ATOM     41  N   UNL     1      -7.448  -0.742   0.788  0.00  0.00    +0.000 NA
ATOM     42  C   UNL     1      -8.045  -2.062   0.999  0.00  0.00    +0.000 C 
ATOM     43  C   UNL     1      -8.489   0.242   0.480  0.00  0.00    +0.000 C 
ENDBRANCH  40  41
ENDBRANCH  39  40
ENDBRANCH  37  39
ENDBRANCH  16  37
BRANCH  17  44
ATOM     44  O   UNL     1       4.410  -2.269  -0.137  0.00  0.00    +0.000 OA
BRANCH  44  47
ATOM     45  O   UNL     1       3.304  -2.099  -2.149  0.00  0.00    +0.000 OA
ATOM     46  N   UNL     1       4.577  -3.940  -1.621  0.00  0.00    +0.000 N 
ATOM     47  C   UNL     1       4.030  -2.707  -1.369  0.00  0.00    +0.000 C 
ATOM     48  H   UNL     1       4.403  -4.427  -2.494  0.00  0.00    +0.000 HD
ATOM     49  H   UNL     1       5.172  -4.403  -0.942  0.00  0.00    +0.000 HD
ENDBRANCH  44  47
ENDBRANCH  17  44
TORSDOF 9
