REMARK  Name = 12314120
REMARK  11 active torsions:
REMARK  status: ('A' for Active; 'I' for Inactive)
REMARK    1  A    between atoms: O_1  and  C_10
REMARK    2  A    between atoms: O_2  and  C_27
REMARK    3  A    between atoms: O_2  and  C_32
REMARK    4  A    between atoms: O_7  and  C_34
REMARK    5  A    between atoms: O_8  and  C_35
REMARK    6  A    between atoms: O_8  and  C_39
REMARK    7  A    between atoms: O_9  and  C_37
REMARK    8  A    between atoms: C_12  and  C_24
REMARK    9  A    between atoms: C_14  and  C_29
REMARK   10  A    between atoms: C_15  and  C_28
REMARK   11  A    between atoms: C_36  and  C_38
REMARK                            x       y       z     vdW  Elec       q    Type
REMARK                         _______ _______ _______ _____ _____    ______ ____
ROOT
ATOM      1  C   UNL     1      -3.288  -0.374  -0.128  0.00  0.00    +0.000 C 
ATOM      2  C   UNL     1      -1.948   0.121  -0.742  0.00  0.00    +0.000 C 
ATOM      3  C   UNL     1      -4.130   0.754   0.529  0.00  0.00    +0.000 C 
ATOM      4  C   UNL     1      -1.112   1.008   0.225  0.00  0.00    +0.000 C 
ATOM      5  C   UNL     1       0.209   1.525  -0.445  0.00  0.00    +0.000 C 
ATOM      6  C   UNL     1      -5.169  -0.038   1.386  0.00  0.00    +0.000 C 
ATOM      7  C   UNL     1      -3.246   1.603   1.480  0.00  0.00    +0.000 C 
ATOM      8  C   UNL     1       1.036   0.342  -1.033  0.00  0.00    +0.000 C 
ATOM      9  C   UNL     1      -1.979   2.136   0.817  0.00  0.00    +0.000 C 
ATOM     10  C   UNL     1      -3.144  -1.413   1.000  0.00  0.00    +0.000 C 
ATOM     11  C   UNL     1      -1.099  -1.048  -1.279  0.00  0.00    +0.000 C 
ATOM     12  C   UNL     1      -4.400  -1.281   1.873  0.00  0.00    +0.000 C 
ATOM     13  C   UNL     1       0.194  -0.576  -1.934  0.00  0.00    +0.000 C 
ATOM     14  C   UNL     1       1.113   2.339   0.519  0.00  0.00    +0.000 C 
ATOM     15  C   UNL     1      -4.800   1.690  -0.498  0.00  0.00    +0.000 C 
ATOM     16  C   UNL     1       1.729  -0.496   0.069  0.00  0.00    +0.000 C 
ATOM     17  C   UNL     1       1.767   1.496   1.611  0.00  0.00    +0.000 C 
ATOM     18  C   UNL     1       2.575   0.346   1.018  0.00  0.00    +0.000 C 
ENDROOT
BRANCH   6  21
ATOM     19  O   UNL     1      -8.593  -0.352  -0.063  0.00  0.00    +0.000 OA
ATOM     20  O   UNL     1      -8.546  -2.355  -1.195  0.00  0.00    +0.000 OA
ATOM     21  C   UNL     1      -6.430  -0.450   0.682  0.00  0.00    +0.000 C 
ATOM     22  C   UNL     1      -7.646   0.389   0.714  0.00  0.00    +0.000 C 
ATOM     23  C   UNL     1      -6.628  -1.557  -0.027  0.00  0.00    +0.000 C 
ATOM     24  C   UNL     1      -8.010  -1.504  -0.507  0.00  0.00    +0.000 C 
ENDBRANCH   6  21
BRANCH   1  25
ATOM     25  O   UNL     1      -4.064  -0.970  -1.179  0.00  0.00    +0.000 OA
ATOM     26  H   UNL     1      -3.672  -1.829  -1.406  0.00  0.00    +0.000 HD
ENDBRANCH   1  25
BRANCH   5  28
ATOM     27  O   UNL     1       0.148   2.290  -2.740  0.00  0.00    +0.000 OA
ATOM     28  C   UNL     1      -0.137   2.489  -1.564  0.00  0.00    +0.000 C 
ENDBRANCH   5  28
BRANCH  18  29
ATOM     29  O   UNL     1       3.696   0.858   0.300  0.00  0.00    +0.000 OA
BRANCH  29  31
ATOM     30  O   UNL     1       5.609   0.209   1.486  0.00  0.00    +0.000 OA
ATOM     31  C   UNL     1       4.797  -0.049   0.342  0.00  0.00    +0.000 C 
ATOM     32  C   UNL     1       5.610   0.117  -0.943  0.00  0.00    +0.000 C 
ATOM     33  C   UNL     1       6.846  -0.787  -0.930  0.00  0.00    +0.000 C 
ATOM     34  C   UNL     1       6.737  -0.663   1.635  0.00  0.00    +0.000 C 
ATOM     35  C   UNL     1       7.629  -0.657   0.382  0.00  0.00    +0.000 C 
ATOM     36  C   UNL     1       6.298  -2.058   2.074  0.00  0.00    +0.000 C 
BRANCH  32  37
ATOM     37  O   UNL     1       6.016   1.481  -1.056  0.00  0.00    +0.000 OA
ATOM     38  H   UNL     1       5.210   2.027  -1.035  0.00  0.00    +0.000 HD
ENDBRANCH  32  37
BRANCH  33  39
ATOM     39  O   UNL     1       6.449  -2.144  -1.101  0.00  0.00    +0.000 OA
ATOM     40  C   UNL     1       7.574  -3.006  -1.152  0.00  0.00    +0.000 C 
ENDBRANCH  33  39
BRANCH  35  41
ATOM     41  O   UNL     1       8.339   0.585   0.375  0.00  0.00    +0.000 OA
ATOM     42  H   UNL     1       8.950   0.569  -0.382  0.00  0.00    +0.000 HD
ENDBRANCH  35  41
ENDBRANCH  29  31
ENDBRANCH  18  29
TORSDOF 8
