REMARK  Name = 450510
REMARK  11 active torsions:
REMARK  status: ('A' for Active; 'I' for Inactive)
REMARK    1  A    between atoms: O_2  and  C_23
REMARK    2  A    between atoms: C_3  and  C_15
REMARK    3  A    between atoms: C_7  and  C_14
REMARK    4  A    between atoms: C_9  and  C_19
REMARK    5  A    between atoms: C_14  and  C_22
REMARK    6  A    between atoms: C_14  and  C_24
REMARK    7  A    between atoms: C_22  and  C_25
REMARK    8  A    between atoms: C_25  and  C_26
REMARK    9  A    between atoms: C_26  and  C_27
REMARK   10  A    between atoms: C_27  and  C_28
REMARK   11  A    between atoms: C_27  and  C_29
REMARK                            x       y       z     vdW  Elec       q    Type
REMARK                         _______ _______ _______ _____ _____    ______ ____
ROOT
ATOM      1  C   UNL     1      -0.911  -0.994  -0.341  0.00  0.00    +0.000 C 
ATOM      2  C   UNL     1      -0.221  -0.455   0.928  0.00  0.00    +0.000 C 
ATOM      3  C   UNL     1       1.308  -0.547   0.872  0.00  0.00    +0.000 C 
ATOM      4  C   UNL     1       1.830   0.240  -0.365  0.00  0.00    +0.000 C 
ATOM      5  C   UNL     1      -2.388  -0.808   0.083  0.00  0.00    +0.000 C 
ATOM      6  C   UNL     1      -0.464  -0.115  -1.518  0.00  0.00    +0.000 C 
ATOM      7  C   UNL     1       3.404   0.144  -0.490  0.00  0.00    +0.000 C 
ATOM      8  C   UNL     1      -0.958  -1.153   2.067  0.00  0.00    +0.000 C 
ATOM      9  C   UNL     1       1.067  -0.116  -1.671  0.00  0.00    +0.000 C 
ATOM     10  C   UNL     1      -2.407  -1.270   1.559  0.00  0.00    +0.000 C 
ATOM     11  C   UNL     1       1.934   0.013   2.158  0.00  0.00    +0.000 C 
ATOM     12  C   UNL     1      -0.600  -2.481  -0.644  0.00  0.00    +0.000 C 
ATOM     13  C   UNL     1       4.073   0.348   0.876  0.00  0.00    +0.000 C 
ATOM     14  C   UNL     1       3.885   1.258  -1.466  0.00  0.00    +0.000 C 
ATOM     15  C   UNL     1       3.396   0.300   2.036  0.00  0.00    +0.000 C 
ATOM     16  C   UNL     1       5.560   0.623   0.882  0.00  0.00    +0.000 C 
ATOM     17  C   UNL     1       5.398   1.470  -1.483  0.00  0.00    +0.000 C 
ATOM     18  C   UNL     1       5.933   1.745  -0.082  0.00  0.00    +0.000 C 
ENDROOT
BRANCH   7  20
ATOM     19  I   UNL     1       3.202  -2.776   0.279  0.00  0.00    +0.000 I 
ATOM     20  C   UNL     1       3.841  -1.238  -1.034  0.00  0.00    +0.000 C 
ENDBRANCH   7  20
BRANCH  18  21
ATOM     21  O   UNL     1       7.351   1.859  -0.156  0.00  0.00    +0.000 OA
ATOM     22  H   UNL     1       7.677   2.038   0.743  0.00  0.00    +0.000 HD
ENDBRANCH  18  21
BRANCH   5  23
ATOM     23  C   UNL     1      -3.435  -1.509  -0.771  0.00  0.00    +0.000 C 
ATOM     24  C   UNL     1      -3.307  -1.062  -2.232  0.00  0.00    +0.000 C 
BRANCH  23  25
ATOM     25  C   UNL     1      -4.876  -1.248  -0.284  0.00  0.00    +0.000 C 
BRANCH  25  26
ATOM     26  C   UNL     1      -5.304   0.224  -0.208  0.00  0.00    +0.000 C 
BRANCH  26  27
ATOM     27  C   UNL     1      -6.716   0.421   0.352  0.00  0.00    +0.000 C 
BRANCH  27  28
ATOM     28  C   UNL     1      -7.172   1.893   0.361  0.00  0.00    +0.000 C 
ATOM     29  C   UNL     1      -7.127   2.531  -1.029  0.00  0.00    +0.000 C 
ATOM     30  C   UNL     1      -6.297   2.700   1.324  0.00  0.00    +0.000 C 
ENDBRANCH  27  28
ENDBRANCH  26  27
ENDBRANCH  25  26
ENDBRANCH  23  25
ENDBRANCH   5  23
TORSDOF 7
