REMARK  Name = 165688
REMARK  17 active torsions:
REMARK  status: ('A' for Active; 'I' for Inactive)
REMARK    1  A    between atoms: O_1  and  C_9
REMARK    2  A    between atoms: O_1  and  C_21
REMARK    3  A    between atoms: O_3  and  C_23
REMARK    4  A    between atoms: O_3  and  C_27
REMARK    5  A    between atoms: C_5  and  C_15
REMARK    6  A    between atoms: C_21  and  C_24
REMARK    7  A    between atoms: C_24  and  C_25
REMARK    8  A    between atoms: C_25  and  C_26
REMARK    9  A    between atoms: C_26  and  C_28
REMARK   10  A    between atoms: C_27  and  C_29
REMARK   11  A    between atoms: C_28  and  C_30
REMARK   12  A    between atoms: C_29  and  C_31
REMARK   13  A    between atoms: C_30  and  C_33
REMARK   14  A    between atoms: C_31  and  C_32
REMARK   15  A    between atoms: C_32  and  C_34
REMARK   16  A    between atoms: C_34  and  C_35
REMARK   17  A    between atoms: C_35  and  C_36
REMARK                            x       y       z     vdW  Elec       q    Type
REMARK                         _______ _______ _______ _____ _____    ______ ____
ROOT
ATOM      1  C   UNL     1       2.651  -0.527   0.322  0.00  0.00    +0.000 C 
ATOM      2  C   UNL     1       1.925  -1.882   0.443  0.00  0.00    +0.000 C 
ATOM      3  C   UNL     1       0.406  -1.722   0.465  0.00  0.00    +0.000 C 
ATOM      4  C   UNL     1      -0.047  -1.071  -0.877  0.00  0.00    +0.000 C 
ATOM      5  C   UNL     1       4.109  -1.019   0.394  0.00  0.00    +0.000 C 
ATOM      6  C   UNL     1       2.251   0.111  -1.014  0.00  0.00    +0.000 C 
ATOM      7  C   UNL     1       2.624  -2.556   1.620  0.00  0.00    +0.000 C 
ATOM      8  C   UNL     1       0.722   0.250  -1.148  0.00  0.00    +0.000 C 
ATOM      9  C   UNL     1       4.087  -2.091   1.501  0.00  0.00    +0.000 C 
ATOM     10  C   UNL     1      -0.323  -3.056   0.640  0.00  0.00    +0.000 C 
ATOM     11  C   UNL     1       2.354   0.470   1.471  0.00  0.00    +0.000 C 
ATOM     12  C   UNL     1      -1.567  -0.961  -0.954  0.00  0.00    +0.000 A 
ATOM     13  C   UNL     1      -1.821  -2.811   0.797  0.00  0.00    +0.000 C 
ATOM     14  C   UNL     1      -2.388  -1.819  -0.189  0.00  0.00    +0.000 A 
ATOM     15  C   UNL     1      -2.189  -0.072  -1.849  0.00  0.00    +0.000 A 
ATOM     16  C   UNL     1      -3.787  -1.729  -0.295  0.00  0.00    +0.000 A 
ATOM     17  C   UNL     1      -3.580   0.000  -1.951  0.00  0.00    +0.000 A 
ATOM     18  C   UNL     1      -4.379  -0.825  -1.171  0.00  0.00    +0.000 A 
ENDROOT
BRANCH   5  19
ATOM     19  O   UNL     1       5.054   0.002   0.651  0.00  0.00    +0.000 OA
BRANCH  19  21
ATOM     20  O   UNL     1       6.681  -1.198  -0.462  0.00  0.00    +0.000 OA
ATOM     21  C   UNL     1       6.321  -0.210   0.164  0.00  0.00    +0.000 C 
BRANCH  21  22
ATOM     22  C   UNL     1       7.196   0.980   0.493  0.00  0.00    +0.000 C 
BRANCH  22  23
ATOM     23  C   UNL     1       8.604   0.871  -0.091  0.00  0.00    +0.000 C 
BRANCH  23  24
ATOM     24  C   UNL     1       9.477   2.080   0.259  0.00  0.00    +0.000 C 
BRANCH  24  25
ATOM     25  C   UNL     1      10.888   1.930  -0.315  0.00  0.00    +0.000 C 
BRANCH  25  26
ATOM     26  C   UNL     1      11.769   3.123   0.057  0.00  0.00    +0.000 C 
ATOM     27  C   UNL     1      13.162   2.993  -0.538  0.00  0.00    +0.000 C 
ENDBRANCH  25  26
ENDBRANCH  24  25
ENDBRANCH  23  24
ENDBRANCH  22  23
ENDBRANCH  21  22
ENDBRANCH  19  21
ENDBRANCH   5  19
BRANCH  18  28
ATOM     28  O   UNL     1      -5.734  -0.753  -1.267  0.00  0.00    +0.000 OA
BRANCH  28  30
ATOM     29  O   UNL     1      -5.720   0.885   0.400  0.00  0.00    +0.000 OA
ATOM     30  C   UNL     1      -6.328   0.169  -0.384  0.00  0.00    +0.000 C 
BRANCH  30  31
ATOM     31  C   UNL     1      -7.829   0.162  -0.579  0.00  0.00    +0.000 C 
BRANCH  31  32
ATOM     32  C   UNL     1      -8.550   1.202   0.278  0.00  0.00    +0.000 C 
BRANCH  32  33
ATOM     33  C   UNL     1     -10.059   1.230   0.017  0.00  0.00    +0.000 C 
BRANCH  33  34
ATOM     34  C   UNL     1     -10.756   2.260   0.909  0.00  0.00    +0.000 C 
BRANCH  34  35
ATOM     35  C   UNL     1     -12.266   2.269   0.671  0.00  0.00    +0.000 C 
ATOM     36  C   UNL     1     -12.959   3.313   1.532  0.00  0.00    +0.000 C 
ENDBRANCH  34  35
ENDBRANCH  33  34
ENDBRANCH  32  33
ENDBRANCH  31  32
ENDBRANCH  30  31
ENDBRANCH  28  30
ENDBRANCH  18  28
TORSDOF 14
