REMARK  Name = 72078
REMARK  10 active torsions:
REMARK  status: ('A' for Active; 'I' for Inactive)
REMARK    1  A    between atoms: P_1  and  O_5
REMARK    2  A    between atoms: P_1  and  O_7
REMARK    3  A    between atoms: P_1  and  O_8
REMARK    4  A    between atoms: O_2  and  C_14
REMARK    5  A    between atoms: O_3  and  C_17
REMARK    6  A    between atoms: O_5  and  C_28
REMARK    7  A    between atoms: C_10  and  C_21
REMARK    8  A    between atoms: C_14  and  C_24
REMARK    9  A    between atoms: C_18  and  C_25
REMARK   10  A    between atoms: C_24  and  C_28
REMARK                            x       y       z     vdW  Elec       q    Type
REMARK                         _______ _______ _______ _____ _____    ______ ____
ROOT
ATOM      1  O   UNL     1       6.699   1.834   1.660  0.00  0.00    +0.000 OA
ATOM      2  C   UNL     1      -0.849  -0.795  -0.283  0.00  0.00    +0.000 C 
ATOM      3  C   UNL     1       0.311  -1.591   0.357  0.00  0.00    +0.000 C 
ATOM      4  C   UNL     1       1.677  -1.312  -0.286  0.00  0.00    +0.000 C 
ATOM      5  C   UNL     1       2.006   0.215  -0.129  0.00  0.00    +0.000 C 
ATOM      6  C   UNL     1      -2.034  -1.361   0.547  0.00  0.00    +0.000 C 
ATOM      7  C   UNL     1      -0.542   0.704  -0.092  0.00  0.00    +0.000 C 
ATOM      8  C   UNL     1      -0.215  -3.024   0.382  0.00  0.00    +0.000 C 
ATOM      9  C   UNL     1       0.840   1.118  -0.644  0.00  0.00    +0.000 C 
ATOM     10  C   UNL     1       3.449   0.573  -0.666  0.00  0.00    +0.000 C 
ATOM     11  C   UNL     1      -1.722  -2.870   0.674  0.00  0.00    +0.000 C 
ATOM     12  C   UNL     1       2.765  -2.185   0.362  0.00  0.00    +0.000 C 
ATOM     13  C   UNL     1      -1.062  -1.126  -1.786  0.00  0.00    +0.000 C 
ATOM     14  C   UNL     1       4.160  -1.852  -0.153  0.00  0.00    +0.000 C 
ATOM     15  C   UNL     1       4.438  -0.380   0.015  0.00  0.00    +0.000 C 
ATOM     16  C   UNL     1       3.607   0.419  -2.195  0.00  0.00    +0.000 C 
ATOM     17  C   UNL     1       3.777   2.025  -0.349  0.00  0.00    +0.000 C 
ATOM     18  C   UNL     1       5.476   0.030   0.761  0.00  0.00    +0.000 C 
ATOM     19  C   UNL     1       4.807   2.439   0.395  0.00  0.00    +0.000 C 
ATOM     20  C   UNL     1       5.740   1.465   0.991  0.00  0.00    +0.000 C 
ENDROOT
BRANCH   6  21
ATOM     21  O   UNL     1      -2.081  -0.778   1.846  0.00  0.00    +0.000 OA
ATOM     22  H   UNL     1      -2.673  -1.312   2.402  0.00  0.00    +0.000 HD
ENDBRANCH   6  21
BRANCH   9  23
ATOM     23  O   UNL     1       0.797   1.144  -2.064  0.00  0.00    +0.000 OA
ATOM     24  H   UNL     1       0.090   1.756  -2.329  0.00  0.00    +0.000 HD
ENDBRANCH   9  23
BRANCH   6  26
ATOM     25  O   UNL     1      -3.910  -1.865  -0.832  0.00  0.00    +0.000 OA
ATOM     26  C   UNL     1      -3.389  -1.089  -0.033  0.00  0.00    +0.000 C 
BRANCH  26  27
ATOM     27  C   UNL     1      -4.067   0.187   0.421  0.00  0.00    +0.000 C 
BRANCH  27  28
ATOM     28  O   UNL     1      -5.336   0.319  -0.185  0.00  0.00    +0.000 OA
BRANCH  28  29
ATOM     29  P   UNL     1      -6.233   1.623   0.167  0.00  0.00    +0.000 P 
ATOM     30  O   UNL     1      -7.565   1.678  -0.522  0.00  0.00    +0.000 OA
BRANCH  29  31
ATOM     31  O   UNL     1      -5.243   2.863  -0.141  0.00  0.00    +0.000 OA
ATOM     32  H   UNL     1      -5.592   3.777  -0.071  0.00  0.00    +0.000 HD
ENDBRANCH  29  31
BRANCH  29  33
ATOM     33  O   UNL     1      -6.302   1.594   1.783  0.00  0.00    +0.000 OA
ATOM     34  H   UNL     1      -6.875   2.242   2.245  0.00  0.00    +0.000 HD
ENDBRANCH  29  33
ENDBRANCH  28  29
ENDBRANCH  27  28
ENDBRANCH  26  27
ENDBRANCH   6  26
TORSDOF 8
