REMARK  Name = 11812557
REMARK  15 active torsions:
REMARK  status: ('A' for Active; 'I' for Inactive)
REMARK    1  A    between atoms: O_1  and  C_9
REMARK    2  A    between atoms: O_1  and  C_24
REMARK    3  A    between atoms: O_3  and  C_23
REMARK    4  A    between atoms: O_3  and  C_32
REMARK    5  A    between atoms: C_8  and  C_12
REMARK    6  A    between atoms: C_10  and  C_19
REMARK    7  A    between atoms: C_12  and  C_16
REMARK    8  A    between atoms: C_14  and  C_21
REMARK    9  A    between atoms: C_16  and  C_20
REMARK   10  A    between atoms: C_24  and  C_25
REMARK   11  A    between atoms: C_25  and  C_28
REMARK   12  A    between atoms: C_25  and  C_29
REMARK   13  A    between atoms: C_25  and  C_30
REMARK   14  A    between atoms: C_28  and  C_31
REMARK   15  A    between atoms: C_32  and  C_33
REMARK                            x       y       z     vdW  Elec       q    Type
REMARK                         _______ _______ _______ _____ _____    ______ ____
ROOT
ATOM      1  C   UNL     1       2.253   1.582   0.402  0.00  0.00    +0.000 C 
ATOM      2  C   UNL     1       1.018   1.625  -0.546  0.00  0.00    +0.000 C 
ATOM      3  C   UNL     1       2.441   0.216   1.102  0.00  0.00    +0.000 C 
ATOM      4  C   UNL     1       0.863   3.025  -1.208  0.00  0.00    +0.000 C 
ATOM      5  C   UNL     1       3.515   2.019  -0.336  0.00  0.00    +0.000 C 
ATOM      6  C   UNL     1       3.768   0.162   1.865  0.00  0.00    +0.000 C 
ATOM      7  C   UNL     1       4.994   0.449   0.980  0.00  0.00    +0.000 C 
ATOM      8  C   UNL     1       4.727   1.501  -0.064  0.00  0.00    +0.000 C 
ATOM      9  C   UNL     1       2.180   3.515  -1.752  0.00  0.00    +0.000 C 
ATOM     10  C   UNL     1       3.369   3.038  -1.359  0.00  0.00    +0.000 C 
ATOM     11  C   UNL     1       0.271   4.101  -0.292  0.00  0.00    +0.000 C 
ATOM     12  C   UNL     1       5.537  -0.819   0.316  0.00  0.00    +0.000 C 
ENDROOT
BRANCH   3  13
ATOM     13  O   UNL     1       2.372  -0.843   0.153  0.00  0.00    +0.000 OA
BRANCH  13  15
ATOM     14  O   UNL     1       1.495  -2.231   1.763  0.00  0.00    +0.000 OA
ATOM     15  C   UNL     1       1.873  -2.032   0.615  0.00  0.00    +0.000 C 
BRANCH  15  16
ATOM     16  C   UNL     1       1.858  -3.087  -0.498  0.00  0.00    +0.000 C 
ATOM     17  C   UNL     1       0.403  -3.549  -0.704  0.00  0.00    +0.000 C 
ATOM     18  C   UNL     1       2.350  -2.455  -1.812  0.00  0.00    +0.000 C 
BRANCH  16  19
ATOM     19  C   UNL     1       2.731  -4.307  -0.114  0.00  0.00    +0.000 C 
ATOM     20  C   UNL     1       4.201  -3.991   0.140  0.00  0.00    +0.000 C 
ENDBRANCH  16  19
ENDBRANCH  15  16
ENDBRANCH  13  15
ENDBRANCH   3  13
BRANCH   2  21
ATOM     21  C   UNL     1      -0.277   1.179   0.142  0.00  0.00    +0.000 C 
BRANCH  21  22
ATOM     22  C   UNL     1      -1.433   1.127  -0.848  0.00  0.00    +0.000 C 
BRANCH  22  25
ATOM     23  O   UNL     1      -2.993   1.579   0.909  0.00  0.00    +0.000 OA
ATOM     24  O   UNL     1      -4.362   2.206   2.582  0.00  0.00    +0.000 OA
ATOM     25  C   UNL     1      -2.714   0.660  -0.169  0.00  0.00    +0.000 C 
ATOM     26  C   UNL     1      -3.862   0.570  -1.164  0.00  0.00    +0.000 C 
ATOM     27  C   UNL     1      -5.147   0.252  -0.421  0.00  0.00    +0.000 C 
ATOM     28  C   UNL     1      -5.413   1.305   0.636  0.00  0.00    +0.000 C 
ATOM     29  C   UNL     1      -4.218   1.695   1.473  0.00  0.00    +0.000 C 
BRANCH  27  30
ATOM     30  O   UNL     1      -5.062  -1.024   0.206  0.00  0.00    +0.000 OA
BRANCH  30  32
ATOM     31  O   UNL     1      -5.919  -2.031  -1.688  0.00  0.00    +0.000 OA
ATOM     32  C   UNL     1      -5.484  -2.084  -0.546  0.00  0.00    +0.000 C 
ATOM     33  C   UNL     1      -5.337  -3.353   0.238  0.00  0.00    +0.000 C 
ENDBRANCH  30  32
ENDBRANCH  27  30
ENDBRANCH  22  25
ENDBRANCH  21  22
ENDBRANCH   2  21
TORSDOF 9
