REMARK  Name = 224004
REMARK  7 active torsions:
REMARK  status: ('A' for Active; 'I' for Inactive)
REMARK    1  A    between atoms: O_1  and  C_13
REMARK    2  A    between atoms: O_1  and  C_24
REMARK    3  A    between atoms: C_7  and  C_18
REMARK    4  A    between atoms: C_8  and  C_20
REMARK    5  A    between atoms: C_21  and  C_23
REMARK    6  A    between atoms: C_24  and  C_25
REMARK    7  A    between atoms: C_25  and  C_26
REMARK                            x       y       z     vdW  Elec       q    Type
REMARK                         _______ _______ _______ _____ _____    ______ ____
ROOT
ATOM      1  O   UNL     1      -6.555   0.009   0.992  0.00  0.00    +0.000 OA
ATOM      2  C   UNL     1      -1.120  -0.233   0.128  0.00  0.00    +0.000 C 
ATOM      3  C   UNL     1      -0.364   1.067  -0.299  0.00  0.00    +0.000 C 
ATOM      4  C   UNL     1       1.061   1.010   0.261  0.00  0.00    +0.000 C 
ATOM      5  C   UNL     1       1.855  -0.206  -0.256  0.00  0.00    +0.000 C 
ATOM      6  C   UNL     1      -2.617  -0.234  -0.365  0.00  0.00    +0.000 C 
ATOM      7  C   UNL     1      -3.292   1.064   0.184  0.00  0.00    +0.000 C 
ATOM      8  C   UNL     1      -0.324  -1.516  -0.236  0.00  0.00    +0.000 C 
ATOM      9  C   UNL     1       1.145  -1.477   0.225  0.00  0.00    +0.000 C 
ATOM     10  C   UNL     1      -1.105   2.322   0.182  0.00  0.00    +0.000 C 
ATOM     11  C   UNL     1       3.209   0.073   0.422  0.00  0.00    +0.000 C 
ATOM     12  C   UNL     1       2.006   2.183   0.012  0.00  0.00    +0.000 C 
ATOM     13  C   UNL     1      -2.565   2.338  -0.259  0.00  0.00    +0.000 C 
ATOM     14  C   UNL     1      -3.386  -1.446   0.239  0.00  0.00    +0.000 C 
ATOM     15  C   UNL     1       3.407   1.592   0.254  0.00  0.00    +0.000 C 
ATOM     16  C   UNL     1       2.025  -0.261  -1.796  0.00  0.00    +0.000 C 
ATOM     17  C   UNL     1      -4.785   1.147  -0.138  0.00  0.00    +0.000 C 
ATOM     18  C   UNL     1      -2.687  -0.319  -1.911  0.00  0.00    +0.000 C 
ATOM     19  C   UNL     1      -4.899  -1.431  -0.029  0.00  0.00    +0.000 C 
ATOM     20  C   UNL     1      -5.497  -0.087   0.370  0.00  0.00    +0.000 C 
ATOM     21  C   UNL     1      -5.579  -2.584   0.707  0.00  0.00    +0.000 C 
ENDROOT
BRANCH  11  22
ATOM     22  O   UNL     1       4.275  -0.661  -0.148  0.00  0.00    +0.000 OA
BRANCH  22  24
ATOM     23  O   UNL     1       5.774   0.375   1.268  0.00  0.00    +0.000 OA
ATOM     24  C   UNL     1       5.524  -0.416   0.369  0.00  0.00    +0.000 C 
BRANCH  24  25
ATOM     25  C   UNL     1       6.543  -1.274  -0.344  0.00  0.00    +0.000 C 
ATOM     26  C   UNL     1       7.952  -1.036   0.171  0.00  0.00    +0.000 C 
ENDBRANCH  24  25
ENDBRANCH  22  24
ENDBRANCH  11  22
TORSDOF 3
