REMARK  Name = 46174145
REMARK  23 active torsions:
REMARK  status: ('A' for Active; 'I' for Inactive)
REMARK    1  A    between atoms: O_3  and  C_36
REMARK    2  A    between atoms: O_3  and  C_45
REMARK    3  A    between atoms: O_4  and  C_39
REMARK    4  A    between atoms: O_5  and  C_44
REMARK    5  A    between atoms: O_6  and  C_46
REMARK    6  A    between atoms: O_8  and  C_48
REMARK    7  A    between atoms: N_9  and  C_30
REMARK    8  A    between atoms: N_10  and  C_43
REMARK    9  A    between atoms: C_11  and  C_25
REMARK   10  A    between atoms: C_15  and  C_28
REMARK   11  A    between atoms: C_16  and  C_27
REMARK   12  A    between atoms: C_27  and  C_31
REMARK   13  A    between atoms: C_27  and  C_32
REMARK   14  A    between atoms: C_31  and  C_33
REMARK   15  A    between atoms: C_33  and  C_35
REMARK   16  A    between atoms: C_34  and  C_36
REMARK   17  A    between atoms: C_35  and  C_37
REMARK   18  A    between atoms: C_37  and  C_40
REMARK   19  A    between atoms: C_37  and  C_41
REMARK   20  A    between atoms: C_42  and  C_44
REMARK   21  A    between atoms: C_44  and  C_46
REMARK   22  A    between atoms: C_46  and  C_48
REMARK   23  A    between atoms: C_47  and  C_49
REMARK                            x       y       z     vdW  Elec       q    Type
REMARK                         _______ _______ _______ _____ _____    ______ ____
ROOT
ATOM      1  O   UNL     1      -4.343  -2.158  -1.733  0.00  0.00    +0.000 OA
ATOM      2  N   UNL     1      -2.612  -1.338  -0.409  0.00  0.00    +0.000 N 
ATOM      3  C   UNL     1      -3.668  -1.229  -1.297  0.00  0.00    +0.000 C 
ATOM      4  H   UNL     1      -2.099  -0.497  -0.162  0.00  0.00    +0.000 HD
ENDROOT
BRANCH   2  23
ATOM      5  C   UNL     1       5.066  -1.037   0.895  0.00  0.00    +0.000 C 
ATOM      6  C   UNL     1       4.358  -1.191  -0.469  0.00  0.00    +0.000 C 
ATOM      7  C   UNL     1       3.148  -2.129  -0.411  0.00  0.00    +0.000 C 
ATOM      8  C   UNL     1       2.120  -1.552   0.616  0.00  0.00    +0.000 C 
ATOM      9  C   UNL     1       0.816  -2.431   0.699  0.00  0.00    +0.000 C 
ATOM     10  C   UNL     1       6.226  -0.106   0.466  0.00  0.00    +0.000 C 
ATOM     11  C   UNL     1       0.228  -2.527  -0.745  0.00  0.00    +0.000 C 
ATOM     12  C   UNL     1       4.066  -0.411   1.876  0.00  0.00    +0.000 C 
ATOM     13  C   UNL     1       2.778  -1.247   1.988  0.00  0.00    +0.000 C 
ATOM     14  C   UNL     1       5.498  -1.508  -1.432  0.00  0.00    +0.000 C 
ATOM     15  C   UNL     1       2.511  -2.312  -1.796  0.00  0.00    +0.000 C 
ATOM     16  C   UNL     1       6.687  -0.694  -0.888  0.00  0.00    +0.000 C 
ATOM     17  C   UNL     1       1.223  -3.131  -1.742  0.00  0.00    +0.000 C 
ATOM     18  C   UNL     1      -0.251  -1.745   1.598  0.00  0.00    +0.000 C 
ATOM     19  C   UNL     1       5.606  -2.366   1.481  0.00  0.00    +0.000 C 
ATOM     20  C   UNL     1      -1.126  -3.255  -0.795  0.00  0.00    +0.000 C 
ATOM     21  C   UNL     1       1.133  -3.827   1.294  0.00  0.00    +0.000 C 
ATOM     22  C   UNL     1      -1.625  -2.426   1.552  0.00  0.00    +0.000 C 
ATOM     23  C   UNL     1      -2.161  -2.603   0.130  0.00  0.00    +0.000 C 
BRANCH  10  24
ATOM     24  C   UNL     1       7.369   0.062   1.458  0.00  0.00    +0.000 C 
ATOM     25  C   UNL     1       6.950   1.021   2.579  0.00  0.00    +0.000 C 
BRANCH  24  26
ATOM     26  C   UNL     1       8.665   0.578   0.797  0.00  0.00    +0.000 C 
BRANCH  26  27
ATOM     27  C   UNL     1       8.485   1.914   0.070  0.00  0.00    +0.000 C 
BRANCH  27  28
ATOM     28  C   UNL     1       9.754   2.400  -0.643  0.00  0.00    +0.000 C 
BRANCH  28  29
ATOM     29  C   UNL     1       9.661   3.772  -1.337  0.00  0.00    +0.000 C 
ATOM     30  C   UNL     1       8.566   3.734  -2.407  0.00  0.00    +0.000 C 
ATOM     31  C   UNL     1      10.986   4.199  -1.968  0.00  0.00    +0.000 C 
ENDBRANCH  28  29
ENDBRANCH  27  28
ENDBRANCH  26  27
ENDBRANCH  24  26
ENDBRANCH  10  24
ENDBRANCH   2  23
BRANCH   3  33
ATOM     32  O   UNL     1      -4.148   1.034  -0.552  0.00  0.00    +0.000 OA
ATOM     33  C   UNL     1      -3.942   0.201  -1.679  0.00  0.00    +0.000 C 
ATOM     34  C   UNL     1      -5.108   0.313  -2.658  0.00  0.00    +0.000 C 
ATOM     35  C   UNL     1      -6.453   0.072  -1.983  0.00  0.00    +0.000 C 
ATOM     36  C   UNL     1      -5.354   0.775   0.177  0.00  0.00    +0.000 C 
ATOM     37  C   UNL     1      -6.589   0.935  -0.724  0.00  0.00    +0.000 C 
BRANCH  37  39
ATOM     38  O   UNL     1      -8.870   2.648  -0.187  0.00  0.00    +0.000 OA
ATOM     39  N   UNL     1      -7.799   0.588  -0.014  0.00  0.00    +0.000 N 
ATOM     40  C   UNL     1      -8.837   1.480   0.192  0.00  0.00    +0.000 C 
ATOM     41  C   UNL     1      -9.986   0.855   0.937  0.00  0.00    +0.000 C 
ATOM     42  H   UNL     1      -7.885  -0.359   0.343  0.00  0.00    +0.000 HD
ENDBRANCH  37  39
BRANCH  33  43
ATOM     43  O   UNL     1      -2.767   0.608  -2.380  0.00  0.00    +0.000 OA
ATOM     44  C   UNL     1      -2.653   2.022  -2.414  0.00  0.00    +0.000 C 
ENDBRANCH  33  43
BRANCH  35  45
ATOM     45  O   UNL     1      -7.479   0.400  -2.917  0.00  0.00    +0.000 OA
ATOM     46  H   UNL     1      -7.367  -0.178  -3.691  0.00  0.00    +0.000 HD
ENDBRANCH  35  45
BRANCH  36  47
ATOM     47  C   UNL     1      -5.373   1.754   1.349  0.00  0.00    +0.000 C 
BRANCH  47  48
ATOM     48  O   UNL     1      -5.497   3.069   0.816  0.00  0.00    +0.000 OA
ATOM     49  H   UNL     1      -5.692   3.671   1.553  0.00  0.00    +0.000 HD
ENDBRANCH  47  48
BRANCH  47  50
ATOM     50  C   UNL     1      -4.124   1.648   2.233  0.00  0.00    +0.000 C 
BRANCH  50  51
ATOM     51  O   UNL     1      -4.012   0.292   2.680  0.00  0.00    +0.000 OA
ATOM     52  H   UNL     1      -3.210   0.231   3.226  0.00  0.00    +0.000 HD
ENDBRANCH  50  51
BRANCH  50  53
ATOM     53  C   UNL     1      -4.158   2.531   3.478  0.00  0.00    +0.000 C 
BRANCH  53  54
ATOM     54  O   UNL     1      -2.962   2.318   4.223  0.00  0.00    +0.000 OA
ATOM     55  H   UNL     1      -3.013   2.888   5.010  0.00  0.00    +0.000 HD
ENDBRANCH  53  54
ENDBRANCH  50  53
ENDBRANCH  47  50
ENDBRANCH  36  47
ENDBRANCH   3  33
TORSDOF 16
