REMARK  Name = 
REMARK  20 active torsions:
REMARK  status: ('A' for Active; 'I' for Inactive)
REMARK    1  A    between atoms: C_1  and  O_2
REMARK    2  A    between atoms: O_2  and  C_3
REMARK    3  A    between atoms: C_5  and  C_6
REMARK    4  A    between atoms: C_6  and  C_7
REMARK    5  A    between atoms: C_7  and  C_8
REMARK    6  A    between atoms: C_7  and  C_9
REMARK    7  A    between atoms: C_13  and  C_14
REMARK    8  A    between atoms: C_16  and  C_17
REMARK    9  A    between atoms: C_18  and  O_19
REMARK   10  A    between atoms: C_20  and  O_21
REMARK   11  A    between atoms: O_21  and  C_22
REMARK   12  A    between atoms: C_25  and  C_26
REMARK   13  A    between atoms: C_28  and  C_29
REMARK   14  A    between atoms: N_35  and  C_36
REMARK   15  A    between atoms: C_43  and  C_44
REMARK   16  A    between atoms: C_45  and  O_68
REMARK   17  A    between atoms: C_50  and  C_51
REMARK   18  A    between atoms: C_52  and  O_53
REMARK   19  A    between atoms: O_68  and  C_69
REMARK   20  A    between atoms: C_72  and  O_73
REMARK                            x       y       z     vdW  Elec       q    Type
REMARK                         _______ _______ _______ _____ _____    ______ ____
ROOT
ATOM      1  C   UNL     1       2.891  -0.607   0.000  0.00  0.00    +0.000 C 
ATOM      2  C   UNL     1       3.402   0.048   0.000  0.00  0.00    +0.000 C 
ATOM      3  C   UNL     1       4.043   0.575   0.000  0.00  0.00    +0.000 C 
ATOM      4  O   UNL     1       3.590   1.265   0.000  0.00  0.00    +0.000 OA
ATOM      5  C   UNL     1       4.781   0.952   0.000  0.00  0.00    +0.000 C 
ATOM      6  C   UNL     1       4.487   1.723   0.000  0.00  0.00    +0.000 C 
ATOM      7  C   UNL     1       5.583   1.162   0.000  0.00  0.00    +0.000 C 
ATOM      8  C   UNL     1       6.410   1.194   0.000  0.00  0.00    +0.000 C 
ATOM      9  C   UNL     1       6.468   2.017   0.000  0.00  0.00    +0.000 C 
ATOM     10  C   UNL     1       7.225   1.048   0.000  0.00  0.00    +0.000 C 
ATOM     11  C   UNL     1       7.989   0.731   0.000  0.00  0.00    +0.000 C 
ATOM     12  C   UNL     1       8.673   0.251   0.000  0.00  0.00    +0.000 C 
ATOM     13  O   UNL     1       9.217   0.871   0.000  0.00  0.00    +0.000 OA
ATOM     14  C   UNL     1       9.236  -0.363   0.000  0.00  0.00    +0.000 C 
ATOM     15  C   UNL     1       9.900   0.126   0.000  0.00  0.00    +0.000 C 
ATOM     16  C   UNL     1       9.665  -1.101   0.000  0.00  0.00    +0.000 C 
ATOM     17  C   UNL     1       9.919  -1.914   0.000  0.00  0.00    +0.000 C 
ATOM     18  C   UNL     1      10.737  -1.805   0.000  0.00  0.00    +0.000 C 
ATOM     19  C   UNL     1       9.887  -2.784   0.000  0.00  0.00    +0.000 C 
ATOM     20  C   UNL     1      10.384  -3.477   0.000  0.00  0.00    +0.000 C 
ATOM     21  C   UNL     1      10.075  -4.267   0.000  0.00  0.00    +0.000 C 
ATOM     22  C   UNL     1       9.233  -4.405   0.000  0.00  0.00    +0.000 C 
ATOM     23  O   UNL     1       8.741  -3.720   0.000  0.00  0.00    +0.000 OA
ATOM     24  N   UNL     1       9.064  -2.947   0.000  0.00  0.00    +0.000 N 
ATOM     25  C   UNL     1       8.676  -5.096   0.000  0.00  0.00    +0.000 C 
ATOM     26  C   UNL     1       8.053  -5.720   0.000  0.00  0.00    +0.000 C 
ATOM     27  C   UNL     1       8.559  -6.372   0.000  0.00  0.00    +0.000 C 
ATOM     28  C   UNL     1       7.297  -6.168   0.000  0.00  0.00    +0.000 C 
ATOM     29  C   UNL     1       6.435  -6.370   0.000  0.00  0.00    +0.000 C 
ATOM     30  C   UNL     1       5.514  -6.371   0.000  0.00  0.00    +0.000 C 
ATOM     31  C   UNL     1       5.130  -7.127   0.000  0.00  0.00    +0.000 C 
ATOM     32  C   UNL     1       4.299  -7.263   0.000  0.00  0.00    +0.000 C 
ATOM     33  C   UNL     1       3.790  -6.607   0.000  0.00  0.00    +0.000 C 
ATOM     34  C   UNL     1       2.975  -6.732   0.000  0.00  0.00    +0.000 C 
ATOM     35  C   UNL     1       4.082  -5.824   0.000  0.00  0.00    +0.000 C 
ATOM     36  O   UNL     1       4.939  -5.740   0.000  0.00  0.00    +0.000 OA
ATOM     37  C   UNL     1       3.455  -5.234   0.000  0.00  0.00    +0.000 C 
ATOM     38  O   UNL     1       2.860  -5.805   0.000  0.00  0.00    +0.000 OA
ATOM     39  C   UNL     1       2.902  -4.595   0.000  0.00  0.00    +0.000 C 
ATOM     40  O   UNL     1       2.214  -5.050   0.000  0.00  0.00    +0.000 OA
ATOM     41  N   UNL     1       2.535  -3.842   0.000  0.00  0.00    +0.000 N 
ATOM     42  C   UNL     1       1.931  -4.404   0.000  0.00  0.00    +0.000 C 
ATOM     43  C   UNL     1       1.142  -4.162   0.000  0.00  0.00    +0.000 C 
ATOM     44  C   UNL     1       0.958  -3.357   0.000  0.00  0.00    +0.000 C 
ATOM     45  C   UNL     1       1.562  -2.796   0.000  0.00  0.00    +0.000 C 
ATOM     46  C   UNL     1       2.351  -3.038   0.000  0.00  0.00    +0.000 C 
ATOM     47  C   UNL     1       2.346  -2.182   0.000  0.00  0.00    +0.000 C 
ATOM     48  O   UNL     1       1.526  -2.093   0.000  0.00  0.00    +0.000 OA
ATOM     49  O   UNL     1       2.530  -1.367   0.000  0.00  0.00    +0.000 OA
ENDROOT
BRANCH  24  50
ATOM     50  C   UNL     1       8.541  -2.308   0.000  0.00  0.00    +0.000 A 
ATOM     51  C   UNL     1       7.727  -2.442   0.000  0.00  0.00    +0.000 A 
ATOM     52  C   UNL     1       7.205  -1.803   0.000  0.00  0.00    +0.000 A 
ATOM     53  C   UNL     1       7.497  -1.031   0.000  0.00  0.00    +0.000 A 
ATOM     54  C   UNL     1       8.311  -0.898   0.000  0.00  0.00    +0.000 A 
ATOM     55  C   UNL     1       8.833  -1.537   0.000  0.00  0.00    +0.000 A 
ENDBRANCH  24  50
BRANCH   1  56
ATOM     56  C   UNL     1       2.189  -0.173   0.000  0.00  0.00    +0.000 C 
ATOM     57  C   UNL     1       2.214   0.652   0.000  0.00  0.00    +0.000 C 
BRANCH  56  58
ATOM     58  C   UNL     1       1.462  -0.564   0.000  0.00  0.00    +0.000 C 
BRANCH  58  61
ATOM     59  C   UNL     1       0.083   1.128   0.000  0.00  0.00    +0.000 C 
ATOM     60  C   UNL     1       0.785   0.694   0.000  0.00  0.00    +0.000 C 
ATOM     61  C   UNL     1       0.761  -0.130   0.000  0.00  0.00    +0.000 C 
ATOM     62  C   UNL     1       0.034  -0.521   0.000  0.00  0.00    +0.000 C 
ATOM     63  C   UNL     1      -0.668  -0.087   0.000  0.00  0.00    +0.000 C 
ATOM     64  C   UNL     1      -0.643   0.737   0.000  0.00  0.00    +0.000 C 
BRANCH  59  66
ATOM     65  C   UNL     1      -0.594   2.386   0.000  0.00  0.00    +0.000 C 
ATOM     66  O   UNL     1       0.108   1.953   0.000  0.00  0.00    +0.000 OA
ENDBRANCH  59  66
BRANCH  64  67
ATOM     67  O   UNL     1      -1.345   1.171   0.000  0.00  0.00    +0.000 OA
ATOM     68  H   UNL     1      -1.316   2.140   0.000  0.00  0.00    +0.000 HD
ENDBRANCH  64  67
ENDBRANCH  58  61
ENDBRANCH  56  58
ENDBRANCH   1  56
BRANCH  10  69
ATOM     69  O   UNL     1       7.457   1.839   0.000  0.00  0.00    +0.000 OA
ATOM     70  H   UNL     1       8.400   2.068   0.000  0.00  0.00    +0.000 HD
ENDBRANCH  10  69
BRANCH  11  71
ATOM     71  O   UNL     1       8.386   1.454   0.000  0.00  0.00    +0.000 OA
ATOM     72  C   UNL     1       7.959   2.159   0.000  0.00  0.00    +0.000 C 
ENDBRANCH  11  71
BRANCH  35  73
ATOM     73  O   UNL     1       3.279  -6.012   0.000  0.00  0.00    +0.000 OA
ATOM     74  H   UNL     1       2.615  -5.304   0.000  0.00  0.00    +0.000 HD
ENDBRANCH  35  73
BRANCH  28  75
ATOM     75  O   UNL     1       7.605  -6.933   0.000  0.00  0.00    +0.000 OA
ATOM     76  C   UNL     1       7.096  -7.583   0.000  0.00  0.00    +0.000 C 
ENDBRANCH  28  75
TORSDOF 10
