REMARK  Name = 20054915
REMARK  13 active torsions:
REMARK  status: ('A' for Active; 'I' for Inactive)
REMARK    1  A    between atoms: O_2  and  C_15
REMARK    2  A    between atoms: O_4  and  C_26
REMARK    3  A    between atoms: O_4  and  C_29
REMARK    4  A    between atoms: C_7  and  C_18
REMARK    5  A    between atoms: C_11  and  C_21
REMARK    6  A    between atoms: C_14  and  C_22
REMARK    7  A    between atoms: C_16  and  C_23
REMARK    8  A    between atoms: C_21  and  C_26
REMARK    9  A    between atoms: C_29  and  C_30
REMARK   10  A    between atoms: C_30  and  C_31
REMARK   11  A    between atoms: C_31  and  C_32
REMARK   12  A    between atoms: C_32  and  C_33
REMARK   13  A    between atoms: C_33  and  C_34
REMARK                            x       y       z     vdW  Elec       q    Type
REMARK                         _______ _______ _______ _____ _____    ______ ____
ROOT
ATOM      1  F   UNL     1       6.299   1.755  -0.002  0.00  0.00    +0.000 F 
ATOM      2  O   UNL     1       7.190  -2.729  -1.774  0.00  0.00    +0.000 OA
ATOM      3  C   UNL     1       0.141   0.942   0.323  0.00  0.00    +0.000 C 
ATOM      4  C   UNL     1       1.455   1.595  -0.149  0.00  0.00    +0.000 C 
ATOM      5  C   UNL     1       2.706   0.977   0.489  0.00  0.00    +0.000 C 
ATOM      6  C   UNL     1       2.768  -0.543   0.101  0.00  0.00    +0.000 C 
ATOM      7  C   UNL     1      -0.863   1.804  -0.481  0.00  0.00    +0.000 C 
ATOM      8  C   UNL     1       1.192   3.090   0.015  0.00  0.00    +0.000 C 
ATOM      9  C   UNL     1       0.179  -0.541  -0.090  0.00  0.00    +0.000 C 
ATOM     10  C   UNL     1      -0.302   3.248  -0.358  0.00  0.00    +0.000 C 
ATOM     11  C   UNL     1       1.431  -1.281   0.428  0.00  0.00    +0.000 C 
ATOM     12  C   UNL     1       4.090  -1.238   0.620  0.00  0.00    +0.000 C 
ATOM     13  C   UNL     1       3.970   1.720   0.026  0.00  0.00    +0.000 C 
ATOM     14  C   UNL     1      -0.117   1.083   1.846  0.00  0.00    +0.000 C 
ATOM     15  C   UNL     1       5.247   1.060   0.524  0.00  0.00    +0.000 C 
ATOM     16  C   UNL     1       5.275  -0.395   0.128  0.00  0.00    +0.000 C 
ATOM     17  C   UNL     1      -0.491   4.035  -1.651  0.00  0.00    +0.000 C 
ATOM     18  C   UNL     1       4.183  -1.345   2.159  0.00  0.00    +0.000 C 
ATOM     19  C   UNL     1       4.170  -2.662   0.091  0.00  0.00    +0.000 C 
ATOM     20  C   UNL     1       6.263  -0.881  -0.641  0.00  0.00    +0.000 C 
ATOM     21  C   UNL     1       5.150  -3.149  -0.677  0.00  0.00    +0.000 C 
ATOM     22  C   UNL     1       6.275  -2.290  -1.085  0.00  0.00    +0.000 C 
ENDROOT
BRANCH  11  23
ATOM     23  O   UNL     1       1.301  -1.513   1.824  0.00  0.00    +0.000 OA
ATOM     24  H   UNL     1       0.483  -2.019   1.966  0.00  0.00    +0.000 HD
ENDBRANCH  11  23
BRANCH   7  26
ATOM     25  O   UNL     1      -2.714   2.438   0.877  0.00  0.00    +0.000 OA
ATOM     26  C   UNL     1      -2.279   1.695  -0.001  0.00  0.00    +0.000 C 
BRANCH  26  27
ATOM     27  C   UNL     1      -3.129   0.628  -0.656  0.00  0.00    +0.000 C 
BRANCH  27  28
ATOM     28  O   UNL     1      -4.438   0.638  -0.127  0.00  0.00    +0.000 OA
BRANCH  28  30
ATOM     29  O   UNL     1      -5.035  -1.107  -1.511  0.00  0.00    +0.000 OA
ATOM     30  C   UNL     1      -5.309  -0.290  -0.643  0.00  0.00    +0.000 C 
BRANCH  30  31
ATOM     31  C   UNL     1      -6.650  -0.171   0.048  0.00  0.00    +0.000 C 
BRANCH  31  32
ATOM     32  C   UNL     1      -7.656  -1.230  -0.401  0.00  0.00    +0.000 C 
BRANCH  32  33
ATOM     33  C   UNL     1      -9.009  -1.088   0.303  0.00  0.00    +0.000 C 
BRANCH  33  34
ATOM     34  C   UNL     1      -9.981  -2.181  -0.142  0.00  0.00    +0.000 C 
ATOM     35  C   UNL     1     -11.312  -2.073   0.586  0.00  0.00    +0.000 C 
ENDBRANCH  33  34
ENDBRANCH  32  33
ENDBRANCH  31  32
ENDBRANCH  30  31
ENDBRANCH  28  30
ENDBRANCH  27  28
ENDBRANCH  26  27
ENDBRANCH   7  26
TORSDOF 9
