REMARK  Name = 
REMARK  31 active torsions:
REMARK  status: ('A' for Active; 'I' for Inactive)
REMARK    1  A    between atoms: C_1  and  C_2
REMARK    2  A    between atoms: C_2  and  C_3
REMARK    3  A    between atoms: C_3  and  O_5
REMARK    4  A    between atoms: O_5  and  C_6
REMARK    5  A    between atoms: C_12  and  C_13
REMARK    6  A    between atoms: C_18  and  O_19
REMARK    7  A    between atoms: O_19  and  C_20
REMARK    8  A    between atoms: C_20  and  C_21
REMARK    9  A    between atoms: C_23  and  O_24
REMARK   10  A    between atoms: O_24  and  C_25
REMARK   11  A    between atoms: C_26  and  O_27
REMARK   12  A    between atoms: O_27  and  C_28
REMARK   13  A    between atoms: C_30  and  C_31
REMARK   14  A    between atoms: C_32  and  O_33
REMARK   15  A    between atoms: O_33  and  C_34
REMARK   16  A    between atoms: C_36  and  C_37
REMARK   17  A    between atoms: C_36  and  O_38
REMARK   18  A    between atoms: C_39  and  O_40
REMARK   19  A    between atoms: O_40  and  C_41
REMARK   20  A    between atoms: C_41  and  C_43
REMARK   21  A    between atoms: C_43  and  C_44
REMARK   22  A    between atoms: C_44  and  C_45
REMARK   23  A    between atoms: C_44  and  C_46
REMARK   24  A    between atoms: C_47  and  C_48
REMARK   25  A    between atoms: C_50  and  N_51
REMARK   26  A    between atoms: N_51  and  C_52
REMARK   27  A    between atoms: N_51  and  C_53
REMARK   28  A    between atoms: C_54  and  O_55
REMARK   29  A    between atoms: C_56  and  C_57
REMARK   30  A    between atoms: C_57  and  C_58
REMARK   31  A    between atoms: C_61  and  C_62
REMARK                            x       y       z     vdW  Elec       q    Type
REMARK                         _______ _______ _______ _____ _____    ______ ____
ROOT
ATOM      1  C   UNL     1      -5.715  -1.364  -1.241  0.00  0.00    +0.000 C 
ATOM      2  C   UNL     1      -6.121  -0.601   0.116  0.00  0.00    +0.000 C 
ATOM      3  C   UNL     1      -7.374  -0.396   0.384  0.00  0.00    +0.000 C 
ATOM      4  C   UNL     1      -7.996   0.840  -0.120  0.00  0.00    +0.000 C 
ATOM      5  C   UNL     1      -7.409   1.329  -1.214  0.00  0.00    +0.000 C 
ATOM      6  C   UNL     1      -7.031   2.733  -1.314  0.00  0.00    +0.000 C 
ATOM      7  C   UNL     1      -5.401   2.812  -1.117  0.00  0.00    +0.000 C 
ATOM      8  C   UNL     1      -5.397   4.434  -1.390  0.00  0.00    +0.000 C 
ATOM      9  O   UNL     1      -5.527   3.017   0.402  0.00  0.00    +0.000 OA
ATOM     10  C   UNL     1      -4.387   2.519   1.050  0.00  0.00    +0.000 C 
ATOM     11  O   UNL     1      -4.643   1.805   2.072  0.00  0.00    +0.000 OA
ATOM     12  C   UNL     1      -3.032   2.866   0.601  0.00  0.00    +0.000 C 
ATOM     13  C   UNL     1      -2.647   1.902  -0.657  0.00  0.00    +0.000 C 
ATOM     14  C   UNL     1      -2.011   0.723   0.423  0.00  0.00    +0.000 C 
ATOM     15  C   UNL     1      -1.357  -0.270  -0.811  0.00  0.00    +0.000 C 
ATOM     16  C   UNL     1      -2.042  -1.706  -0.158  0.00  0.00    +0.000 C 
ATOM     17  C   UNL     1      -3.526  -1.047  -0.218  0.00  0.00    +0.000 C 
ATOM     18  C   UNL     1      -4.451  -2.318  -0.580  0.00  0.00    +0.000 C 
ATOM     19  C   UNL     1      -5.088  -2.458   0.900  0.00  0.00    +0.000 C 
ENDROOT
BRANCH  14  20
ATOM     20  O   UNL     1      -0.812   1.493   0.842  0.00  0.00    +0.000 OA
ATOM     21  C   UNL     1      -0.842   1.618   2.225  0.00  0.00    +0.000 C 
ENDBRANCH  14  20
BRANCH   1  22
ATOM     22  O   UNL     1      -6.829  -2.397  -1.055  0.00  0.00    +0.000 OA
BRANCH  22  23
ATOM     23  C   UNL     1      -6.582  -3.716  -0.997  0.00  0.00    +0.000 C 
ATOM     24  O   UNL     1      -5.521  -4.144  -1.513  0.00  0.00    +0.000 OA
BRANCH  23  26
ATOM     25  C   UNL     1      -7.933  -4.554   0.177  0.00  0.00    +0.000 C 
ATOM     26  C   UNL     1      -7.491  -4.553  -0.139  0.00  0.00    +0.000 C 
ENDBRANCH  23  26
ENDBRANCH  22  23
ENDBRANCH   1  22
BRANCH  13  27
ATOM     27  O   UNL     1      -1.353   2.657  -0.941  0.00  0.00    +0.000 OA
BRANCH  27  28
ATOM     28  C   UNL     1      -1.422   4.013  -1.164  0.00  0.00    +0.000 C 
ATOM     29  C   UNL     1      -0.507   4.529  -2.231  0.00  0.00    +0.000 C 
ATOM     30  O   UNL     1      -2.380   4.697  -0.743  0.00  0.00    +0.000 OA
ENDBRANCH  27  28
ENDBRANCH  13  27
BRANCH  15  31
ATOM     31  O   UNL     1       0.019  -0.460  -0.284  0.00  0.00    +0.000 OA
BRANCH  31  32
ATOM     32  C   UNL     1       0.279  -1.954  -0.254  0.00  0.00    +0.000 C 
ATOM     33  O   UNL     1       1.014  -2.047   1.050  0.00  0.00    +0.000 OA
ATOM     34  C   UNL     1       2.327  -1.421   1.130  0.00  0.00    +0.000 C 
ATOM     35  C   UNL     1       1.928  -0.655   2.540  0.00  0.00    +0.000 C 
ATOM     36  C   UNL     1       1.816  -0.059   0.254  0.00  0.00    +0.000 C 
ATOM     37  C   UNL     1       2.510  -0.662  -1.151  0.00  0.00    +0.000 C 
ATOM     38  C   UNL     1       1.602  -2.069  -1.352  0.00  0.00    +0.000 C 
BRANCH  37  39
ATOM     39  N   UNL     1       1.567   0.046  -2.182  0.00  0.00    +0.000 NA
ATOM     40  C   UNL     1       2.167   1.213  -2.707  0.00  0.00    +0.000 C 
ATOM     41  C   UNL     1       1.577  -0.826  -3.367  0.00  0.00    +0.000 C 
ENDBRANCH  37  39
BRANCH  38  42
ATOM     42  O   UNL     1       2.469  -2.989  -0.520  0.00  0.00    +0.000 OA
ATOM     43  H   UNL     1       2.593  -2.606   0.362  0.00  0.00    +0.000 HD
ENDBRANCH  38  42
BRANCH  36  44
ATOM     44  O   UNL     1       2.929   0.763   0.771  0.00  0.00    +0.000 OA
BRANCH  44  45
ATOM     45  C   UNL     1       4.203   0.008   0.460  0.00  0.00    +0.000 C 
ATOM     46  C   UNL     1       4.696   1.347  -0.405  0.00  0.00    +0.000 C 
ATOM     47  C   UNL     1       6.134   1.296  -0.424  0.00  0.00    +0.000 C 
ATOM     48  C   UNL     1       6.605   1.416  -1.839  0.00  0.00    +0.000 C 
ATOM     49  C   UNL     1       6.374  -0.252   0.012  0.00  0.00    +0.000 C 
ATOM     50  C   UNL     1       6.268   0.095   1.687  0.00  0.00    +0.000 C 
ATOM     51  C   UNL     1       5.883  -1.457   2.049  0.00  0.00    +0.000 C 
ATOM     52  O   UNL     1       4.851   0.571   1.718  0.00  0.00    +0.000 OA
BRANCH  47  53
ATOM     53  O   UNL     1       6.679   2.138   0.471  0.00  0.00    +0.000 OA
ATOM     54  H   UNL     1       6.524   3.054   0.191  0.00  0.00    +0.000 HD
ENDBRANCH  47  53
BRANCH  49  55
ATOM     55  O   UNL     1       7.881  -0.055   0.040  0.00  0.00    +0.000 OA
BRANCH  55  56
ATOM     56  C   UNL     1       8.528  -1.031  -0.680  0.00  0.00    +0.000 C 
ATOM     57  O   UNL     1       8.043  -2.178  -0.708  0.00  0.00    +0.000 OA
BRANCH  56  58
ATOM     58  C   UNL     1       9.994  -0.821  -0.782  0.00  0.00    +0.000 C 
BRANCH  58  59
ATOM     59  C   UNL     1      10.535   0.168   0.192  0.00  0.00    +0.000 C 
ATOM     60  C   UNL     1       9.868   1.493   0.231  0.00  0.00    +0.000 C 
ATOM     61  C   UNL     1      10.892  -0.390   1.530  0.00  0.00    +0.000 C 
ENDBRANCH  58  59
ENDBRANCH  56  58
ENDBRANCH  55  56
ENDBRANCH  49  55
ENDBRANCH  44  45
ENDBRANCH  36  44
ENDBRANCH  31  32
ENDBRANCH  15  31
BRANCH  16  62
ATOM     62  C   UNL     1      -1.856  -1.359   1.397  0.00  0.00    +0.000 C 
BRANCH  62  63
ATOM     63  C   UNL     1      -2.395  -2.385   2.277  0.00  0.00    +0.000 C 
ATOM     64  O   UNL     1      -2.563  -1.946   3.433  0.00  0.00    +0.000 OA
ENDBRANCH  62  63
ENDBRANCH  16  62
TORSDOF 19
