REMARK  Name = 38853
REMARK  8 active torsions:
REMARK  status: ('A' for Active; 'I' for Inactive)
REMARK    1  A    between atoms: O_1  and  C_10
REMARK    2  A    between atoms: O_3  and  C_13
REMARK    3  A    between atoms: O_4  and  C_15
REMARK    4  A    between atoms: N_5  and  C_6
REMARK    5  A    between atoms: C_6  and  C_7
REMARK    6  A    between atoms: C_6  and  C_9
REMARK    7  A    between atoms: C_6  and  C_10
REMARK    8  A    between atoms: C_7  and  C_8
REMARK                            x       y       z     vdW  Elec       q    Type
REMARK                         _______ _______ _______ _____ _____    ______ ____
ROOT
ATOM      1  C   UNL     1      -1.206  -0.745  -1.142  0.00  0.00    +0.000 C 
ENDROOT
BRANCH   1   2
ATOM      2  C   UNL     1       0.216  -0.579  -0.657  0.00  0.00    +0.000 A 
ATOM      3  C   UNL     1       0.830   0.656  -0.773  0.00  0.00    +0.000 A 
ATOM      4  C   UNL     1       0.875  -1.666  -0.108  0.00  0.00    +0.000 A 
ATOM      5  C   UNL     1       2.143   0.809  -0.326  0.00  0.00    +0.000 A 
ATOM      6  C   UNL     1       2.187  -1.513   0.339  0.00  0.00    +0.000 A 
ATOM      7  C   UNL     1       2.821  -0.276   0.231  0.00  0.00    +0.000 A 
BRANCH   5   8
ATOM      8  O   UNL     1       2.751   2.023  -0.436  0.00  0.00    +0.000 OA
ATOM      9  H   UNL     1       3.653   1.947  -0.079  0.00  0.00    +0.000 HD
ENDBRANCH   5   8
BRANCH   7  10
ATOM     10  O   UNL     1       4.103  -0.138   0.672  0.00  0.00    +0.000 OA
ATOM     11  H   UNL     1       4.409  -0.991   1.025  0.00  0.00    +0.000 HD
ENDBRANCH   7  10
ENDBRANCH   1   2
BRANCH   1  12
ATOM     12  C   UNL     1      -2.307  -0.464  -0.090  0.00  0.00    +0.000 C 
ATOM     13  C   UNL     1      -2.257  -1.466   1.074  0.00  0.00    +0.000 C 
BRANCH  12  14
ATOM     14  N   UNL     1      -3.621  -0.634  -0.728  0.00  0.00    +0.000 NA
ATOM     15  H   UNL     1      -4.362  -0.531  -0.035  0.00  0.00    +0.000 HD
ATOM     16  H   UNL     1      -3.708  -1.581  -1.096  0.00  0.00    +0.000 HD
ENDBRANCH  12  14
BRANCH  12  18
ATOM     17  O   UNL     1      -2.762   1.934  -0.101  0.00  0.00    +0.000 OA
ATOM     18  C   UNL     1      -2.242   0.968   0.447  0.00  0.00    +0.000 C 
BRANCH  18  19
ATOM     19  O   UNL     1      -1.531   1.092   1.598  0.00  0.00    +0.000 OA
ATOM     20  H   UNL     1      -1.500   2.022   1.910  0.00  0.00    +0.000 HD
ENDBRANCH  18  19
ENDBRANCH  12  18
ENDBRANCH   1  12
TORSDOF 7
