REMARK  Name = 39042
REMARK  10 active torsions:
REMARK  status: ('A' for Active; 'I' for Inactive)
REMARK    1  A    between atoms: O_2  and  C_7
REMARK    2  A    between atoms: O_2  and  C_11
REMARK    3  A    between atoms: O_3  and  C_18
REMARK    4  A    between atoms: N_6  and  C_10
REMARK    5  A    between atoms: C_7  and  C_12
REMARK    6  A    between atoms: C_7  and  C_13
REMARK    7  A    between atoms: C_7  and  C_18
REMARK    8  A    between atoms: C_8  and  C_9
REMARK    9  A    between atoms: C_8  and  C_10
REMARK   10  A    between atoms: C_19  and  C_20
REMARK                            x       y       z     vdW  Elec       q    Type
REMARK                         _______ _______ _______ _____ _____    ______ ____
ROOT
ATOM      1  C   UNL     1      -0.543   2.521   0.284  0.00  0.00    +0.000 A 
ATOM      2  C   UNL     1      -2.753   0.846   0.522  0.00  0.00    +0.000 A 
ATOM      3  C   UNL     1      -1.713   2.804  -0.422  0.00  0.00    +0.000 A 
ATOM      4  C   UNL     1      -0.482   1.398   1.109  0.00  0.00    +0.000 A 
ATOM      5  C   UNL     1      -2.820   1.964  -0.303  0.00  0.00    +0.000 A 
ATOM      6  C   UNL     1      -1.590   0.558   1.228  0.00  0.00    +0.000 A 
ENDROOT
BRANCH   2   7
ATOM      7  O   UNL     1      -3.840   0.023   0.639  0.00  0.00    +0.000 OA
BRANCH   7   8
ATOM      8  C   UNL     1      -3.924  -1.060  -0.288  0.00  0.00    +0.000 C 
ATOM      9  C   UNL     1      -3.991  -0.473  -1.695  0.00  0.00    +0.000 C 
ATOM     10  C   UNL     1      -2.701  -1.949  -0.089  0.00  0.00    +0.000 C 
BRANCH   8  12
ATOM     11  O   UNL     1      -5.994  -1.449   0.933  0.00  0.00    +0.000 OA
ATOM     12  C   UNL     1      -5.208  -1.800   0.062  0.00  0.00    +0.000 C 
BRANCH  12  13
ATOM     13  O   UNL     1      -5.411  -2.912  -0.691  0.00  0.00    +0.000 OA
ATOM     14  H   UNL     1      -6.242  -3.372  -0.447  0.00  0.00    +0.000 HD
ENDBRANCH  12  13
ENDBRANCH   8  12
ENDBRANCH   7   8
ENDBRANCH   2   7
BRANCH   1  15
ATOM     15  C   UNL     1       0.641   3.418   0.156  0.00  0.00    +0.000 C 
BRANCH  15  16
ATOM     16  C   UNL     1       1.593   3.018  -0.978  0.00  0.00    +0.000 C 
BRANCH  16  18
ATOM     17  O   UNL     1       3.986   2.264   0.417  0.00  0.00    +0.000 OA
ATOM     18  N   UNL     1       2.108   1.685  -0.815  0.00  0.00    +0.000 N 
ATOM     19  C   UNL     1       3.280   1.414  -0.119  0.00  0.00    +0.000 C 
ATOM     20  H   UNL     1       1.606   0.945  -1.292  0.00  0.00    +0.000 HD
BRANCH  19  22
ATOM     21 CL   UNL     1       4.934  -4.312   0.108  0.00  0.00    +0.000 Cl
ATOM     22  C   UNL     1       3.692  -0.012  -0.063  0.00  0.00    +0.000 A 
ATOM     23  C   UNL     1       5.030  -0.314   0.081  0.00  0.00    +0.000 A 
ATOM     24  C   UNL     1       2.723  -0.990  -0.155  0.00  0.00    +0.000 A 
ATOM     25  C   UNL     1       5.417  -1.653   0.135  0.00  0.00    +0.000 A 
ATOM     26  C   UNL     1       3.110  -2.329  -0.101  0.00  0.00    +0.000 A 
ATOM     27  C   UNL     1       4.457  -2.660   0.044  0.00  0.00    +0.000 A 
ENDBRANCH  19  22
ENDBRANCH  16  18
ENDBRANCH  15  16
ENDBRANCH   1  15
TORSDOF 8
