REMARK  Name = 17754104
REMARK  13 active torsions:
REMARK  status: ('A' for Active; 'I' for Inactive)
REMARK    1  A    between atoms: O_1  and  C_19
REMARK    2  A    between atoms: O_1  and  C_22
REMARK    3  A    between atoms: O_2  and  C_14
REMARK    4  A    between atoms: O_3  and  C_15
REMARK    5  A    between atoms: O_4  and  C_18
REMARK    6  A    between atoms: N_7  and  C_13
REMARK    7  A    between atoms: N_7  and  C_17
REMARK    8  A    between atoms: N_8  and  CA_11
REMARK    9  A    between atoms: C_9  and  C_10
REMARK   10  A    between atoms: C_9  and  CA_11
REMARK   11  A    between atoms: CA_11  and  C_18
REMARK   12  A    between atoms: C_17  and  C_19
REMARK   13  A    between atoms: C_28  and  C_31
REMARK                            x       y       z     vdW  Elec       q    Type
REMARK                         _______ _______ _______ _____ _____    ______ ____
ROOT
ATOM      1  C   UNL     1      -4.100   0.270  -0.223  0.00  0.00    +0.000 A 
ATOM      2  C   UNL     1      -2.833  -0.313  -0.190  0.00  0.00    +0.000 A 
ATOM      3  C   UNL     1      -2.653  -1.554   0.421  0.00  0.00    +0.000 A 
ATOM      4  C   UNL     1      -5.186  -0.388   0.354  0.00  0.00    +0.000 A 
ATOM      5  C   UNL     1      -3.739  -2.212   0.998  0.00  0.00    +0.000 A 
ATOM      6  C   UNL     1      -5.005  -1.628   0.965  0.00  0.00    +0.000 A 
ENDROOT
BRANCH   4   7
ATOM      7  O   UNL     1      -6.430   0.167   0.329  0.00  0.00    +0.000 OA
ATOM      8  H   UNL     1      -7.054  -0.431   0.776  0.00  0.00    +0.000 HD
ENDBRANCH   4   7
BRANCH   5   9
ATOM      9  O   UNL     1      -3.583  -3.425   1.599  0.00  0.00    +0.000 OA
ATOM     10  H   UNL     1      -4.444  -3.724   1.940  0.00  0.00    +0.000 HD
ENDBRANCH   5   9
BRANCH   3  11
ATOM     11  N   UNL     1      -1.379  -2.127   0.447  0.00  0.00    +0.000 N 
ATOM     12  H   UNL     1      -1.175  -2.699   1.259  0.00  0.00    +0.000 HD
BRANCH  11  13
ATOM     13  C   UNL     1      -0.367  -1.984  -0.464  0.00  0.00    +0.000 C 
ATOM     14  C   UNL     1      -0.504  -1.762  -1.784  0.00  0.00    +0.000 C 
BRANCH  14  16
ATOM     15  O   UNL     1       0.468  -1.435  -3.916  0.00  0.00    +0.000 OA
ATOM     16  C   UNL     1       0.636  -1.639  -2.718  0.00  0.00    +0.000 C 
ENDBRANCH  14  16
BRANCH  13  17
ATOM     17  C   UNL     1       1.026  -2.117   0.107  0.00  0.00    +0.000 C 
BRANCH  17  18
ATOM     18  O   UNL     1       1.499  -0.832   0.507  0.00  0.00    +0.000 OA
BRANCH  18  21
ATOM     19  C   UNL     1       4.752   0.852   0.240  0.00  0.00    +0.000 A 
ATOM     20  C   UNL     1       5.625  -0.235   0.479  0.00  0.00    +0.000 A 
ATOM     21  C   UNL     1       2.846  -0.637   0.499  0.00  0.00    +0.000 A 
ATOM     22  C   UNL     1       3.364   0.634   0.254  0.00  0.00    +0.000 A 
ATOM     23  C   UNL     1       5.086  -1.509   0.724  0.00  0.00    +0.000 A 
ATOM     24  C   UNL     1       3.705  -1.707   0.734  0.00  0.00    +0.000 A 
ATOM     25  C   UNL     1       5.291   2.125  -0.005  0.00  0.00    +0.000 A 
ATOM     26  C   UNL     1       7.013  -0.018   0.465  0.00  0.00    +0.000 A 
ATOM     27  C   UNL     1       6.672   2.324  -0.015  0.00  0.00    +0.000 A 
ATOM     28  C   UNL     1       7.531   1.254   0.220  0.00  0.00    +0.000 A 
ENDBRANCH  18  21
ENDBRANCH  17  18
ENDBRANCH  13  17
ENDBRANCH  11  13
ENDBRANCH   3  11
BRANCH   1  29
ATOM     29  C   UNL     1      -4.275   1.600  -0.879  0.00  0.00    +0.000 C 
BRANCH  29  30
ATOM     30  CA  UNL     1      -4.082   2.792   0.083  0.00  0.00    +0.000 C 
BRANCH  30  31
ATOM     31  N   UNL     1      -4.711   3.993  -0.462  0.00  0.00    +0.000 NA
ATOM     32  H1  UNL     1      -5.706   3.824  -0.605  0.00  0.00    +0.000 HD
ATOM     33  H2  UNL     1      -4.649   4.751   0.218  0.00  0.00    +0.000 HD
ENDBRANCH  30  31
BRANCH  30  35
ATOM     34  OXT UNL     1      -1.969   3.898  -0.413  0.00  0.00    +0.000 OA
ATOM     35  C   UNL     1      -2.613   3.124   0.284  0.00  0.00    +0.000 C 
BRANCH  35  36
ATOM     36  O   UNL     1      -2.082   2.488   1.361  0.00  0.00    +0.000 OA
ATOM     37  H   UNL     1      -1.137   2.717   1.491  0.00  0.00    +0.000 HD
ENDBRANCH  35  36
ENDBRANCH  30  35
ENDBRANCH  29  30
ENDBRANCH   1  29
TORSDOF 13
