REMARK  Name = 3036505
REMARK  9 active torsions:
REMARK  status: ('A' for Active; 'I' for Inactive)
REMARK    1  A    between atoms: O_2  and  C_19
REMARK    2  A    between atoms: O_2  and  C_26
REMARK    3  A    between atoms: O_3  and  C_27
REMARK    4  A    between atoms: C_4  and  C_6
REMARK    5  A    between atoms: C_4  and  C_8
REMARK    6  A    between atoms: C_5  and  C_7
REMARK    7  A    between atoms: C_5  and  C_9
REMARK    8  A    between atoms: C_6  and  C_12
REMARK    9  A    between atoms: C_26  and  C_27
REMARK                            x       y       z     vdW  Elec       q    Type
REMARK                         _______ _______ _______ _____ _____    ______ ____
ROOT
ATOM      1  C   UNL     1       1.532  -0.998   0.229  0.00  0.00    +0.000 C 
ATOM      2  C   UNL     1       1.205   0.332   0.105  0.00  0.00    +0.000 C 
ENDROOT
BRANCH   2   3
ATOM      3  C   UNL     1      -0.241   0.711  -0.026  0.00  0.00    +0.000 A 
ATOM      4  C   UNL     1      -0.954   0.964   1.119  0.00  0.00    +0.000 A 
ATOM      5  C   UNL     1      -0.783   0.788  -1.284  0.00  0.00    +0.000 A 
ATOM      6  C   UNL     1      -2.298   1.317   0.997  0.00  0.00    +0.000 A 
ATOM      7  C   UNL     1      -2.127   1.142  -1.406  0.00  0.00    +0.000 A 
ATOM      8  C   UNL     1      -2.884   1.406  -0.265  0.00  0.00    +0.000 A 
BRANCH   8   9
ATOM      9  O   UNL     1      -4.195   1.752  -0.384  0.00  0.00    +0.000 OA
BRANCH   9  10
ATOM     10  C   UNL     1      -5.064   1.383   0.686  0.00  0.00    +0.000 C 
BRANCH  10  11
ATOM     11  C   UNL     1      -6.462   1.172   0.139  0.00  0.00    +0.000 C 
BRANCH  11  12
ATOM     12  O   UNL     1      -6.424   0.149  -0.849  0.00  0.00    +0.000 OA
ATOM     13  H   UNL     1      -5.796   0.430  -1.536  0.00  0.00    +0.000 HD
ENDBRANCH  11  12
ENDBRANCH  10  11
ENDBRANCH   9  10
ENDBRANCH   8   9
ENDBRANCH   2   3
BRANCH   1  14
ATOM     14  C   UNL     1       0.509  -2.074   0.229  0.00  0.00    +0.000 A 
ATOM     15  C   UNL     1       0.142  -2.647  -0.973  0.00  0.00    +0.000 A 
ATOM     16  C   UNL     1      -0.044  -2.470   1.429  0.00  0.00    +0.000 A 
ATOM     17  C   UNL     1      -0.818  -3.658  -0.973  0.00  0.00    +0.000 A 
ATOM     18  C   UNL     1      -1.004  -3.482   1.429  0.00  0.00    +0.000 A 
ATOM     19  C   UNL     1      -1.392  -4.076   0.228  0.00  0.00    +0.000 A 
ENDBRANCH   1  14
BRANCH   2  20
ATOM     20  C   UNL     1       2.240   1.354   0.105  0.00  0.00    +0.000 A 
ATOM     21  C   UNL     1       2.650   1.932   1.306  0.00  0.00    +0.000 A 
ATOM     22  C   UNL     1       2.822   1.756  -1.097  0.00  0.00    +0.000 A 
ATOM     23  C   UNL     1       3.642   2.912   1.306  0.00  0.00    +0.000 A 
ATOM     24  C   UNL     1       3.815   2.736  -1.097  0.00  0.00    +0.000 A 
ATOM     25  C   UNL     1       4.225   3.313   0.105  0.00  0.00    +0.000 A 
ENDBRANCH   2  20
BRANCH   1  26
ATOM     26  C   UNL     1       2.949  -1.517   0.432  0.00  0.00    +0.000 C 
BRANCH  26  28
ATOM     27 CL   UNL     1       5.307  -2.390  -0.597  0.00  0.00    +0.000 Cl
ATOM     28  C   UNL     1       3.652  -1.805  -0.892  0.00  0.00    +0.000 C 
ENDBRANCH  26  28
ENDBRANCH   1  26
TORSDOF 9
