REMARK  Name = 4969
REMARK  10 active torsions:
REMARK  status: ('A' for Active; 'I' for Inactive)
REMARK    1  A    between atoms: O_1  and  C_11
REMARK    2  A    between atoms: O_4  and  C_22
REMARK    3  A    between atoms: O_5  and  C_24
REMARK    4  A    between atoms: N_6  and  C_7
REMARK    5  A    between atoms: N_6  and  C_9
REMARK    6  A    between atoms: C_7  and  C_8
REMARK    7  A    between atoms: C_7  and  C_12
REMARK    8  A    between atoms: C_8  and  C_10
REMARK    9  A    between atoms: C_9  and  C_11
REMARK   10  A    between atoms: C_11  and  C_13
REMARK                            x       y       z     vdW  Elec       q    Type
REMARK                         _______ _______ _______ _____ _____    ______ ____
ROOT
ATOM      1  N   UNL     1       1.020   2.160   0.368  0.00  0.00    +0.000 NA
ATOM      2  H   UNL     1       1.047   2.330   1.373  0.00  0.00    +0.000 HD
ENDROOT
BRANCH   1   3
ATOM      3  C   UNL     1       0.246   3.211  -0.299  0.00  0.00    +0.000 C 
ATOM      4  C   UNL     1       0.939   4.551  -0.048  0.00  0.00    +0.000 C 
BRANCH   3   5
ATOM      5  C   UNL     1      -1.214   3.201   0.209  0.00  0.00    +0.000 C 
BRANCH   5   8
ATOM      6  O   UNL     1      -2.613  -1.327   1.592  0.00  0.00    +0.000 OA
ATOM      7  O   UNL     1      -3.839  -1.697  -0.449  0.00  0.00    +0.000 OA
ATOM      8  C   UNL     1      -1.926   1.907   0.001  0.00  0.00    +0.000 A 
ATOM      9  C   UNL     1      -1.877   0.921   0.989  0.00  0.00    +0.000 A 
ATOM     10  C   UNL     1      -2.642   1.691  -1.190  0.00  0.00    +0.000 A 
ATOM     11  C   UNL     1      -2.550  -0.259   0.751  0.00  0.00    +0.000 A 
ATOM     12  C   UNL     1      -3.251  -0.471  -0.415  0.00  0.00    +0.000 A 
ATOM     13  C   UNL     1      -3.315   0.486  -1.407  0.00  0.00    +0.000 A 
ATOM     14  C   UNL     1      -3.431  -2.234   0.826  0.00  0.00    +0.000 C 
ENDBRANCH   5   8
ENDBRANCH   3   5
ENDBRANCH   1   3
BRANCH   1  15
ATOM     15  C   UNL     1       2.372   2.104  -0.162  0.00  0.00    +0.000 C 
BRANCH  15  16
ATOM     16  C   UNL     1       3.194   1.013   0.524  0.00  0.00    +0.000 C 
BRANCH  16  17
ATOM     17  C   UNL     1       2.569  -0.352   0.353  0.00  0.00    +0.000 A 
ATOM     18  C   UNL     1       2.337  -0.835  -0.924  0.00  0.00    +0.000 A 
ATOM     19  C   UNL     1       2.239  -1.092   1.476  0.00  0.00    +0.000 A 
ATOM     20  C   UNL     1       1.760  -2.095  -1.083  0.00  0.00    +0.000 A 
ATOM     21  C   UNL     1       1.661  -2.351   1.318  0.00  0.00    +0.000 A 
ATOM     22  C   UNL     1       1.422  -2.853   0.039  0.00  0.00    +0.000 A 
BRANCH  20  23
ATOM     23  O   UNL     1       1.531  -2.574  -2.337  0.00  0.00    +0.000 OA
ATOM     24  H   UNL     1       1.826  -1.914  -2.988  0.00  0.00    +0.000 HD
ENDBRANCH  20  23
BRANCH  22  25
ATOM     25  O   UNL     1       0.857  -4.084  -0.103  0.00  0.00    +0.000 OA
ATOM     26  H   UNL     1       0.762  -4.270  -1.053  0.00  0.00    +0.000 HD
ENDBRANCH  22  25
ENDBRANCH  16  17
BRANCH  16  27
ATOM     27  O   UNL     1       4.510   0.981  -0.029  0.00  0.00    +0.000 OA
ATOM     28  H   UNL     1       4.907   1.858   0.105  0.00  0.00    +0.000 HD
ENDBRANCH  16  27
ENDBRANCH  15  16
ENDBRANCH   1  15
TORSDOF 9
