REMARK  Name = 
REMARK  6 active torsions:
REMARK  status: ('A' for Active; 'I' for Inactive)
REMARK    1  A    between atoms: C_2  and  O_3
REMARK    2  A    between atoms: C_2  and  C_4
REMARK    3  A    between atoms: C_4  and  O_5
REMARK    4  A    between atoms: C_6  and  C_7
REMARK    5  A    between atoms: C_8  and  C_9
REMARK    6  A    between atoms: C_9  and  C_11
REMARK                            x       y       z     vdW  Elec       q    Type
REMARK                         _______ _______ _______ _____ _____    ______ ____
ROOT
ATOM      1  C   UNL     1      -1.195  -0.861   0.073  0.00  0.00    +0.000 C 
ATOM      2  C   UNL     1      -0.017  -0.560   0.588  0.00  0.00    +0.000 C 
ENDROOT
BRANCH   1   4
ATOM      3  C   UNL     1      -3.428  -0.684   0.970  0.00  0.00    +0.000 C 
ATOM      4  C   UNL     1      -2.288  -1.331   0.933  0.00  0.00    +0.000 C 
BRANCH   3   6
ATOM      5  O   UNL     1      -5.001  -0.739  -0.711  0.00  0.00    +0.000 OA
ATOM      6  C   UNL     1      -3.932  -0.181  -0.315  0.00  0.00    +0.000 C 
BRANCH   6   7
ATOM      7  O   UNL     1      -3.863   1.189  -0.594  0.00  0.00    +0.000 OA
ATOM      8  H   UNL     1      -3.109   1.682  -0.337  0.00  0.00    +0.000 HD
ENDBRANCH   6   7
ENDBRANCH   3   6
BRANCH   3   9
ATOM      9  O   UNL     1      -4.083  -0.325   2.152  0.00  0.00    +0.000 OA
ATOM     10  H   UNL     1      -4.897   0.137   2.115  0.00  0.00    +0.000 HD
ENDBRANCH   3   9
ENDBRANCH   1   4
BRANCH   2  11
ATOM     11  C   UNL     1       0.874   0.459   0.066  0.00  0.00    +0.000 C 
ATOM     12  O   UNL     1       0.508   1.672   0.137  0.00  0.00    +0.000 OA
BRANCH  11  13
ATOM     13  C   UNL     1       2.327   0.252   0.133  0.00  0.00    +0.000 A 
ATOM     14  C   UNL     1       3.156   1.127   0.823  0.00  0.00    +0.000 A 
ATOM     15  C   UNL     1       4.538   1.042   0.729  0.00  0.00    +0.000 A 
ATOM     16  C   UNL     1       5.131   0.121  -0.094  0.00  0.00    +0.000 A 
ATOM     17  C   UNL     1       4.325  -0.606  -0.930  0.00  0.00    +0.000 A 
ATOM     18  C   UNL     1       2.946  -0.575  -0.796  0.00  0.00    +0.000 A 
ENDBRANCH  11  13
ENDBRANCH   2  11
TORSDOF 6
