REMARK  Name = 639665
REMARK  12 active torsions:
REMARK  status: ('A' for Active; 'I' for Inactive)
REMARK    1  A    between atoms: O_1  and  C_11
REMARK    2  A    between atoms: O_1  and  C_21
REMARK    3  A    between atoms: O_2  and  C_8
REMARK    4  A    between atoms: O_3  and  C_10
REMARK    5  A    between atoms: O_5  and  C_26
REMARK    6  A    between atoms: C_6  and  C_7
REMARK    7  A    between atoms: C_7  and  C_13
REMARK    8  A    between atoms: C_9  and  C_14
REMARK    9  A    between atoms: C_14  and  C_16
REMARK   10  A    between atoms: C_15  and  C_17
REMARK   11  A    between atoms: C_15  and  C_18
REMARK   12  A    between atoms: C_19  and  C_20
REMARK                            x       y       z     vdW  Elec       q    Type
REMARK                         _______ _______ _______ _____ _____    ______ ____
ROOT
ATOM      1  C   UNL     1       3.235  -0.169  -0.084  0.00  0.00    +0.000 A 
ATOM      2  C   UNL     1       1.990  -0.243  -0.694  0.00  0.00    +0.000 A 
ATOM      3  C   UNL     1       1.122  -1.283  -0.361  0.00  0.00    +0.000 A 
ATOM      4  C   UNL     1       3.630  -1.116   0.851  0.00  0.00    +0.000 A 
ATOM      5  C   UNL     1       1.508  -2.240   0.578  0.00  0.00    +0.000 A 
ATOM      6  C   UNL     1       2.762  -2.156   1.184  0.00  0.00    +0.000 A 
ENDROOT
BRANCH   5   7
ATOM      7  O   UNL     1       0.677  -3.265   0.917  0.00  0.00    +0.000 OA
ATOM      8  C   UNL     1       0.780  -4.463   0.150  0.00  0.00    +0.000 C 
ENDBRANCH   5   7
BRANCH   2   9
ATOM      9  O   UNL     1       1.615   0.695  -1.612  0.00  0.00    +0.000 OA
ATOM     10  H   UNL     1       0.741   0.490  -1.981  0.00  0.00    +0.000 HD
ENDBRANCH   2   9
BRANCH   4  11
ATOM     11  O   UNL     1       4.850  -1.050   1.454  0.00  0.00    +0.000 OA
ATOM     12  H   UNL     1       5.181  -0.139   1.458  0.00  0.00    +0.000 HD
ENDBRANCH   4  11
BRANCH   3  14
ATOM     13  O   UNL     1      -0.335  -1.985  -2.060  0.00  0.00    +0.000 OA
ATOM     14  C   UNL     1      -0.188  -1.373  -0.995  0.00  0.00    +0.000 C 
BRANCH  14  15
ATOM     15  C   UNL     1      -1.348  -0.678  -0.342  0.00  0.00    +0.000 C 
ATOM     16  C   UNL     1      -2.565  -0.711  -0.904  0.00  0.00    +0.000 C 
BRANCH  16  17
ATOM     17  C   UNL     1      -3.759  -0.050  -0.349  0.00  0.00    +0.000 A 
ATOM     18  C   UNL     1      -3.781   0.296   0.992  0.00  0.00    +0.000 A 
ATOM     19  C   UNL     1      -4.836   0.213  -1.180  0.00  0.00    +0.000 A 
ATOM     20  C   UNL     1      -4.912   0.923   1.517  0.00  0.00    +0.000 A 
ATOM     21  C   UNL     1      -5.966   0.840  -0.655  0.00  0.00    +0.000 A 
ATOM     22  C   UNL     1      -6.004   1.194   0.693  0.00  0.00    +0.000 A 
BRANCH  22  23
ATOM     23  O   UNL     1      -7.107   1.806   1.205  0.00  0.00    +0.000 OA
ATOM     24  H   UNL     1      -7.764   1.916   0.496  0.00  0.00    +0.000 HD
ENDBRANCH  22  23
ENDBRANCH  16  17
ENDBRANCH  14  15
ENDBRANCH   3  14
BRANCH   1  25
ATOM     25  C   UNL     1       4.175   0.955  -0.442  0.00  0.00    +0.000 C 
BRANCH  25  26
ATOM     26  C   UNL     1       3.988   2.159   0.438  0.00  0.00    +0.000 C 
ATOM     27  C   UNL     1       3.631   3.405   0.071  0.00  0.00    +0.000 C 
ATOM     28  C   UNL     1       3.377   3.729  -1.377  0.00  0.00    +0.000 C 
ATOM     29  C   UNL     1       3.461   4.569   1.005  0.00  0.00    +0.000 C 
ENDBRANCH  25  26
ENDBRANCH   1  25
TORSDOF 9
