REMARK  Name = 5373773
REMARK  10 active torsions:
REMARK  status: ('A' for Active; 'I' for Inactive)
REMARK    1  A    between atoms: O_1  and  C_5
REMARK    2  A    between atoms: O_1  and  C_8
REMARK    3  A    between atoms: O_2  and  C_6
REMARK    4  A    between atoms: O_2  and  C_17
REMARK    5  A    between atoms: O_3  and  C_11
REMARK    6  A    between atoms: O_3  and  C_18
REMARK    7  A    between atoms: C_5  and  C_6
REMARK    8  A    between atoms: C_7  and  C_12
REMARK    9  A    between atoms: C_8  and  C_15
REMARK   10  A    between atoms: C_16  and  C_17
REMARK                            x       y       z     vdW  Elec       q    Type
REMARK                         _______ _______ _______ _____ _____    ______ ____
ROOT
ATOM      1  C   UNL     1       0.752  -1.202   0.267  0.00  0.00    +0.000 C 
ATOM      2  C   UNL     1      -0.453  -0.678  -0.053  0.00  0.00    +0.000 C 
ENDROOT
BRANCH   1   3
ATOM      3  C   UNL     1       2.025  -0.508   0.156  0.00  0.00    +0.000 A 
ATOM      4  C   UNL     1       3.213  -1.238   0.107  0.00  0.00    +0.000 A 
ATOM      5  C   UNL     1       2.059   0.885   0.099  0.00  0.00    +0.000 A 
ATOM      6  C   UNL     1       4.469   0.820  -0.057  0.00  0.00    +0.000 A 
ATOM      7  C   UNL     1       4.436  -0.573   0.001  0.00  0.00    +0.000 A 
ATOM      8  C   UNL     1       3.281   1.549  -0.007  0.00  0.00    +0.000 A 
BRANCH   6   9
ATOM      9  O   UNL     1       5.661   1.469  -0.160  0.00  0.00    +0.000 OA
ATOM     10  C   UNL     1       6.838   0.662  -0.205  0.00  0.00    +0.000 C 
ENDBRANCH   6   9
ENDBRANCH   1   3
BRANCH   2  12
ATOM     11  O   UNL     1      -1.725  -2.640   0.505  0.00  0.00    +0.000 OA
ATOM     12  C   UNL     1      -1.681  -1.492   0.095  0.00  0.00    +0.000 C 
BRANCH  12  13
ATOM     13  O   UNL     1      -2.732  -0.726  -0.307  0.00  0.00    +0.000 OA
BRANCH  13  14
ATOM     14  C   UNL     1      -4.015  -1.355  -0.231  0.00  0.00    +0.000 C 
BRANCH  14  15
ATOM     15  C   UNL     1      -5.073  -0.380  -0.710  0.00  0.00    +0.000 C 
BRANCH  15  16
ATOM     16  O   UNL     1      -5.064   0.765   0.133  0.00  0.00    +0.000 OA
BRANCH  16  17
ATOM     17  C   UNL     1      -6.024   1.726  -0.283  0.00  0.00    +0.000 C 
ATOM     18  C   UNL     1      -5.967   2.917   0.649  0.00  0.00    +0.000 C 
ENDBRANCH  16  17
ENDBRANCH  15  16
ENDBRANCH  14  15
ENDBRANCH  13  14
ENDBRANCH  12  13
ENDBRANCH   2  12
TORSDOF 8
