REMARK  Name = 6971018
REMARK  5 active torsions:
REMARK  status: ('A' for Active; 'I' for Inactive)
REMARK    1  A    between atoms: N_3  and  CA_5
REMARK    2  A    between atoms: CB_4  and  CA_5
REMARK    3  A    between atoms: CB_4  and  CG1_6
REMARK    4  A    between atoms: CB_4  and  CG2_7
REMARK    5  A    between atoms: CA_5  and  C_8
REMARK                            x       y       z     vdW  Elec       q    Type
REMARK                         _______ _______ _______ _____ _____    ______ ____
ROOT
ATOM      1  CA  VAL A   1       0.028  -0.537  -0.418  0.00  0.00    +0.000 C 
ENDROOT
BRANCH   1   2
ATOM      2  N   VAL A   1      -0.170  -1.773   0.399  0.00  0.00    +0.000 N 
ATOM      3  H1  VAL A   1       0.629  -2.413   0.290  0.00  0.00    +0.000 HD
ATOM      4  H2  VAL A   1      -1.008  -2.296   0.116  0.00  0.00    +0.000 HD
ATOM      5  H3  VAL A   1      -0.253  -1.562   1.402  0.00  0.00    +0.000 HD
ENDBRANCH   1   2
BRANCH   1   8
ATOM      6  O   VAL A   1       2.306  -0.545   0.264  0.00  0.00    +0.000 OA
ATOM      7  OXT VAL A   1       1.364   1.417  -0.428  0.00  0.00    +0.000 OA
ATOM      8  C   VAL A   1       1.365   0.180  -0.164  0.00  0.00    +0.000 C 
ENDBRANCH   1   8
BRANCH   1   9
ATOM      9  CB  VAL A   1      -1.164   0.430  -0.242  0.00  0.00    +0.000 C 
ATOM     10  CG1 VAL A   1      -2.504  -0.242  -0.561  0.00  0.00    +0.000 C 
ATOM     11  CG2 VAL A   1      -1.226   1.070   1.150  0.00  0.00    +0.000 C 
ENDBRANCH   1   9
TORSDOF 3
