REMARK  Name = 164795
REMARK  9 active torsions:
REMARK  status: ('A' for Active; 'I' for Inactive)
REMARK    1  A    between atoms: O_1  and  C_10
REMARK    2  A    between atoms: N_3  and  C_9
REMARK    3  A    between atoms: N_3  and  C_11
REMARK    4  A    between atoms: N_4  and  C_8
REMARK    5  A    between atoms: C_5  and  C_6
REMARK    6  A    between atoms: C_5  and  C_7
REMARK    7  A    between atoms: C_6  and  C_8
REMARK    8  A    between atoms: C_7  and  C_9
REMARK    9  A    between atoms: C_8  and  C_10
REMARK                            x       y       z     vdW  Elec       q    Type
REMARK                         _______ _______ _______ _____ _____    ______ ____
ROOT
ATOM      1  C   UNK     1      -1.959   0.358  -0.432  0.00  0.00    +0.000 C 
ENDROOT
BRANCH   1   2
ATOM      2  N   UNK     1      -2.034   1.774  -0.066  0.00  0.00    +0.000 NA
ATOM      3  H   UNK     1      -2.106   1.869   0.946  0.00  0.00    +0.000 HD
ATOM      4  H   UNK     1      -2.875   2.192  -0.461  0.00  0.00    +0.000 HD
ENDBRANCH   1   2
BRANCH   1   6
ATOM      5  O   UNK     1      -4.120   0.289   0.641  0.00  0.00    +0.000 OA
ATOM      6  C   UNK     1      -3.252  -0.298   0.005  0.00  0.00    +0.000 C 
BRANCH   6   7
ATOM      7  O   UNK     1      -3.361  -1.601  -0.353  0.00  0.00    +0.000 OA
ATOM      8  H   UNK     1      -4.206  -1.996  -0.046  0.00  0.00    +0.000 HD
ENDBRANCH   6   7
ENDBRANCH   1   6
BRANCH   1   9
ATOM      9  C   UNK     1      -0.714  -0.309   0.167  0.00  0.00    +0.000 C 
BRANCH   9  10
ATOM     10  C   UNK     1       0.620   0.302  -0.282  0.00  0.00    +0.000 C 
BRANCH  10  11
ATOM     11  C   UNK     1       1.846  -0.428   0.274  0.00  0.00    +0.000 C 
BRANCH  11  12
ATOM     12  C   UNK     1       3.140   0.241  -0.188  0.00  0.00    +0.000 C 
BRANCH  12  13
ATOM     13  N   UNK     1       4.296  -0.470   0.344  0.00  0.00    +0.000 NA
ATOM     14  C   UNK     1       5.537   0.143  -0.109  0.00  0.00    +0.000 C 
ATOM     15  H   UNK     1       4.270  -1.443   0.039  0.00  0.00    +0.000 HD
ENDBRANCH  12  13
ENDBRANCH  11  12
ENDBRANCH  10  11
ENDBRANCH   9  10
ENDBRANCH   1   9
TORSDOF 8
