REMARK  Name = 445025
REMARK  11 active torsions:
REMARK  status: ('A' for Active; 'I' for Inactive)
REMARK    1  A    between atoms: O_1  and  C_13
REMARK    2  A    between atoms: N_3  and  C_5
REMARK    3  A    between atoms: N_4  and  C_8
REMARK    4  A    between atoms: C_5  and  C_6
REMARK    5  A    between atoms: C_5  and  C_8
REMARK    6  A    between atoms: C_6  and  C_7
REMARK    7  A    between atoms: C_7  and  C_9
REMARK    8  A    between atoms: C_8  and  C_11
REMARK    9  A    between atoms: C_9  and  C_10
REMARK   10  A    between atoms: C_10  and  C_12
REMARK   11  A    between atoms: C_12  and  C_13
REMARK                            x       y       z     vdW  Elec       q    Type
REMARK                         _______ _______ _______ _____ _____    ______ ____
ROOT
ATOM      1  C   UNL     1      -2.557   0.009   0.297  0.00  0.00    +0.000 C 
ENDROOT
BRANCH   1   2
ATOM      2  N   UNL     1      -2.426   0.207   1.744  0.00  0.00    +0.000 NA
ATOM      3  H   UNL     1      -2.779  -0.605   2.246  0.00  0.00    +0.000 HD
ATOM      4  H   UNL     1      -2.997   0.999   2.035  0.00  0.00    +0.000 HD
ENDBRANCH   1   2
BRANCH   1   5
ATOM      5  C   UNL     1      -4.043  -0.167  -0.111  0.00  0.00    +0.000 C 
ATOM      6  C   UNL     1      -4.732  -1.321   0.626  0.00  0.00    +0.000 C 
BRANCH   5   7
ATOM      7  N   UNL     1      -4.143  -0.419  -1.554  0.00  0.00    +0.000 NA
ATOM      8  H   UNL     1      -3.866   0.413  -2.071  0.00  0.00    +0.000 HD
ATOM      9  H   UNL     1      -5.117  -0.588  -1.806  0.00  0.00    +0.000 HD
ENDBRANCH   5   7
ENDBRANCH   1   5
BRANCH   1  10
ATOM     10  C   UNL     1      -1.822   1.144  -0.457  0.00  0.00    +0.000 C 
BRANCH  10  11
ATOM     11  C   UNL     1      -0.342   1.391  -0.131  0.00  0.00    +0.000 C 
BRANCH  11  12
ATOM     12  C   UNL     1       0.573   0.183  -0.340  0.00  0.00    +0.000 C 
BRANCH  12  13
ATOM     13  C   UNL     1       2.041   0.555  -0.102  0.00  0.00    +0.000 C 
BRANCH  13  14
ATOM     14  C   UNL     1       2.980  -0.640  -0.269  0.00  0.00    +0.000 C 
BRANCH  14  16
ATOM     15  O   UNL     1       4.853   0.781   0.379  0.00  0.00    +0.000 OA
ATOM     16  C   UNL     1       4.422  -0.307   0.030  0.00  0.00    +0.000 C 
BRANCH  16  17
ATOM     17  O   UNL     1       5.196  -1.414  -0.112  0.00  0.00    +0.000 OA
ATOM     18  H   UNL     1       6.138  -1.230   0.090  0.00  0.00    +0.000 HD
ENDBRANCH  16  17
ENDBRANCH  14  16
ENDBRANCH  13  14
ENDBRANCH  12  13
ENDBRANCH  11  12
ENDBRANCH  10  11
ENDBRANCH   1  10
TORSDOF 10
