REMARK  Name = 122706489
REMARK  5 active torsions:
REMARK  status: ('A' for Active; 'I' for Inactive)
REMARK    1  A    between atoms: S_1  and  O_4
REMARK    2  A    between atoms: S_1  and  C_7
REMARK    3  A    between atoms: N_5  and  C_6
REMARK    4  A    between atoms: C_6  and  C_7
REMARK    5  A    between atoms: C_6  and  C_8
REMARK                            x       y       z     vdW  Elec       q    Type
REMARK                         _______ _______ _______ _____ _____    ______ ____
ROOT
ATOM      1  C   UNK     1      -0.544   0.625  -0.597  0.00  0.00    +0.000 C 
ENDROOT
BRANCH   1   2
ATOM      2  N   UNK     1      -0.621   1.913   0.166  0.00  0.00    +0.000 N 
ATOM      3  H   UNK     1      -1.595   2.227   0.266  0.00  0.00    +0.000 HD
ATOM      4  H   UNK     1      -0.104   2.667  -0.306  0.00  0.00    +0.000 HD
ATOM      5  H   UNK     1      -0.231   1.811   1.112  0.00  0.00    +0.000 HD
ENDBRANCH   1   2
BRANCH   1   8
ATOM      6  O   UNK     1      -2.402  -0.127   0.672  0.00  0.00    +0.000 OA
ATOM      7  O   UNK     1      -1.048  -1.681  -0.307  0.00  0.00    +0.000 OA
ATOM      8  C   UNK     1      -1.421  -0.506  -0.030  0.00  0.00    +0.000 C 
ENDBRANCH   1   8
BRANCH   1   9
ATOM      9  C   UNK     1       0.940   0.303  -0.787  0.00  0.00    +0.000 C 
BRANCH   9  10
ATOM     10  S   UNK     1       1.794  -0.135   0.763  0.00  0.00    +0.000 S 
BRANCH  10  11
ATOM     11  O   UNK     1       3.301  -0.394   0.120  0.00  0.00    +0.000 OA
ATOM     12  H   UNK     1       3.827   0.441   0.126  0.00  0.00    +0.000 HD
ENDBRANCH  10  11
ENDBRANCH   9  10
ENDBRANCH   1   9
TORSDOF 5
