REMARK  Name = 
REMARK  11 active torsions:
REMARK  status: ('A' for Active; 'I' for Inactive)
REMARK    1  A    between atoms: N_1  and  CA_2
REMARK    2  A    between atoms: CA_2  and  C_3
REMARK    3  A    between atoms: CA_2  and  C_11
REMARK    4  A    between atoms: C_3  and  C_4
REMARK    5  A    between atoms: C_4  and  C_5
REMARK    6  A    between atoms: C_5  and  C_6
REMARK    7  A    between atoms: C_6  and  B_7
REMARK    8  A    between atoms: B_7  and  O_8
REMARK    9  A    between atoms: B_7  and  O_9
REMARK   10  A    between atoms: B_7  and  O_10
REMARK   11  A    between atoms: C_11  and  OXT_13
REMARK                            x       y       z     vdW  Elec       q    Type
REMARK                         _______ _______ _______ _____ _____    ______ ____
ROOT
ATOM      1  C   UNL     1       0.179  -1.058  -0.982  0.00  0.00    +0.000 C 
ENDROOT
BRANCH   1   2
ATOM      2  C   UNL     1       1.136  -1.100   0.162  0.00  0.00    +0.000 C 
BRANCH   2   3
ATOM      3  CA  UNL     1       2.598  -0.988  -0.597  0.00  0.00    +0.000 C 
BRANCH   3   4
ATOM      4  N   UNL     1       3.345  -1.658   0.626  0.00  0.00    +0.000 NA
ATOM      5  H1  UNL     1       3.299  -2.673   0.538  0.00  0.00    +0.000 HD
ATOM      6  H2  UNL     1       2.898  -1.371   1.496  0.00  0.00    +0.000 HD
ENDBRANCH   3   4
BRANCH   3   7
ATOM      7  C   UNL     1       2.909   0.506  -0.069  0.00  0.00    +0.000 C 
ATOM      8  O   UNL     1       2.400   0.925   0.924  0.00  0.00    +0.000 OA
BRANCH   7   9
ATOM      9  OXT UNL     1       3.734   1.227  -0.910  0.00  0.00    +0.000 OA
ATOM     10  HXT UNL     1       4.095   0.821  -1.673  0.00  0.00    +0.000 HD
ENDBRANCH   7   9
ENDBRANCH   3   7
ENDBRANCH   2   3
ENDBRANCH   1   2
BRANCH   1  11
ATOM     11  C   UNL     1      -0.734   0.172  -0.953  0.00  0.00    +0.000 C 
BRANCH  11  12
ATOM     12  C   UNL     1      -1.780   0.049  -0.147  0.00  0.00    +0.000 C 
BRANCH  12  13
ATOM     13  B   UNL     1      -3.100   0.420   0.341  0.00  0.00    +0.000 B 
BRANCH  13  14
ATOM     14  O   UNL     1      -3.994  -0.759   0.161  0.00  0.00    +0.000 OA
ATOM     15  H   UNL     1      -4.091  -0.948  -0.786  0.00  0.00    +0.000 HD
ENDBRANCH  13  14
BRANCH  13  16
ATOM     16  O   UNL     1      -3.739   1.559  -0.352  0.00  0.00    +0.000 OA
ATOM     17  H   UNL     1      -3.825   1.357  -1.296  0.00  0.00    +0.000 HD
ENDBRANCH  13  16
BRANCH  13  18
ATOM     18  O   UNL     1      -2.956   0.704   1.796  0.00  0.00    +0.000 OA
ATOM     19  H   UNL     1      -2.536  -0.053   2.233  0.00  0.00    +0.000 HD
ENDBRANCH  13  18
ENDBRANCH  12  13
ENDBRANCH  11  12
ENDBRANCH   1  11
TORSDOF 11
