REMARK  Name = 145815
REMARK  6 active torsions:
REMARK  status: ('A' for Active; 'I' for Inactive)
REMARK    1  A    between atoms: O_1  and  C_9
REMARK    2  A    between atoms: N_4  and  CA_7
REMARK    3  A    between atoms: CB_6  and  CA_7
REMARK    4  A    between atoms: CB_6  and  CG_8
REMARK    5  A    between atoms: CA_7  and  C_9
REMARK    6  A    between atoms: CG_8  and  CD_10
REMARK                            x       y       z     vdW  Elec       q    Type
REMARK                         _______ _______ _______ _____ _____    ______ ____
ROOT
ATOM      1  CA  GLN A   1      -1.384   0.769   0.483  0.00  0.00    +0.000 C 
ENDROOT
BRANCH   1   2
ATOM      2  N   GLN A   1      -1.668   1.808  -0.506  0.00  0.00    +0.000 NA
ATOM      3  H1  GLN A   1      -2.675   1.895  -0.638  0.00  0.00    +0.000 HD
ATOM      4  H2  GLN A   1      -1.279   1.547  -1.411  0.00  0.00    +0.000 HD
ENDBRANCH   1   2
BRANCH   1   6
ATOM      5  OXT GLN A   1      -2.613  -0.680  -1.050  0.00  0.00    +0.000 OA
ATOM      6  C   GLN A   1      -2.033  -0.522   0.017  0.00  0.00    +0.000 C 
BRANCH   6   7
ATOM      7  O   GLN A   1      -1.885  -1.524   0.923  0.00  0.00    +0.000 OA
ATOM      8  H   GLN A   1      -2.297  -2.359   0.615  0.00  0.00    +0.000 HD
ENDBRANCH   6   7
ENDBRANCH   1   6
BRANCH   1   9
ATOM      9  CB  GLN A   1       0.126   0.633   0.741  0.00  0.00    +0.000 C 
BRANCH   9  10
ATOM     10  CG  GLN A   1       0.968   0.101  -0.425  0.00  0.00    +0.000 C 
BRANCH  10  13
ATOM     11  OE1 GLN A   1       2.884   0.130   1.031  0.00  0.00    +0.000 OA
ATOM     12  NE2 GLN A   1       3.178  -0.596  -1.132  0.00  0.00    +0.000 N 
ATOM     13  CD  GLN A   1       2.426  -0.119  -0.083  0.00  0.00    +0.000 C 
ATOM     14 HE21 GLN A   1       2.774  -0.787  -2.043  0.00  0.00    +0.000 HD
ATOM     15 HE22 GLN A   1       4.170  -0.777  -1.024  0.00  0.00    +0.000 HD
ENDBRANCH  10  13
ENDBRANCH   9  10
ENDBRANCH   1   9
TORSDOF 6
