REMARK  Name = 446994
REMARK  12 active torsions:
REMARK  status: ('A' for Active; 'I' for Inactive)
REMARK    1  A    between atoms: S_1  and  C_10
REMARK    2  A    between atoms: S_1  and  C_11
REMARK    3  A    between atoms: O_2  and  C_14
REMARK    4  A    between atoms: O_4  and  C_15
REMARK    5  A    between atoms: N_6  and  C_12
REMARK    6  A    between atoms: C_7  and  C_9
REMARK    7  A    between atoms: C_7  and  C_10
REMARK    8  A    between atoms: C_8  and  C_11
REMARK    9  A    between atoms: C_8  and  C_12
REMARK   10  A    between atoms: C_9  and  C_13
REMARK   11  A    between atoms: C_12  and  C_14
REMARK   12  A    between atoms: C_13  and  C_15
REMARK                            x       y       z     vdW  Elec       q    Type
REMARK                         _______ _______ _______ _____ _____    ______ ____
ROOT
ATOM      1  C   UNK     1      -1.741  -0.698  -1.027  0.00  0.00    +0.000 C 
ENDROOT
BRANCH   1   2
ATOM      2  S   UNK     1      -0.663   0.566  -0.315  0.00  0.00    +0.000 S 
BRANCH   2   3
ATOM      3  C   UNK     1       0.925  -0.289  -0.533  0.00  0.00    +0.000 C 
BRANCH   3   4
ATOM      4  C   UNK     1       2.111   0.526  -0.018  0.00  0.00    +0.000 C 
BRANCH   4   5
ATOM      5  C   UNK     1       3.461  -0.184  -0.187  0.00  0.00    +0.000 C 
BRANCH   5   6
ATOM      6  C   UNK     1       4.627   0.651   0.345  0.00  0.00    +0.000 C 
BRANCH   6   8
ATOM      7  O   UNK     1       6.158  -1.113  -0.349  0.00  0.00    +0.000 OA
ATOM      8  C   UNK     1       5.969  -0.030   0.187  0.00  0.00    +0.000 C 
BRANCH   8   9
ATOM      9  O   UNK     1       6.967   0.706   0.742  0.00  0.00    +0.000 OA
ATOM     10  H   UNK     1       7.839   0.265   0.652  0.00  0.00    +0.000 HD
ENDBRANCH   8   9
ENDBRANCH   6   8
ENDBRANCH   5   6
ENDBRANCH   4   5
ENDBRANCH   3   4
ENDBRANCH   2   3
ENDBRANCH   1   2
BRANCH   1  11
ATOM     11  C   UNK     1      -3.221  -0.306  -1.013  0.00  0.00    +0.000 C 
BRANCH  11  12
ATOM     12  C   UNK     1      -3.828  -0.065   0.377  0.00  0.00    +0.000 C 
BRANCH  12  13
ATOM     13  N   UNK     1      -3.791  -1.315   1.143  0.00  0.00    +0.000 NA
ATOM     14  H   UNK     1      -4.320  -2.040   0.661  0.00  0.00    +0.000 HD
ATOM     15  H   UNK     1      -4.237  -1.180   2.049  0.00  0.00    +0.000 HD
ENDBRANCH  12  13
BRANCH  12  17
ATOM     16  O   UNK     1      -6.230  -0.327   0.695  0.00  0.00    +0.000 OA
ATOM     17  C   UNK     1      -5.289   0.335   0.275  0.00  0.00    +0.000 C 
BRANCH  17  18
ATOM     18  O   UNK     1      -5.453   1.544  -0.321  0.00  0.00    +0.000 OA
ATOM     19  H   UNK     1      -6.399   1.801  -0.373  0.00  0.00    +0.000 HD
ENDBRANCH  17  18
ENDBRANCH  12  17
ENDBRANCH  11  12
ENDBRANCH   1  11
TORSDOF 12
