REMARK  Name = 9862248
REMARK  12 active torsions:
REMARK  status: ('A' for Active; 'I' for Inactive)
REMARK    1  A    between atoms: O_1  and  C_13
REMARK    2  A    between atoms: O_2  and  C_20
REMARK    3  A    between atoms: O_2  and  C_23
REMARK    4  A    between atoms: O_3  and  C_24
REMARK    5  A    between atoms: C_5  and  C_6
REMARK    6  A    between atoms: C_5  and  C_8
REMARK    7  A    between atoms: C_7  and  C_9
REMARK    8  A    between atoms: C_7  and  C_15
REMARK    9  A    between atoms: C_7  and  C_16
REMARK   10  A    between atoms: C_11  and  C_21
REMARK   11  A    between atoms: C_12  and  C_22
REMARK   12  A    between atoms: C_23  and  C_24
REMARK                            x       y       z     vdW  Elec       q    Type
REMARK                         _______ _______ _______ _____ _____    ______ ____
ROOT
ATOM      1  C   UNL     1       0.110   1.653   0.529  0.00  0.00    +0.000 A 
ATOM      2  C   UNL     1       0.593   1.842  -0.755  0.00  0.00    +0.000 A 
ATOM      3  C   UNL     1       0.894   1.081   1.518  0.00  0.00    +0.000 A 
ATOM      4  C   UNL     1       1.897   1.449  -1.059  0.00  0.00    +0.000 A 
ATOM      5  C   UNL     1       2.198   0.689   1.214  0.00  0.00    +0.000 A 
ATOM      6  C   UNL     1       2.699   0.873  -0.074  0.00  0.00    +0.000 A 
ATOM      7  C   UNL     1      -0.244   2.457  -1.828  0.00  0.00    +0.000 C 
ATOM      8  C   UNL     1       0.381   0.873   2.905  0.00  0.00    +0.000 C 
ENDROOT
BRANCH   6   9
ATOM      9  O   UNL     1       3.971   0.489  -0.371  0.00  0.00    +0.000 OA
BRANCH   9  10
ATOM     10  C   UNL     1       4.502  -0.616   0.358  0.00  0.00    +0.000 C 
BRANCH  10  12
ATOM     11  O   UNL     1       5.815  -1.068  -1.636  0.00  0.00    +0.000 OA
ATOM     12  C   UNL     1       5.508  -1.348  -0.487  0.00  0.00    +0.000 C 
BRANCH  12  13
ATOM     13  O   UNL     1       6.041  -2.383   0.210  0.00  0.00    +0.000 OA
ATOM     14  H   UNL     1       6.702  -2.878  -0.319  0.00  0.00    +0.000 HD
ENDBRANCH  12  13
ENDBRANCH  10  12
ENDBRANCH   9  10
ENDBRANCH   6   9
BRANCH   1  15
ATOM     15  C   UNL     1      -1.306   2.079   0.858  0.00  0.00    +0.000 C 
BRANCH  15  16
ATOM     16  C   UNL     1      -2.354   1.167   0.316  0.00  0.00    +0.000 A 
ATOM     17  C   UNL     1      -3.189  -1.067  -0.067  0.00  0.00    +0.000 A 
ATOM     18  C   UNL     1      -2.209  -0.214   0.441  0.00  0.00    +0.000 A 
ATOM     19  C   UNL     1      -4.315  -0.539  -0.699  0.00  0.00    +0.000 A 
ATOM     20  C   UNL     1      -3.479   1.696  -0.316  0.00  0.00    +0.000 A 
ATOM     21  C   UNL     1      -4.460   0.843  -0.823  0.00  0.00    +0.000 A 
BRANCH  17  22
ATOM     22  C   UNL     1      -3.019  -2.544   0.077  0.00  0.00    +0.000 C 
ATOM     23  C   UNL     1      -2.981  -2.990   1.550  0.00  0.00    +0.000 C 
ATOM     24  C   UNL     1      -1.772  -3.065  -0.660  0.00  0.00    +0.000 C 
ENDBRANCH  17  22
BRANCH  19  25
ATOM     25  O   UNL     1      -5.281  -1.357  -1.199  0.00  0.00    +0.000 OA
ATOM     26  H   UNL     1      -5.981  -0.814  -1.600  0.00  0.00    +0.000 HD
ENDBRANCH  19  25
ENDBRANCH  15  16
ENDBRANCH   1  15
TORSDOF 8
