REMARK  Name = 656979
REMARK  8 active torsions:
REMARK  status: ('A' for Active; 'I' for Inactive)
REMARK    1  A    between atoms: O_1  and  C_12
REMARK    2  A    between atoms: N_5  and  CA_9
REMARK    3  A    between atoms: N_6  and  C_11
REMARK    4  A    between atoms: C_8  and  CA_9
REMARK    5  A    between atoms: C_8  and  C_10
REMARK    6  A    between atoms: CA_9  and  C_12
REMARK    7  A    between atoms: C_10  and  C_11
REMARK    8  A    between atoms: C_13  and  C_15
REMARK                            x       y       z     vdW  Elec       q    Type
REMARK                         _______ _______ _______ _____ _____    ______ ____
ROOT
ATOM      1  C   UNL     1       0.254  -1.315  -0.047  0.00  0.00    +0.000 C 
ENDROOT
BRANCH   1   2
ATOM      2  CA  UNL     1       1.541  -0.557   0.277  0.00  0.00    +0.000 C 
BRANCH   2   4
ATOM      3  O   UNL     1       2.957   1.779   1.260  0.00  0.00    +0.000 OA
ATOM      4  N   UNL     1       1.556   0.764  -0.299  0.00  0.00    +0.000 N 
ATOM      5  C   UNL     1       2.267   1.823   0.245  0.00  0.00    +0.000 C 
ATOM      6  C   UNL     1       2.130   3.082  -0.569  0.00  0.00    +0.000 C 
ATOM      7  H   UNL     1       1.083   0.900  -1.188  0.00  0.00    +0.000 HD
ENDBRANCH   2   4
BRANCH   2   9
ATOM      8  OXT UNL     1       3.184  -1.167  -1.415  0.00  0.00    +0.000 OA
ATOM      9  C   UNL     1       2.743  -1.294  -0.280  0.00  0.00    +0.000 C 
BRANCH   9  10
ATOM     10  O   UNL     1       3.264  -2.169   0.619  0.00  0.00    +0.000 OA
ATOM     11  H   UNL     1       4.028  -2.661   0.250  0.00  0.00    +0.000 HD
ENDBRANCH   9  10
ENDBRANCH   2   9
ENDBRANCH   1   2
BRANCH   1  12
ATOM     12  C   UNL     1      -0.994  -0.595   0.469  0.00  0.00    +0.000 C 
BRANCH  12  13
ATOM     13  C   UNL     1      -2.263  -1.355   0.100  0.00  0.00    +0.000 C 
BRANCH  13  15
ATOM     14  O   UNL     1      -3.832   0.645  -1.295  0.00  0.00    +0.000 OA
ATOM     15  N   UNL     1      -3.440  -0.681   0.577  0.00  0.00    +0.000 N 
ATOM     16  N   UNL     1      -5.230   0.768   0.521  0.00  0.00    +0.000 N 
ATOM     17  C   UNL     1      -4.136   0.272  -0.163  0.00  0.00    +0.000 C 
ATOM     18  H   UNL     1      -3.776  -0.904   1.509  0.00  0.00    +0.000 HD
ATOM     19  H   UNL     1      -5.465   0.448   1.455  0.00  0.00    +0.000 HD
ATOM     20  H   UNL     1      -5.834   1.471   0.108  0.00  0.00    +0.000 HD
ENDBRANCH  13  15
ENDBRANCH  12  13
ENDBRANCH   1  12
TORSDOF 7
