REMARK  Name = 23327
REMARK  7 active torsions:
REMARK  status: ('A' for Active; 'I' for Inactive)
REMARK    1  A    between atoms: O_1  and  C_9
REMARK    2  A    between atoms: OE1_2  and  CD_10
REMARK    3  A    between atoms: N_5  and  CA_7
REMARK    4  A    between atoms: CB_6  and  CA_7
REMARK    5  A    between atoms: CB_6  and  CG_8
REMARK    6  A    between atoms: CA_7  and  C_9
REMARK    7  A    between atoms: CG_8  and  CD_10
REMARK                            x       y       z     vdW  Elec       q    Type
REMARK                         _______ _______ _______ _____ _____    ______ ____
ROOT
ATOM      1  CA  GLU A   1       1.348   0.551  -0.721  0.00  0.00    +0.000 C 
ENDROOT
BRANCH   1   2
ATOM      2  N   GLU A   1       1.500   1.887  -0.149  0.00  0.00    +0.000 NA
ATOM      3  H1  GLU A   1       1.014   2.566  -0.734  0.00  0.00    +0.000 HD
ATOM      4  H2  GLU A   1       2.483   2.155  -0.159  0.00  0.00    +0.000 HD
ENDBRANCH   1   2
BRANCH   1   6
ATOM      5  OXT GLU A   1       2.651  -0.152   1.220  0.00  0.00    +0.000 OA
ATOM      6  C   GLU A   1       2.097  -0.429   0.165  0.00  0.00    +0.000 C 
BRANCH   6   7
ATOM      7  O   GLU A   1       2.091  -1.687  -0.351  0.00  0.00    +0.000 OA
ATOM      8  H   GLU A   1       2.575  -2.319   0.222  0.00  0.00    +0.000 HD
ENDBRANCH   6   7
ENDBRANCH   1   6
BRANCH   1   9
ATOM      9  CB  GLU A   1      -0.129   0.162  -0.900  0.00  0.00    +0.000 C 
BRANCH   9  10
ATOM     10  CG  GLU A   1      -0.993   0.191   0.364  0.00  0.00    +0.000 C 
BRANCH  10  12
ATOM     11  OE2 GLU A   1      -2.906  -0.428  -0.975  0.00  0.00    +0.000 OA
ATOM     12  CD  GLU A   1      -2.451  -0.105   0.115  0.00  0.00    +0.000 C 
BRANCH  12  13
ATOM     13  OE1 GLU A   1      -3.208   0.010   1.234  0.00  0.00    +0.000 OA
ATOM     14  HE1 GLU A   1      -4.152  -0.191   1.059  0.00  0.00    +0.000 HD
ENDBRANCH  12  13
ENDBRANCH  10  12
ENDBRANCH   9  10
ENDBRANCH   1   9
TORSDOF 7
