REMARK  Name = 440901
REMARK  10 active torsions:
REMARK  status: ('A' for Active; 'I' for Inactive)
REMARK    1  A    between atoms: P_1  and  O_2
REMARK    2  A    between atoms: P_1  and  O_6
REMARK    3  A    between atoms: P_1  and  O_7
REMARK    4  A    between atoms: O_2  and  C_12
REMARK    5  A    between atoms: O_3  and  C_10
REMARK    6  A    between atoms: O_4  and  C_13
REMARK    7  A    between atoms: N_9  and  CA_11
REMARK    8  A    between atoms: C_10  and  CA_11
REMARK    9  A    between atoms: C_10  and  C_12
REMARK   10  A    between atoms: CA_11  and  C_13
REMARK                            x       y       z     vdW  Elec       q    Type
REMARK                         _______ _______ _______ _____ _____    ______ ____
ROOT
ATOM      1  C   UNL     1       0.819   0.980  -0.624  0.00  0.00    +0.000 C 
ENDROOT
BRANCH   1   2
ATOM      2  O   UNL     1       0.891   1.964   0.411  0.00  0.00    +0.000 OA
ATOM      3  H   UNL     1       1.581   2.603   0.163  0.00  0.00    +0.000 HD
ENDBRANCH   1   2
BRANCH   1   4
ATOM      4  CA  UNL     1       2.201   0.318  -0.745  0.00  0.00    +0.000 C 
BRANCH   4   5
ATOM      5  N   UNL     1       2.230  -0.608  -1.878  0.00  0.00    +0.000 NA
ATOM      6  H1  UNL     1       3.179  -0.955  -2.012  0.00  0.00    +0.000 HD
ATOM      7  H2  UNL     1       1.987  -0.109  -2.733  0.00  0.00    +0.000 HD
ENDBRANCH   4   5
BRANCH   4   9
ATOM      8  OXT UNL     1       2.317  -1.644   0.710  0.00  0.00    +0.000 OA
ATOM      9  C   UNL     1       2.588  -0.469   0.500  0.00  0.00    +0.000 C 
BRANCH   9  10
ATOM     10  O   UNL     1       3.288   0.290   1.383  0.00  0.00    +0.000 OA
ATOM     11  H   UNL     1       3.537  -0.219   2.185  0.00  0.00    +0.000 HD
ENDBRANCH   9  10
ENDBRANCH   4   9
ENDBRANCH   1   4
BRANCH   1  12
ATOM     12  C   UNL     1      -0.324   0.010  -0.321  0.00  0.00    +0.000 C 
BRANCH  12  13
ATOM     13  O   UNL     1      -1.549   0.728  -0.195  0.00  0.00    +0.000 OA
BRANCH  13  14
ATOM     14  P   UNL     1      -2.894  -0.106   0.127  0.00  0.00    +0.000 P 
ATOM     15  O   UNL     1      -4.142   0.719   0.244  0.00  0.00    +0.000 OA
BRANCH  14  16
ATOM     16  O   UNL     1      -2.509  -0.969   1.439  0.00  0.00    +0.000 OA
ATOM     17  H   UNL     1      -3.200  -1.520   1.865  0.00  0.00    +0.000 HD
ENDBRANCH  14  16
BRANCH  14  18
ATOM     18  O   UNL     1      -2.916  -1.213  -1.052  0.00  0.00    +0.000 OA
ATOM     19  H   UNL     1      -3.696  -1.801  -1.138  0.00  0.00    +0.000 HD
ENDBRANCH  14  18
ENDBRANCH  13  14
ENDBRANCH  12  13
ENDBRANCH   1  12
TORSDOF 10
