REMARK  Name = 5287494
REMARK  10 active torsions:
REMARK  status: ('A' for Active; 'I' for Inactive)
REMARK    1  A    between atoms: O_1  and  C_13
REMARK    2  A    between atoms: N_3  and  C_9
REMARK    3  A    between atoms: N_4  and  C_12
REMARK    4  A    between atoms: N_5  and  C_10
REMARK    5  A    between atoms: C_7  and  C_8
REMARK    6  A    between atoms: C_7  and  C_9
REMARK    7  A    between atoms: C_8  and  C_10
REMARK    8  A    between atoms: C_10  and  C_13
REMARK    9  A    between atoms: C_12  and  C_14
REMARK   10  A    between atoms: C_14  and  C_15
REMARK                            x       y       z     vdW  Elec       q    Type
REMARK                         _______ _______ _______ _____ _____    ______ ____
ROOT
ATOM      1  N   UNK     1       0.880   0.366  -0.296  0.00  0.00    +0.000 N 
ATOM      2  N   UNK     1       3.200  -0.081   0.172  0.00  0.00    +0.000 N 
ATOM      3  N   UNK     1       2.471   2.203  -0.230  0.00  0.00    +0.000 N 
ATOM      4  C   UNK     1       2.188   0.841  -0.118  0.00  0.00    +0.000 C 
ATOM      5  H   UNK     1       0.736  -0.639  -0.224  0.00  0.00    +0.000 HD
ATOM      6  H   UNK     1       2.933  -1.060   0.258  0.00  0.00    +0.000 HD
ATOM      7  H   UNK     1       3.413   2.565  -0.103  0.00  0.00    +0.000 HD
ATOM      8  H   UNK     1       1.747   2.884  -0.442  0.00  0.00    +0.000 HD
ENDROOT
BRANCH   1   9
ATOM      9  C   UNK     1      -0.240   1.245  -0.603  0.00  0.00    +0.000 C 
BRANCH   9  10
ATOM     10  C   UNK     1      -1.553   0.478  -0.724  0.00  0.00    +0.000 C 
BRANCH  10  11
ATOM     11  C   UNK     1      -1.918  -0.247   0.580  0.00  0.00    +0.000 C 
BRANCH  11  12
ATOM     12  C   UNK     1      -3.261  -0.991   0.541  0.00  0.00    +0.000 C 
BRANCH  12  13
ATOM     13  N   UNK     1      -3.245  -2.076  -0.440  0.00  0.00    +0.000 NA
ATOM     14  H   UNK     1      -3.100  -1.705  -1.377  0.00  0.00    +0.000 HD
ATOM     15  H   UNK     1      -2.454  -2.692  -0.255  0.00  0.00    +0.000 HD
ENDBRANCH  12  13
BRANCH  12  17
ATOM     16  O   UNK     1      -5.151  -0.171  -0.770  0.00  0.00    +0.000 OA
ATOM     17  C   UNK     1      -4.415  -0.064   0.203  0.00  0.00    +0.000 C 
BRANCH  17  18
ATOM     18  O   UNK     1      -4.555   0.928   1.121  0.00  0.00    +0.000 OA
ATOM     19  H   UNK     1      -5.300   1.527   0.902  0.00  0.00    +0.000 HD
ENDBRANCH  17  18
ENDBRANCH  12  17
ENDBRANCH  11  12
ENDBRANCH  10  11
ENDBRANCH   9  10
ENDBRANCH   1   9
BRANCH   2  20
ATOM     20  C   UNK     1       4.592   0.320   0.374  0.00  0.00    +0.000 C 
BRANCH  20  21
ATOM     21  C   UNK     1       5.494  -0.873   0.666  0.00  0.00    +0.000 C 
ATOM     22  C   UNK     1       5.512  -1.879  -0.476  0.00  0.00    +0.000 C 
ENDBRANCH  20  21
ENDBRANCH   2  20
TORSDOF 9
