REMARK  Name = 83887
REMARK  6 active torsions:
REMARK  status: ('A' for Active; 'I' for Inactive)
REMARK    1  A    between atoms: O_1  and  C_8
REMARK    2  A    between atoms: OD1_2  and  CG_9
REMARK    3  A    between atoms: N_5  and  CA_6
REMARK    4  A    between atoms: CA_6  and  CB_7
REMARK    5  A    between atoms: CA_6  and  C_8
REMARK    6  A    between atoms: CB_7  and  CG_9
REMARK                            x       y       z     vdW  Elec       q    Type
REMARK                         _______ _______ _______ _____ _____    ______ ____
ROOT
ATOM      1  CA  ASP A   1       0.711   0.659  -0.527  0.00  0.00    +0.000 C 
ENDROOT
BRANCH   1   2
ATOM      2  N   ASP A   1       1.673   1.749  -0.363  0.00  0.00    +0.000 NA
ATOM      3  H1  ASP A   1       1.332   2.582  -0.842  0.00  0.00    +0.000 HD
ATOM      4  H2  ASP A   1       2.552   1.502  -0.817  0.00  0.00    +0.000 HD
ENDBRANCH   1   2
BRANCH   1   6
ATOM      5  OXT ASP A   1       1.505  -0.577   1.422  0.00  0.00    +0.000 OA
ATOM      6  C   ASP A   1       1.285  -0.535   0.218  0.00  0.00    +0.000 C 
BRANCH   6   7
ATOM      7  O   ASP A   1       1.514  -1.592  -0.607  0.00  0.00    +0.000 OA
ATOM      8  H   ASP A   1       1.873  -2.364  -0.120  0.00  0.00    +0.000 HD
ENDBRANCH   6   7
ENDBRANCH   1   6
BRANCH   1   9
ATOM      9  CB  ASP A   1      -0.658   1.085   0.016  0.00  0.00    +0.000 C 
BRANCH   9  11
ATOM     10  OD2 ASP A   1      -1.734  -0.879  -0.960  0.00  0.00    +0.000 OA
ATOM     11  CG  ASP A   1      -1.693  -0.011  -0.101  0.00  0.00    +0.000 C 
BRANCH  11  12
ATOM     12  OD1 ASP A   1      -2.603   0.100   0.901  0.00  0.00    +0.000 OA
ATOM     13  HD1 ASP A   1      -3.289  -0.598   0.851  0.00  0.00    +0.000 HD
ENDBRANCH  11  12
ENDBRANCH   9  11
ENDBRANCH   1   9
TORSDOF 6
