REMARK  Name = 445282
REMARK  7 active torsions:
REMARK  status: ('A' for Active; 'I' for Inactive)
REMARK    1  A    between atoms: S_1  and  C_8
REMARK    2  A    between atoms: S_1  and  C_10
REMARK    3  A    between atoms: O_4  and  C_11
REMARK    4  A    between atoms: N_6  and  CA_9
REMARK    5  A    between atoms: C_7  and  C_8
REMARK    6  A    between atoms: C_7  and  CA_9
REMARK    7  A    between atoms: CA_9  and  C_11
REMARK                            x       y       z     vdW  Elec       q    Type
REMARK                         _______ _______ _______ _____ _____    ______ ____
ROOT
ATOM      1  CA  UNL     1       1.509  -0.389  -0.537  0.00  0.00    +0.000 C 
ENDROOT
BRANCH   1   2
ATOM      2  N   UNL     1       1.626  -1.800  -0.176  0.00  0.00    +0.000 NA
ATOM      3  H1  UNL     1       1.644  -1.906   0.837  0.00  0.00    +0.000 HD
ATOM      4  H2  UNL     1       2.504  -2.180  -0.527  0.00  0.00    +0.000 HD
ENDBRANCH   1   2
BRANCH   1   6
ATOM      5  OXT UNL     1       3.622  -0.267   0.671  0.00  0.00    +0.000 OA
ATOM      6  C   UNL     1       2.742   0.291   0.028  0.00  0.00    +0.000 C 
BRANCH   6   7
ATOM      7  O   UNL     1       2.785   1.614  -0.284  0.00  0.00    +0.000 OA
ATOM      8  H   UNL     1       3.589   2.047   0.073  0.00  0.00    +0.000 HD
ENDBRANCH   6   7
ENDBRANCH   1   6
BRANCH   1   9
ATOM      9  C   UNL     1       0.210   0.191   0.038  0.00  0.00    +0.000 C 
BRANCH   9  10
ATOM     10  C   UNL     1      -1.028  -0.484  -0.541  0.00  0.00    +0.000 C 
BRANCH  10  11
ATOM     11  S   UNL     1      -2.506   0.179   0.159  0.00  0.00    +0.000 S 
ATOM     12  O   UNL     1      -2.557  -0.201   1.560  0.00  0.00    +0.000 OA
ATOM     13  O   UNL     1      -2.607   1.575  -0.232  0.00  0.00    +0.000 OA
ATOM     14  C   UNL     1      -3.795  -0.709  -0.685  0.00  0.00    +0.000 C 
ENDBRANCH  10  11
ENDBRANCH   9  10
ENDBRANCH   1   9
TORSDOF 6
