REMARK  Name = 
REMARK  9 active torsions:
REMARK  status: ('A' for Active; 'I' for Inactive)
REMARK    1  A    between atoms: C_1  and  O_2
REMARK    2  A    between atoms: O_2  and  C_3
REMARK    3  A    between atoms: C_5  and  N_6
REMARK    4  A    between atoms: N_7  and  C_8
REMARK    5  A    between atoms: C_13  and  C_14
REMARK    6  A    between atoms: C_14  and  O_16
REMARK    7  A    between atoms: C_18  and  O_19
REMARK    8  A    between atoms: O_19  and  C_20
REMARK    9  A    between atoms: C_21  and  O_22
REMARK                            x       y       z     vdW  Elec       q    Type
REMARK                         _______ _______ _______ _____ _____    ______ ____
ROOT
ATOM      1  C   UNL     1      -3.245  -0.878   0.208  0.00  0.00    +0.000 A 
ATOM      2  C   UNL     1      -1.887  -0.927  -0.065  0.00  0.00    +0.000 A 
ATOM      3  C   UNL     1      -1.128   0.237  -0.073  0.00  0.00    +0.000 A 
ATOM      4  C   UNL     1      -1.838   1.406  -0.318  0.00  0.00    +0.000 A 
ATOM      5  C   UNL     1      -3.217   1.441  -0.155  0.00  0.00    +0.000 A 
ATOM      6  C   UNL     1      -3.918   0.333   0.300  0.00  0.00    +0.000 A 
ENDROOT
BRANCH   1   8
ATOM      7  C   UNL     1      -3.102  -3.163   1.108  0.00  0.00    +0.000 C 
ATOM      8  O   UNL     1      -3.821  -1.965   0.857  0.00  0.00    +0.000 OA
ENDBRANCH   1   8
BRANCH   3   9
ATOM      9  N   UNL     1       0.139   0.138  -0.737  0.00  0.00    +0.000 NA
ATOM     10  N   UNL     1       1.231   0.227  -0.102  0.00  0.00    +0.000 NA
BRANCH  10  11
ATOM     11  C   UNL     1       2.385  -0.496  -0.550  0.00  0.00    +0.000 A 
ATOM     12  C   UNL     1       2.280  -1.757  -1.124  0.00  0.00    +0.000 A 
ATOM     13  C   UNL     1       3.180  -2.757  -0.801  0.00  0.00    +0.000 A 
ATOM     14  C   UNL     1       4.350  -2.449  -0.117  0.00  0.00    +0.000 A 
ATOM     15  C   UNL     1       4.529  -1.158   0.352  0.00  0.00    +0.000 A 
ATOM     16  C   UNL     1       3.641  -0.170  -0.056  0.00  0.00    +0.000 A 
BRANCH  16  17
ATOM     17  C   UNL     1       3.905   1.214   0.307  0.00  0.00    +0.000 C 
ATOM     18  O   UNL     1       3.114   2.131  -0.024  0.00  0.00    +0.000 OA
BRANCH  17  19
ATOM     19  O   UNL     1       5.252   1.585   0.387  0.00  0.00    +0.000 OA
ATOM     20  H   UNL     1       5.899   0.952   0.629  0.00  0.00    +0.000 HD
ENDBRANCH  17  19
ENDBRANCH  16  17
ENDBRANCH  10  11
ENDBRANCH   3   9
BRANCH   5  21
ATOM     21  O   UNL     1      -3.813   2.686   0.040  0.00  0.00    +0.000 OA
ATOM     22  C   UNL     1      -3.037   3.871   0.197  0.00  0.00    +0.000 C 
ENDBRANCH   5  21
BRANCH   6  23
ATOM     23  O   UNL     1      -5.001   0.451   1.175  0.00  0.00    +0.000 OA
ATOM     24  H   UNL     1      -5.462   1.265   1.243  0.00  0.00    +0.000 HD
ENDBRANCH   6  23
TORSDOF 7
