REMARK  Name = 5484727
REMARK  13 active torsions:
REMARK  status: ('A' for Active; 'I' for Inactive)
REMARK    1  A    between atoms: O_2  and  C_17
REMARK    2  A    between atoms: O_4  and  C_22
REMARK    3  A    between atoms: O_4  and  C_25
REMARK    4  A    between atoms: N_7  and  CA_18
REMARK    5  A    between atoms: N_7  and  C_20
REMARK    6  A    between atoms: CA_11  and  C_17
REMARK    7  A    between atoms: C_16  and  CA_18
REMARK    8  A    between atoms: CA_18  and  CB_19
REMARK    9  A    between atoms: C_20  and  C_21
REMARK   10  A    between atoms: C_20  and  C_22
REMARK   11  A    between atoms: C_21  and  C_23
REMARK   12  A    between atoms: C_23  and  C_24
REMARK   13  A    between atoms: C_25  and  C_30
REMARK                            x       y       z     vdW  Elec       q    Type
REMARK                         _______ _______ _______ _____ _____    ______ ____
ROOT
ATOM      1  CA  ALA A   1       0.326   1.286  -0.860  0.00  0.00    +0.000 C 
ATOM      2  CB  ALA A   1       0.374   1.841  -2.269  0.00  0.00    +0.000 C 
ENDROOT
BRANCH   1  13
ATOM      3  O   ALA A   1       1.840   2.556   0.453  0.00  0.00    +0.000 OA
ATOM      4  N   ALA A   1       2.584   0.492  -0.299  0.00  0.00    +0.000 N 
ATOM      5  C   ALA A   1       4.605  -0.702  -0.200  0.00  0.00    +0.000 C 
ATOM      6  C   ALA A   1       4.006   0.698  -0.036  0.00  0.00    +0.000 C 
ATOM      7  C   ALA A   1       3.807  -1.253  -1.373  0.00  0.00    +0.000 C 
ATOM      8  CA  ALA A   1       2.389  -0.765  -1.036  0.00  0.00    +0.000 C 
ATOM      9  C   ALA A   1       6.115  -0.617  -0.317  0.00  0.00    +0.000 C 
ATOM     10  C   ALA A   1       4.445   1.255   1.314  0.00  0.00    +0.000 C 
ATOM     11  C   ALA A   1       6.672   0.009   0.971  0.00  0.00    +0.000 C 
ATOM     12  C   ALA A   1       5.981   1.328   1.353  0.00  0.00    +0.000 C 
ATOM     13  C   ALA A   1       1.649   1.512  -0.172  0.00  0.00    +0.000 C 
BRANCH   8  15
ATOM     14  OXT ALA A   1       1.326  -1.510   1.003  0.00  0.00    +0.000 OA
ATOM     15  C   ALA A   1       1.687  -1.742  -0.141  0.00  0.00    +0.000 C 
BRANCH  15  16
ATOM     16  O   ALA A   1       1.508  -2.927  -0.773  0.00  0.00    +0.000 OA
ATOM     17  H   ALA A   1       1.083  -3.595  -0.194  0.00  0.00    +0.000 HD
ENDBRANCH  15  16
ENDBRANCH   8  15
ENDBRANCH   1  13
BRANCH   1  18
ATOM     18  N   ALA A   1      -0.683   1.964  -0.065  0.00  0.00    +0.000 NA
ATOM     19  H   ALA A   1      -0.468   2.961  -0.012  0.00  0.00    +0.000 HD
BRANCH  18  20
ATOM     20  C   UNK A   0      -2.010   1.796  -0.645  0.00  0.00    +0.000 C 
BRANCH  20  22
ATOM     21  O   UNK A   0      -2.720   3.079   1.307  0.00  0.00    +0.000 OA
ATOM     22  C   UNK A   0      -2.998   2.519   0.255  0.00  0.00    +0.000 C 
BRANCH  22  23
ATOM     23  O   UNK A   0      -4.245   2.449  -0.302  0.00  0.00    +0.000 OA
BRANCH  23  24
ATOM     24  C   UNK A   0      -5.288   3.098   0.434  0.00  0.00    +0.000 C 
ATOM     25  C   UNK A   0      -6.595   2.931  -0.311  0.00  0.00    +0.000 C 
ENDBRANCH  23  24
ENDBRANCH  22  23
ENDBRANCH  20  22
BRANCH  20  26
ATOM     26  C   UNK A   0      -2.399   0.312  -0.753  0.00  0.00    +0.000 C 
BRANCH  26  27
ATOM     27  C   UNK A   0      -2.467  -0.446   0.580  0.00  0.00    +0.000 C 
BRANCH  27  28
ATOM     28  C   UNK A   0      -2.911  -1.880   0.441  0.00  0.00    +0.000 A 
ATOM     29  C   UNK A   0      -1.962  -2.871   0.243  0.00  0.00    +0.000 A 
ATOM     30  C   UNK A   0      -4.262  -2.185   0.514  0.00  0.00    +0.000 A 
ATOM     31  C   UNK A   0      -2.373  -4.198   0.114  0.00  0.00    +0.000 A 
ATOM     32  C   UNK A   0      -4.673  -3.512   0.385  0.00  0.00    +0.000 A 
ATOM     33  C   UNK A   0      -3.728  -4.518   0.185  0.00  0.00    +0.000 A 
ENDBRANCH  27  28
ENDBRANCH  26  27
ENDBRANCH  20  26
ENDBRANCH  18  20
ENDBRANCH   1  18
TORSDOF 11
