REMARK  Name = 17754156
REMARK  17 active torsions:
REMARK  status: ('A' for Active; 'I' for Inactive)
REMARK    1  A    between atoms: O_4  and  C_27
REMARK    2  A    between atoms: O_5  and  C_28
REMARK    3  A    between atoms: O_5  and  C_29
REMARK    4  A    between atoms: O_6  and  N_9
REMARK    5  A    between atoms: N_7  and  C_13
REMARK    6  A    between atoms: N_8  and  C_26
REMARK    7  A    between atoms: C_10  and  C_11
REMARK    8  A    between atoms: C_10  and  C_12
REMARK    9  A    between atoms: C_10  and  C_17
REMARK   10  A    between atoms: C_11  and  C_16
REMARK   11  A    between atoms: C_11  and  C_23
REMARK   12  A    between atoms: C_12  and  C_14
REMARK   13  A    between atoms: C_14  and  C_24
REMARK   14  A    between atoms: C_14  and  C_25
REMARK   15  A    between atoms: C_16  and  C_22
REMARK   16  A    between atoms: C_22  and  C_27
REMARK   17  A    between atoms: C_26  and  C_28
REMARK                            x       y       z     vdW  Elec       q    Type
REMARK                         _______ _______ _______ _____ _____    ______ ____
ROOT
ATOM      1  C   UNL     1       1.674  -0.946   0.120  0.00  0.00    +0.000 C 
ENDROOT
BRANCH   1   4
ATOM      2  O   UNL     1       0.394  -0.096   2.001  0.00  0.00    +0.000 OA
ATOM      3  N   UNL     1      -0.474   0.161  -0.136  0.00  0.00    +0.000 N 
ATOM      4  C   UNL     1       0.481  -0.247   0.784  0.00  0.00    +0.000 C 
ATOM      5  H   UNL     1      -0.293   0.017  -1.126  0.00  0.00    +0.000 HD
BRANCH   3   8
ATOM      6  O   UNL     1      -2.474  -0.256  -1.778  0.00  0.00    +0.000 OA
ATOM      7  N   UNL     1      -4.077   0.793  -0.475  0.00  0.00    +0.000 N 
ATOM      8  C   UNL     1      -1.704   0.821   0.237  0.00  0.00    +0.000 C 
ATOM      9  C   UNL     1      -1.507   2.338   0.234  0.00  0.00    +0.000 C 
ATOM     10  C   UNL     1      -2.483   3.078   1.147  0.00  0.00    +0.000 C 
ATOM     11  C   UNL     1      -3.951   2.949   0.748  0.00  0.00    +0.000 C 
ATOM     12  C   UNL     1      -4.451   1.508   0.747  0.00  0.00    +0.000 C 
ATOM     13  C   UNL     1      -2.772   0.388  -0.768  0.00  0.00    +0.000 C 
BRANCH   7  14
ATOM     14  C   UNL     1      -5.154   0.510  -1.415  0.00  0.00    +0.000 C 
BRANCH  14  15
ATOM     15  C   UNL     1      -5.836  -0.809  -1.101  0.00  0.00    +0.000 C 
BRANCH  15  16
ATOM     16  O   UNL     1      -4.892  -1.866  -1.211  0.00  0.00    +0.000 OA
ATOM     17  C   UNL     1      -5.485  -3.127  -0.931  0.00  0.00    +0.000 C 
ENDBRANCH  15  16
ENDBRANCH  14  15
ENDBRANCH   7  14
ENDBRANCH   3   8
ENDBRANCH   1   4
BRANCH   1  18
ATOM     18  C   UNL     1       2.726   0.130  -0.298  0.00  0.00    +0.000 C 
BRANCH  18  21
ATOM     19  O   UNL     1       3.661   0.480   1.916  0.00  0.00    +0.000 OA
ATOM     20  N   UNL     1       2.748   2.283   0.802  0.00  0.00    +0.000 N 
ATOM     21  C   UNL     1       3.108   0.962   0.930  0.00  0.00    +0.000 C 
ATOM     22  H   UNL     1       2.403   2.738  -0.035  0.00  0.00    +0.000 HD
BRANCH  20  23
ATOM     23  O   UNL     1       3.050   3.109   1.893  0.00  0.00    +0.000 OA
ATOM     24  H   UNL     1       2.199   3.091   2.362  0.00  0.00    +0.000 HD
ENDBRANCH  20  23
ENDBRANCH  18  21
BRANCH  18  25
ATOM     25  C   UNL     1       3.967  -0.465  -0.995  0.00  0.00    +0.000 C 
BRANCH  25  26
ATOM     26  C   UNL     1       4.752   0.532  -1.864  0.00  0.00    +0.000 C 
BRANCH  26  27
ATOM     27  C   UNL     1       6.019  -0.029  -2.499  0.00  0.00    +0.000 C 
BRANCH  27  28
ATOM     28  O   UNL     1       6.651   0.964  -3.292  0.00  0.00    +0.000 OA
ATOM     29  H   UNL     1       7.449   0.560  -3.673  0.00  0.00    +0.000 HD
ENDBRANCH  27  28
ENDBRANCH  26  27
ENDBRANCH  25  26
ENDBRANCH  18  25
ENDBRANCH   1  18
BRANCH   1  30
ATOM     30  C   UNL     1       2.261  -2.055   1.020  0.00  0.00    +0.000 C 
BRANCH  30  31
ATOM     31  C   UNL     1       1.508  -3.404   0.955  0.00  0.00    +0.000 C 
ATOM     32  C   UNL     1       2.214  -4.428   1.848  0.00  0.00    +0.000 C 
ATOM     33  C   UNL     1       0.044  -3.278   1.382  0.00  0.00    +0.000 C 
ENDBRANCH  30  31
ENDBRANCH   1  30
TORSDOF 14
