REMARK  Name = 447701
REMARK  9 active torsions:
REMARK  status: ('A' for Active; 'I' for Inactive)
REMARK    1  A    between atoms: O_4  and  C_20
REMARK    2  A    between atoms: O_6  and  C_22
REMARK    3  A    between atoms: N_8  and  CA_10
REMARK    4  A    between atoms: N_9  and  CA_19
REMARK    5  A    between atoms: CA_10  and  C_11
REMARK    6  A    between atoms: CA_10  and  C_13
REMARK    7  A    between atoms: C_11  and  C_12
REMARK    8  A    between atoms: C_16  and  C_21
REMARK    9  A    between atoms: CA_19  and  C_22
REMARK                            x       y       z     vdW  Elec       q    Type
REMARK                         _______ _______ _______ _____ _____    ______ ____
ROOT
ATOM      1  CA  UNL     1      -0.755   0.309   0.431  0.00  0.00    +0.000 C 
ENDROOT
BRANCH   1   3
ATOM      2  O   UNL     1      -1.470   1.890  -1.896  0.00  0.00    +0.000 OA
ATOM      3  N   UNL     1      -0.661   1.739   0.282  0.00  0.00    +0.000 N 
ATOM      4  C   UNL     1      -1.029   2.409  -0.875  0.00  0.00    +0.000 C 
ATOM      5  C   UNL     1      -0.855   3.900  -0.753  0.00  0.00    +0.000 C 
ATOM      6  H   UNL     1      -0.380   2.285   1.092  0.00  0.00    +0.000 HD
ENDBRANCH   1   3
BRANCH   1   9
ATOM      7  O   UNL     1      -2.792   0.731   1.675  0.00  0.00    +0.000 OA
ATOM      8  N   UNL     1      -2.662  -1.171   0.348  0.00  0.00    +0.000 N 
ATOM      9  C   ACE A   1      -2.167  -0.003   0.912  0.00  0.00    +0.000 C 
ATOM     10  H   UNL     1      -2.074  -1.707  -0.283  0.00  0.00    +0.000 HD
BRANCH   8  11
ATOM     11  CA  UNL     1      -3.995  -1.670   0.597  0.00  0.00    +0.000 C 
BRANCH  11  13
ATOM     12  OXT UNL     1      -6.199  -1.442  -0.345  0.00  0.00    +0.000 OA
ATOM     13  C   UNL     1      -5.011  -1.147  -0.386  0.00  0.00    +0.000 C 
BRANCH  13  14
ATOM     14  O   UNL     1      -4.484  -0.323  -1.321  0.00  0.00    +0.000 OA
ATOM     15  H   UNL     1      -5.163   0.003  -1.949  0.00  0.00    +0.000 HD
ENDBRANCH  13  14
ENDBRANCH  11  13
ENDBRANCH   8  11
ENDBRANCH   1   9
BRANCH   1  16
ATOM     16  C   UNL     1       0.279  -0.239   1.422  0.00  0.00    +0.000 C 
BRANCH  16  19
ATOM     17  I   UNL     1       5.111   2.203   0.468  0.00  0.00    +0.000 I 
ATOM     18  I   UNL     1       3.785  -3.488  -1.294  0.00  0.00    +0.000 I 
ATOM     19  C   UNL     1       1.655  -0.372   0.817  0.00  0.00    +0.000 A 
ATOM     20  C   UNL     1       2.012  -1.558   0.195  0.00  0.00    +0.000 A 
ATOM     21  C   UNL     1       2.537   0.695   0.892  0.00  0.00    +0.000 A 
ATOM     22  C   UNL     1       3.809   0.572   0.333  0.00  0.00    +0.000 A 
ATOM     23  C   UNL     1       3.283  -1.681  -0.364  0.00  0.00    +0.000 A 
ATOM     24  C   UNL     1       4.182  -0.616  -0.296  0.00  0.00    +0.000 A 
BRANCH  24  25
ATOM     25  O   UNL     1       5.427  -0.737  -0.844  0.00  0.00    +0.000 OA
ATOM     26  H   UNL     1       5.909   0.096  -0.702  0.00  0.00    +0.000 HD
ENDBRANCH  24  25
ENDBRANCH  16  19
ENDBRANCH   1  16
TORSDOF 8
