REMARK  Name = 447867
REMARK  15 active torsions:
REMARK  status: ('A' for Active; 'I' for Inactive)
REMARK    1  A    between atoms: S_1  and  C_11
REMARK    2  A    between atoms: S_1  and  C_16
REMARK    3  A    between atoms: O_4  and  C_24
REMARK    4  A    between atoms: O_4  and  C_26
REMARK    5  A    between atoms: O_5  and  C_25
REMARK    6  A    between atoms: N_7  and  C_10
REMARK    7  A    between atoms: N_8  and  CA_19
REMARK    8  A    between atoms: N_9  and  C_17
REMARK    9  A    between atoms: C_10  and  C_11
REMARK   10  A    between atoms: C_10  and  C_15
REMARK   11  A    between atoms: C_12  and  C_13
REMARK   12  A    between atoms: C_12  and  C_14
REMARK   13  A    between atoms: C_13  and  C_17
REMARK   14  A    between atoms: C_16  and  C_18
REMARK   15  A    between atoms: CA_19  and  C_25
REMARK                            x       y       z     vdW  Elec       q    Type
REMARK                         _______ _______ _______ _____ _____    ______ ____
ROOT
ATOM      1  C   UNK A   1      -2.187   1.084   0.693  0.00  0.00    +0.000 C 
ENDROOT
BRANCH   1   3
ATOM      2  O   UNK A   0      -4.085  -0.900   1.581  0.00  0.00    +0.000 OA
ATOM      3  N   UNK A   1      -2.772   0.025  -0.097  0.00  0.00    +0.000 N 
ATOM      4  C   UNK A   0      -3.681  -0.886   0.421  0.00  0.00    +0.000 C 
ATOM      5  H   UNK A   1      -2.480  -0.067  -1.066  0.00  0.00    +0.000 HD
BRANCH   4   6
ATOM      6  C   UNK A   0      -4.108  -1.905  -0.623  0.00  0.00    +0.000 C 
BRANCH   6   7
ATOM      7  C   UNK A   0      -5.111  -2.936  -0.104  0.00  0.00    +0.000 C 
BRANCH   7   8
ATOM      8  C   UNK A   0      -5.457  -3.988  -1.159  0.00  0.00    +0.000 C 
BRANCH   8   9
ATOM      9  N   UNK A   0      -6.399  -4.958  -0.612  0.00  0.00    +0.000 NA
ATOM     10  H   UNK A   0      -7.258  -4.485  -0.336  0.00  0.00    +0.000 HD
ATOM     11  H   UNK A   0      -6.660  -5.622  -1.340  0.00  0.00    +0.000 HD
ENDBRANCH   8   9
ENDBRANCH   7   8
ENDBRANCH   6   7
ENDBRANCH   4   6
ENDBRANCH   1   3
BRANCH   1  14
ATOM     12  O   UNK A   1      -2.201   2.303  -1.405  0.00  0.00    +0.000 OA
ATOM     13  N   GLY A   2      -1.534   3.409   0.523  0.00  0.00    +0.000 N 
ATOM     14  C   UNK A   1      -1.992   2.312  -0.193  0.00  0.00    +0.000 C 
ATOM     15  H   GLY A   2      -1.405   3.337   1.528  0.00  0.00    +0.000 HD
BRANCH  13  16
ATOM     16  CA  GLY A   2      -1.250   4.681  -0.098  0.00  0.00    +0.000 C 
BRANCH  16  18
ATOM     17  OXT GLY A   2       0.622   5.799  -1.119  0.00  0.00    +0.000 OA
ATOM     18  C   GLY A   2       0.175   4.797  -0.573  0.00  0.00    +0.000 C 
BRANCH  18  19
ATOM     19  O   GLY A   2       0.915   3.688  -0.341  0.00  0.00    +0.000 OA
ATOM     20  H   GLY A   2       1.838   3.787  -0.659  0.00  0.00    +0.000 HD
ENDBRANCH  18  19
ENDBRANCH  16  18
ENDBRANCH  13  16
ENDBRANCH   1  14
BRANCH   1  21
ATOM     21  C   UNK A   1      -0.908   0.640   1.407  0.00  0.00    +0.000 C 
BRANCH  21  22
ATOM     22  S   UNK A   1       0.440   0.170   0.273  0.00  0.00    +0.000 S 
BRANCH  22  23
ATOM     23  C   UNK A   1       1.651  -0.338   1.512  0.00  0.00    +0.000 C 
BRANCH  23  24
ATOM     24  C   UNK A   1       2.939  -0.804   0.890  0.00  0.00    +0.000 A 
ATOM     25  C   UNK A   1       3.965   0.108   0.644  0.00  0.00    +0.000 A 
ATOM     26  C   UNK A   1       3.106  -2.149   0.559  0.00  0.00    +0.000 A 
ATOM     27  C   UNK A   1       5.159  -0.325   0.067  0.00  0.00    +0.000 A 
ATOM     28  C   UNK A   1       4.300  -2.582  -0.018  0.00  0.00    +0.000 A 
ATOM     29  C   UNK A   1       5.326  -1.670  -0.264  0.00  0.00    +0.000 A 
BRANCH  29  30
ATOM     30  O   UNK A   1       6.491  -2.093  -0.826  0.00  0.00    +0.000 OA
ATOM     31  C   UNK A   1       6.595  -3.481  -1.139  0.00  0.00    +0.000 C 
ENDBRANCH  29  30
ENDBRANCH  23  24
ENDBRANCH  22  23
ENDBRANCH  21  22
ENDBRANCH   1  21
TORSDOF 14
