REMARK  Name = 
REMARK  27 active torsions:
REMARK  status: ('A' for Active; 'I' for Inactive)
REMARK    1  A    between atoms: N_1  and  C_2
REMARK    2  A    between atoms: C_2  and  C_3
REMARK    3  A    between atoms: C_2  and  C_38
REMARK    4  A    between atoms: C_3  and  C_4
REMARK    5  A    between atoms: C_4  and  C_5
REMARK    6  A    between atoms: N_7  and  C_8
REMARK    7  A    between atoms: C_8  and  C_9
REMARK    8  A    between atoms: C_8  and  C_31
REMARK    9  A    between atoms: C_9  and  S_10
REMARK   10  A    between atoms: S_10  and  S_11
REMARK   11  A    between atoms: S_11  and  C_12
REMARK   12  A    between atoms: C_12  and  C_13
REMARK   13  A    between atoms: C_13  and  N_14
REMARK   14  A    between atoms: C_13  and  C_24
REMARK   15  A    between atoms: C_15  and  C_17
REMARK   16  A    between atoms: C_17  and  C_18
REMARK   17  A    between atoms: C_18  and  C_19
REMARK   18  A    between atoms: C_19  and  N_20
REMARK   19  A    between atoms: C_19  and  C_21
REMARK   20  A    between atoms: C_21  and  O_23
REMARK   21  A    between atoms: N_26  and  CA_27
REMARK   22  A    between atoms: CA_27  and  C_28
REMARK   23  A    between atoms: C_28  and  OXT_30
REMARK   24  A    between atoms: N_33  and  CA_34
REMARK   25  A    between atoms: CA_34  and  C_35
REMARK   26  A    between atoms: C_35  and  OXT_37
REMARK   27  A    between atoms: C_38  and  O_40
REMARK                            x       y       z     vdW  Elec       q    Type
REMARK                         _______ _______ _______ _____ _____    ______ ____
ROOT
ATOM      1  S   UNK A   1       0.075  -0.256  -1.422  0.00  0.00    +0.000 S 
ENDROOT
BRANCH   1   2
ATOM      2  C   UNK A   1       1.780  -0.409  -0.925  0.00  0.00    +0.000 C 
BRANCH   2   3
ATOM      3  C   UNK A   1       2.165  -2.041  -1.058  0.00  0.00    +0.000 C 
BRANCH   3   6
ATOM      4  C   UNK A   1       3.281  -1.026   1.006  0.00  0.00    +0.000 C 
ATOM      5  O   UNK A   1       2.381  -0.131   1.072  0.00  0.00    +0.000 OA
ATOM      6  N   UNK A   1       2.769  -2.179   0.422  0.00  0.00    +0.000 N 
ATOM      7  H   UNK A   1       2.777  -3.043   0.895  0.00  0.00    +0.000 HD
BRANCH   4   8
ATOM      8  C   UNK A   1       4.360  -1.010   2.042  0.00  0.00    +0.000 C 
BRANCH   8   9
ATOM      9  C   UNK A   1       5.310   0.113   1.629  0.00  0.00    +0.000 C 
BRANCH   9  10
ATOM     10  C   UNK A   1       6.673  -0.768   1.209  0.00  0.00    +0.000 C 
BRANCH  10  11
ATOM     11  N   UNK A   1       7.481  -0.180   2.466  0.00  0.00    +0.000 NA
ATOM     12  H   UNK A   1       7.283  -0.744   3.292  0.00  0.00    +0.000 HD
ATOM     13  H   UNK A   1       7.193   0.784   2.634  0.00  0.00    +0.000 HD
ENDBRANCH  10  11
BRANCH  10  14
ATOM     14  C   UNK A   1       7.284   0.392   0.220  0.00  0.00    +0.000 C 
ATOM     15  O   UNK A   1       8.121  -0.231  -0.509  0.00  0.00    +0.000 OA
BRANCH  14  16
ATOM     16  O   UNK A   1       6.373   1.133  -0.484  0.00  0.00    +0.000 OA
ATOM     17  H   UNK A   1       5.718   1.626  -0.029  0.00  0.00    +0.000 HD
ENDBRANCH  14  16
ENDBRANCH  10  14
ENDBRANCH   9  10
ENDBRANCH   8   9
ENDBRANCH   4   8
ENDBRANCH   3   6
BRANCH   3  18
ATOM     18  C   UNK A   1       3.658  -1.777  -1.685  0.00  0.00    +0.000 C 
ATOM     19  O   UNK A   1       4.331  -2.824  -1.810  0.00  0.00    +0.000 OA
ATOM     20  N   GLY A   2       3.883  -0.655  -2.451  0.00  0.00    +0.000 N 
ATOM     21  H   GLY A   2       3.146  -0.146  -2.861  0.00  0.00    +0.000 HD
BRANCH  20  22
ATOM     22  CA  GLY A   2       5.287  -0.266  -2.619  0.00  0.00    +0.000 C 
BRANCH  22  23
ATOM     23  C   GLY A   2       5.625   0.745  -1.565  0.00  0.00    +0.000 C 
ATOM     24  O   GLY A   2       5.311   1.952  -1.804  0.00  0.00    +0.000 OA
BRANCH  23  25
ATOM     25  OXT GLY A   2       5.562   0.326  -0.232  0.00  0.00    +0.000 OA
ATOM     26  HXT GLY A   2       5.785  -0.556  -0.007  0.00  0.00    +0.000 HD
ENDBRANCH  23  25
ENDBRANCH  22  23
ENDBRANCH  20  22
ENDBRANCH   3  18
ENDBRANCH   2   3
ENDBRANCH   1   2
BRANCH   1  27
ATOM     27  S   UNK A   1      -1.173  -1.042   0.036  0.00  0.00    +0.000 S 
BRANCH  27  28
ATOM     28  C   UNK A   1      -1.539  -0.196   1.448  0.00  0.00    +0.000 C 
BRANCH  28  29
ATOM     29  C   UNK A   1      -2.085   1.371   1.218  0.00  0.00    +0.000 C 
BRANCH  29  30
ATOM     30  N   UNK A   1      -3.629   1.062   1.544  0.00  0.00    +0.000 N 
ATOM     31  C   UNK A   1      -4.044  -0.259   1.539  0.00  0.00    +0.000 C 
ATOM     32  O   UNK A   1      -3.323  -0.972   2.306  0.00  0.00    +0.000 OA
ATOM     33  H   UNK A   1      -4.261   1.791   1.742  0.00  0.00    +0.000 HD
BRANCH  31  34
ATOM     34  C   UNK A   1      -5.475  -0.581   1.393  0.00  0.00    +0.000 C 
BRANCH  34  35
ATOM     35  C   UNK A   1      -5.852  -1.510   0.346  0.00  0.00    +0.000 C 
BRANCH  35  36
ATOM     36  C   UNK A   1      -6.516  -0.679  -0.947  0.00  0.00    +0.000 C 
BRANCH  36  37
ATOM     37  N   UNK A   1      -6.391   0.775  -0.274  0.00  0.00    +0.000 NA
ATOM     38  H   UNK A   1      -6.729   0.735   0.688  0.00  0.00    +0.000 HD
ATOM     39  H   UNK A   1      -6.951   1.444  -0.803  0.00  0.00    +0.000 HD
ENDBRANCH  36  37
BRANCH  36  40
ATOM     40  C   UNK A   1      -8.045  -0.893  -0.380  0.00  0.00    +0.000 C 
ATOM     41  O   UNK A   1      -8.370  -2.028  -0.849  0.00  0.00    +0.000 OA
BRANCH  40  42
ATOM     42  O   UNK A   1      -8.222  -0.596   0.945  0.00  0.00    +0.000 OA
ATOM     43  H   UNK A   1      -7.976   0.247   1.273  0.00  0.00    +0.000 HD
ENDBRANCH  40  42
ENDBRANCH  36  40
ENDBRANCH  35  36
ENDBRANCH  34  35
ENDBRANCH  31  34
ENDBRANCH  29  30
BRANCH  29  44
ATOM     44  C   UNK A   1      -2.287   1.232  -0.412  0.00  0.00    +0.000 C 
ATOM     45  O   UNK A   1      -3.062   0.373  -0.790  0.00  0.00    +0.000 OA
ATOM     46  N   GLY A   2      -2.484   2.542  -0.966  0.00  0.00    +0.000 N 
ATOM     47  H   GLY A   2      -1.935   3.286  -0.626  0.00  0.00    +0.000 HD
BRANCH  46  48
ATOM     48  CA  GLY A   2      -3.463   2.818  -2.012  0.00  0.00    +0.000 C 
BRANCH  48  49
ATOM     49  C   GLY A   2      -4.846   2.613  -1.486  0.00  0.00    +0.000 C 
ATOM     50  O   GLY A   2      -5.496   1.568  -1.741  0.00  0.00    +0.000 OA
BRANCH  49  51
ATOM     51  OXT GLY A   2      -5.410   3.494  -0.561  0.00  0.00    +0.000 OA
ATOM     52  HXT GLY A   2      -4.965   4.287  -0.337  0.00  0.00    +0.000 HD
ENDBRANCH  49  51
ENDBRANCH  48  49
ENDBRANCH  46  48
ENDBRANCH  29  44
ENDBRANCH  28  29
ENDBRANCH  27  28
ENDBRANCH   1  27
TORSDOF 27
