REMARK  Name = 131704283
REMARK  17 active torsions:
REMARK  status: ('A' for Active; 'I' for Inactive)
REMARK    1  A    between atoms: O_3  and  C_21
REMARK    2  A    between atoms: O_3  and  C_27
REMARK    3  A    between atoms: O_4  and  C_22
REMARK    4  A    between atoms: O_8  and  C_31
REMARK    5  A    between atoms: N_12  and  C_18
REMARK    6  A    between atoms: N_13  and  C_29
REMARK    7  A    between atoms: N_14  and  C_33
REMARK    8  A    between atoms: C_16  and  C_22
REMARK    9  A    between atoms: C_17  and  C_21
REMARK   10  A    between atoms: C_23  and  C_24
REMARK   11  A    between atoms: C_24  and  C_25
REMARK   12  A    between atoms: C_25  and  C_26
REMARK   13  A    between atoms: C_26  and  C_28
REMARK   14  A    between atoms: C_27  and  C_30
REMARK   15  A    between atoms: C_28  and  C_29
REMARK   16  A    between atoms: C_29  and  C_31
REMARK   17  A    between atoms: C_32  and  C_33
REMARK                            x       y       z     vdW  Elec       q    Type
REMARK                         _______ _______ _______ _____ _____    ______ ____
ROOT
ATOM      1  O   UNK A   0       1.413   3.999  -2.069  0.00  0.00    +0.000 OA
ATOM      2  N   UNK A   1       0.566   2.887  -0.207  0.00  0.00    +0.000 NA
ATOM      3  C   UNK A   0       1.491   3.320  -1.022  0.00  0.00    +0.000 C 
ENDROOT
BRANCH   2  10
ATOM      4  S   UNK A   1      -0.861   0.500  -1.496  0.00  0.00    +0.000 S 
ATOM      5  O   UNK A   1      -1.885   3.711   1.774  0.00  0.00    +0.000 OA
ATOM      6  N   UNK A   1      -2.231   1.950   0.259  0.00  0.00    +0.000 N 
ATOM      7  C   UNK A   1      -1.666   2.069  -1.078  0.00  0.00    +0.000 C 
ATOM      8  C   UNK A   1      -3.215   0.991   0.684  0.00  0.00    +0.000 C 
ATOM      9  C   UNK A   1      -3.529   0.019  -0.469  0.00  0.00    +0.000 C 
ATOM     10  C   UNK A   1      -0.811   3.225  -0.512  0.00  0.00    +0.000 C 
ATOM     11  C   UNK A   1      -1.714   3.098   0.746  0.00  0.00    +0.000 C 
ATOM     12  C   UNK A   1      -2.274  -0.615  -1.122  0.00  0.00    +0.000 C 
BRANCH   8  14
ATOM     13  O   UNK A   2      -1.404   0.075   1.998  0.00  0.00    +0.000 OA
ATOM     14  C   UNK A   1      -2.596   0.307   1.867  0.00  0.00    +0.000 C 
BRANCH  14  15
ATOM     15  O   UNK A   2      -3.543  -0.024   2.779  0.00  0.00    +0.000 OA
ATOM     16  H   UNK A   2      -3.158  -0.475   3.560  0.00  0.00    +0.000 HD
ENDBRANCH  14  15
ENDBRANCH   8  14
BRANCH   9  17
ATOM     17  C   UNK A   1      -4.515  -1.070  -0.039  0.00  0.00    +0.000 C 
BRANCH  17  18
ATOM     18  O   UNK A   1      -4.906  -1.795  -1.189  0.00  0.00    +0.000 OA
BRANCH  18  20
ATOM     19  O   UNK A   1      -6.270  -3.147   0.096  0.00  0.00    +0.000 OA
ATOM     20  C   UNK A   1      -5.796  -2.817  -0.983  0.00  0.00    +0.000 C 
ATOM     21  C   UNK A   1      -6.117  -3.492  -2.282  0.00  0.00    +0.000 C 
ENDBRANCH  18  20
ENDBRANCH  17  18
ENDBRANCH   9  17
ENDBRANCH   2  10
BRANCH   3  22
ATOM     22  C   UNK A   0       2.904   2.883  -0.583  0.00  0.00    +0.000 C 
BRANCH  22  23
ATOM     23  C   UNK A   0       3.254   1.509  -1.161  0.00  0.00    +0.000 C 
BRANCH  23  24
ATOM     24  C   UNK A   0       4.668   1.086  -0.760  0.00  0.00    +0.000 C 
BRANCH  24  25
ATOM     25  C   UNK A   0       5.039  -0.323  -1.235  0.00  0.00    +0.000 C 
BRANCH  25  26
ATOM     26  C   UNK A   0       4.178  -1.447  -0.657  0.00  0.00    +0.000 C 
BRANCH  26  28
ATOM     27  O   UNK A   1       2.045  -1.194   1.281  0.00  0.00    +0.000 OA
ATOM     28  N   UNK A   2       4.294  -1.485   0.782  0.00  0.00    +0.000 N 
ATOM     29  C   UNK A   1       3.209  -1.355   1.639  0.00  0.00    +0.000 C 
ATOM     30  H   UNK A   2       5.219  -1.634   1.176  0.00  0.00    +0.000 HD
BRANCH  29  31
ATOM     31  C   UNK A   1       3.628  -1.401   3.094  0.00  0.00    +0.000 C 
BRANCH  31  32
ATOM     32  N   UNK A   1       2.536  -1.962   3.877  0.00  0.00    +0.000 NA
ATOM     33  H   UNK A   1       1.725  -1.346   3.823  0.00  0.00    +0.000 HD
ATOM     34  H   UNK A   1       2.805  -1.986   4.860  0.00  0.00    +0.000 HD
ENDBRANCH  31  32
ENDBRANCH  29  31
ENDBRANCH  26  28
BRANCH  26  36
ATOM     35  O   UNK A   2       5.536  -3.466  -0.639  0.00  0.00    +0.000 OA
ATOM     36  C   UNK A   0       4.631  -2.811  -1.140  0.00  0.00    +0.000 C 
BRANCH  36  37
ATOM     37  O   UNK A   2       3.942  -3.226  -2.234  0.00  0.00    +0.000 OA
ATOM     38  H   UNK A   2       4.252  -4.101  -2.551  0.00  0.00    +0.000 HD
ENDBRANCH  36  37
ENDBRANCH  26  36
ENDBRANCH  25  26
ENDBRANCH  24  25
ENDBRANCH  23  24
ENDBRANCH  22  23
ENDBRANCH   3  22
TORSDOF 16
