REMARK  Name = 
REMARK  25 active torsions:
REMARK  status: ('A' for Active; 'I' for Inactive)
REMARK    1  A    between atoms: C_1  and  C_2
REMARK    2  A    between atoms: C_2  and  O_3
REMARK    3  A    between atoms: O_3  and  C_4
REMARK    4  A    between atoms: C_4  and  C_6
REMARK    5  A    between atoms: C_7  and  C_8
REMARK    6  A    between atoms: C_8  and  C_9
REMARK    7  A    between atoms: C_8  and  N_16
REMARK    8  A    between atoms: C_9  and  C_10
REMARK    9  A    between atoms: C_17  and  C_19
REMARK   10  A    between atoms: C_19  and  C_20
REMARK   11  A    between atoms: C_19  and  N_24
REMARK   12  A    between atoms: C_20  and  C_21
REMARK   13  A    between atoms: C_21  and  C_22
REMARK   14  A    between atoms: C_21  and  C_23
REMARK   15  A    between atoms: C_25  and  C_27
REMARK   16  A    between atoms: C_27  and  N_28
REMARK   17  A    between atoms: C_27  and  C_43
REMARK   18  A    between atoms: C_29  and  C_31
REMARK   19  A    between atoms: C_31  and  N_32
REMARK   20  A    between atoms: C_31  and  C_40
REMARK   21  A    between atoms: C_33  and  C_35
REMARK   22  A    between atoms: C_40  and  C_41
REMARK   23  A    between atoms: C_40  and  C_42
REMARK   24  A    between atoms: C_43  and  C_44
REMARK   25  A    between atoms: C_43  and  C_45
REMARK                            x       y       z     vdW  Elec       q    Type
REMARK                         _______ _______ _______ _____ _____    ______ ____
ROOT
ATOM      1  C   UNL     1      -0.977  -1.401  -0.804  0.00  0.00    +0.000 C 
ENDROOT
BRANCH   1   3
ATOM      2  N   UNL     1      -3.451  -1.109  -1.043  0.00  0.00    +0.000 N 
ATOM      3  C   UNL     1      -2.244  -1.044  -1.745  0.00  0.00    +0.000 C 
ATOM      4  O   UNL     1      -2.157  -1.575  -2.872  0.00  0.00    +0.000 OA
ATOM      5  H   UNL     1      -3.473  -0.952  -0.072  0.00  0.00    +0.000 HD
BRANCH   2   6
ATOM      6  C   UNL     1      -4.772  -1.438  -1.826  0.00  0.00    +0.000 C 
BRANCH   6   8
ATOM      7  C   UNL     1      -6.541   0.319  -2.001  0.00  0.00    +0.000 C 
ATOM      8  C   UNL     1      -5.283   0.097  -1.769  0.00  0.00    +0.000 C 
BRANCH   7   9
ATOM      9  C   UNL     1      -7.362   1.385  -1.396  0.00  0.00    +0.000 C 
ATOM     10  O   UNL     1      -8.606   1.266  -1.629  0.00  0.00    +0.000 OA
BRANCH   9  11
ATOM     11  O   UNL     1      -7.092   1.899  -0.123  0.00  0.00    +0.000 OA
BRANCH  11  13
ATOM     12  C   UNL     1      -7.057   0.914   1.994  0.00  0.00    +0.000 C 
ATOM     13  C   UNL     1      -7.921   1.639   1.010  0.00  0.00    +0.000 C 
ENDBRANCH  11  13
ENDBRANCH   9  11
ENDBRANCH   7   9
ENDBRANCH   6   8
BRANCH   6  14
ATOM     14  C   UNL     1      -5.700  -1.852  -0.540  0.00  0.00    +0.000 C 
BRANCH  14  15
ATOM     15  C   UNL     1      -4.679  -2.048   0.704  0.00  0.00    +0.000 C 
ATOM     16  C   UNL     1      -5.791  -2.878   1.573  0.00  0.00    +0.000 C 
ATOM     17  C   UNL     1      -5.232  -2.517   2.930  0.00  0.00    +0.000 C 
ATOM     18  N   UNL     1      -5.015  -1.110   2.803  0.00  0.00    +0.000 N 
ATOM     19  C   UNL     1      -5.123  -0.687   1.433  0.00  0.00    +0.000 C 
ATOM     20  O   UNL     1      -4.554   0.418   1.175  0.00  0.00    +0.000 OA
ATOM     21  H   UNL     1      -4.817  -0.507   3.556  0.00  0.00    +0.000 HD
ENDBRANCH  14  15
ENDBRANCH   6  14
ENDBRANCH   2   6
ENDBRANCH   1   3
BRANCH   1  22
ATOM     22  N   UNL     1       0.013  -0.403  -1.519  0.00  0.00    +0.000 N 
ATOM     23  C   UNL     1       1.381  -0.495  -1.172  0.00  0.00    +0.000 C 
ATOM     24  O   UNL     1       1.670  -1.494  -0.440  0.00  0.00    +0.000 OA
ATOM     25  H   UNL     1      -0.308   0.255  -2.178  0.00  0.00    +0.000 HD
BRANCH  23  26
ATOM     26  C   UNL     1       2.074   0.814  -0.519  0.00  0.00    +0.000 C 
BRANCH  26  27
ATOM     27  N   UNL     1       3.526   0.230  -0.703  0.00  0.00    +0.000 N 
ATOM     28  C   UNL     1       4.008  -0.298   0.498  0.00  0.00    +0.000 C 
ATOM     29  O   UNL     1       3.537  -0.328   1.605  0.00  0.00    +0.000 OA
ATOM     30  H   UNL     1       4.027   0.237  -1.550  0.00  0.00    +0.000 HD
BRANCH  28  31
ATOM     31  C   UNL     1       5.408  -1.025   0.178  0.00  0.00    +0.000 C 
BRANCH  31  32
ATOM     32  N   UNL     1       6.125  -0.404   1.440  0.00  0.00    +0.000 N 
ATOM     33  C   UNL     1       6.490   0.956   1.212  0.00  0.00    +0.000 C 
ATOM     34  O   UNL     1       5.528   1.719   0.963  0.00  0.00    +0.000 OA
ATOM     35  H   UNL     1       6.297  -0.892   2.277  0.00  0.00    +0.000 HD
BRANCH  33  36
ATOM     36  C   UNL     1       7.883   1.426   1.204  0.00  0.00    +0.000 A 
ATOM     37  C   UNL     1       8.437   2.061   0.098  0.00  0.00    +0.000 A 
ATOM     38  C   UNL     1       9.775   1.694   0.026  0.00  0.00    +0.000 A 
ATOM     39  O   UNL     1      10.032   1.049   1.129  0.00  0.00    +0.000 OA
ATOM     40  C   UNL     1       8.959   0.836   1.832  0.00  0.00    +0.000 A 
ENDBRANCH  33  36
ENDBRANCH  31  32
BRANCH  31  41
ATOM     41  C   UNL     1       4.971  -2.421   0.921  0.00  0.00    +0.000 C 
ATOM     42  C   UNL     1       6.166  -3.283   0.524  0.00  0.00    +0.000 C 
ATOM     43  C   UNL     1       4.933  -2.269   2.369  0.00  0.00    +0.000 C 
ENDBRANCH  31  41
ENDBRANCH  28  31
ENDBRANCH  26  27
BRANCH  26  44
ATOM     44  C   UNL     1       2.201   1.649  -1.919  0.00  0.00    +0.000 C 
ATOM     45  C   UNL     1       2.362   0.767  -3.048  0.00  0.00    +0.000 C 
ATOM     46  C   UNL     1       1.262   2.761  -1.924  0.00  0.00    +0.000 C 
ENDBRANCH  26  44
ENDBRANCH  23  26
ENDBRANCH   1  22
BRANCH   1  47
ATOM     47  C   UNL     1      -1.391  -0.293   0.326  0.00  0.00    +0.000 C 
BRANCH  47  48
ATOM     48  C   UNL     1      -1.549   1.031  -0.166  0.00  0.00    +0.000 C 
ATOM     49  C   UNL     1      -1.664   1.520  -1.502  0.00  0.00    +0.000 C 
ATOM     50  C   UNL     1      -2.580   1.735   0.712  0.00  0.00    +0.000 C 
ENDBRANCH  47  48
ENDBRANCH   1  47
TORSDOF 18
