REMARK  Name = 153270
REMARK  7 active torsions:
REMARK  status: ('A' for Active; 'I' for Inactive)
REMARK    1  A    between atoms: O_5  and  C_24
REMARK    2  A    between atoms: O_5  and  C_28
REMARK    3  A    between atoms: N_10  and  C_23
REMARK    4  A    between atoms: N_11  and  C_17
REMARK    5  A    between atoms: C_13  and  C_20
REMARK    6  A    between atoms: C_27  and  C_29
REMARK    7  A    between atoms: C_28  and  C_31
REMARK                            x       y       z     vdW  Elec       q    Type
REMARK                         _______ _______ _______ _____ _____    ______ ____
ROOT
ATOM      1  O   UNL     1       0.178  -0.499  -1.240  0.00  0.00    +0.000 OA
ATOM      2  O   UNL     1       0.891   3.785   2.130  0.00  0.00    +0.000 OA
ATOM      3  N   UNL     1       1.245   1.434  -0.555  0.00  0.00    +0.000 N 
ATOM      4  N   UNL     1       1.171   2.660   0.127  0.00  0.00    +0.000 N 
ATOM      5  C   UNL     1       2.559   1.149  -1.130  0.00  0.00    +0.000 C 
ATOM      6  C   UNL     1       3.134   2.321  -1.928  0.00  0.00    +0.000 C 
ATOM      7  C   UNL     1       2.966   3.655  -1.203  0.00  0.00    +0.000 C 
ATOM      8  C   UNL     1       1.535   3.798  -0.706  0.00  0.00    +0.000 C 
ATOM      9  C   UNL     1      -1.090   1.045   0.112  0.00  0.00    +0.000 C 
ATOM     10  C   UNL     1       0.152   0.578  -0.641  0.00  0.00    +0.000 C 
ATOM     11  C   UNL     1      -0.896   0.942   1.627  0.00  0.00    +0.000 C 
ATOM     12  C   UNL     1       0.456   1.439   2.136  0.00  0.00    +0.000 C 
ATOM     13  C   UNL     1       0.865   2.740   1.477  0.00  0.00    +0.000 C 
ENDROOT
BRANCH   5  16
ATOM     14  O   UNL     1       4.180   1.519   0.584  0.00  0.00    +0.000 OA
ATOM     15  N   UNL     1       3.376  -0.639   0.240  0.00  0.00    +0.000 N 
ATOM     16  C   UNL     1       3.457   0.721  -0.007  0.00  0.00    +0.000 C 
ATOM     17  H   UNL     1       2.773  -1.210  -0.345  0.00  0.00    +0.000 HD
BRANCH  15  20
ATOM     18  O   UNL     1       5.058  -3.140   0.135  0.00  0.00    +0.000 OA
ATOM     19  O   UNL     1       3.410  -4.677   0.575  0.00  0.00    +0.000 OA
ATOM     20  C   UNL     1       4.158  -1.306   1.256  0.00  0.00    +0.000 C 
ATOM     21  C   UNL     1       5.449  -1.886   0.708  0.00  0.00    +0.000 C 
ATOM     22  C   UNL     1       3.450  -2.551   1.746  0.00  0.00    +0.000 C 
ATOM     23  C   UNL     1       3.928  -3.588   0.767  0.00  0.00    +0.000 C 
BRANCH  21  24
ATOM     24  O   UNL     1       6.061  -1.016  -0.227  0.00  0.00    +0.000 OA
BRANCH  24  25
ATOM     25  C   UNL     1       7.271  -1.562  -0.741  0.00  0.00    +0.000 C 
ATOM     26  C   UNL     1       7.872  -0.586  -1.730  0.00  0.00    +0.000 C 
ENDBRANCH  24  25
ENDBRANCH  21  24
ENDBRANCH  15  20
ENDBRANCH   5  16
BRANCH   9  28
ATOM     27  O   UNL     1      -3.812   1.932  -0.101  0.00  0.00    +0.000 OA
ATOM     28  N   UNL     1      -2.220   0.260  -0.317  0.00  0.00    +0.000 N 
ATOM     29  C   UNL     1      -3.505   0.778  -0.388  0.00  0.00    +0.000 C 
ATOM     30  H   UNL     1      -2.070  -0.717  -0.553  0.00  0.00    +0.000 HD
BRANCH  29  32
ATOM     31  N   UNL     1      -4.352  -0.677  -2.057  0.00  0.00    +0.000 NA
ATOM     32  C   UNL     1      -4.565  -0.168  -0.823  0.00  0.00    +0.000 A 
ATOM     33  C   UNL     1      -5.662  -0.481  -0.018  0.00  0.00    +0.000 A 
ATOM     34  C   UNL     1      -6.608  -1.392  -0.532  0.00  0.00    +0.000 A 
ATOM     35  C   UNL     1      -5.847   0.071   1.260  0.00  0.00    +0.000 A 
ATOM     36  C   UNL     1      -6.405  -1.931  -1.808  0.00  0.00    +0.000 A 
ATOM     37  C   UNL     1      -5.278  -1.546  -2.517  0.00  0.00    +0.000 A 
ATOM     38  C   UNL     1      -7.724  -1.732   0.249  0.00  0.00    +0.000 A 
ATOM     39  C   UNL     1      -6.962  -0.277   2.023  0.00  0.00    +0.000 A 
ATOM     40  C   UNL     1      -7.899  -1.177   1.518  0.00  0.00    +0.000 A 
ENDBRANCH  29  32
ENDBRANCH   9  28
TORSDOF 6
