REMARK  Name = 
REMARK  18 active torsions:
REMARK  status: ('A' for Active; 'I' for Inactive)
REMARK    1  A    between atoms: C_1  and  C_2
REMARK    2  A    between atoms: C_8  and  C_9
REMARK    3  A    between atoms: N_11  and  CA_12
REMARK    4  A    between atoms: CA_12  and  CB_13
REMARK    5  A    between atoms: CA_12  and  C_19
REMARK    6  A    between atoms: CB_13  and  CG_14
REMARK    7  A    between atoms: N_21  and  C_22
REMARK    8  A    between atoms: C_22  and  C_23
REMARK    9  A    between atoms: C_22  and  C_25
REMARK   10  A    between atoms: C_23  and  O_24
REMARK   11  A    between atoms: N_27  and  C_28
REMARK   12  A    between atoms: C_28  and  C_29
REMARK   13  A    between atoms: C_28  and  C_31
REMARK   14  A    between atoms: C_29  and  S_30
REMARK   15  A    between atoms: N_33  and  C_34
REMARK   16  A    between atoms: C_34  and  C_35
REMARK   17  A    between atoms: C_34  and  C_39
REMARK   18  A    between atoms: C_35  and  C_36
REMARK                            x       y       z     vdW  Elec       q    Type
REMARK                         _______ _______ _______ _____ _____    ______ ____
ROOT
ATOM      1  C   UNK A   2       0.990   0.464   0.717  0.00  0.00    +0.000 C 
ENDROOT
BRANCH   1   4
ATOM      2  C   HIS A   1      -1.484   0.251   0.132  0.00  0.00    +0.000 C 
ATOM      3  O   HIS A   1      -1.291   0.923  -0.913  0.00  0.00    +0.000 OA
ATOM      4  N   UNK A   2      -0.445  -0.175   0.987  0.00  0.00    +0.000 N 
ATOM      5  H   UNK A   2      -0.598  -0.829   1.707  0.00  0.00    +0.000 HD
BRANCH   2   6
ATOM      6  CA  HIS A   1      -2.843   0.744   0.910  0.00  0.00    +0.000 C 
BRANCH   6   9
ATOM      7  C   UNK A   0      -5.174   0.602  -0.101  0.00  0.00    +0.000 C 
ATOM      8  O   UNK A   0      -5.527   1.222   0.943  0.00  0.00    +0.000 OA
ATOM      9  N   HIS A   1      -3.818   0.145  -0.209  0.00  0.00    +0.000 N 
ATOM     10  H   HIS A   1      -3.515  -0.480  -0.907  0.00  0.00    +0.000 HD
BRANCH   7  18
ATOM     11  C   UNK A   0      -8.620   2.292   0.363  0.00  0.00    +0.000 C 
ATOM     12  C   UNK A   0      -8.258   0.874   0.202  0.00  0.00    +0.000 C 
ATOM     13  O   UNK A   0      -8.893   0.014   0.890  0.00  0.00    +0.000 OA
ATOM     14  N   UNK A   0      -7.386   0.456  -0.859  0.00  0.00    +0.000 N 
ATOM     15  C   UNK A   0      -6.697   1.314  -1.760  0.00  0.00    +0.000 C 
ATOM     16  C   UNK A   0      -5.604   0.537  -2.411  0.00  0.00    +0.000 C 
ATOM     17  C   UNK A   0      -5.758  -0.847  -1.932  0.00  0.00    +0.000 C 
ATOM     18  C   UNK A   0      -6.277  -0.585  -0.367  0.00  0.00    +0.000 C 
ENDBRANCH   7  18
ENDBRANCH   6   9
BRANCH   6  19
ATOM     19  CB  HIS A   1      -2.903  -0.632   1.844  0.00  0.00    +0.000 C 
BRANCH  19  20
ATOM     20  CG  HIS A   1      -2.910  -1.776   0.967  0.00  0.00    +0.000 A 
ATOM     21  CD2 HIS A   1      -2.547  -2.149  -0.269  0.00  0.00    +0.000 A 
ATOM     22  NE2 HIS A   1      -2.877  -3.376  -0.499  0.00  0.00    +0.000 N 
ATOM     23  CE1 HIS A   1      -3.393  -3.893   0.607  0.00  0.00    +0.000 A 
ATOM     24  ND1 HIS A   1      -3.271  -2.949   1.550  0.00  0.00    +0.000 NA
ATOM     25  HE2 HIS A   1      -2.764  -3.849  -1.355  0.00  0.00    +0.000 HD
ENDBRANCH  19  20
ENDBRANCH   6  19
ENDBRANCH   2   6
ENDBRANCH   1   4
BRANCH   1  26
ATOM     26  C   UNK A   2       1.656  -0.997   0.359  0.00  0.00    +0.000 C 
ATOM     27  O   UNK A   2       1.285  -1.429  -0.757  0.00  0.00    +0.000 OA
ATOM     28  N   UNK A   2       2.948  -1.189   0.747  0.00  0.00    +0.000 N 
ATOM     29  H   UNK A   2       3.200  -0.967   1.673  0.00  0.00    +0.000 HD
BRANCH  28  30
ATOM     30  C   UNK A   2       4.073  -1.758  -0.236  0.00  0.00    +0.000 C 
BRANCH  30  31
ATOM     31  C   UNK A   2       4.757  -0.296  -0.491  0.00  0.00    +0.000 C 
ATOM     32  O   UNK A   2       4.132   0.704  -0.203  0.00  0.00    +0.000 OA
ATOM     33  N   UNK A   2       6.142  -0.224  -0.575  0.00  0.00    +0.000 N 
ATOM     34  H   UNK A   2       6.645  -0.622  -1.322  0.00  0.00    +0.000 HD
BRANCH  33  35
ATOM     35  C   UNK A   2       6.864   0.549   0.627  0.00  0.00    +0.000 C 
BRANCH  35  36
ATOM     36  C   UNK A   2       5.833   1.821   0.585  0.00  0.00    +0.000 C 
ATOM     37  N   UNK A   2       5.583   2.156   1.964  0.00  0.00    +0.000 N 
ATOM     38  O   UNK A   2       6.116   2.773  -0.129  0.00  0.00    +0.000 OA
ATOM     39  H   UNK A   2       5.348   1.449   2.607  0.00  0.00    +0.000 HD
ATOM     40  H   UNK A   2       5.647   3.092   2.263  0.00  0.00    +0.000 HD
ENDBRANCH  35  36
BRANCH  35  41
ATOM     41  C   UNK A   2       7.985   1.214  -0.423  0.00  0.00    +0.000 C 
BRANCH  41  42
ATOM     42  C   UNK A   2       8.790   2.100   0.462  0.00  0.00    +0.000 C 
ATOM     43  N   UNK A   2       9.529   1.498   1.500  0.00  0.00    +0.000 N 
ATOM     44  O   UNK A   2       9.109   3.252   0.094  0.00  0.00    +0.000 OA
ATOM     45  H   UNK A   2       9.298   0.592   1.808  0.00  0.00    +0.000 HD
ATOM     46  H   UNK A   2      10.277   1.984   1.918  0.00  0.00    +0.000 HD
ENDBRANCH  41  42
ENDBRANCH  35  41
ENDBRANCH  33  35
ENDBRANCH  30  31
BRANCH  30  47
ATOM     47  C   UNK A   2       3.180  -1.615  -1.647  0.00  0.00    +0.000 C 
BRANCH  47  48
ATOM     48  S   UNK A   2       4.525  -1.439  -2.867  0.00  0.00    +0.000 S 
ATOM     49  H   UNK A   2       5.311  -0.383  -2.526  0.00  0.00    +0.000 HD
ENDBRANCH  47  48
ENDBRANCH  30  47
ENDBRANCH  28  30
ENDBRANCH   1  26
BRANCH   1  50
ATOM     50  C   UNK A   2       1.416   0.345   2.326  0.00  0.00    +0.000 C 
BRANCH  50  51
ATOM     51  O   UNK A   2       1.061  -0.921   2.706  0.00  0.00    +0.000 OA
ATOM     52  H   UNK A   2       0.111  -1.049   2.558  0.00  0.00    +0.000 HD
ENDBRANCH  50  51
ENDBRANCH   1  50
TORSDOF 17
