REMARK  Name = 9824131
REMARK  10 active torsions:
REMARK  status: ('A' for Active; 'I' for Inactive)
REMARK    1  A    between atoms: S_1  and  C_25
REMARK    2  A    between atoms: S_1  and  C_29
REMARK    3  A    between atoms: O_3  and  C_19
REMARK    4  A    between atoms: N_8  and  CA_15
REMARK    5  A    between atoms: CA_11  and  C_19
REMARK    6  A    between atoms: C_24  and  C_25
REMARK    7  A    between atoms: C_25  and  C_26
REMARK    8  A    between atoms: C_26  and  C_27
REMARK    9  A    between atoms: C_26  and  C_28
REMARK   10  A    between atoms: C_29  and  C_30
REMARK                            x       y       z     vdW  Elec       q    Type
REMARK                         _______ _______ _______ _____ _____    ______ ____
ROOT
ATOM      1  O   UNL     1       0.022  -1.893  -1.400  0.00  0.00    +0.000 OA
ATOM      2  N   UNL     1      -1.725  -1.316   0.026  0.00  0.00    +0.000 N 
ATOM      3  C   UNL     1      -2.178  -0.569   1.224  0.00  0.00    +0.000 C 
ATOM      4  C   UNL     1      -3.295  -1.327   1.973  0.00  0.00    +0.000 C 
ATOM      5  CA  UNL     1      -2.720  -1.998  -0.813  0.00  0.00    +0.000 C 
ATOM      6  C   UNL     1      -4.410  -1.829   1.067  0.00  0.00    +0.000 C 
ATOM      7  C   UNL     1      -3.829  -2.698  -0.038  0.00  0.00    +0.000 C 
ATOM      8  C   UNL     1      -2.377   0.909   0.906  0.00  0.00    +0.000 A 
ATOM      9  CA  UNL     1       0.480  -0.244   0.297  0.00  0.00    +0.000 C 
ATOM     10  C   UNL     1      -0.399  -1.251  -0.435  0.00  0.00    +0.000 C 
ATOM     11  C   UNL     1       0.052   1.187  -0.035  0.00  0.00    +0.000 C 
ATOM     12  C   UNL     1      -1.330   1.687   0.353  0.00  0.00    +0.000 A 
ATOM     13  C   UNL     1      -3.600   1.550   1.189  0.00  0.00    +0.000 A 
ATOM     14  C   UNL     1      -1.560   3.057   0.091  0.00  0.00    +0.000 A 
ATOM     15  C   UNL     1      -3.802   2.905   0.924  0.00  0.00    +0.000 A 
ATOM     16  C   UNL     1      -2.781   3.661   0.373  0.00  0.00    +0.000 A 
ENDROOT
BRANCH   9  18
ATOM     17  O   UNL     1       2.858   0.151   1.859  0.00  0.00    +0.000 OA
ATOM     18  N   UNL     1       1.842  -0.474  -0.131  0.00  0.00    +0.000 N 
ATOM     19  C   UNL     1       2.930  -0.253   0.699  0.00  0.00    +0.000 C 
ATOM     20  H   UNL     1       1.998  -0.779  -1.088  0.00  0.00    +0.000 HD
BRANCH  19  21
ATOM     21  C   UNL     1       4.263  -0.537   0.009  0.00  0.00    +0.000 C 
BRANCH  21  22
ATOM     22  C   UNL     1       5.095  -1.595   0.774  0.00  0.00    +0.000 C 
ATOM     23  C   UNL     1       6.436  -1.906   0.094  0.00  0.00    +0.000 C 
ATOM     24  C   UNL     1       4.306  -2.907   0.906  0.00  0.00    +0.000 C 
ENDBRANCH  21  22
BRANCH  21  25
ATOM     25  S   UNL     1       5.112   1.085  -0.108  0.00  0.00    +0.000 S 
BRANCH  25  27
ATOM     26  O   UNL     1       3.194   1.440  -1.899  0.00  0.00    +0.000 OA
ATOM     27  C   UNL     1       3.932   1.962  -1.073  0.00  0.00    +0.000 C 
ATOM     28  C   UNL     1       3.921   3.436  -0.781  0.00  0.00    +0.000 C 
ENDBRANCH  25  27
ENDBRANCH  21  25
ENDBRANCH  19  21
ENDBRANCH   9  18
BRANCH   5  30
ATOM     29  OXT UNL     1      -2.661   0.029  -2.133  0.00  0.00    +0.000 OA
ATOM     30  C   UNL     1      -3.261  -0.968  -1.762  0.00  0.00    +0.000 C 
BRANCH  30  31
ATOM     31  O   UNL     1      -4.517  -1.293  -2.156  0.00  0.00    +0.000 OA
ATOM     32  H   UNL     1      -4.890  -0.630  -2.775  0.00  0.00    +0.000 HD
ENDBRANCH  30  31
ENDBRANCH   5  30
TORSDOF 7
