REMARK  Name = 6918293
REMARK  9 active torsions:
REMARK  status: ('A' for Active; 'I' for Inactive)
REMARK    1  A    between atoms: N_3  and  C_13
REMARK    2  A    between atoms: C_5  and  C_6
REMARK    3  A    between atoms: C_5  and  C_7
REMARK    4  A    between atoms: C_5  and  C_10
REMARK    5  A    between atoms: C_6  and  C_8
REMARK    6  A    between atoms: C_7  and  C_9
REMARK    7  A    between atoms: C_8  and  C_11
REMARK    8  A    between atoms: C_9  and  C_12
REMARK    9  A    between atoms: C_13  and  C_14
REMARK                            x       y       z     vdW  Elec       q    Type
REMARK                         _______ _______ _______ _____ _____    ______ ____
ROOT
ATOM      1  O   UNL     1      -0.013   0.600   1.790  0.00  0.00    +0.000 OA
ATOM      2  N   UNL     1      -0.374   0.828  -0.488  0.00  0.00    +0.000 N 
ATOM      3  C   UNL     1       0.263   0.309   0.626  0.00  0.00    +0.000 C 
ATOM      4  H   UNL     1      -0.094   0.528  -1.416  0.00  0.00    +0.000 HD
ENDROOT
BRANCH   3   5
ATOM      5  C   UNL     1       1.377  -0.691   0.308  0.00  0.00    +0.000 C 
BRANCH   5   6
ATOM      6  C   UNL     1       0.779  -1.926  -0.395  0.00  0.00    +0.000 C 
BRANCH   6   7
ATOM      7  C   UNL     1      -0.248  -2.666   0.466  0.00  0.00    +0.000 C 
ATOM      8  C   UNL     1      -0.790  -3.893  -0.251  0.00  0.00    +0.000 C 
ENDBRANCH   6   7
ENDBRANCH   5   6
BRANCH   5   9
ATOM      9  C   UNL     1       2.515  -0.044  -0.504  0.00  0.00    +0.000 C 
BRANCH   9  10
ATOM     10  C   UNL     1       3.168   1.131   0.232  0.00  0.00    +0.000 C 
ATOM     11  C   UNL     1       4.269   1.766  -0.605  0.00  0.00    +0.000 C 
ENDBRANCH   9  10
ENDBRANCH   5   9
ENDBRANCH   3   5
BRANCH   2  12
ATOM     12  C   UNL     1      -1.452   1.784  -0.392  0.00  0.00    +0.000 C 
BRANCH  12  15
ATOM     13  O   UNL     1      -2.987  -0.036  -0.835  0.00  0.00    +0.000 OA
ATOM     14  N   UNL     1      -3.733   1.781   0.360  0.00  0.00    +0.000 N 
ATOM     15  C   UNL     1      -2.774   1.056  -0.315  0.00  0.00    +0.000 C 
ATOM     16  H   UNL     1      -3.544   2.693   0.765  0.00  0.00    +0.000 HD
ATOM     17  H   UNL     1      -4.673   1.418   0.477  0.00  0.00    +0.000 HD
ENDBRANCH  12  15
ENDBRANCH   2  12
TORSDOF 7
