REMARK  Name = 131704300
REMARK  13 active torsions:
REMARK  status: ('A' for Active; 'I' for Inactive)
REMARK    1  A    between atoms: O_4  and  C_20
REMARK    2  A    between atoms: N_6  and  C_17
REMARK    3  A    between atoms: N_7  and  C_18
REMARK    4  A    between atoms: N_8  and  C_25
REMARK    5  A    between atoms: C_11  and  C_15
REMARK    6  A    between atoms: C_16  and  C_18
REMARK    7  A    between atoms: C_17  and  C_19
REMARK    8  A    between atoms: C_17  and  C_20
REMARK    9  A    between atoms: C_18  and  C_21
REMARK   10  A    between atoms: C_19  and  C_22
REMARK   11  A    between atoms: C_20  and  C_23
REMARK   12  A    between atoms: C_21  and  C_24
REMARK   13  A    between atoms: C_22  and  C_25
REMARK                            x       y       z     vdW  Elec       q    Type
REMARK                         _______ _______ _______ _____ _____    ______ ____
ROOT
ATOM      1  O   UNL     1       0.403  -1.651  -1.190  0.00  0.00    +0.000 OA
ATOM      2  N   UNL     1       1.906  -1.078   0.492  0.00  0.00    +0.000 N 
ATOM      3  C   UNL     1       0.653  -1.344  -0.028  0.00  0.00    +0.000 C 
ATOM      4  H   UNL     1       2.002  -0.916   1.490  0.00  0.00    +0.000 HD
ENDROOT
BRANCH   3   7
ATOM      5  O   UNL     1      -1.079   1.376   0.033  0.00  0.00    +0.000 OA
ATOM      6  N   UNL     1      -1.646  -0.848   0.328  0.00  0.00    +0.000 N 
ATOM      7  C   UNL     1      -0.422  -1.242   1.012  0.00  0.00    +0.000 C 
ATOM      8  C   UNL     1      -0.743  -2.599   1.629  0.00  0.00    +0.000 C 
ATOM      9  C   UNL     1      -1.790  -3.181   0.682  0.00  0.00    +0.000 C 
ATOM     10  C   UNL     1      -2.590  -1.960   0.253  0.00  0.00    +0.000 C 
ATOM     11  C   UNL     1      -1.902   0.463  -0.045  0.00  0.00    +0.000 C 
BRANCH  11  12
ATOM     12  C   UNL     1      -3.286   0.727  -0.582  0.00  0.00    +0.000 C 
BRANCH  12  13
ATOM     13  N   UNL     1      -3.178   1.758  -1.643  0.00  0.00    +0.000 N 
ATOM     14  H   UNL     1      -2.536   1.461  -2.390  0.00  0.00    +0.000 HD
ATOM     15  H   UNL     1      -2.826   2.653  -1.276  0.00  0.00    +0.000 HD
ATOM     16  H   UNL     1      -4.086   1.944  -2.088  0.00  0.00    +0.000 HD
ENDBRANCH  12  13
BRANCH  12  17
ATOM     17  C   UNL     1      -4.197   1.214   0.539  0.00  0.00    +0.000 C 
BRANCH  17  18
ATOM     18  C   UNL     1      -5.664   1.067   0.214  0.00  0.00    +0.000 A 
ATOM     19  C   UNL     1      -6.346   2.105  -0.420  0.00  0.00    +0.000 A 
ATOM     20  C   UNL     1      -6.337  -0.108   0.549  0.00  0.00    +0.000 A 
ATOM     21  C   UNL     1      -7.701   1.969  -0.720  0.00  0.00    +0.000 A 
ATOM     22  C   UNL     1      -7.692  -0.244   0.249  0.00  0.00    +0.000 A 
ATOM     23  C   UNL     1      -8.374   0.794  -0.385  0.00  0.00    +0.000 A 
ENDBRANCH  17  18
ENDBRANCH  12  17
ENDBRANCH  11  12
ENDBRANCH   3   7
BRANCH   2  24
ATOM     24  C   UNL     1       3.117  -1.131  -0.302  0.00  0.00    +0.000 C 
BRANCH  24  25
ATOM     25  C   UNL     1       4.142  -0.100   0.208  0.00  0.00    +0.000 C 
BRANCH  25  26
ATOM     26  C   UNL     1       3.571   1.326   0.237  0.00  0.00    +0.000 C 
BRANCH  26  27
ATOM     27  C   UNL     1       4.594   2.352   0.712  0.00  0.00    +0.000 C 
BRANCH  27  28
ATOM     28  N   UNL     1       5.740   2.376  -0.199  0.00  0.00    +0.000 NA
ATOM     29  N   UNL     1       7.783   3.322  -0.748  0.00  0.00    +0.000 N 
ATOM     30  N   UNL     1       6.724   4.144   1.096  0.00  0.00    +0.000 N 
ATOM     31  C   UNL     1       6.674   3.238   0.060  0.00  0.00    +0.000 C 
ATOM     32  H   UNL     1       7.891   2.717  -1.554  0.00  0.00    +0.000 HD
ATOM     33  H   UNL     1       8.524   3.989  -0.562  0.00  0.00    +0.000 HD
ATOM     34  H   UNL     1       5.987   4.216   1.789  0.00  0.00    +0.000 HD
ATOM     35  H   UNL     1       7.511   4.775   1.200  0.00  0.00    +0.000 HD
ENDBRANCH  27  28
ENDBRANCH  26  27
ENDBRANCH  25  26
ENDBRANCH  24  25
BRANCH  24  36
ATOM     36  C   UNL     1       3.644  -2.582  -0.308  0.00  0.00    +0.000 C 
BRANCH  36  38
ATOM     37 CL   UNL     1       5.160  -4.450  -1.594  0.00  0.00    +0.000 Cl
ATOM     38  C   UNL     1       4.902  -2.736  -1.164  0.00  0.00    +0.000 C 
ENDBRANCH  36  38
BRANCH  36  39
ATOM     39  O   UNL     1       3.937  -2.976   1.032  0.00  0.00    +0.000 OA
ATOM     40  H   UNL     1       4.267  -3.890   1.001  0.00  0.00    +0.000 HD
ENDBRANCH  36  39
ENDBRANCH  24  36
ENDBRANCH   2  24
TORSDOF 13
