REMARK  Name = 25113614
REMARK  7 active torsions:
REMARK  status: ('A' for Active; 'I' for Inactive)
REMARK    1  A    between atoms: N_4  and  C_8
REMARK    2  A    between atoms: N_4  and  C_19
REMARK    3  A    between atoms: N_5  and  C_22
REMARK    4  A    between atoms: C_9  and  C_21
REMARK    5  A    between atoms: C_19  and  C_20
REMARK    6  A    between atoms: C_22  and  C_23
REMARK    7  A    between atoms: C_28  and  C_29
REMARK                            x       y       z     vdW  Elec       q    Type
REMARK                         _______ _______ _______ _____ _____    ______ ____
ROOT
ATOM      1  O   UNL     1       2.671   2.784   1.537  0.00  0.00    +0.000 OA
ATOM      2  N   UNL     1       3.548   1.040   0.301  0.00  0.00    +0.000 N 
ATOM      3  C   UNL     1       3.497   0.038  -0.761  0.00  0.00    +0.000 C 
ATOM      4  C   UNL     1       4.959  -0.209  -1.123  0.00  0.00    +0.000 C 
ATOM      5  C   UNL     1       4.907   1.208   0.798  0.00  0.00    +0.000 C 
ATOM      6  C   UNL     1       5.698   0.064   0.185  0.00  0.00    +0.000 C 
ATOM      7  C   UNL     1       2.521   1.867   0.727  0.00  0.00    +0.000 C 
ENDROOT
BRANCH   3  10
ATOM      8  O   UNL     1       2.968  -1.494   0.992  0.00  0.00    +0.000 OA
ATOM      9  N   UNL     1       2.228  -1.952  -1.167  0.00  0.00    +0.000 N 
ATOM     10  C   UNL     1       2.874  -1.204  -0.198  0.00  0.00    +0.000 C 
ATOM     11  H   UNL     1       2.209  -1.615  -2.126  0.00  0.00    +0.000 HD
BRANCH   9  12
ATOM     12  C   UNL     1       1.565  -3.205  -0.888  0.00  0.00    +0.000 C 
BRANCH  12  13
ATOM     13  C   UNL     1       0.124  -3.008  -0.518  0.00  0.00    +0.000 A 
ATOM     14  C   UNL     1      -0.343  -3.440   0.724  0.00  0.00    +0.000 A 
ATOM     15  C   UNL     1      -0.750  -2.395  -1.416  0.00  0.00    +0.000 A 
ATOM     16  C   UNL     1      -1.682  -3.259   1.067  0.00  0.00    +0.000 A 
ATOM     17  C   UNL     1      -2.089  -2.214  -1.073  0.00  0.00    +0.000 A 
ATOM     18  C   UNL     1      -2.556  -2.645   0.169  0.00  0.00    +0.000 A 
BRANCH  18  21
ATOM     19  N   UNL     1      -4.448  -2.876   1.760  0.00  0.00    +0.000 N 
ATOM     20  N   UNL     1      -4.779  -1.879  -0.327  0.00  0.00    +0.000 NA
ATOM     21  C   UNL     1      -3.952  -2.456   0.528  0.00  0.00    +0.000 C 
ATOM     22  H   UNL     1      -3.885  -3.326   2.471  0.00  0.00    +0.000 HD
ATOM     23  H   UNL     1      -5.426  -2.736   1.992  0.00  0.00    +0.000 HD
ATOM     24  H   UNL     1      -5.709  -1.837   0.103  0.00  0.00    +0.000 HD
ENDBRANCH  18  21
ENDBRANCH  12  13
ENDBRANCH   9  12
ENDBRANCH   3  10
BRANCH   7  25
ATOM     25  C   UNL     1       1.161   1.593   0.137  0.00  0.00    +0.000 C 
BRANCH  25  26
ATOM     26  N   UNL     1       0.246   2.568   0.706  0.00  0.00    +0.000 NA
ATOM     27  H   UNL     1       0.243   2.454   1.720  0.00  0.00    +0.000 HD
BRANCH  26  28
ATOM     28  C   UNL     1      -1.111   2.365   0.185  0.00  0.00    +0.000 C 
ATOM     29  C   UNL     1      -1.180   2.994  -1.211  0.00  0.00    +0.000 C 
ATOM     30  C   UNL     1      -2.116   2.935   1.196  0.00  0.00    +0.000 C 
ATOM     31  C   UNL     1      -2.551   2.939  -1.886  0.00  0.00    +0.000 C 
ATOM     32  C   UNL     1      -3.555   2.511   0.905  0.00  0.00    +0.000 C 
ATOM     33  C   UNL     1      -3.544   3.924  -1.280  0.00  0.00    +0.000 C 
ATOM     34  C   UNL     1      -4.313   3.405  -0.070  0.00  0.00    +0.000 C 
ENDBRANCH  26  28
ENDBRANCH  25  26
ENDBRANCH   7  25
TORSDOF 7
