REMARK  Name = 46937030
REMARK  7 active torsions:
REMARK  status: ('A' for Active; 'I' for Inactive)
REMARK    1  A    between atoms: N_4  and  C_8
REMARK    2  A    between atoms: N_4  and  C_20
REMARK    3  A    between atoms: N_5  and  C_23
REMARK    4  A    between atoms: C_9  and  C_22
REMARK    5  A    between atoms: C_20  and  C_21
REMARK    6  A    between atoms: C_23  and  C_24
REMARK    7  A    between atoms: C_29  and  C_30
REMARK                            x       y       z     vdW  Elec       q    Type
REMARK                         _______ _______ _______ _____ _____    ______ ____
ROOT
ATOM      1  O   UNL     1       2.558  -3.127  -0.869  0.00  0.00    +0.000 OA
ATOM      2  N   UNL     1       3.617  -1.209  -0.136  0.00  0.00    +0.000 N 
ATOM      3  C   UNL     1       3.723  -0.013   0.698  0.00  0.00    +0.000 C 
ATOM      4  C   UNL     1       5.223   0.239   0.814  0.00  0.00    +0.000 C 
ATOM      5  C   UNL     1       4.896  -1.530  -0.756  0.00  0.00    +0.000 C 
ATOM      6  C   UNL     1       5.779  -0.321  -0.493  0.00  0.00    +0.000 C 
ATOM      7  C   UNL     1       2.530  -2.061  -0.251  0.00  0.00    +0.000 C 
ENDROOT
BRANCH   3  10
ATOM      8  O   UNL     1       2.991   1.157  -1.250  0.00  0.00    +0.000 OA
ATOM      9  N   UNL     1       2.549   2.068   0.846  0.00  0.00    +0.000 N 
ATOM     10  C   UNL     1       3.050   1.115  -0.024  0.00  0.00    +0.000 C 
ATOM     11  H   UNL     1       2.651   1.931   1.848  0.00  0.00    +0.000 HD
BRANCH   9  12
ATOM     12  C   UNL     1       1.874   3.267   0.403  0.00  0.00    +0.000 C 
BRANCH  12  13
ATOM     13  C   UNL     1       0.393   3.060   0.266  0.00  0.00    +0.000 A 
ATOM     14  C   UNL     1      -0.226   3.254  -0.969  0.00  0.00    +0.000 A 
ATOM     15  C   UNL     1      -0.363   2.675   1.373  0.00  0.00    +0.000 A 
ATOM     16  C   UNL     1      -1.602   3.062  -1.097  0.00  0.00    +0.000 A 
ATOM     17  C   UNL     1      -1.739   2.483   1.245  0.00  0.00    +0.000 A 
ATOM     18  C   UNL     1      -2.358   2.676   0.010  0.00  0.00    +0.000 A 
BRANCH  18  21
ATOM     19  N   UNL     1      -4.440   2.660  -1.343  0.00  0.00    +0.000 N 
ATOM     20  N   UNL     1      -4.507   2.114   0.928  0.00  0.00    +0.000 NA
ATOM     21  C   UNL     1      -3.792   2.475  -0.123  0.00  0.00    +0.000 C 
ATOM     22  H   UNL     1      -5.442   2.516  -1.415  0.00  0.00    +0.000 HD
ATOM     23  H   UNL     1      -3.970   2.934  -2.196  0.00  0.00    +0.000 HD
ATOM     24  H   UNL     1      -5.486   2.025   0.637  0.00  0.00    +0.000 HD
ENDBRANCH  18  21
ENDBRANCH  12  13
ENDBRANCH   9  12
ENDBRANCH   3  10
BRANCH   7  25
ATOM     25  C   UNL     1       1.264  -1.617   0.437  0.00  0.00    +0.000 C 
BRANCH  25  26
ATOM     26  N   UNL     1       0.267  -2.648   0.199  0.00  0.00    +0.000 NA
ATOM     27  H   UNL     1       0.606  -3.530   0.584  0.00  0.00    +0.000 HD
BRANCH  26  28
ATOM     28  C   UNL     1      -1.003  -2.295   0.841  0.00  0.00    +0.000 C 
ATOM     29  C   UNL     1      -1.659  -1.113   0.115  0.00  0.00    +0.000 C 
ATOM     30  C   UNL     1      -1.850  -3.567   0.999  0.00  0.00    +0.000 C 
ATOM     31  C   UNL     1      -3.287  -3.329   1.467  0.00  0.00    +0.000 C 
ATOM     32  C   UNL     1      -2.066  -1.316  -1.345  0.00  0.00    +0.000 C 
ATOM     33  C   UNL     1      -4.341  -3.445   0.363  0.00  0.00    +0.000 C 
ATOM     34  C   UNL     1      -3.134  -2.368  -1.641  0.00  0.00    +0.000 C 
ATOM     35  C   UNL     1      -4.344  -2.349  -0.706  0.00  0.00    +0.000 C 
ENDBRANCH  26  28
ENDBRANCH  25  26
ENDBRANCH   7  25
TORSDOF 7
