REMARK  Name = 25113126
REMARK  7 active torsions:
REMARK  status: ('A' for Active; 'I' for Inactive)
REMARK    1  A    between atoms: N_5  and  C_15
REMARK    2  A    between atoms: N_6  and  C_13
REMARK    3  A    between atoms: C_7  and  C_12
REMARK    4  A    between atoms: C_11  and  C_13
REMARK    5  A    between atoms: C_13  and  C_14
REMARK    6  A    between atoms: C_14  and  C_16
REMARK    7  A    between atoms: C_15  and  C_17
REMARK                            x       y       z     vdW  Elec       q    Type
REMARK                         _______ _______ _______ _____ _____    ______ ____
ROOT
ATOM      1  O   UNL     1       3.026  -1.480  -0.528  0.00  0.00    +0.000 OA
ATOM      2  N   UNL     1       2.271   0.453   0.497  0.00  0.00    +0.000 N 
ATOM      3  C   UNL     1       1.086  -0.134   1.107  0.00  0.00    +0.000 C 
ATOM      4  C   UNL     1       0.635   0.891   2.142  0.00  0.00    +0.000 C 
ATOM      5  C   UNL     1       1.110   2.218   1.557  0.00  0.00    +0.000 C 
ATOM      6  C   UNL     1       2.425   1.853   0.884  0.00  0.00    +0.000 C 
ATOM      7  C   UNL     1       3.190  -0.299  -0.219  0.00  0.00    +0.000 C 
ENDROOT
BRANCH   3  10
ATOM      8  O   UNL     1       0.026   0.438  -0.954  0.00  0.00    +0.000 OA
ATOM      9  N   UNL     1      -0.785  -1.371   0.267  0.00  0.00    +0.000 N 
ATOM     10  C   UNL     1       0.070  -0.310   0.019  0.00  0.00    +0.000 C 
ATOM     11  H   UNL     1      -0.677  -1.908   1.123  0.00  0.00    +0.000 HD
BRANCH   9  12
ATOM     12  C   UNL     1      -1.867  -1.737  -0.618  0.00  0.00    +0.000 C 
BRANCH  12  14
ATOM     13 CL   UNL     1      -5.322   2.009  -1.695  0.00  0.00    +0.000 Cl
ATOM     14  C   UNL     1      -3.144  -1.028  -0.268  0.00  0.00    +0.000 A 
ATOM     15  C   UNL     1      -3.587   0.037  -1.052  0.00  0.00    +0.000 A 
ATOM     16  C   UNL     1      -3.885  -1.434   0.841  0.00  0.00    +0.000 A 
ATOM     17  C   UNL     1      -4.773   0.695  -0.727  0.00  0.00    +0.000 A 
ATOM     18  C   UNL     1      -5.071  -0.775   1.166  0.00  0.00    +0.000 A 
ATOM     19  C   UNL     1      -5.515   0.289   0.382  0.00  0.00    +0.000 A 
ENDBRANCH  12  14
ENDBRANCH   9  12
ENDBRANCH   3  10
BRANCH   7  20
ATOM     20  C   UNL     1       4.445   0.428  -0.630  0.00  0.00    +0.000 C 
BRANCH  20  21
ATOM     21  N   UNL     1       4.118   1.076  -1.893  0.00  0.00    +0.000 NA
ATOM     22  H   UNL     1       4.934   1.575  -2.245  0.00  0.00    +0.000 HD
ATOM     23  H   UNL     1       3.390   1.775  -1.767  0.00  0.00    +0.000 HD
ENDBRANCH  20  21
BRANCH  20  24
ATOM     24  C   UNL     1       5.615  -0.538  -0.786  0.00  0.00    +0.000 C 
ATOM     25  C   UNL     1       5.934  -1.279   0.507  0.00  0.00    +0.000 C 
ENDBRANCH  20  24
ENDBRANCH   7  20
TORSDOF 6
