REMARK  Name = 16122596
REMARK  8 active torsions:
REMARK  status: ('A' for Active; 'I' for Inactive)
REMARK    1  A    between atoms: N_4  and  C_11
REMARK    2  A    between atoms: N_4  and  C_21
REMARK    3  A    between atoms: N_6  and  C_14
REMARK    4  A    between atoms: C_7  and  C_8
REMARK    5  A    between atoms: C_8  and  C_14
REMARK    6  A    between atoms: C_8  and  C_15
REMARK    7  A    between atoms: C_14  and  C_16
REMARK    8  A    between atoms: C_22  and  C_23
REMARK                            x       y       z     vdW  Elec       q    Type
REMARK                         _______ _______ _______ _____ _____    ______ ____
ROOT
ATOM      1  C   UNL     1      -0.218  -1.570   0.314  0.00  0.00    +0.000 C 
ATOM      2  C   UNL     1      -0.375  -3.065   0.008  0.00  0.00    +0.000 C 
ENDROOT
BRANCH   1   3
ATOM      3  C   UNL     1       0.273  -0.829  -0.933  0.00  0.00    +0.000 C 
ATOM      4  C   UNL     1       1.516  -1.498  -1.538  0.00  0.00    +0.000 C 
ATOM      5  C   UNL     1       0.541   0.654  -0.643  0.00  0.00    +0.000 C 
ATOM      6  C   UNL     1       3.027   0.216  -0.450  0.00  0.00    +0.000 C 
ATOM      7  C   UNL     1       2.780  -1.272  -0.711  0.00  0.00    +0.000 C 
ATOM      8  C   UNL     1       1.805   0.883   0.185  0.00  0.00    +0.000 C 
BRANCH   6  10
ATOM      9  O   UNL     1       5.416   1.606  -1.191  0.00  0.00    +0.000 OA
ATOM     10  N   UNL     1       4.196   0.401   0.379  0.00  0.00    +0.000 N 
ATOM     11  C   UNL     1       4.126  -0.189   1.719  0.00  0.00    +0.000 C 
ATOM     12  C   UNL     1       5.325   1.098  -0.070  0.00  0.00    +0.000 C 
ATOM     13  C   UNL     1       6.482   1.223   0.889  0.00  0.00    +0.000 C 
ENDBRANCH   6  10
ENDBRANCH   1   3
BRANCH   1  14
ATOM     14  C   UNL     1      -1.492  -0.915   0.891  0.00  0.00    +0.000 C 
BRANCH  14  18
ATOM     15  F   UNL     1      -4.060   2.938  -0.495  0.00  0.00    +0.000 F 
ATOM     16  O   UNL     1      -2.751  -1.901  -0.874  0.00  0.00    +0.000 OA
ATOM     17  N   UNL     1      -3.563   0.063   0.031  0.00  0.00    +0.000 N 
ATOM     18  C   UNL     1      -2.655  -0.975  -0.067  0.00  0.00    +0.000 C 
ATOM     19  C   UNL     1      -3.503   1.191   0.960  0.00  0.00    +0.000 C 
ATOM     20  C   UNL     1      -4.736   0.153  -0.827  0.00  0.00    +0.000 C 
ATOM     21  C   UNL     1      -4.587   2.136   0.470  0.00  0.00    +0.000 C 
ATOM     22  C   UNL     1      -5.610   1.211  -0.169  0.00  0.00    +0.000 C 
ENDBRANCH  14  18
BRANCH  14  23
ATOM     23  N   UNL     1      -1.937  -1.560   2.122  0.00  0.00    +0.000 NA
ATOM     24  H   UNL     1      -2.696  -1.030   2.547  0.00  0.00    +0.000 HD
ATOM     25  H   UNL     1      -1.177  -1.563   2.802  0.00  0.00    +0.000 HD
ENDBRANCH  14  23
ENDBRANCH   1  14
TORSDOF 5
