REMARK  Name = 24963036
REMARK  7 active torsions:
REMARK  status: ('A' for Active; 'I' for Inactive)
REMARK    1  A    between atoms: O_1  and  C_9
REMARK    2  A    between atoms: O_1  and  C_19
REMARK    3  A    between atoms: N_5  and  C_21
REMARK    4  A    between atoms: C_8  and  C_20
REMARK    5  A    between atoms: C_18  and  C_19
REMARK    6  A    between atoms: C_21  and  C_22
REMARK    7  A    between atoms: C_27  and  C_28
REMARK                            x       y       z     vdW  Elec       q    Type
REMARK                         _______ _______ _______ _____ _____    ______ ____
ROOT
ATOM      1  O   UNL     1      -0.609  -0.365  -0.825  0.00  0.00    +0.000 OA
ATOM      2  N   UNL     1      -1.567  -0.779   1.256  0.00  0.00    +0.000 N 
ATOM      3  C   UNL     1      -0.707  -0.141   0.379  0.00  0.00    +0.000 C 
ATOM      4  H   UNL     1      -1.587  -0.492   2.230  0.00  0.00    +0.000 HD
ENDROOT
BRANCH   3   7
ATOM      5  O   UNL     1       2.324  -0.919   1.164  0.00  0.00    +0.000 OA
ATOM      6  N   UNL     1       1.371   1.016   0.325  0.00  0.00    +0.000 N 
ATOM      7  C   UNL     1       0.115   0.914   1.056  0.00  0.00    +0.000 C 
ATOM      8  C   UNL     1      -0.520   2.294   0.930  0.00  0.00    +0.000 C 
ATOM      9  C   UNL     1       0.015   2.810  -0.404  0.00  0.00    +0.000 C 
ATOM     10  C   UNL     1       1.429   2.251  -0.453  0.00  0.00    +0.000 C 
ATOM     11  C   UNL     1       2.410   0.115   0.499  0.00  0.00    +0.000 C 
BRANCH  11  12
ATOM     12  C   UNL     1       3.699   0.466  -0.200  0.00  0.00    +0.000 C 
BRANCH  12  13
ATOM     13  O   UNL     1       4.623  -0.542   0.129  0.00  0.00    +0.000 OA
BRANCH  13  14
ATOM     14  C   UNL     1       5.892  -0.323  -0.476  0.00  0.00    +0.000 C 
ATOM     15  C   UNL     1       6.674   0.711   0.333  0.00  0.00    +0.000 C 
ATOM     16  C   UNL     1       6.648  -1.647  -0.576  0.00  0.00    +0.000 C 
ATOM     17  C   UNL     1       8.082   0.910  -0.220  0.00  0.00    +0.000 C 
ATOM     18  C   UNL     1       8.056  -1.449  -1.130  0.00  0.00    +0.000 C 
ATOM     19  C   UNL     1       8.836  -0.414  -0.323  0.00  0.00    +0.000 C 
ENDBRANCH  13  14
ENDBRANCH  12  13
ENDBRANCH  11  12
ENDBRANCH   3   7
BRANCH   2  20
ATOM     20  C   UNL     1      -2.483  -1.820   0.848  0.00  0.00    +0.000 C 
BRANCH  20  21
ATOM     21  C   UNL     1      -3.814  -1.265   0.431  0.00  0.00    +0.000 A 
ATOM     22  C   UNL     1      -4.717  -0.820   1.397  0.00  0.00    +0.000 A 
ATOM     23  C   UNL     1      -4.149  -1.196  -0.921  0.00  0.00    +0.000 A 
ATOM     24  C   UNL     1      -5.955  -0.305   1.010  0.00  0.00    +0.000 A 
ATOM     25  C   UNL     1      -5.386  -0.681  -1.308  0.00  0.00    +0.000 A 
ATOM     26  C   UNL     1      -6.289  -0.236  -0.343  0.00  0.00    +0.000 A 
BRANCH  26  29
ATOM     27  N   UNL     1      -8.502   0.753   0.195  0.00  0.00    +0.000 N 
ATOM     28  N   UNL     1      -7.896   0.361  -2.027  0.00  0.00    +0.000 NA
ATOM     29  C   UNL     1      -7.579   0.300  -0.746  0.00  0.00    +0.000 C 
ATOM     30  H   UNL     1      -8.341   0.743   1.195  0.00  0.00    +0.000 HD
ATOM     31  H   UNL     1      -9.398   1.123  -0.105  0.00  0.00    +0.000 HD
ATOM     32  H   UNL     1      -8.836   0.763  -2.108  0.00  0.00    +0.000 HD
ENDBRANCH  26  29
ENDBRANCH  20  21
ENDBRANCH   2  20
TORSDOF 7
