REMARK  Name = 24963037
REMARK  7 active torsions:
REMARK  status: ('A' for Active; 'I' for Inactive)
REMARK    1  A    between atoms: N_4  and  C_20
REMARK    2  A    between atoms: C_7  and  C_12
REMARK    3  A    between atoms: C_12  and  C_14
REMARK    4  A    between atoms: C_13  and  C_19
REMARK    5  A    between atoms: C_14  and  C_18
REMARK    6  A    between atoms: C_20  and  C_21
REMARK    7  A    between atoms: C_26  and  C_27
REMARK                            x       y       z     vdW  Elec       q    Type
REMARK                         _______ _______ _______ _____ _____    ______ ____
ROOT
ATOM      1  O   UNL     1      -0.242  -0.312  -0.686  0.00  0.00    +0.000 OA
ATOM      2  N   UNL     1      -1.294  -0.786   1.336  0.00  0.00    +0.000 N 
ATOM      3  C   UNL     1      -0.401  -0.117   0.516  0.00  0.00    +0.000 C 
ATOM      4  H   UNL     1      -1.365  -0.523   2.315  0.00  0.00    +0.000 HD
ENDROOT
BRANCH   3   7
ATOM      5  O   UNL     1       2.598  -0.875   1.431  0.00  0.00    +0.000 OA
ATOM      6  N   UNL     1       1.661   1.067   0.590  0.00  0.00    +0.000 N 
ATOM      7  C   UNL     1       0.372   0.932   1.257  0.00  0.00    +0.000 C 
ATOM      8  C   UNL     1      -0.275   2.306   1.131  0.00  0.00    +0.000 C 
ATOM      9  C   UNL     1       1.739   2.320  -0.156  0.00  0.00    +0.000 C 
ATOM     10  C   UNL     1       0.317   2.860  -0.163  0.00  0.00    +0.000 C 
ATOM     11  C   UNL     1       2.702   0.175   0.794  0.00  0.00    +0.000 C 
BRANCH  11  12
ATOM     12  C   UNL     1       4.018   0.559   0.167  0.00  0.00    +0.000 C 
BRANCH  12  13
ATOM     13  C   UNL     1       5.073  -0.493   0.462  0.00  0.00    +0.000 C 
BRANCH  13  14
ATOM     14  C   UNL     1       6.440  -0.130  -0.093  0.00  0.00    +0.000 C 
ATOM     15  C   UNL     1       7.524  -1.141   0.269  0.00  0.00    +0.000 C 
ATOM     16  C   UNL     1       6.490  -0.131  -1.617  0.00  0.00    +0.000 C 
ATOM     17  C   UNL     1       8.644  -0.856  -0.727  0.00  0.00    +0.000 C 
ATOM     18  C   UNL     1       7.980  -0.196  -1.936  0.00  0.00    +0.000 C 
ENDBRANCH  13  14
ENDBRANCH  12  13
ENDBRANCH  11  12
ENDBRANCH   3   7
BRANCH   2  19
ATOM     19  C   UNL     1      -2.174  -1.829   0.861  0.00  0.00    +0.000 C 
BRANCH  19  20
ATOM     20  C   UNL     1      -3.491  -1.282   0.392  0.00  0.00    +0.000 A 
ATOM     21  C   UNL     1      -4.446  -0.871   1.323  0.00  0.00    +0.000 A 
ATOM     22  C   UNL     1      -3.761  -1.185  -0.973  0.00  0.00    +0.000 A 
ATOM     23  C   UNL     1      -5.670  -0.363   0.888  0.00  0.00    +0.000 A 
ATOM     24  C   UNL     1      -4.986  -0.678  -1.408  0.00  0.00    +0.000 A 
ATOM     25  C   UNL     1      -5.940  -0.267  -0.477  0.00  0.00    +0.000 A 
BRANCH  25  28
ATOM     26  N   UNL     1      -8.190   0.681  -0.025  0.00  0.00    +0.000 N 
ATOM     27  N   UNL     1      -7.471   0.349  -2.224  0.00  0.00    +0.000 NA
ATOM     28  C   UNL     1      -7.217   0.263  -0.930  0.00  0.00    +0.000 C 
ATOM     29  H   UNL     1      -8.077   0.650   0.980  0.00  0.00    +0.000 HD
ATOM     30  H   UNL     1      -9.075   1.047  -0.361  0.00  0.00    +0.000 HD
ATOM     31  H   UNL     1      -8.412   0.741  -2.341  0.00  0.00    +0.000 HD
ENDBRANCH  25  28
ENDBRANCH  19  20
ENDBRANCH   2  19
TORSDOF 7
