REMARK  Name = 11840913
REMARK  9 active torsions:
REMARK  status: ('A' for Active; 'I' for Inactive)
REMARK    1  A    between atoms: O_3  and  C_28
REMARK    2  A    between atoms: O_3  and  C_29
REMARK    3  A    between atoms: N_7  and  C_19
REMARK    4  A    between atoms: N_8  and  C_20
REMARK    5  A    between atoms: N_9  and  C_22
REMARK    6  A    between atoms: C_10  and  C_17
REMARK    7  A    between atoms: C_11  and  C_20
REMARK    8  A    between atoms: C_12  and  C_19
REMARK    9  A    between atoms: C_27  and  C_28
REMARK                            x       y       z     vdW  Elec       q    Type
REMARK                         _______ _______ _______ _____ _____    ______ ____
ROOT
ATOM      1  N   UNL     1       2.736  -0.216  -1.142  0.00  0.00    +0.000 NA
ATOM      2  C   UNL     1       3.620   0.434  -0.173  0.00  0.00    +0.000 C 
ATOM      3  C   UNL     1       1.433  -0.348  -0.489  0.00  0.00    +0.000 C 
ATOM      4  C   UNL     1       3.031   0.148   1.204  0.00  0.00    +0.000 C 
ATOM      5  C   UNL     1       1.821  -0.733   0.929  0.00  0.00    +0.000 C 
ATOM      6  H   UNL     1       2.666   0.327  -2.001  0.00  0.00    +0.000 HD
ENDROOT
BRANCH   2  12
ATOM      7  O   UNL     1       5.078  -1.341  -0.742  0.00  0.00    +0.000 OA
ATOM      8  N   UNL     1       6.042   0.643  -0.043  0.00  0.00    +0.000 N 
ATOM      9  C   UNL     1       7.433   0.235  -0.252  0.00  0.00    +0.000 C 
ATOM     10  C   UNL     1       8.210   1.554  -0.207  0.00  0.00    +0.000 C 
ATOM     11  C   UNL     1       5.960   2.025   0.424  0.00  0.00    +0.000 C 
ATOM     12  C   UNL     1       4.970  -0.178  -0.350  0.00  0.00    +0.000 C 
ATOM     13  C   UNL     1       7.394   2.411   0.753  0.00  0.00    +0.000 C 
BRANCH   9  14
ATOM     14  C   UNL     1       7.896  -0.743   0.826  0.00  0.00    +0.000 C 
BRANCH  14  15
ATOM     15  N   UNL     1       9.282  -1.063   0.667  0.00  0.00    +0.000 NA
ATOM     16  H   UNL     1       9.877  -0.281   0.928  0.00  0.00    +0.000 HD
ATOM     17  H   UNL     1       9.495  -1.282  -0.304  0.00  0.00    +0.000 HD
ENDBRANCH  14  15
ENDBRANCH   9  14
ENDBRANCH   2  12
BRANCH   3  18
ATOM     18  C   UNL     1       0.568  -1.390  -1.176  0.00  0.00    +0.000 C 
BRANCH  18  20
ATOM     19  O   UNL     1      -1.907   0.004  -1.550  0.00  0.00    +0.000 OA
ATOM     20  N   UNL     1      -0.656  -1.607  -0.459  0.00  0.00    +0.000 N 
ATOM     21  N   UNL     1      -2.859  -1.310   0.146  0.00  0.00    +0.000 N 
ATOM     22  C   UNL     1      -1.833  -0.881  -0.700  0.00  0.00    +0.000 C 
ATOM     23  H   UNL     1      -0.667  -2.318   0.266  0.00  0.00    +0.000 HD
ATOM     24  H   UNL     1      -2.629  -2.057   0.797  0.00  0.00    +0.000 HD
BRANCH  21  25
ATOM     25  C   UNL     1      -4.188  -0.830   0.213  0.00  0.00    +0.000 A 
ATOM     26  C   UNL     1      -5.065  -1.388   1.128  0.00  0.00    +0.000 A 
ATOM     27  C   UNL     1      -4.585   0.188  -0.638  0.00  0.00    +0.000 A 
ATOM     28  C   UNL     1      -6.375  -0.915   1.194  0.00  0.00    +0.000 A 
ATOM     29  C   UNL     1      -5.895   0.662  -0.572  0.00  0.00    +0.000 A 
ATOM     30  C   UNL     1      -6.790   0.110   0.344  0.00  0.00    +0.000 A 
BRANCH  30  32
ATOM     31  O   UNL     1      -8.998   0.164   1.199  0.00  0.00    +0.000 OA
ATOM     32  C   UNL     1      -8.156   0.605   0.414  0.00  0.00    +0.000 C 
BRANCH  32  33
ATOM     33  O   UNL     1      -8.419   1.612  -0.482  0.00  0.00    +0.000 OA
ATOM     34  C   UNL     1      -9.748   2.146  -0.467  0.00  0.00    +0.000 C 
ENDBRANCH  32  33
ENDBRANCH  30  32
ENDBRANCH  21  25
ENDBRANCH  18  20
ENDBRANCH   3  18
TORSDOF 8
