REMARK  Name = 
REMARK  14 active torsions:
REMARK  status: ('A' for Active; 'I' for Inactive)
REMARK    1  A    between atoms: C_1  and  C_2
REMARK    2  A    between atoms: N_4  and  C_5
REMARK    3  A    between atoms: C_5  and  C_6
REMARK    4  A    between atoms: C_5  and  C_13
REMARK    5  A    between atoms: C_6  and  C_7
REMARK    6  A    between atoms: C_19  and  C_20
REMARK    7  A    between atoms: N_22  and  C_23
REMARK    8  A    between atoms: C_23  and  C_24
REMARK    9  A    between atoms: C_23  and  B_28
REMARK   10  A    between atoms: C_24  and  C_25
REMARK   11  A    between atoms: C_25  and  C_26
REMARK   12  A    between atoms: C_26  and  N_27
REMARK   13  A    between atoms: B_28  and  O_29
REMARK   14  A    between atoms: B_28  and  O_30
REMARK                            x       y       z     vdW  Elec       q    Type
REMARK                         _______ _______ _______ _____ _____    ______ ____
ROOT
ATOM      1  C   UNL     1      -1.685  -1.512   0.158  0.00  0.00    +0.000 C 
ATOM      2  O   UNL     1      -1.797  -2.763   0.432  0.00  0.00    +0.000 OA
ATOM      3  N   UNL     1      -0.316  -1.094   0.380  0.00  0.00    +0.000 N 
ATOM      4  C   UNL     1       0.133   0.255   0.183  0.00  0.00    +0.000 C 
ATOM      5  C   UNL     1       0.155   0.332  -1.342  0.00  0.00    +0.000 C 
ATOM      6  C   UNL     1       0.077  -1.075  -1.867  0.00  0.00    +0.000 C 
ATOM      7  C   UNL     1       0.639  -1.927  -0.573  0.00  0.00    +0.000 C 
ENDROOT
BRANCH   7   8
ATOM      8  C   UNL     1       1.944  -0.989  -0.441  0.00  0.00    +0.000 C 
ATOM      9  O   UNL     1       2.609  -1.051  -1.526  0.00  0.00    +0.000 OA
ATOM     10  N   UNL     1       2.895  -1.340   0.538  0.00  0.00    +0.000 N 
ATOM     11  H   UNL     1       2.911  -2.228   0.963  0.00  0.00    +0.000 HD
BRANCH  10  12
ATOM     12  C   UNL     1       3.925  -0.218   0.901  0.00  0.00    +0.000 C 
BRANCH  12  13
ATOM     13  C   UNL     1       5.241  -1.121   0.529  0.00  0.00    +0.000 C 
BRANCH  13  14
ATOM     14  C   UNL     1       6.287  -0.288   1.125  0.00  0.00    +0.000 C 
BRANCH  14  15
ATOM     15  C   UNL     1       7.169   0.578   0.424  0.00  0.00    +0.000 C 
BRANCH  15  16
ATOM     16  N   UNL     1       7.087   1.999   0.587  0.00  0.00    +0.000 NA
ATOM     17  H   UNL     1       6.204   2.334   0.205  0.00  0.00    +0.000 HD
ATOM     18  H   UNL     1       7.862   2.443   0.094  0.00  0.00    +0.000 HD
ENDBRANCH  15  16
ENDBRANCH  14  15
ENDBRANCH  13  14
ENDBRANCH  12  13
BRANCH  12  19
ATOM     19  B   UNL     1       3.943   0.620  -0.583  0.00  0.00    +0.000 B 
BRANCH  19  20
ATOM     20  O   UNL     1       4.904   0.485  -1.577  0.00  0.00    +0.000 OA
ATOM     21  H   UNL     1       5.281  -0.408  -1.544  0.00  0.00    +0.000 HD
ENDBRANCH  19  20
BRANCH  19  22
ATOM     22  O   UNL     1       3.172   1.851  -0.351  0.00  0.00    +0.000 OA
ATOM     23  H   UNL     1       2.562   1.717   0.391  0.00  0.00    +0.000 HD
ENDBRANCH  19  22
ENDBRANCH  12  19
ENDBRANCH  10  12
ENDBRANCH   7   8
BRANCH   1  24
ATOM     24  C   UNL     1      -2.753  -0.924   1.230  0.00  0.00    +0.000 C 
BRANCH  24  28
ATOM     25  C   UNL     1      -5.393  -2.644  -0.871  0.00  0.00    +0.000 C 
ATOM     26  C   UNL     1      -4.151  -1.972  -0.594  0.00  0.00    +0.000 C 
ATOM     27  O   UNL     1      -3.376  -1.673  -1.545  0.00  0.00    +0.000 OA
ATOM     28  N   UNL     1      -3.989  -0.846   0.254  0.00  0.00    +0.000 N 
ATOM     29  H   UNL     1      -4.601  -0.074   0.234  0.00  0.00    +0.000 HD
ENDBRANCH  24  28
BRANCH  24  30
ATOM     30  C   UNL     1      -2.308   0.639   1.036  0.00  0.00    +0.000 C 
BRANCH  30  31
ATOM     31  C   UNL     1      -3.285   1.439   0.402  0.00  0.00    +0.000 A 
ATOM     32  C   UNL     1      -4.626   1.639   0.709  0.00  0.00    +0.000 A 
ATOM     33  C   UNL     1      -5.383   2.214  -0.310  0.00  0.00    +0.000 A 
ATOM     34  C   UNL     1      -4.859   3.337  -0.940  0.00  0.00    +0.000 A 
ATOM     35  C   UNL     1      -3.495   3.533  -0.824  0.00  0.00    +0.000 A 
ATOM     36  C   UNL     1      -2.762   2.517  -0.313  0.00  0.00    +0.000 A 
ENDBRANCH  30  31
ENDBRANCH  24  30
ENDBRANCH   1  24
TORSDOF 13
