REMARK  Name = 46937176
REMARK  11 active torsions:
REMARK  status: ('A' for Active; 'I' for Inactive)
REMARK    1  A    between atoms: O_4  and  C_22
REMARK    2  A    between atoms: O_4  and  C_27
REMARK    3  A    between atoms: N_5  and  C_16
REMARK    4  A    between atoms: N_6  and  C_19
REMARK    5  A    between atoms: C_9  and  C_12
REMARK    6  A    between atoms: C_12  and  C_16
REMARK    7  A    between atoms: C_16  and  C_17
REMARK    8  A    between atoms: C_19  and  C_22
REMARK    9  A    between atoms: C_19  and  C_23
REMARK   10  A    between atoms: C_19  and  C_26
REMARK   11  A    between atoms: C_27  and  C_28
REMARK                            x       y       z     vdW  Elec       q    Type
REMARK                         _______ _______ _______ _____ _____    ______ ____
ROOT
ATOM      1  C   UNL     1      -1.624  -0.750  -0.283  0.00  0.00    +0.000 C 
ENDROOT
BRANCH   1   4
ATOM      2  O   UNL     1      -0.739   5.506  -1.411  0.00  0.00    +0.000 OA
ATOM      3  O   UNL     1       0.054   1.190   0.875  0.00  0.00    +0.000 OA
ATOM      4  N   UNL     1      -1.658   0.669  -0.561  0.00  0.00    +0.000 N 
ATOM      5  N   UNL     1      -0.951   2.911  -0.312  0.00  0.00    +0.000 N 
ATOM      6  C   UNL     1      -0.791   1.564   0.056  0.00  0.00    +0.000 C 
ATOM      7  C   UNL     1      -0.084   3.924   0.294  0.00  0.00    +0.000 C 
ATOM      8  C   UNL     1      -2.023   3.458  -1.157  0.00  0.00    +0.000 C 
ATOM      9  C   UNL     1      -1.474   4.507  -2.118  0.00  0.00    +0.000 C 
ATOM     10  C   UNL     1       0.386   4.931  -0.744  0.00  0.00    +0.000 C 
ATOM     11  H   UNL     1      -2.229   0.956  -1.343  0.00  0.00    +0.000 HD
ENDBRANCH   1   4
BRANCH   1  14
ATOM     12  O   UNL     1      -0.401  -0.977  -2.365  0.00  0.00    +0.000 OA
ATOM     13  N   UNL     1       0.113  -2.400  -0.606  0.00  0.00    +0.000 N 
ATOM     14  C   UNL     1      -0.596  -1.377  -1.218  0.00  0.00    +0.000 C 
ATOM     15  H   UNL     1      -0.130  -2.663   0.345  0.00  0.00    +0.000 HD
BRANCH  13  16
ATOM     16  C   UNL     1       1.177  -3.116  -1.270  0.00  0.00    +0.000 C 
ATOM     17  C   UNL     1       0.606  -3.810  -2.513  0.00  0.00    +0.000 C 
BRANCH  16  19
ATOM     18  N   UNL     1       2.151  -4.937   0.372  0.00  0.00    +0.000 NA
ATOM     19  C   UNL     1       1.722  -4.136  -0.350  0.00  0.00    +0.000 C 
ENDBRANCH  16  19
BRANCH  16  20
ATOM     20  C   UNL     1       2.286  -2.139  -1.696  0.00  0.00    +0.000 C 
BRANCH  20  21
ATOM     21  O   UNL     1       2.825  -1.466  -0.562  0.00  0.00    +0.000 OA
BRANCH  21  22
ATOM     22  C   UNL     1       3.871  -0.581  -0.934  0.00  0.00    +0.000 C 
BRANCH  22  23
ATOM     23  C   UNL     1       4.399   0.098   0.296  0.00  0.00    +0.000 A 
ATOM     24  C   UNL     1       3.840   1.302   0.723  0.00  0.00    +0.000 A 
ATOM     25  C   UNL     1       5.449  -0.477   1.013  0.00  0.00    +0.000 A 
ATOM     26  C   UNL     1       4.331   1.933   1.866  0.00  0.00    +0.000 A 
ATOM     27  C   UNL     1       5.940   0.154   2.156  0.00  0.00    +0.000 A 
ATOM     28  C   UNL     1       5.381   1.359   2.583  0.00  0.00    +0.000 A 
ENDBRANCH  22  23
ENDBRANCH  21  22
ENDBRANCH  20  21
ENDBRANCH  16  20
ENDBRANCH  13  16
ENDBRANCH   1  14
BRANCH   1  29
ATOM     29  C   UNL     1      -2.994  -1.405  -0.475  0.00  0.00    +0.000 C 
BRANCH  29  30
ATOM     30  C   UNL     1      -4.056  -0.827   0.458  0.00  0.00    +0.000 C 
ATOM     31  C   UNL     1      -5.464  -1.162  -0.051  0.00  0.00    +0.000 C 
ATOM     32  C   UNL     1      -3.856  -1.341   1.890  0.00  0.00    +0.000 C 
ATOM     33  C   UNL     1      -6.544  -0.641   0.894  0.00  0.00    +0.000 C 
ATOM     34  C   UNL     1      -4.939  -0.819   2.832  0.00  0.00    +0.000 C 
ATOM     35  C   UNL     1      -6.338  -1.147   2.318  0.00  0.00    +0.000 C 
ENDBRANCH  29  30
ENDBRANCH   1  29
TORSDOF 10
