REMARK  Name = 10324367
REMARK  18 active torsions:
REMARK  status: ('A' for Active; 'I' for Inactive)
REMARK    1  A    between atoms: N_7  and  C_22
REMARK    2  A    between atoms: N_8  and  C_20
REMARK    3  A    between atoms: N_9  and  C_34
REMARK    4  A    between atoms: C_12  and  C_16
REMARK    5  A    between atoms: C_12  and  C_17
REMARK    6  A    between atoms: C_14  and  C_18
REMARK    7  A    between atoms: C_19  and  C_20
REMARK    8  A    between atoms: C_20  and  C_21
REMARK    9  A    between atoms: C_21  and  C_25
REMARK   10  A    between atoms: C_21  and  C_26
REMARK   11  A    between atoms: C_21  and  C_27
REMARK   12  A    between atoms: C_22  and  C_23
REMARK   13  A    between atoms: C_22  and  C_28
REMARK   14  A    between atoms: C_23  and  C_24
REMARK   15  A    between atoms: C_28  and  C_33
REMARK   16  A    between atoms: C_34  and  C_35
REMARK   17  A    between atoms: C_34  and  C_36
REMARK   18  A    between atoms: C_34  and  C_37
REMARK                            x       y       z     vdW  Elec       q    Type
REMARK                         _______ _______ _______ _____ _____    ______ ____
ROOT
ATOM      1  O   UNL     1       0.402   1.419  -0.670  0.00  0.00    +0.000 OA
ATOM      2  N   UNL     1       0.356  -0.509   0.612  0.00  0.00    +0.000 N 
ATOM      3  C   UNL     1      -0.802  -2.541   0.394  0.00  0.00    +0.000 C 
ATOM      4  C   UNL     1       0.376  -3.448   0.157  0.00  0.00    +0.000 C 
ATOM      5  C   UNL     1       0.233  -2.697   1.453  0.00  0.00    +0.000 C 
ATOM      6  C   UNL     1      -0.794  -1.115  -0.067  0.00  0.00    +0.000 C 
ATOM      7  C   UNL     1       0.911  -1.380   1.655  0.00  0.00    +0.000 C 
ATOM      8  C   UNL     1       0.175  -4.925   0.127  0.00  0.00    +0.000 C 
ATOM      9  C   UNL     1       1.422  -2.972  -0.792  0.00  0.00    +0.000 C 
ATOM     10  C   UNL     1       0.890   0.708   0.210  0.00  0.00    +0.000 C 
ENDROOT
BRANCH   6  13
ATOM     11  O   UNL     1      -2.047   0.130   1.534  0.00  0.00    +0.000 OA
ATOM     12  N   UNL     1      -3.005  -0.332  -0.537  0.00  0.00    +0.000 N 
ATOM     13  C   UNL     1      -1.997  -0.365   0.411  0.00  0.00    +0.000 C 
ATOM     14  H   UNL     1      -2.869  -0.813  -1.422  0.00  0.00    +0.000 HD
BRANCH  12  15
ATOM     15  C   UNL     1      -4.279   0.311  -0.314  0.00  0.00    +0.000 C 
BRANCH  15  17
ATOM     16  O   UNL     1      -6.579  -0.450  -0.551  0.00  0.00    +0.000 OA
ATOM     17  C   UNL     1      -5.401  -0.715  -0.342  0.00  0.00    +0.000 C 
BRANCH  17  20
ATOM     18  O   UNL     1      -5.373  -3.011  -0.815  0.00  0.00    +0.000 OA
ATOM     19  N   UNL     1      -4.545  -2.299   1.242  0.00  0.00    +0.000 N 
ATOM     20  C   UNL     1      -5.093  -2.145  -0.004  0.00  0.00    +0.000 C 
ATOM     21  H   UNL     1      -4.300  -3.219   1.594  0.00  0.00    +0.000 HD
ATOM     22  H   UNL     1      -4.367  -1.514   1.861  0.00  0.00    +0.000 HD
ENDBRANCH  17  20
ENDBRANCH  15  17
BRANCH  15  23
ATOM     23  C   UNL     1      -4.537   1.419  -1.338  0.00  0.00    +0.000 C 
BRANCH  23  24
ATOM     24  C   UNL     1      -3.412   2.450  -1.329  0.00  0.00    +0.000 C 
ATOM     25  C   UNL     1      -3.772   3.806  -1.971  0.00  0.00    +0.000 C 
ATOM     26  C   UNL     1      -3.246   3.211   0.003  0.00  0.00    +0.000 C 
ATOM     27  C   UNL     1      -2.957   4.470  -0.841  0.00  0.00    +0.000 C 
ENDBRANCH  23  24
ENDBRANCH  15  23
ENDBRANCH  12  15
ENDBRANCH   6  13
BRANCH  10  28
ATOM     28  C   UNL     1       2.144   1.139   0.927  0.00  0.00    +0.000 C 
BRANCH  28  30
ATOM     29  O   UNL     1       4.393  -0.665   0.800  0.00  0.00    +0.000 OA
ATOM     30  N   UNL     1       3.162   1.094  -0.087  0.00  0.00    +0.000 N 
ATOM     31  N   UNL     1       5.059   0.361  -1.171  0.00  0.00    +0.000 N 
ATOM     32  C   UNL     1       4.222   0.185  -0.073  0.00  0.00    +0.000 C 
ATOM     33  H   UNL     1       3.067   1.689  -0.904  0.00  0.00    +0.000 HD
ATOM     34  H   UNL     1       4.845   1.111  -1.822  0.00  0.00    +0.000 HD
BRANCH  31  35
ATOM     35  C   UNL     1       6.232  -0.450  -1.399  0.00  0.00    +0.000 C 
ATOM     36  C   UNL     1       6.880  -0.043  -2.728  0.00  0.00    +0.000 C 
ATOM     37  C   UNL     1       7.223  -0.231  -0.251  0.00  0.00    +0.000 C 
ATOM     38  C   UNL     1       5.824  -1.927  -1.457  0.00  0.00    +0.000 C 
ENDBRANCH  31  35
ENDBRANCH  28  30
BRANCH  28  39
ATOM     39  C   UNL     1       2.009   2.511   1.630  0.00  0.00    +0.000 C 
ATOM     40  C   UNL     1       3.332   2.872   2.335  0.00  0.00    +0.000 C 
ATOM     41  C   UNL     1       1.723   3.597   0.572  0.00  0.00    +0.000 C 
ATOM     42  C   UNL     1       0.873   2.534   2.671  0.00  0.00    +0.000 C 
ENDBRANCH  28  39
ENDBRANCH  10  28
TORSDOF 10
