REMARK  Name = 168871
REMARK  10 active torsions:
REMARK  status: ('A' for Active; 'I' for Inactive)
REMARK    1  A    between atoms: O_2  and  C_12
REMARK    2  A    between atoms: N_8  and  C_13
REMARK    3  A    between atoms: N_9  and  C_36
REMARK    4  A    between atoms: C_13  and  C_24
REMARK    5  A    between atoms: C_14  and  C_25
REMARK    6  A    between atoms: C_22  and  C_29
REMARK    7  A    between atoms: C_24  and  C_32
REMARK    8  A    between atoms: C_24  and  C_33
REMARK    9  A    between atoms: C_25  and  C_34
REMARK   10  A    between atoms: C_25  and  C_35
REMARK                            x       y       z     vdW  Elec       q    Type
REMARK                         _______ _______ _______ _____ _____    ______ ____
ROOT
ATOM      1  O   UNL     1       0.132  -0.790  -2.170  0.00  0.00    +0.000 OA
ATOM      2  N   UNL     1      -0.662   0.405  -0.337  0.00  0.00    +0.000 N 
ATOM      3  C   UNL     1       0.236  -0.407  -1.008  0.00  0.00    +0.000 C 
ATOM      4  H   UNL     1      -0.455   0.706   0.610  0.00  0.00    +0.000 HD
ENDROOT
BRANCH   3   9
ATOM      5  N   UNL     1       3.126  -2.539   0.225  0.00  0.00    +0.000 NA
ATOM      6  N   UNL     1       8.391   0.358   0.621  0.00  0.00    +0.000 N 
ATOM      7  C   UNL     1       3.757  -0.117   0.492  0.00  0.00    +0.000 C 
ATOM      8  C   UNL     1       4.232  -1.567   0.037  0.00  0.00    +0.000 C 
ATOM      9  C   UNL     1       1.416  -0.773  -0.156  0.00  0.00    +0.000 C 
ATOM     10  C   UNL     1       2.498   0.294  -0.283  0.00  0.00    +0.000 C 
ATOM     11  C   UNL     1       1.943  -2.150  -0.562  0.00  0.00    +0.000 C 
ATOM     12  C   UNL     1       5.556  -2.016   0.766  0.00  0.00    +0.000 C 
ATOM     13  C   UNL     1       4.888   0.891   0.377  0.00  0.00    +0.000 A 
ATOM     14  C   UNL     1       6.191   0.395   0.507  0.00  0.00    +0.000 A 
ATOM     15  C   UNL     1       6.588  -0.944   0.691  0.00  0.00    +0.000 A 
ATOM     16  C   UNL     1       3.505  -3.909  -0.133  0.00  0.00    +0.000 C 
ATOM     17  C   UNL     1       7.312   1.202   0.466  0.00  0.00    +0.000 A 
ATOM     18  C   UNL     1       4.771   2.280   0.231  0.00  0.00    +0.000 A 
ATOM     19  C   UNL     1       7.962  -0.946   0.761  0.00  0.00    +0.000 A 
ATOM     20  C   UNL     1       7.208   2.582   0.297  0.00  0.00    +0.000 A 
ATOM     21  C   UNL     1       5.909   3.102   0.185  0.00  0.00    +0.000 A 
ATOM     22  H   UNL     1       9.358   0.651   0.635  0.00  0.00    +0.000 HD
ENDBRANCH   3   9
BRANCH   2  30
ATOM     23  O   UNL     1      -2.649   1.606   0.041  0.00  0.00    +0.000 OA
ATOM     24  O   UNL     1      -2.468  -1.031  -2.281  0.00  0.00    +0.000 OA
ATOM     25  O   UNL     1      -7.050  -1.599   0.476  0.00  0.00    +0.000 OA
ATOM     26  N   UNL     1      -3.753  -0.323  -0.453  0.00  0.00    +0.000 N 
ATOM     27  N   UNL     1      -6.052   0.436   0.868  0.00  0.00    +0.000 N 
ATOM     28  C   UNL     1      -4.987   1.400   0.635  0.00  0.00    +0.000 C 
ATOM     29  C   UNL     1      -3.640   0.705   0.546  0.00  0.00    +0.000 C 
ATOM     30  C   UNL     1      -1.864   0.913  -0.940  0.00  0.00    +0.000 C 
ATOM     31  C   UNL     1      -4.845  -1.291  -0.448  0.00  0.00    +0.000 C 
ATOM     32  C   UNL     1      -5.194   2.445   1.730  0.00  0.00    +0.000 C 
ATOM     33  C   UNL     1      -7.094   0.994   1.715  0.00  0.00    +0.000 C 
ATOM     34  C   UNL     1      -2.711  -0.267  -1.360  0.00  0.00    +0.000 C 
ATOM     35  C   UNL     1      -6.716   2.462   1.869  0.00  0.00    +0.000 C 
ATOM     36  C   UNL     1      -6.088  -0.839   0.339  0.00  0.00    +0.000 C 
BRANCH  30  37
ATOM     37  C   UNL     1      -1.561   1.846  -2.097  0.00  0.00    +0.000 C 
ATOM     38  C   UNL     1      -2.852   2.378  -2.722  0.00  0.00    +0.000 C 
ATOM     39  C   UNL     1      -0.674   3.008  -1.644  0.00  0.00    +0.000 C 
ENDBRANCH  30  37
BRANCH  31  40
ATOM     40  C   UNL     1      -4.364  -2.639   0.087  0.00  0.00    +0.000 C 
ATOM     41  C   UNL     1      -3.151  -3.126  -0.702  0.00  0.00    +0.000 C 
ATOM     42  C   UNL     1      -4.033  -2.538   1.574  0.00  0.00    +0.000 C 
ENDBRANCH  31  40
BRANCH  29  43
ATOM     43  O   UNL     1      -3.212   0.107   1.762  0.00  0.00    +0.000 OA
ATOM     44  H   UNL     1      -3.348   0.738   2.485  0.00  0.00    +0.000 HD
ENDBRANCH  29  43
ENDBRANCH   2  30
TORSDOF 5
