REMARK  Name = 16656685
REMARK  6 active torsions:
REMARK  status: ('A' for Active; 'I' for Inactive)
REMARK    1  A    between atoms: O_1  and  C_13
REMARK    2  A    between atoms: N_6  and  C_8
REMARK    3  A    between atoms: N_7  and  CA_15
REMARK    4  A    between atoms: C_10  and  C_13
REMARK    5  A    between atoms: C_12  and  CA_15
REMARK    6  A    between atoms: C_14  and  C_16
REMARK                            x       y       z     vdW  Elec       q    Type
REMARK                         _______ _______ _______ _____ _____    ______ ____
ROOT
ATOM      1  O   GLY A   1      -4.684  -0.784   0.639  0.00  0.00    +0.000 OA
ATOM      2  N   UNK A   2      -2.447  -0.321   0.270  0.00  0.00    +0.000 N 
ATOM      3  C   UNK A   2      -0.288   0.578  -0.092  0.00  0.00    +0.000 C 
ATOM      4  C   UNK A   2      -1.025   1.445   0.931  0.00  0.00    +0.000 C 
ATOM      5  C   UNK A   2      -2.486   1.061   0.730  0.00  0.00    +0.000 C 
ATOM      6  C   UNK A   2      -1.088  -0.720  -0.091  0.00  0.00    +0.000 C 
ATOM      7  C   GLY A   1      -3.551  -1.157   0.329  0.00  0.00    +0.000 C 
ENDROOT
BRANCH   3   9
ATOM      8  O   UNK A   2       1.862   0.124  -1.940  0.00  0.00    +0.000 OA
ATOM      9  N   UNK A   2       1.096   0.388   0.234  0.00  0.00    +0.000 N 
ATOM     10  C   UNK A   2       2.075   0.173  -0.731  0.00  0.00    +0.000 C 
ATOM     11  H   UNK A   2       1.326   0.303   1.218  0.00  0.00    +0.000 HD
BRANCH  10  12
ATOM     12  C   UNK A   2       3.458  -0.032  -0.229  0.00  0.00    +0.000 A 
ATOM     13  C   UNK A   2       4.338  -0.776  -0.987  0.00  0.00    +0.000 A 
ATOM     14  C   UNK A   2       3.818   0.528   0.979  0.00  0.00    +0.000 A 
ATOM     15  C   UNK A   2       5.637  -0.969  -0.516  0.00  0.00    +0.000 A 
ATOM     16  C   UNK A   2       5.117   0.336   1.450  0.00  0.00    +0.000 A 
ATOM     17  C   UNK A   2       6.027  -0.412   0.702  0.00  0.00    +0.000 A 
ENDBRANCH  10  12
ENDBRANCH   3   9
BRANCH   5  19
ATOM     18  O   UNK A   2      -3.079   1.611  -1.548  0.00  0.00    +0.000 OA
ATOM     19  C   UNK A   2      -3.132   1.869  -0.355  0.00  0.00    +0.000 C 
BRANCH  19  20
ATOM     20  O   UNK A   2      -3.786   2.935   0.167  0.00  0.00    +0.000 OA
ATOM     21  H   UNK A   2      -4.215   3.478  -0.528  0.00  0.00    +0.000 HD
ENDBRANCH  19  20
ENDBRANCH   5  19
BRANCH   7  22
ATOM     22  CA  GLY A   1      -3.295  -2.599  -0.028  0.00  0.00    +0.000 C 
BRANCH  22  23
ATOM     23  N   GLY A   1      -4.568  -3.277   0.087  0.00  0.00    +0.000 NA
ATOM     24  H1  GLY A   1      -5.219  -2.915  -0.608  0.00  0.00    +0.000 HD
ATOM     25  H2  GLY A   1      -4.447  -4.266  -0.131  0.00  0.00    +0.000 HD
ENDBRANCH  22  23
ENDBRANCH   7  22
TORSDOF 6
