REMARK  Name = 
REMARK  30 active torsions:
REMARK  status: ('A' for Active; 'I' for Inactive)
REMARK    1  A    between atoms: C_1  and  C_2
REMARK    2  A    between atoms: C_2  and  C_3
REMARK    3  A    between atoms: C_3  and  C_4
REMARK    4  A    between atoms: C_4  and  C_5
REMARK    5  A    between atoms: C_5  and  C_6
REMARK    6  A    between atoms: C_6  and  C_7
REMARK    7  A    between atoms: C_7  and  C_8
REMARK    8  A    between atoms: C_8  and  C_9
REMARK    9  A    between atoms: C_9  and  C_10
REMARK   10  A    between atoms: C_10  and  C_11
REMARK   11  A    between atoms: C_11  and  C_12
REMARK   12  A    between atoms: C_12  and  C_13
REMARK   13  A    between atoms: C_13  and  C_14
REMARK   14  A    between atoms: C_14  and  C_15
REMARK   15  A    between atoms: C_15  and  C_16
REMARK   16  A    between atoms: N_18  and  C_19
REMARK   17  A    between atoms: C_19  and  C_20
REMARK   18  A    between atoms: N_22  and  CA_23
REMARK   19  A    between atoms: CA_23  and  CB_24
REMARK   20  A    between atoms: CA_23  and  C_29
REMARK   21  A    between atoms: CB_24  and  CG_25
REMARK   22  A    between atoms: CG_25  and  CD_26
REMARK   23  A    between atoms: CA_35  and  C_36
REMARK   24  A    between atoms: N_38  and  CA_39
REMARK   25  A    between atoms: CA_39  and  CB_40
REMARK   26  A    between atoms: CA_39  and  C_47
REMARK   27  A    between atoms: CB_40  and  CG_41
REMARK   28  A    between atoms: CG_41  and  CD_42
REMARK   29  A    between atoms: CD_42  and  NE_43
REMARK   30  A    between atoms: C_47  and  OXT_49
REMARK                            x       y       z     vdW  Elec       q    Type
REMARK                         _______ _______ _______ _____ _____    ______ ____
ROOT
ATOM      1  CA  GLN A   1      -1.574   0.894  -2.686  0.00  0.00    +0.000 C 
ENDROOT
BRANCH   1   2
ATOM      2  C   GLN A   1      -2.157  -0.583  -2.277  0.00  0.00    +0.000 C 
ATOM      3  O   GLN A   1      -1.388  -1.251  -1.529  0.00  0.00    +0.000 OA
ATOM      4  N   PRO A   2      -3.421  -0.308  -1.646  0.00  0.00    +0.000 N 
ATOM      5  CD  PRO A   2      -4.666   0.111  -2.182  0.00  0.00    +0.000 C 
ATOM      6  CG  PRO A   2      -4.940   1.492  -1.690  0.00  0.00    +0.000 C 
ATOM      7  CB  PRO A   2      -3.748   1.888  -0.902  0.00  0.00    +0.000 C 
ATOM      8  CA  PRO A   2      -3.323   0.423  -0.228  0.00  0.00    +0.000 C 
BRANCH   8   9
ATOM      9  C   PRO A   2      -4.875   0.067   0.153  0.00  0.00    +0.000 C 
ATOM     10  O   PRO A   2      -5.121  -1.166   0.090  0.00  0.00    +0.000 OA
ATOM     11  N   ARG A   3      -5.189   0.611   1.448  0.00  0.00    +0.000 N 
ATOM     12  H   ARG A   3      -4.558   0.889   2.150  0.00  0.00    +0.000 HD
BRANCH  11  13
ATOM     13  CA  ARG A   3      -6.790   0.667   1.497  0.00  0.00    +0.000 C 
BRANCH  13  14
ATOM     14  C   ARG A   3      -6.892   0.747   3.128  0.00  0.00    +0.000 C 
ATOM     15  O   ARG A   3      -5.859   0.809   3.779  0.00  0.00    +0.000 OA
BRANCH  14  16
ATOM     16  OXT ARG A   3      -7.841   1.748   3.392  0.00  0.00    +0.000 OA
ATOM     17  HXT ARG A   3      -8.655   1.757   2.927  0.00  0.00    +0.000 HD
ENDBRANCH  14  16
ENDBRANCH  13  14
BRANCH  13  18
ATOM     18  CB  ARG A   3      -6.885  -0.998   1.479  0.00  0.00    +0.000 C 
BRANCH  18  19
ATOM     19  CG  ARG A   3      -7.916  -1.387   2.449  0.00  0.00    +0.000 C 
BRANCH  19  20
ATOM     20  CD  ARG A   3      -9.269  -0.760   2.268  0.00  0.00    +0.000 C 
BRANCH  20  21
ATOM     21  NE  ARG A   3      -9.951  -1.068   3.525  0.00  0.00    +0.000 N 
ATOM     22  CZ  ARG A   3     -10.663  -0.071   4.241  0.00  0.00    +0.000 C 
ATOM     23  NH1 ARG A   3     -11.415   0.690   3.506  0.00  0.00    +0.000 NA
ATOM     24  NH2 ARG A   3     -10.547   0.156   5.632  0.00  0.00    +0.000 N 
ATOM     25  HE  ARG A   3      -9.915  -1.985   3.882  0.00  0.00    +0.000 HD
ATOM     26  HH1 ARG A   3     -11.488   0.523   2.538  0.00  0.00    +0.000 HD
ATOM     27 HH21 ARG A   3      -9.974  -0.427   6.180  0.00  0.00    +0.000 HD
ATOM     28 HH22 ARG A   3     -11.040   0.898   6.052  0.00  0.00    +0.000 HD
ENDBRANCH  20  21
ENDBRANCH  19  20
ENDBRANCH  18  19
ENDBRANCH  13  18
ENDBRANCH  11  13
ENDBRANCH   8   9
ENDBRANCH   1   2
BRANCH   1  31
ATOM     29  C   UNK A   0       0.903   1.297  -2.357  0.00  0.00    +0.000 C 
ATOM     30  O   UNK A   0       0.848   2.380  -3.022  0.00  0.00    +0.000 OA
ATOM     31  N   GLN A   1      -0.071   0.370  -2.863  0.00  0.00    +0.000 N 
ATOM     32  H   GLN A   1       0.161  -0.494  -3.275  0.00  0.00    +0.000 HD
BRANCH  29  33
ATOM     33  C   UNK A   0       1.358   1.412  -0.970  0.00  0.00    +0.000 C 
BRANCH  33  36
ATOM     34  C   UNK A   0       2.469  -0.800  -0.445  0.00  0.00    +0.000 C 
ATOM     35  O   UNK A   0       1.696  -1.413  -1.205  0.00  0.00    +0.000 OA
ATOM     36  N   UNK A   0       2.409   0.605  -0.535  0.00  0.00    +0.000 N 
ATOM     37  H   UNK A   0       3.222   1.083  -0.252  0.00  0.00    +0.000 HD
BRANCH  34  38
ATOM     38  C   UNK A   0       3.728  -1.421   0.073  0.00  0.00    +0.000 C 
BRANCH  38  39
ATOM     39  C   UNK A   0       4.399  -0.523   1.066  0.00  0.00    +0.000 C 
BRANCH  39  40
ATOM     40  C   UNK A   0       4.809   0.812   0.496  0.00  0.00    +0.000 C 
BRANCH  40  41
ATOM     41  C   UNK A   0       6.177   0.768  -0.159  0.00  0.00    +0.000 C 
BRANCH  41  42
ATOM     42  C   UNK A   0       6.945  -0.298   0.603  0.00  0.00    +0.000 C 
BRANCH  42  43
ATOM     43  C   UNK A   0       7.301  -1.399  -0.390  0.00  0.00    +0.000 C 
BRANCH  43  44
ATOM     44  C   UNK A   0       7.832  -0.817  -1.682  0.00  0.00    +0.000 C 
BRANCH  44  45
ATOM     45  C   UNK A   0       9.215  -0.242  -1.527  0.00  0.00    +0.000 C 
BRANCH  45  46
ATOM     46  C   UNK A   0       9.568  -0.080  -0.064  0.00  0.00    +0.000 C 
BRANCH  46  47
ATOM     47  C   UNK A   0      11.014  -0.397   0.174  0.00  0.00    +0.000 C 
BRANCH  47  48
ATOM     48  C   UNK A   0      11.372   0.086   1.568  0.00  0.00    +0.000 C 
BRANCH  48  49
ATOM     49  C   UNK A   0      12.819  -0.288   1.816  0.00  0.00    +0.000 C 
BRANCH  49  50
ATOM     50  C   UNK A   0      13.005  -0.708   3.271  0.00  0.00    +0.000 C 
BRANCH  50  52
ATOM     51  C   UNK A   0      15.316   0.229   3.086  0.00  0.00    +0.000 C 
ATOM     52  C   UNK A   0      14.046   0.208   3.855  0.00  0.00    +0.000 C 
ENDBRANCH  50  52
ENDBRANCH  49  50
ENDBRANCH  48  49
ENDBRANCH  47  48
ENDBRANCH  46  47
ENDBRANCH  45  46
ENDBRANCH  44  45
ENDBRANCH  43  44
ENDBRANCH  42  43
ENDBRANCH  41  42
ENDBRANCH  40  41
ENDBRANCH  39  40
ENDBRANCH  38  39
ENDBRANCH  34  38
ENDBRANCH  33  36
ENDBRANCH  29  33
ENDBRANCH   1  31
BRANCH   1  53
ATOM     53  CB  GLN A   1      -1.914   0.674  -4.301  0.00  0.00    +0.000 C 
BRANCH  53  54
ATOM     54  CG  GLN A   1      -1.471  -0.711  -4.626  0.00  0.00    +0.000 C 
BRANCH  54  55
ATOM     55  CD  GLN A   1      -2.668  -1.464  -5.118  0.00  0.00    +0.000 C 
ATOM     56  NE2 GLN A   1      -3.917  -0.802  -5.361  0.00  0.00    +0.000 N 
ATOM     57  OE1 GLN A   1      -2.759  -2.683  -4.828  0.00  0.00    +0.000 OA
ATOM     58 HE21 GLN A   1      -3.930   0.154  -5.594  0.00  0.00    +0.000 HD
ATOM     59 HE22 GLN A   1      -4.761  -1.305  -5.294  0.00  0.00    +0.000 HD
ENDBRANCH  54  55
ENDBRANCH  53  54
ENDBRANCH   1  53
TORSDOF 29
