REMARK  Name = 10126114
REMARK  13 active torsions:
REMARK  status: ('A' for Active; 'I' for Inactive)
REMARK    1  A    between atoms: OE1_3  and  CD_23
REMARK    2  A    between atoms: O_5  and  C_25
REMARK    3  A    between atoms: N_7  and  CA_17
REMARK    4  A    between atoms: N_8  and  CA_19
REMARK    5  A    between atoms: N_9  and  CA_24
REMARK    6  A    between atoms: CG_10  and  CB_15
REMARK    7  A    between atoms: CB_15  and  CA_17
REMARK    8  A    between atoms: CA_17  and  C_18
REMARK    9  A    between atoms: CA_19  and  CB_20
REMARK   10  A    between atoms: CA_19  and  C_21
REMARK   11  A    between atoms: CB_20  and  CG_22
REMARK   12  A    between atoms: CG_22  and  CD_23
REMARK   13  A    between atoms: CA_24  and  C_25
REMARK                            x       y       z     vdW  Elec       q    Type
REMARK                         _______ _______ _______ _____ _____    ______ ____
ROOT
ATOM      1  CA  GLU A   2      -1.749  -0.322   0.478  0.00  0.00    +0.000 C 
ENDROOT
BRANCH   1   3
ATOM      2  O   PHE A   1      -0.552   0.706  -1.943  0.00  0.00    +0.000 OA
ATOM      3  N   GLU A   2      -0.986   0.893   0.330  0.00  0.00    +0.000 N 
ATOM      4  C   PHE A   1      -0.444   1.313  -0.879  0.00  0.00    +0.000 C 
ATOM      5  H   GLU A   2      -0.788   1.426   1.171  0.00  0.00    +0.000 HD
BRANCH   4   6
ATOM      6  CA  PHE A   1       0.320   2.627  -0.742  0.00  0.00    +0.000 C 
BRANCH   6   7
ATOM      7  N   PHE A   1      -0.346   3.636  -1.563  0.00  0.00    +0.000 NA
ATOM      8  H1  PHE A   1       0.147   4.524  -1.482  0.00  0.00    +0.000 HD
ATOM      9  H2  PHE A   1      -1.288   3.800  -1.208  0.00  0.00    +0.000 HD
ENDBRANCH   6   7
BRANCH   6  10
ATOM     10  CB  PHE A   1       1.800   2.468  -1.119  0.00  0.00    +0.000 C 
BRANCH  10  11
ATOM     11  CG  PHE A   1       2.557   1.425  -0.300  0.00  0.00    +0.000 C 
ATOM     12  CD1 PHE A   1       2.519   1.777   1.194  0.00  0.00    +0.000 C 
ATOM     13  CD2 PHE A   1       4.004   1.293  -0.794  0.00  0.00    +0.000 C 
ATOM     14  CE1 PHE A   1       3.315   0.776   2.029  0.00  0.00    +0.000 C 
ATOM     15  CE2 PHE A   1       4.797   0.293   0.045  0.00  0.00    +0.000 C 
ATOM     16  CZ  PHE A   1       4.750   0.642   1.530  0.00  0.00    +0.000 C 
ENDBRANCH  10  11
ENDBRANCH   6  10
ENDBRANCH   4   6
ENDBRANCH   1   3
BRANCH   1  19
ATOM     17  O   GLU A   2       0.288  -1.218   1.426  0.00  0.00    +0.000 OA
ATOM     18  N   GLY A   3      -1.064  -2.621   0.161  0.00  0.00    +0.000 N 
ATOM     19  C   GLU A   2      -0.728  -1.416   0.761  0.00  0.00    +0.000 C 
ATOM     20  H   GLY A   3      -1.920  -2.685  -0.381  0.00  0.00    +0.000 HD
BRANCH  18  21
ATOM     21  CA  GLY A   3      -0.241  -3.805   0.251  0.00  0.00    +0.000 C 
BRANCH  21  23
ATOM     22  OXT GLY A   3       1.557  -4.835  -0.975  0.00  0.00    +0.000 OA
ATOM     23  C   GLY A   3       0.770  -3.903  -0.863  0.00  0.00    +0.000 C 
BRANCH  23  24
ATOM     24  O   GLY A   3       0.727  -2.862  -1.726  0.00  0.00    +0.000 OA
ATOM     25  H   GLY A   3       1.395  -2.948  -2.439  0.00  0.00    +0.000 HD
ENDBRANCH  23  24
ENDBRANCH  21  23
ENDBRANCH  18  21
ENDBRANCH   1  19
BRANCH   1  26
ATOM     26  CB  GLU A   2      -2.767  -0.186   1.617  0.00  0.00    +0.000 C 
BRANCH  26  27
ATOM     27  CG  GLU A   2      -3.782   0.944   1.425  0.00  0.00    +0.000 C 
BRANCH  27  29
ATOM     28  OE2 GLU A   2      -5.001  -0.324  -0.261  0.00  0.00    +0.000 OA
ATOM     29  CD  GLU A   2      -4.665   0.754   0.211  0.00  0.00    +0.000 C 
BRANCH  29  30
ATOM     30  OE1 GLU A   2      -5.080   1.945  -0.293  0.00  0.00    +0.000 OA
ATOM     31  HE1 GLU A   2      -5.664   1.827  -1.073  0.00  0.00    +0.000 HD
ENDBRANCH  29  30
ENDBRANCH  27  29
ENDBRANCH  26  27
ENDBRANCH   1  26
TORSDOF 13
