REMARK  Name = 
REMARK  12 active torsions:
REMARK  status: ('A' for Active; 'I' for Inactive)
REMARK    1  A    between atoms: CG1_1  and  CB_2
REMARK    2  A    between atoms: CB_2  and  CG2_3
REMARK    3  A    between atoms: CB_2  and  CA_4
REMARK    4  A    between atoms: CA_4  and  N_5
REMARK    5  A    between atoms: CA_4  and  C_6
REMARK    6  A    between atoms: N_8  and  CA_9
REMARK    7  A    between atoms: CA_9  and  CB_10
REMARK    8  A    between atoms: CA_9  and  C_11
REMARK    9  A    between atoms: CA_17  and  C_18
REMARK   10  A    between atoms: N_20  and  CA_21
REMARK   11  A    between atoms: CA_21  and  C_22
REMARK   12  A    between atoms: C_22  and  OXT_24
REMARK                            x       y       z     vdW  Elec       q    Type
REMARK                         _______ _______ _______ _____ _____    ______ ____
ROOT
ATOM      1  C   ALA A   2      -0.307  -0.013   0.336  0.00  0.00    +0.000 C 
ATOM      2  O   ALA A   2      -0.551   1.127  -0.208  0.00  0.00    +0.000 OA
ATOM      3  N   PRO A   3       0.962  -0.295   0.483  0.00  0.00    +0.000 N 
ATOM      4  CD  PRO A   3       1.631  -0.141  -0.812  0.00  0.00    +0.000 C 
ATOM      5  CG  PRO A   3       2.056  -1.470  -1.253  0.00  0.00    +0.000 C 
ATOM      6  CB  PRO A   3       1.889  -2.372  -0.100  0.00  0.00    +0.000 C 
ATOM      7  CA  PRO A   3       1.932  -1.307   1.176  0.00  0.00    +0.000 C 
ENDROOT
BRANCH   7   8
ATOM      8  C   PRO A   3       3.292  -0.540   0.733  0.00  0.00    +0.000 C 
ATOM      9  O   PRO A   3       4.206  -1.224   0.309  0.00  0.00    +0.000 OA
ATOM     10  N   GLY A   4       3.374   0.828   0.694  0.00  0.00    +0.000 N 
ATOM     11  H   GLY A   4       2.993   1.347   1.439  0.00  0.00    +0.000 HD
BRANCH  10  12
ATOM     12  CA  GLY A   4       4.009   1.552  -0.419  0.00  0.00    +0.000 C 
BRANCH  12  13
ATOM     13  C   GLY A   4       5.452   1.127  -0.371  0.00  0.00    +0.000 C 
ATOM     14  O   GLY A   4       6.068   1.905   0.421  0.00  0.00    +0.000 OA
BRANCH  13  15
ATOM     15  OXT GLY A   4       6.069   0.614  -1.468  0.00  0.00    +0.000 OA
ATOM     16  HXT GLY A   4       5.601   0.041  -2.044  0.00  0.00    +0.000 HD
ENDBRANCH  13  15
ENDBRANCH  12  13
ENDBRANCH  10  12
ENDBRANCH   7   8
BRANCH   1  17
ATOM     17  CA  ALA A   2      -1.651  -0.686   0.907  0.00  0.00    +0.000 C 
ATOM     18  CB  ALA A   2      -1.568  -2.013  -0.075  0.00  0.00    +0.000 C 
BRANCH  17  21
ATOM     19  C   VAL A   1      -3.658  -0.515  -0.688  0.00  0.00    +0.000 C 
ATOM     20  O   VAL A   1      -4.290  -1.286  -0.004  0.00  0.00    +0.000 OA
ATOM     21  N   ALA A   2      -2.571   0.106  -0.113  0.00  0.00    +0.000 N 
ATOM     22  H   ALA A   2      -2.366   1.044  -0.334  0.00  0.00    +0.000 HD
BRANCH  19  23
ATOM     23  CA  VAL A   1      -4.460   0.659  -1.471  0.00  0.00    +0.000 C 
BRANCH  23  25
ATOM     24  CG1 VAL A   1      -5.084   0.785   0.439  0.00  0.00    +0.000 C 
ATOM     25  CB  VAL A   1      -5.345   1.073  -0.138  0.00  0.00    +0.000 C 
ATOM     26  CG2 VAL A   1      -5.886   2.429  -0.456  0.00  0.00    +0.000 C 
ENDBRANCH  23  25
BRANCH  23  27
ATOM     27  N   VAL A   1      -5.569  -0.346  -1.991  0.00  0.00    +0.000 NA
ATOM     28  H1  VAL A   1      -5.882  -0.935  -1.219  0.00  0.00    +0.000 HD
ATOM     29  H2  VAL A   1      -5.178  -0.931  -2.729  0.00  0.00    +0.000 HD
ENDBRANCH  23  27
ENDBRANCH  19  23
ENDBRANCH  17  21
ENDBRANCH   1  17
TORSDOF 9
