REMARK  Name = 6857549
REMARK  4 active torsions:
REMARK  status: ('A' for Active; 'I' for Inactive)
REMARK    1  A    between atoms: OG_1  and  CB_6
REMARK    2  A    between atoms: N_4  and  CA_5
REMARK    3  A    between atoms: CA_5  and  CB_6
REMARK    4  A    between atoms: CA_5  and  C_7
REMARK                            x       y       z     vdW  Elec       q    Type
REMARK                         _______ _______ _______ _____ _____    ______ ____
ROOT
ATOM      1  CA  SER A   1      -0.285   0.537  -0.402  0.00  0.00    +0.000 C 
ENDROOT
BRANCH   1   2
ATOM      2  N   SER A   1      -0.215   2.005  -0.114  0.00  0.00    +0.000 N 
ATOM      3  H1  SER A   1       0.615   2.428  -0.551  0.00  0.00    +0.000 HD
ATOM      4  H2  SER A   1      -0.159   2.189   0.896  0.00  0.00    +0.000 HD
ATOM      5  H3  SER A   1      -1.039   2.504  -0.477  0.00  0.00    +0.000 HD
ENDBRANCH   1   2
BRANCH   1   8
ATOM      6  O   SER A   1       1.232  -0.240   1.266  0.00  0.00    +0.000 OA
ATOM      7  OXT SER A   1       1.632  -0.745  -0.922  0.00  0.00    +0.000 OA
ATOM      8  C   SER A   1       0.979  -0.228   0.030  0.00  0.00    +0.000 C 
ENDBRANCH   1   8
BRANCH   1   9
ATOM      9  CB  SER A   1      -1.599   0.034   0.187  0.00  0.00    +0.000 C 
BRANCH   9  10
ATOM     10  OG  SER A   1      -1.743  -1.362  -0.045  0.00  0.00    +0.000 OA
ATOM     11  H   SER A   1      -2.591  -1.631   0.348  0.00  0.00    +0.000 HD
ENDBRANCH   9  10
ENDBRANCH   1   9
TORSDOF 4
