REMARK  Name = 17754068
REMARK  7 active torsions:
REMARK  status: ('A' for Active; 'I' for Inactive)
REMARK    1  A    between atoms: N_2  and  C_9
REMARK    2  A    between atoms: N_3  and  C_8
REMARK    3  A    between atoms: C_5  and  C_6
REMARK    4  A    between atoms: C_5  and  C_7
REMARK    5  A    between atoms: C_6  and  C_8
REMARK    6  A    between atoms: C_7  and  C_9
REMARK    7  A    between atoms: C_8  and  C_10
REMARK                            x       y       z     vdW  Elec       q    Type
REMARK                         _______ _______ _______ _____ _____    ______ ____
ROOT
ATOM      1  C   UNL     1       1.540   0.674   0.330  0.00  0.00    +0.000 C 
ENDROOT
BRANCH   1   4
ATOM      2  O   UNL     1       1.917  -1.226  -1.132  0.00  0.00    +0.000 OA
ATOM      3  N   UNL     1       3.059  -1.138   0.860  0.00  0.00    +0.000 N 
ATOM      4  C   UNL     1       2.165  -0.655  -0.072  0.00  0.00    +0.000 C 
ATOM      5  H   UNL     1       3.264  -0.647   1.724  0.00  0.00    +0.000 HD
ATOM      6  H   UNL     1       3.549  -2.013   0.706  0.00  0.00    +0.000 HD
ENDBRANCH   1   4
BRANCH   1   7
ATOM      7  N   UNL     1       2.475   1.704  -0.126  0.00  0.00    +0.000 NA
ATOM      8  H   UNL     1       3.358   1.610   0.373  0.00  0.00    +0.000 HD
ATOM      9  H   UNL     1       2.113   2.626   0.115  0.00  0.00    +0.000 HD
ENDBRANCH   1   7
BRANCH   1  10
ATOM     10  C   UNL     1       0.161   0.890  -0.311  0.00  0.00    +0.000 C 
BRANCH  10  11
ATOM     11  C   UNL     1      -0.943   0.126   0.429  0.00  0.00    +0.000 C 
BRANCH  11  12
ATOM     12  C   UNL     1      -2.304   0.335  -0.236  0.00  0.00    +0.000 C 
BRANCH  12  13
ATOM     13  C   UNL     1      -3.390  -0.454   0.481  0.00  0.00    +0.000 C 
BRANCH  13  14
ATOM     14  N   UNL     1      -4.679  -0.257  -0.223  0.00  0.00    +0.000 N 
ATOM     15  H   UNL     1      -4.634  -0.584  -1.197  0.00  0.00    +0.000 HD
ATOM     16  H   UNL     1      -4.955   0.734  -0.240  0.00  0.00    +0.000 HD
ATOM     17  H   UNL     1      -5.437  -0.778   0.239  0.00  0.00    +0.000 HD
ENDBRANCH  13  14
ENDBRANCH  12  13
ENDBRANCH  11  12
ENDBRANCH  10  11
ENDBRANCH   1  10
TORSDOF 7
