REMARK  Name = 46936985
REMARK  10 active torsions:
REMARK  status: ('A' for Active; 'I' for Inactive)
REMARK    1  A    between atoms: O_1  and  C_12
REMARK    2  A    between atoms: N_3  and  CA_10
REMARK    3  A    between atoms: N_4  and  C_11
REMARK    4  A    between atoms: C_5  and  C_6
REMARK    5  A    between atoms: C_5  and  C_7
REMARK    6  A    between atoms: C_6  and  C_8
REMARK    7  A    between atoms: C_7  and  C_9
REMARK    8  A    between atoms: C_8  and  CA_10
REMARK    9  A    between atoms: C_9  and  C_11
REMARK   10  A    between atoms: CA_10  and  C_12
REMARK                            x       y       z     vdW  Elec       q    Type
REMARK                         _______ _______ _______ _____ _____    ______ ____
ROOT
ATOM      1  C   UNL     1       1.391  -0.986   0.139  0.00  0.00    +0.000 C 
ENDROOT
BRANCH   1   2
ATOM      2  C   UNL     1       0.206  -0.204  -0.441  0.00  0.00    +0.000 C 
BRANCH   2   3
ATOM      3  C   UNL     1      -1.105  -0.602   0.241  0.00  0.00    +0.000 C 
BRANCH   3   4
ATOM      4  C   UNL     1      -2.323   0.167  -0.281  0.00  0.00    +0.000 C 
BRANCH   4   5
ATOM      5  C   UNL     1      -3.675  -0.231   0.321  0.00  0.00    +0.000 C 
BRANCH   5   6
ATOM      6  C   UNL     1      -4.858   0.508  -0.305  0.00  0.00    +0.000 C 
BRANCH   6   7
ATOM      7  N   UNL     1      -6.114   0.104   0.318  0.00  0.00    +0.000 NA
ATOM      8  H   UNL     1      -6.256  -0.896   0.184  0.00  0.00    +0.000 HD
ATOM      9  H   UNL     1      -6.889   0.569  -0.153  0.00  0.00    +0.000 HD
ENDBRANCH   6   7
ENDBRANCH   5   6
ENDBRANCH   4   5
ENDBRANCH   3   4
ENDBRANCH   2   3
ENDBRANCH   1   2
BRANCH   1  10
ATOM     10  CA  UNL     1       2.734  -0.568  -0.472  0.00  0.00    +0.000 C 
BRANCH  10  11
ATOM     11  N   UNL     1       3.747  -1.580  -0.163  0.00  0.00    +0.000 NA
ATOM     12  H1  UNL     1       4.622  -1.340  -0.628  0.00  0.00    +0.000 HD
ATOM     13  H2  UNL     1       3.461  -2.479  -0.548  0.00  0.00    +0.000 HD
ENDBRANCH  10  11
BRANCH  10  15
ATOM     14  OXT UNL     1       3.886   0.838   1.152  0.00  0.00    +0.000 OA
ATOM     15  C   UNL     1       3.228   0.738   0.124  0.00  0.00    +0.000 C 
BRANCH  15  16
ATOM     16  O   UNL     1       2.882   1.813  -0.633  0.00  0.00    +0.000 OA
ATOM     17  H   UNL     1       3.214   2.652  -0.248  0.00  0.00    +0.000 HD
ENDBRANCH  15  16
ENDBRANCH  10  15
ENDBRANCH   1  10
TORSDOF 10
