REMARK  Name = 637775
REMARK  8 active torsions:
REMARK  status: ('A' for Active; 'I' for Inactive)
REMARK    1  A    between atoms: O_1  and  C_7
REMARK    2  A    between atoms: O_1  and  C_14
REMARK    3  A    between atoms: O_2  and  C_8
REMARK    4  A    between atoms: O_2  and  C_15
REMARK    5  A    between atoms: O_3  and  C_9
REMARK    6  A    between atoms: O_4  and  C_16
REMARK    7  A    between atoms: C_6  and  C_12
REMARK    8  A    between atoms: C_13  and  C_16
REMARK                            x       y       z     vdW  Elec       q    Type
REMARK                         _______ _______ _______ _____ _____    ______ ____
ROOT
ATOM      1  C   UNL     1      -0.402   0.271   0.067  0.00  0.00    +0.000 A 
ATOM      2  C   UNL     1       1.856   1.122  -0.052  0.00  0.00    +0.000 A 
ATOM      3  C   UNL     1       1.454  -1.256  -0.185  0.00  0.00    +0.000 A 
ATOM      4  C   UNL     1       2.340  -0.180  -0.181  0.00  0.00    +0.000 A 
ATOM      5  C   UNL     1       0.485   1.347   0.071  0.00  0.00    +0.000 A 
ATOM      6  C   UNL     1       0.083  -1.031  -0.062  0.00  0.00    +0.000 A 
ENDROOT
BRANCH   2   7
ATOM      7  O   UNL     1       2.712   2.182  -0.047  0.00  0.00    +0.000 OA
ATOM      8  C   UNL     1       2.135   3.480   0.089  0.00  0.00    +0.000 C 
ENDBRANCH   2   7
BRANCH   3   9
ATOM      9  O   UNL     1       1.914  -2.533  -0.310  0.00  0.00    +0.000 OA
ATOM     10  C   UNL     1       2.232  -3.227   0.894  0.00  0.00    +0.000 C 
ENDBRANCH   3   9
BRANCH   4  11
ATOM     11  O   UNL     1       3.680  -0.400  -0.302  0.00  0.00    +0.000 OA
ATOM     12  H   UNL     1       4.136   0.460  -0.277  0.00  0.00    +0.000 HD
ENDBRANCH   4  11
BRANCH   1  13
ATOM     13  C   UNL     1      -1.831   0.505   0.196  0.00  0.00    +0.000 C 
ATOM     14  C   UNL     1      -2.802  -0.363  -0.168  0.00  0.00    +0.000 C 
BRANCH  14  16
ATOM     15  O   UNL     1      -4.675   0.723   0.889  0.00  0.00    +0.000 OA
ATOM     16  C   UNL     1      -4.222  -0.008   0.025  0.00  0.00    +0.000 C 
BRANCH  16  17
ATOM     17  O   UNL     1      -4.958  -0.632  -0.925  0.00  0.00    +0.000 OA
ATOM     18  H   UNL     1      -5.914  -0.428  -0.841  0.00  0.00    +0.000 HD
ENDBRANCH  16  17
ENDBRANCH  14  16
ENDBRANCH   1  13
TORSDOF 6
