REMARK  Name = 
REMARK  20 active torsions:
REMARK  status: ('A' for Active; 'I' for Inactive)
REMARK    1  A    between atoms: C_1  and  C_2
REMARK    2  A    between atoms: C_2  and  C_3
REMARK    3  A    between atoms: C_3  and  C_4
REMARK    4  A    between atoms: C_4  and  C_5
REMARK    5  A    between atoms: C_5  and  C_6
REMARK    6  A    between atoms: C_8  and  O_9
REMARK    7  A    between atoms: C_11  and  S_12
REMARK    8  A    between atoms: S_12  and  C_13
REMARK    9  A    between atoms: C_13  and  C_14
REMARK   10  A    between atoms: C_14  and  N_15
REMARK   11  A    between atoms: C_14  and  C_25
REMARK   12  A    between atoms: C_16  and  C_18
REMARK   13  A    between atoms: C_18  and  C_19
REMARK   14  A    between atoms: C_19  and  C_20
REMARK   15  A    between atoms: C_20  and  N_21
REMARK   16  A    between atoms: C_20  and  C_22
REMARK   17  A    between atoms: C_22  and  O_24
REMARK   18  A    between atoms: N_27  and  CA_28
REMARK   19  A    between atoms: CA_28  and  C_29
REMARK   20  A    between atoms: C_29  and  OXT_31
REMARK                            x       y       z     vdW  Elec       q    Type
REMARK                         _______ _______ _______ _____ _____    ______ ____
ROOT
ATOM      1  C   UNK A   1       0.566   0.785   0.448  0.00  0.00    +0.000 C 
ENDROOT
BRANCH   1   2
ATOM      2  N   UNK A   1       1.372  -0.351  -0.302  0.00  0.00    +0.000 N 
ATOM      3  C   UNK A   1       2.629  -0.008  -0.794  0.00  0.00    +0.000 C 
ATOM      4  O   UNK A   1       2.810   1.237  -0.611  0.00  0.00    +0.000 OA
ATOM      5  H   UNK A   1       1.002  -1.257  -0.416  0.00  0.00    +0.000 HD
BRANCH   3   6
ATOM      6  C   UNK A   1       3.440  -0.627  -1.867  0.00  0.00    +0.000 C 
BRANCH   6   7
ATOM      7  C   UNK A   1       3.827   0.376  -2.841  0.00  0.00    +0.000 C 
BRANCH   7   8
ATOM      8  C   UNK A   1       5.334   0.162  -3.439  0.00  0.00    +0.000 C 
BRANCH   8   9
ATOM      9  N   UNK A   1       5.203  -1.409  -3.333  0.00  0.00    +0.000 NA
ATOM     10  H   UNK A   1       4.844  -1.658  -2.412  0.00  0.00    +0.000 HD
ATOM     11  H   UNK A   1       6.119  -1.836  -3.469  0.00  0.00    +0.000 HD
ENDBRANCH   8   9
BRANCH   8  12
ATOM     12  C   UNK A   1       6.083   0.221  -2.013  0.00  0.00    +0.000 C 
ATOM     13  O   UNK A   1       7.292   0.347  -2.431  0.00  0.00    +0.000 OA
BRANCH  12  14
ATOM     14  O   UNK A   1       5.846   1.231  -1.145  0.00  0.00    +0.000 OA
ATOM     15  H   UNK A   1       5.009   1.307  -0.732  0.00  0.00    +0.000 HD
ENDBRANCH  12  14
ENDBRANCH   8  12
ENDBRANCH   7   8
ENDBRANCH   6   7
ENDBRANCH   3   6
ENDBRANCH   1   2
BRANCH   1  16
ATOM     16  C   UNK A   1       1.408   0.624   1.804  0.00  0.00    +0.000 C 
ATOM     17  O   UNK A   1       1.740   1.831   2.090  0.00  0.00    +0.000 OA
ATOM     18  N   GLY A   2       0.987  -0.109   2.900  0.00  0.00    +0.000 N 
ATOM     19  H   GLY A   2       0.125  -0.584   2.922  0.00  0.00    +0.000 HD
BRANCH  18  20
ATOM     20  CA  GLY A   2       1.925  -0.123   4.025  0.00  0.00    +0.000 C 
BRANCH  20  21
ATOM     21  C   GLY A   2       1.276  -0.258   5.345  0.00  0.00    +0.000 C 
ATOM     22  O   GLY A   2       1.992  -0.483   6.332  0.00  0.00    +0.000 OA
BRANCH  21  23
ATOM     23  OXT GLY A   2      -0.070   0.122   5.395  0.00  0.00    +0.000 OA
ATOM     24  HXT GLY A   2      -0.544   0.274   4.601  0.00  0.00    +0.000 HD
ENDBRANCH  21  23
ENDBRANCH  20  21
ENDBRANCH  18  20
ENDBRANCH   1  16
BRANCH   1  25
ATOM     25  C   UNK A   1      -0.670  -0.192   0.923  0.00  0.00    +0.000 C 
BRANCH  25  26
ATOM     26  S   UNK A   1      -1.992   0.998   0.487  0.00  0.00    +0.000 S 
BRANCH  26  31
ATOM     27  C   UNK A   1      -4.074  -0.171  -0.574  0.00  0.00    +0.000 C 
ATOM     28  O   UNK A   1      -4.479  -0.772  -1.870  0.00  0.00    +0.000 OA
ATOM     29  C   UNK A   1      -3.230  -1.389  -2.450  0.00  0.00    +0.000 C 
ATOM     30  C   UNK A   1      -2.134  -0.806  -1.359  0.00  0.00    +0.000 C 
ATOM     31  C   UNK A   1      -2.729   0.614  -1.192  0.00  0.00    +0.000 C 
BRANCH  29  32
ATOM     32  O   UNK A   1      -3.065  -0.137  -3.339  0.00  0.00    +0.000 OA
ATOM     33  H   UNK A   1      -3.145   0.660  -2.792  0.00  0.00    +0.000 HD
ENDBRANCH  29  32
BRANCH  27  34
ATOM     34  C   UNK A   1      -4.979   1.186  -0.868  0.00  0.00    +0.000 C 
BRANCH  34  35
ATOM     35  C   UNK A   1      -6.249   0.772  -1.492  0.00  0.00    +0.000 C 
BRANCH  35  36
ATOM     36  C   UNK A   1      -7.191   0.325  -0.392  0.00  0.00    +0.000 C 
BRANCH  36  38
ATOM     37  C   UNK A   1      -6.355   0.677   1.639  0.00  0.00    +0.000 C 
ATOM     38  C   UNK A   1      -6.512   0.467   0.924  0.00  0.00    +0.000 C 
ENDBRANCH  36  38
ENDBRANCH  35  36
ENDBRANCH  34  35
ENDBRANCH  27  34
ENDBRANCH  26  31
ENDBRANCH  25  26
ENDBRANCH   1  25
TORSDOF 19
