REMARK  Name = 193613
REMARK  7 active torsions:
REMARK  status: ('A' for Active; 'I' for Inactive)
REMARK    1  A    between atoms: S_1  and  C_6
REMARK    2  A    between atoms: S_1  and  C_7
REMARK    3  A    between atoms: O_2  and  C_11
REMARK    4  A    between atoms: N_4  and  C_5
REMARK    5  A    between atoms: C_5  and  C_6
REMARK    6  A    between atoms: C_5  and  C_11
REMARK    7  A    between atoms: C_7  and  C_8
REMARK                            x       y       z     vdW  Elec       q    Type
REMARK                         _______ _______ _______ _____ _____    ______ ____
ROOT
ATOM      1  C   UNK     1       1.961  -1.076   0.400  0.00  0.00    +0.000 C 
ENDROOT
BRANCH   1   2
ATOM      2  S   UNK     1       0.537  -0.249  -0.380  0.00  0.00    +0.000 S 
BRANCH   2   3
ATOM      3  C   UNK     1      -0.755  -0.877   0.715  0.00  0.00    +0.000 C 
BRANCH   3   4
ATOM      4  C   UNK     1      -2.118  -0.366   0.336  0.00  0.00    +0.000 A 
ATOM      5  C   UNK     1      -2.893  -1.086  -0.564  0.00  0.00    +0.000 A 
ATOM      6  C   UNK     1      -2.584   0.818   0.891  0.00  0.00    +0.000 A 
ATOM      7  C   UNK     1      -4.157  -0.612  -0.916  0.00  0.00    +0.000 A 
ATOM      8  C   UNK     1      -3.849   1.291   0.539  0.00  0.00    +0.000 A 
ATOM      9  C   UNK     1      -4.635   0.576  -0.364  0.00  0.00    +0.000 A 
ENDBRANCH   3   4
ENDBRANCH   2   3
ENDBRANCH   1   2
BRANCH   1  10
ATOM     10  C   UNK     1       3.283  -0.690  -0.267  0.00  0.00    +0.000 C 
BRANCH  10  11
ATOM     11  N   UNK     1       4.398  -1.357   0.407  0.00  0.00    +0.000 NA
ATOM     12  H   UNK     1       5.262  -1.179  -0.105  0.00  0.00    +0.000 HD
ATOM     13  H   UNK     1       4.257  -2.366   0.383  0.00  0.00    +0.000 HD
ENDBRANCH  10  11
BRANCH  10  15
ATOM     14  O   UNK     1       3.587   1.440   0.839  0.00  0.00    +0.000 OA
ATOM     15  C   UNK     1       3.541   0.804  -0.208  0.00  0.00    +0.000 C 
BRANCH  15  16
ATOM     16  O   UNK     1       3.683   1.384  -1.427  0.00  0.00    +0.000 OA
ATOM     17  H   UNK     1       3.832   2.351  -1.357  0.00  0.00    +0.000 HD
ENDBRANCH  15  16
ENDBRANCH  10  15
ENDBRANCH   1  10
TORSDOF 7
