REMARK  Name = 49866858
REMARK  13 active torsions:
REMARK  status: ('A' for Active; 'I' for Inactive)
REMARK    1  A    between atoms: SG_1  and  C_15
REMARK    2  A    between atoms: SG_1  and  CB_16
REMARK    3  A    between atoms: O_2  and  C_14
REMARK    4  A    between atoms: O_4  and  C_18
REMARK    5  A    between atoms: N_6  and  C_13
REMARK    6  A    between atoms: N_7  and  CA_12
REMARK    7  A    between atoms: N_8  and  CA_17
REMARK    8  A    between atoms: C_10  and  C_11
REMARK    9  A    between atoms: C_10  and  CA_12
REMARK   10  A    between atoms: C_11  and  C_13
REMARK   11  A    between atoms: CA_12  and  C_14
REMARK   12  A    between atoms: CB_16  and  CA_17
REMARK   13  A    between atoms: CA_17  and  C_18
REMARK                            x       y       z     vdW  Elec       q    Type
REMARK                         _______ _______ _______ _____ _____    ______ ____
ROOT
ATOM      1  N   CYS A   1       0.292   2.163   0.544  0.00  0.00    +0.000 N 
ATOM      2  N   CYS A   1       1.489   2.168  -1.483  0.00  0.00    +0.000 N 
ATOM      3  C   CYS A   1       1.414   2.028  -0.164  0.00  0.00    +0.000 C 
ATOM      4  H   CYS A   1       0.371   2.039   1.549  0.00  0.00    +0.000 HD
ATOM      5  H   CYS A   1       2.380   2.044  -1.950  0.00  0.00    +0.000 HD
ATOM      6  H   CYS A   1       0.679   2.386  -2.050  0.00  0.00    +0.000 HD
ENDROOT
BRANCH   3   7
ATOM      7  SG  CYS A   1       2.865   1.623   0.718  0.00  0.00    +0.000 S 
BRANCH   7   8
ATOM      8  CB  CYS A   1       2.368   0.055   1.468  0.00  0.00    +0.000 C 
BRANCH   8   9
ATOM      9  CA  CYS A   1       2.070  -1.014   0.415  0.00  0.00    +0.000 C 
BRANCH   9  10
ATOM     10  N   CYS A   1       1.697  -2.270   1.067  0.00  0.00    +0.000 NA
ATOM     11  H1  CYS A   1       1.402  -2.946   0.364  0.00  0.00    +0.000 HD
ATOM     12  H2  CYS A   1       0.886  -2.115   1.667  0.00  0.00    +0.000 HD
ENDBRANCH   9  10
BRANCH   9  14
ATOM     13  OXT CYS A   1       4.356  -1.661  -0.038  0.00  0.00    +0.000 OA
ATOM     14  C   CYS A   1       3.268  -1.298  -0.471  0.00  0.00    +0.000 C 
BRANCH  14  15
ATOM     15  O   CYS A   1       3.038  -1.079  -1.791  0.00  0.00    +0.000 OA
ATOM     16  H   CYS A   1       3.835  -1.254  -2.335  0.00  0.00    +0.000 HD
ENDBRANCH  14  15
ENDBRANCH   9  14
ENDBRANCH   8   9
ENDBRANCH   7   8
ENDBRANCH   3   7
BRANCH   1  17
ATOM     17  C   CYS A   1      -1.006   2.493  -0.046  0.00  0.00    +0.000 C 
BRANCH  17  18
ATOM     18  C   CYS A   1      -1.732   1.210  -0.430  0.00  0.00    +0.000 C 
BRANCH  18  19
ATOM     19  C   CYS A   1      -1.948   0.284   0.778  0.00  0.00    +0.000 C 
BRANCH  19  20
ATOM     20  CA  CYS A   1      -2.725  -1.006   0.474  0.00  0.00    +0.000 C 
BRANCH  20  21
ATOM     21  N   CYS A   1      -1.993  -1.882  -0.441  0.00  0.00    +0.000 NA
ATOM     22  H1  CYS A   1      -2.479  -2.775  -0.522  0.00  0.00    +0.000 HD
ATOM     23  H2  CYS A   1      -1.075  -2.092  -0.053  0.00  0.00    +0.000 HD
ENDBRANCH  20  21
BRANCH  20  25
ATOM     24  OXT CYS A   1      -4.486  -1.098  -1.213  0.00  0.00    +0.000 OA
ATOM     25  C   CYS A   1      -4.096  -0.725  -0.115  0.00  0.00    +0.000 C 
BRANCH  25  26
ATOM     26  O   CYS A   1      -4.871   0.008   0.728  0.00  0.00    +0.000 OA
ATOM     27  H   CYS A   1      -5.755   0.191   0.345  0.00  0.00    +0.000 HD
ENDBRANCH  25  26
ENDBRANCH  20  25
ENDBRANCH  19  20
ENDBRANCH  18  19
ENDBRANCH  17  18
ENDBRANCH   1  17
TORSDOF 13
