REMARK  Name = 5326960
REMARK  14 active torsions:
REMARK  status: ('A' for Active; 'I' for Inactive)
REMARK    1  A    between atoms: SG_1  and  O_5
REMARK    2  A    between atoms: SG_1  and  CB_17
REMARK    3  A    between atoms: O_4  and  C_20
REMARK    4  A    between atoms: O_8  and  C_22
REMARK    5  A    between atoms: N_10  and  CA_13
REMARK    6  A    between atoms: N_11  and  CA_21
REMARK    7  A    between atoms: N_12  and  CA_16
REMARK    8  A    between atoms: CA_13  and  CB_17
REMARK    9  A    between atoms: CA_13  and  C_19
REMARK   10  A    between atoms: C_14  and  C_15
REMARK   11  A    between atoms: C_14  and  CA_16
REMARK   12  A    between atoms: C_15  and  C_18
REMARK   13  A    between atoms: CA_16  and  C_20
REMARK   14  A    between atoms: CA_21  and  C_22
REMARK                            x       y       z     vdW  Elec       q    Type
REMARK                         _______ _______ _______ _____ _____    ______ ____
ROOT
ATOM      1  CA  UNL     1      -1.460  -1.121   0.051  0.00  0.00    +0.000 C 
ENDROOT
BRANCH   1   3
ATOM      2  O   UNL     1       0.290   0.756  -1.268  0.00  0.00    +0.000 OA
ATOM      3  N   UNL     1      -0.111  -0.774   0.433  0.00  0.00    +0.000 N 
ATOM      4  C   UNL     1       0.656   0.145  -0.267  0.00  0.00    +0.000 C 
ATOM      5  H   UNL     1       0.262  -1.174   1.290  0.00  0.00    +0.000 HD
BRANCH   4   6
ATOM      6  C   UNL     1       2.035   0.308   0.350  0.00  0.00    +0.000 C 
BRANCH   6   7
ATOM      7  C   UNL     1       2.898   1.318  -0.408  0.00  0.00    +0.000 C 
BRANCH   7   8
ATOM      8  CA  UNL     1       4.265   1.544   0.249  0.00  0.00    +0.000 C 
BRANCH   8   9
ATOM      9  N   UNL     1       5.028   2.519  -0.533  0.00  0.00    +0.000 NA
ATOM     10  H1  UNL     1       4.521   3.404  -0.561  0.00  0.00    +0.000 HD
ATOM     11  H2  UNL     1       5.097   2.209  -1.502  0.00  0.00    +0.000 HD
ENDBRANCH   8   9
BRANCH   8  13
ATOM     12  OXT UNL     1       5.804  -0.123  -0.640  0.00  0.00    +0.000 OA
ATOM     13  C   UNL     1       5.084   0.267   0.271  0.00  0.00    +0.000 C 
BRANCH  13  14
ATOM     14  O   UNL     1       4.915  -0.434   1.423  0.00  0.00    +0.000 OA
ATOM     15  H   UNL     1       5.436  -1.264   1.425  0.00  0.00    +0.000 HD
ENDBRANCH  13  14
ENDBRANCH   8  13
ENDBRANCH   7   8
ENDBRANCH   6   7
ENDBRANCH   4   6
ENDBRANCH   1   3
BRANCH   1  18
ATOM     16  O   UNL     1      -2.175   0.374   1.820  0.00  0.00    +0.000 OA
ATOM     17  N   UNL     1      -3.457   0.229  -0.111  0.00  0.00    +0.000 N 
ATOM     18  C   ACE A   1      -2.390  -0.108   0.710  0.00  0.00    +0.000 C 
ATOM     19  H   UNL     1      -3.545  -0.214  -1.021  0.00  0.00    +0.000 HD
BRANCH  17  20
ATOM     20  CA  UNL     1      -4.459   1.205   0.252  0.00  0.00    +0.000 C 
BRANCH  20  22
ATOM     21  OXT UNL     1      -4.812   3.576   0.034  0.00  0.00    +0.000 OA
ATOM     22  C   UNL     1      -4.102   2.602  -0.184  0.00  0.00    +0.000 C 
BRANCH  22  23
ATOM     23  O   UNL     1      -2.921   2.679  -0.841  0.00  0.00    +0.000 OA
ATOM     24  H   UNL     1      -2.712   3.598  -1.114  0.00  0.00    +0.000 HD
ENDBRANCH  22  23
ENDBRANCH  20  22
ENDBRANCH  17  20
ENDBRANCH   1  18
BRANCH   1  25
ATOM     25  CB  UNL     1      -1.834  -2.536   0.478  0.00  0.00    +0.000 C 
BRANCH  25  26
ATOM     26  SG  UNL     1      -0.728  -3.771  -0.277  0.00  0.00    +0.000 S 
ATOM     27  O   UNL     1      -1.173  -5.117   0.200  0.00  0.00    +0.000 OA
BRANCH  26  28
ATOM     28  O   UNL     1      -1.351  -3.538  -1.741  0.00  0.00    +0.000 OA
ATOM     29  H   UNL     1      -1.386  -4.389  -2.239  0.00  0.00    +0.000 HD
ENDBRANCH  26  28
ENDBRANCH  25  26
ENDBRANCH   1  25
TORSDOF 14
