REMARK  Name = 6992140
REMARK  11 active torsions:
REMARK  status: ('A' for Active; 'I' for Inactive)
REMARK    1  A    between atoms: O_1  and  C_20
REMARK    2  A    between atoms: O_4  and  C_24
REMARK    3  A    between atoms: N_6  and  CA_10
REMARK    4  A    between atoms: N_8  and  CA_18
REMARK    5  A    between atoms: CB_9  and  CA_10
REMARK    6  A    between atoms: CB_9  and  CG_11
REMARK    7  A    between atoms: CA_10  and  C_20
REMARK    8  A    between atoms: C_14  and  C_16
REMARK    9  A    between atoms: C_14  and  C_17
REMARK   10  A    between atoms: C_16  and  CA_18
REMARK   11  A    between atoms: CA_18  and  C_24
REMARK                            x       y       z     vdW  Elec       q    Type
REMARK                         _______ _______ _______ _____ _____    ______ ____
ROOT
ATOM      1  CA  UNL     1       1.368   2.185   0.448  0.00  0.00    +0.000 C 
ENDROOT
BRANCH   1   3
ATOM      2  O   UNL     1      -1.322   1.952   1.466  0.00  0.00    +0.000 OA
ATOM      3  N   UNL     1       0.268   1.471  -0.157  0.00  0.00    +0.000 N 
ATOM      4  C   UNL     1      -0.997   1.416   0.411  0.00  0.00    +0.000 C 
ATOM      5  H   UNL     1       0.438   0.979  -1.030  0.00  0.00    +0.000 HD
BRANCH   4   6
ATOM      6  C   UNL     1      -1.953   0.590  -0.433  0.00  0.00    +0.000 C 
BRANCH   6   7
ATOM      7  C   UNL     1      -3.354   0.516   0.176  0.00  0.00    +0.000 C 
BRANCH   7   8
ATOM      8  CA  UNL     1      -4.346  -0.253  -0.704  0.00  0.00    +0.000 C 
BRANCH   8   9
ATOM      9  N   UNL     1      -3.927  -1.653  -0.804  0.00  0.00    +0.000 NA
ATOM     10  H1  UNL     1      -3.900  -2.079   0.122  0.00  0.00    +0.000 HD
ATOM     11  H2  UNL     1      -4.606  -2.182  -1.350  0.00  0.00    +0.000 HD
ENDBRANCH   8   9
BRANCH   8  13
ATOM     12  OXT UNL     1      -6.334  -1.255   0.288  0.00  0.00    +0.000 OA
ATOM     13  C   UNL     1      -5.736  -0.257  -0.095  0.00  0.00    +0.000 C 
BRANCH  13  14
ATOM     14  O   UNL     1      -6.277   0.988  -0.039  0.00  0.00    +0.000 OA
ATOM     15  H   UNL     1      -7.179   0.978   0.346  0.00  0.00    +0.000 HD
ENDBRANCH  13  14
ENDBRANCH   8  13
ENDBRANCH   7   8
ENDBRANCH   6   7
ENDBRANCH   4   6
ENDBRANCH   1   3
BRANCH   1  17
ATOM     16  OXT UNL     1       3.224   3.518  -0.344  0.00  0.00    +0.000 OA
ATOM     17  C   UNL     1       2.272   2.794  -0.614  0.00  0.00    +0.000 C 
BRANCH  17  18
ATOM     18  O   UNL     1       1.942   2.482  -1.890  0.00  0.00    +0.000 OA
ATOM     19  H   UNL     1       2.550   2.897  -2.538  0.00  0.00    +0.000 HD
ENDBRANCH  17  18
ENDBRANCH   1  17
BRANCH   1  20
ATOM     20  CB  UNL     1       2.185   1.274   1.375  0.00  0.00    +0.000 C 
BRANCH  20  22
ATOM     21  NE1 UNL     1       4.269  -1.102  -0.452  0.00  0.00    +0.000 N 
ATOM     22  CG  UNL     1       2.820   0.116   0.660  0.00  0.00    +0.000 A 
ATOM     23  CD2 UNL     1       2.237  -1.151   0.467  0.00  0.00    +0.000 A 
ATOM     24  CE2 UNL     1       3.173  -1.908  -0.241  0.00  0.00    +0.000 A 
ATOM     25  CD1 UNL     1       4.059   0.135   0.096  0.00  0.00    +0.000 A 
ATOM     26  CE3 UNL     1       1.009  -1.746   0.817  0.00  0.00    +0.000 A 
ATOM     27  CZ2 UNL     1       2.942  -3.235  -0.618  0.00  0.00    +0.000 A 
ATOM     28  CZ3 UNL     1       0.763  -3.073   0.446  0.00  0.00    +0.000 A 
ATOM     29  CH2 UNL     1       1.716  -3.804  -0.260  0.00  0.00    +0.000 A 
ATOM     30  HE1 UNL     1       5.108  -1.383  -0.941  0.00  0.00    +0.000 HD
ENDBRANCH  20  22
ENDBRANCH   1  20
TORSDOF 11
