REMARK  Name = 2724883
REMARK  5 active torsions:
REMARK  status: ('A' for Active; 'I' for Inactive)
REMARK    1  A    between atoms: O_1  and  C_14
REMARK    2  A    between atoms: N_3  and  CA_7
REMARK    3  A    between atoms: C_4  and  C_5
REMARK    4  A    between atoms: C_4  and  CA_7
REMARK    5  A    between atoms: CA_7  and  C_14
REMARK                            x       y       z     vdW  Elec       q    Type
REMARK                         _______ _______ _______ _____ _____    ______ ____
ROOT
ATOM      1  C   UNL     1       0.115  -0.320  -0.647  0.00  0.00    +0.000 A 
ATOM      2  C   UNL     1      -1.129   0.206  -0.263  0.00  0.00    +0.000 A 
ATOM      3  C   UNL     1      -2.171  -0.678   0.104  0.00  0.00    +0.000 A 
ATOM      4  C   UNL     1       0.328  -1.699  -0.669  0.00  0.00    +0.000 A 
ATOM      5  C   UNL     1      -1.362   1.591  -0.235  0.00  0.00    +0.000 A 
ATOM      6  C   UNL     1      -1.939  -2.063   0.076  0.00  0.00    +0.000 A 
ATOM      7  C   UNL     1      -0.697  -2.568  -0.308  0.00  0.00    +0.000 A 
ATOM      8  C   UNL     1      -3.416  -0.152   0.488  0.00  0.00    +0.000 A 
ATOM      9  C   UNL     1      -2.604   2.096   0.149  0.00  0.00    +0.000 A 
ATOM     10  C   UNL     1      -3.629   1.227   0.510  0.00  0.00    +0.000 A 
ENDROOT
BRANCH   1  11
ATOM     11  C   UNL     1       1.259   0.559  -1.048  0.00  0.00    +0.000 C 
BRANCH  11  12
ATOM     12  CA  UNL     1       2.161   0.964   0.136  0.00  0.00    +0.000 C 
BRANCH  12  13
ATOM     13  N   UNL     1       2.937   2.155  -0.204  0.00  0.00    +0.000 NA
ATOM     14  H1  UNL     1       3.467   2.463   0.610  0.00  0.00    +0.000 HD
ATOM     15  H2  UNL     1       2.304   2.920  -0.435  0.00  0.00    +0.000 HD
ENDBRANCH  12  13
BRANCH  12  17
ATOM     16  OXT UNL     1       4.278  -0.232  -0.015  0.00  0.00    +0.000 OA
ATOM     17  C   UNL     1       3.165  -0.123   0.482  0.00  0.00    +0.000 C 
BRANCH  17  18
ATOM     18  O   UNL     1       2.705  -0.963   1.446  0.00  0.00    +0.000 OA
ATOM     19  H   UNL     1       3.363  -1.654   1.673  0.00  0.00    +0.000 HD
ENDBRANCH  17  18
ENDBRANCH  12  17
ENDBRANCH  11  12
ENDBRANCH   1  11
TORSDOF 5
