REMARK  Name = 24860536
REMARK  11 active torsions:
REMARK  status: ('A' for Active; 'I' for Inactive)
REMARK    1  A    between atoms: S_1  and  C_13
REMARK    2  A    between atoms: O_3  and  C_14
REMARK    3  A    between atoms: N_5  and  CA_7
REMARK    4  A    between atoms: C_6  and  C_8
REMARK    5  A    between atoms: C_6  and  C_9
REMARK    6  A    between atoms: CA_7  and  C_10
REMARK    7  A    between atoms: CA_7  and  C_14
REMARK    8  A    between atoms: C_8  and  C_11
REMARK    9  A    between atoms: C_9  and  C_12
REMARK   10  A    between atoms: C_10  and  C_13
REMARK   11  A    between atoms: C_11  and  C_15
REMARK                            x       y       z     vdW  Elec       q    Type
REMARK                         _______ _______ _______ _____ _____    ______ ____
ROOT
ATOM      1  O   UNL     1      -0.492  -0.011   1.781  0.00  0.00    +0.000 OA
ATOM      2  N   UNL     1       0.743   0.362  -0.147  0.00  0.00    +0.000 N 
ATOM      3  C   UNL     1      -0.428   0.148   0.565  0.00  0.00    +0.000 C 
ATOM      4  H   UNL     1       0.702   0.473  -1.156  0.00  0.00    +0.000 HD
ENDROOT
BRANCH   2   5
ATOM      5  CA  UNL     1       2.033   0.421   0.499  0.00  0.00    +0.000 C 
BRANCH   5   7
ATOM      6  OXT UNL     1       4.074   1.705   0.282  0.00  0.00    +0.000 OA
ATOM      7  C   UNL     1       2.966   1.425  -0.162  0.00  0.00    +0.000 C 
BRANCH   7   8
ATOM      8  O   UNL     1       2.452   2.032  -1.259  0.00  0.00    +0.000 OA
ATOM      9  H   UNL     1       3.073   2.688  -1.640  0.00  0.00    +0.000 HD
ENDBRANCH   7   8
ENDBRANCH   5   7
BRANCH   5  10
ATOM     10  C   UNL     1       2.671  -0.970   0.617  0.00  0.00    +0.000 C 
BRANCH  10  11
ATOM     11  C   UNL     1       3.099  -1.564  -0.727  0.00  0.00    +0.000 C 
BRANCH  11  12
ATOM     12  S   UNL     1       3.832  -3.209  -0.487  0.00  0.00    +0.000 S 
ATOM     13  H   UNL     1       4.089  -3.451  -1.781  0.00  0.00    +0.000 HD
ENDBRANCH  11  12
ENDBRANCH  10  11
ENDBRANCH   5  10
ENDBRANCH   2   5
BRANCH   3  14
ATOM     14  C   UNL     1      -1.647   0.159  -0.342  0.00  0.00    +0.000 C 
BRANCH  14  15
ATOM     15  C   UNL     1      -2.965  -0.074   0.395  0.00  0.00    +0.000 C 
BRANCH  15  16
ATOM     16  C   UNL     1      -4.177   0.016  -0.536  0.00  0.00    +0.000 C 
BRANCH  16  17
ATOM     17  C   UNL     1      -5.478  -0.249   0.222  0.00  0.00    +0.000 C 
ATOM     18  C   UNL     1      -6.684  -0.189  -0.702  0.00  0.00    +0.000 C 
ENDBRANCH  16  17
ENDBRANCH  15  16
ENDBRANCH  14  15
ENDBRANCH   3  14
TORSDOF 10
