REMARK  Name = 46937165
REMARK  7 active torsions:
REMARK  status: ('A' for Active; 'I' for Inactive)
REMARK    1  A    between atoms: N_3  and  C_9
REMARK    2  A    between atoms: N_5  and  C_12
REMARK    3  A    between atoms: C_8  and  C_9
REMARK    4  A    between atoms: C_8  and  C_10
REMARK    5  A    between atoms: C_9  and  C_11
REMARK    6  A    between atoms: C_10  and  C_12
REMARK    7  A    between atoms: C_11  and  C_13
REMARK                            x       y       z     vdW  Elec       q    Type
REMARK                         _______ _______ _______ _____ _____    ______ ____
ROOT
ATOM      1  C   UNL     1      -0.756  -1.492  -0.888  0.00  0.00    +0.000 C 
ENDROOT
BRANCH   1   2
ATOM      2  N   UNL     1      -0.913  -2.794  -1.535  0.00  0.00    +0.000 NA
ATOM      3  H   UNL     1      -1.594  -2.722  -2.290  0.00  0.00    +0.000 HD
ATOM      4  H   UNL     1      -0.034  -3.067  -1.973  0.00  0.00    +0.000 HD
ENDBRANCH   1   2
BRANCH   1   6
ATOM      5  O   UNL     1       0.069  -2.481   1.153  0.00  0.00    +0.000 OA
ATOM      6  C   UNL     1       0.264  -1.693   0.229  0.00  0.00    +0.000 C 
BRANCH   6   9
ATOM      7  S   UNL     1       2.695  -1.117   1.447  0.00  0.00    +0.000 S 
ATOM      8  N   UNL     1       1.825  -0.050  -0.734  0.00  0.00    +0.000 NA
ATOM      9  C   UNL     1       1.532  -0.914   0.209  0.00  0.00    +0.000 A 
ATOM     10  C   UNL     1       3.703   0.051   0.678  0.00  0.00    +0.000 A 
ATOM     11  C   UNL     1       3.068   0.512  -0.479  0.00  0.00    +0.000 A 
ATOM     12  C   UNL     1       4.966   0.525   1.069  0.00  0.00    +0.000 A 
ATOM     13  C   UNL     1       3.721   1.483  -1.270  0.00  0.00    +0.000 A 
ATOM     14  C   UNL     1       5.590   1.485   0.269  0.00  0.00    +0.000 A 
ATOM     15  C   UNL     1       4.978   1.959  -0.886  0.00  0.00    +0.000 A 
ENDBRANCH   6   9
ENDBRANCH   1   6
BRANCH   1  16
ATOM     16  C   UNL     1      -2.113  -1.031  -0.332  0.00  0.00    +0.000 C 
BRANCH  16  17
ATOM     17  C   UNL     1      -2.108   0.460   0.037  0.00  0.00    +0.000 C 
BRANCH  17  18
ATOM     18  C   UNL     1      -3.427   0.909   0.656  0.00  0.00    +0.000 C 
BRANCH  18  19
ATOM     19  N   UNL     1      -4.519   0.699  -0.295  0.00  0.00    +0.000 NA
ATOM     20  N   UNL     1      -6.076   1.577   1.311  0.00  0.00    +0.000 N 
ATOM     21  N   UNL     1      -6.788   0.873  -0.737  0.00  0.00    +0.000 N 
ATOM     22  C   UNL     1      -5.708   1.038   0.098  0.00  0.00    +0.000 C 
ATOM     23  H   UNL     1      -6.676   0.486  -1.668  0.00  0.00    +0.000 HD
ATOM     24  H   UNL     1      -7.726   1.131  -0.449  0.00  0.00    +0.000 HD
ATOM     25  H   UNL     1      -5.404   1.766   2.045  0.00  0.00    +0.000 HD
ATOM     26  H   UNL     1      -7.045   1.805   1.509  0.00  0.00    +0.000 HD
ENDBRANCH  18  19
ENDBRANCH  17  18
ENDBRANCH  16  17
ENDBRANCH   1  16
TORSDOF 7
