REMARK  Name = 
REMARK  11 active torsions:
REMARK  status: ('A' for Active; 'I' for Inactive)
REMARK    1  A    between atoms: CB_1  and  CA_2
REMARK    2  A    between atoms: CA_2  and  C_3
REMARK    3  A    between atoms: CA_2  and  N_4
REMARK    4  A    between atoms: CB_8  and  CA_9
REMARK    5  A    between atoms: CB_8  and  SG_14
REMARK    6  A    between atoms: CA_9  and  C_10
REMARK    7  A    between atoms: CA_9  and  N_11
REMARK    8  A    between atoms: C_10  and  OXT_13
REMARK    9  A    between atoms: CA_15  and  C_16
REMARK   10  A    between atoms: CA_15  and  N_17
REMARK   11  A    between atoms: C_16  and  OXT_19
REMARK                            x       y       z     vdW  Elec       q    Type
REMARK                         _______ _______ _______ _____ _____    ______ ____
ROOT
ATOM      1  CA  CYS A   1      -2.538   2.103   0.000  0.00  0.00    +0.000 C 
ENDROOT
BRANCH   1   2
ATOM      2  C   CYS A   1      -1.823   1.690   0.000  0.00  0.00    +0.000 C 
ATOM      3  O   CYS A   1      -1.823   0.865   0.000  0.00  0.00    +0.000 OA
ATOM      4  OXT CYS A   1      -1.109   2.103   0.000  0.00  0.00    +0.000 OA
ENDBRANCH   1   2
BRANCH   1   5
ATOM      5  N   CYS A   1      -2.538   2.928   0.000  0.00  0.00    +0.000 NA
ATOM      6  H1  CYS A   1      -1.654   3.438   0.000  0.00  0.00    +0.000 HD
ATOM      7  H2  CYS A   1      -3.421   3.438   0.000  0.00  0.00    +0.000 HD
ENDBRANCH   1   5
BRANCH   1   8
ATOM      8  CB  CYS A   1      -3.252   1.690   0.000  0.00  0.00    +0.000 C 
ATOM      9  SG  CYS A   1      -3.966   2.103   0.000  0.00  0.00    +0.000 SA
ENDBRANCH   1   8
TORSDOF 3
REMARK  Name = 
REMARK  11 active torsions:
REMARK  status: ('A' for Active; 'I' for Inactive)
REMARK    1  A    between atoms: CB_1  and  CA_2
REMARK    2  A    between atoms: CA_2  and  C_3
REMARK    3  A    between atoms: CA_2  and  N_4
REMARK    4  A    between atoms: CB_8  and  CA_9
REMARK    5  A    between atoms: CB_8  and  SG_14
REMARK    6  A    between atoms: CA_9  and  C_10
REMARK    7  A    between atoms: CA_9  and  N_11
REMARK    8  A    between atoms: C_10  and  OXT_13
REMARK    9  A    between atoms: CA_15  and  C_16
REMARK   10  A    between atoms: CA_15  and  N_17
REMARK   11  A    between atoms: C_16  and  OXT_19
REMARK                            x       y       z     vdW  Elec       q    Type
REMARK                         _______ _______ _______ _____ _____    ______ ____
ROOT
ATOM      1  CA  CYS A   1       2.729   1.741   0.000  0.00  0.00    +0.000 C 
ENDROOT
BRANCH   1   2
ATOM      2  N   CYS A   1       2.317   1.026   0.000  0.00  0.00    +0.000 NA
ATOM      3  H1  CYS A   1       1.297   1.026   0.000  0.00  0.00    +0.000 HD
ATOM      4  H2  CYS A   1       2.827   0.143   0.000  0.00  0.00    +0.000 HD
ENDBRANCH   1   2
BRANCH   1   5
ATOM      5  C   CYS A   1       3.554   1.741   0.000  0.00  0.00    +0.000 C 
ATOM      6  O   CYS A   1       3.966   1.026   0.000  0.00  0.00    +0.000 OA
BRANCH   5   7
ATOM      7  OXT CYS A   1       3.966   2.455   0.000  0.00  0.00    +0.000 OA
ATOM      8  HXT CYS A   1       4.903   2.455   0.000  0.00  0.00    +0.000 HD
ENDBRANCH   5   7
ENDBRANCH   1   5
BRANCH   1   9
ATOM      9  CB  CYS A   1       2.317   2.455   0.000  0.00  0.00    +0.000 C 
BRANCH   9  10
ATOM     10  SG  CYS A   1       1.492   2.455   0.000  0.00  0.00    +0.000 S 
ATOM     11  HG  CYS A   1       0.811   3.633   0.000  0.00  0.00    +0.000 HD
ENDBRANCH   9  10
ENDBRANCH   1   9
TORSDOF 5
REMARK  Name = 
REMARK  11 active torsions:
REMARK  status: ('A' for Active; 'I' for Inactive)
REMARK    1  A    between atoms: CB_1  and  CA_2
REMARK    2  A    between atoms: CA_2  and  C_3
REMARK    3  A    between atoms: CA_2  and  N_4
REMARK    4  A    between atoms: CB_8  and  CA_9
REMARK    5  A    between atoms: CB_8  and  SG_14
REMARK    6  A    between atoms: CA_9  and  C_10
REMARK    7  A    between atoms: CA_9  and  N_11
REMARK    8  A    between atoms: C_10  and  OXT_13
REMARK    9  A    between atoms: CA_15  and  C_16
REMARK   10  A    between atoms: CA_15  and  N_17
REMARK   11  A    between atoms: C_16  and  OXT_19
REMARK                            x       y       z     vdW  Elec       q    Type
REMARK                         _______ _______ _______ _____ _____    ______ ____
ROOT
ATOM      1  CA  GLY A   1      -1.808  -1.499   0.000  0.00  0.00    +0.000 C 
ENDROOT
BRANCH   1   2
ATOM      2  N   GLY A   1      -2.220  -0.784   0.000  0.00  0.00    +0.000 NA
ATOM      3  H1  GLY A   1      -1.710   0.099   0.000  0.00  0.00    +0.000 HD
ATOM      4  H2  GLY A   1      -3.240  -0.784   0.000  0.00  0.00    +0.000 HD
ENDBRANCH   1   2
BRANCH   1   5
ATOM      5  C   GLY A   1      -2.220  -2.213   0.000  0.00  0.00    +0.000 C 
ATOM      6  O   GLY A   1      -1.808  -2.928   0.000  0.00  0.00    +0.000 OA
BRANCH   5   7
ATOM      7  OXT GLY A   1      -3.045  -2.213   0.000  0.00  0.00    +0.000 OA
ATOM      8  HXT GLY A   1      -3.514  -1.402   0.000  0.00  0.00    +0.000 HD
ENDBRANCH   5   7
ENDBRANCH   1   5
TORSDOF 3
REMARK  Name = 
REMARK  11 active torsions:
REMARK  status: ('A' for Active; 'I' for Inactive)
REMARK    1  A    between atoms: CB_1  and  CA_2
REMARK    2  A    between atoms: CA_2  and  C_3
REMARK    3  A    between atoms: CA_2  and  N_4
REMARK    4  A    between atoms: CB_8  and  CA_9
REMARK    5  A    between atoms: CB_8  and  SG_14
REMARK    6  A    between atoms: CA_9  and  C_10
REMARK    7  A    between atoms: CA_9  and  N_11
REMARK    8  A    between atoms: C_10  and  OXT_13
REMARK    9  A    between atoms: CA_15  and  C_16
REMARK   10  A    between atoms: CA_15  and  N_17
REMARK   11  A    between atoms: C_16  and  OXT_19
REMARK                            x       y       z     vdW  Elec       q    Type
REMARK                         _______ _______ _______ _____ _____    ______ ____
ROOT
ATOM      1 FE   UNL     1      -0.394   2.515   0.000  0.00  0.00    +0.000 Fe
ENDROOT
TORSDOF 0
