REMARK  Name = 11579379
REMARK  7 active torsions:
REMARK  status: ('A' for Active; 'I' for Inactive)
REMARK    1  A    between atoms: O_2  and  C_14
REMARK    2  A    between atoms: O_2  and  C_15
REMARK    3  A    between atoms: O_3  and  C_13
REMARK    4  A    between atoms: N_5  and  CA_7
REMARK    5  A    between atoms: C_6  and  CA_7
REMARK    6  A    between atoms: C_6  and  C_8
REMARK    7  A    between atoms: CA_7  and  C_13
REMARK                            x       y       z     vdW  Elec       q    Type
REMARK                         _______ _______ _______ _____ _____    ______ ____
ROOT
ATOM      1  C   UNL     1       1.956  -0.981  -0.743  0.00  0.00    +0.000 C 
ENDROOT
BRANCH   1   2
ATOM      2  C   UNL     1       0.486  -0.781  -0.452  0.00  0.00    +0.000 A 
ATOM      3  C   UNL     1      -0.210  -1.766   0.229  0.00  0.00    +0.000 A 
ATOM      4  C   UNL     1      -0.135   0.383  -0.873  0.00  0.00    +0.000 A 
ATOM      5  C   UNL     1      -1.567  -1.581   0.496  0.00  0.00    +0.000 A 
ATOM      6  C   UNL     1      -1.492   0.568  -0.605  0.00  0.00    +0.000 A 
ATOM      7  C   UNL     1      -2.207  -0.414   0.080  0.00  0.00    +0.000 A 
BRANCH   7   8
ATOM      8  O   UNL     1      -3.531  -0.235   0.341  0.00  0.00    +0.000 OA
BRANCH   8  10
ATOM      9  F   UNL     1      -5.444   0.920   0.196  0.00  0.00    +0.000 F 
ATOM     10  C   UNL     1      -4.120   0.980  -0.113  0.00  0.00    +0.000 C 
ENDBRANCH   8  10
ENDBRANCH   7   8
ENDBRANCH   1   2
BRANCH   1  11
ATOM     11  CA  UNL     1       2.864  -0.441   0.373  0.00  0.00    +0.000 C 
BRANCH  11  12
ATOM     12  N   UNL     1       4.180  -1.068   0.282  0.00  0.00    +0.000 NA
ATOM     13  H1  UNL     1       4.086  -2.079   0.373  0.00  0.00    +0.000 HD
ATOM     14  H2  UNL     1       4.758  -0.768   1.067  0.00  0.00    +0.000 HD
ENDBRANCH  11  12
BRANCH  11  16
ATOM     15  OXT UNL     1       3.978   1.582  -0.401  0.00  0.00    +0.000 OA
ATOM     16  C   UNL     1       3.087   1.057   0.254  0.00  0.00    +0.000 C 
BRANCH  16  17
ATOM     17  O   UNL     1       2.156   1.774   0.937  0.00  0.00    +0.000 OA
ATOM     18  H   UNL     1       2.296   2.740   0.840  0.00  0.00    +0.000 HD
ENDBRANCH  16  17
ENDBRANCH  11  16
ENDBRANCH   1  11
TORSDOF 7
