REMARK  Name = 
REMARK  13 active torsions:
REMARK  status: ('A' for Active; 'I' for Inactive)
REMARK    1  A    between atoms: CB_1  and  CG_3
REMARK    2  A    between atoms: CB_1  and  CA_4
REMARK    3  A    between atoms: C_2  and  CA_4
REMARK    4  A    between atoms: C_2  and  OXT_8
REMARK    5  A    between atoms: CG_3  and  OD2_9
REMARK    6  A    between atoms: CA_4  and  N_7
REMARK    7  A    between atoms: C_11  and  CA_15
REMARK    8  A    between atoms: C_11  and  OXT_17
REMARK    9  A    between atoms: NE_14  and  CD_19
REMARK   10  A    between atoms: CA_15  and  N_18
REMARK   11  A    between atoms: CA_15  and  CB_20
REMARK   12  A    between atoms: CD_19  and  CG_21
REMARK   13  A    between atoms: CB_20  and  CG_21
REMARK                            x       y       z     vdW  Elec       q    Type
REMARK                         _______ _______ _______ _____ _____    ______ ____
ROOT
ATOM      1  CA  ASP A   1       3.396  -0.211   0.000  0.00  0.00    +0.000 C 
ENDROOT
BRANCH   1   2
ATOM      2  N   ASP A   1       3.396  -1.049   0.000  0.00  0.00    +0.000 NA
ATOM      3  H1  ASP A   1       2.513  -1.559   0.000  0.00  0.00    +0.000 HD
ATOM      4  H2  ASP A   1       4.279  -1.559   0.000  0.00  0.00    +0.000 HD
ENDBRANCH   1   2
BRANCH   1   5
ATOM      5  C   ASP A   1       2.666   0.211   0.000  0.00  0.00    +0.000 C 
ATOM      6  O   ASP A   1       2.666   1.026   0.000  0.00  0.00    +0.000 OA
BRANCH   5   7
ATOM      7  OXT ASP A   1       1.960  -0.201   0.000  0.00  0.00    +0.000 OA
ATOM      8  HXT ASP A   1       1.147   0.265   0.000  0.00  0.00    +0.000 HD
ENDBRANCH   5   7
ENDBRANCH   1   5
BRANCH   1   9
ATOM      9  CB  ASP A   1       4.103   0.201   0.000  0.00  0.00    +0.000 C 
BRANCH   9  10
ATOM     10  CG  ASP A   1       4.817  -0.201   0.000  0.00  0.00    +0.000 C 
ATOM     11  OD1 ASP A   1       5.536   0.224   0.000  0.00  0.00    +0.000 OA
BRANCH  10  12
ATOM     12  OD2 ASP A   1       4.830  -1.026   0.000  0.00  0.00    +0.000 OA
ATOM     13  HD2 ASP A   1       4.025  -1.507   0.000  0.00  0.00    +0.000 HD
ENDBRANCH  10  12
ENDBRANCH   9  10
ENDBRANCH   1   9
TORSDOF 6
REMARK  Name = 
REMARK  13 active torsions:
REMARK  status: ('A' for Active; 'I' for Inactive)
REMARK    1  A    between atoms: CB_1  and  CG_3
REMARK    2  A    between atoms: CB_1  and  CA_4
REMARK    3  A    between atoms: C_2  and  CA_4
REMARK    4  A    between atoms: C_2  and  OXT_8
REMARK    5  A    between atoms: CG_3  and  OD2_9
REMARK    6  A    between atoms: CA_4  and  N_7
REMARK    7  A    between atoms: C_11  and  CA_15
REMARK    8  A    between atoms: C_11  and  OXT_17
REMARK    9  A    between atoms: NE_14  and  CD_19
REMARK   10  A    between atoms: CA_15  and  N_18
REMARK   11  A    between atoms: CA_15  and  CB_20
REMARK   12  A    between atoms: CD_19  and  CG_21
REMARK   13  A    between atoms: CB_20  and  CG_21
REMARK                            x       y       z     vdW  Elec       q    Type
REMARK                         _______ _______ _______ _____ _____    ______ ____
ROOT
ATOM      1  CG  ARG A   1      -2.669  -0.201   0.000  0.00  0.00    +0.000 C 
ENDROOT
BRANCH   1   2
ATOM      2  CD  ARG A   1      -1.950   0.216   0.000  0.00  0.00    +0.000 C 
BRANCH   2   5
ATOM      3  CZ  ARG A   1      -0.519   0.216   0.000  0.00  0.00    +0.000 C 
ATOM      4  NH1 ARG A   1      -0.519   1.049   0.000  0.00  0.00    +0.000 NA
ATOM      5  NE  ARG A   1      -1.233  -0.188   0.000  0.00  0.00    +0.000 N 
ATOM      6  NH2 ARG A   1       0.201  -0.201   0.000  0.00  0.00    +0.000 N 
ATOM      7  HH1 ARG A   1       0.334   1.541   0.000  0.00  0.00    +0.000 HD
ATOM      8  HE  ARG A   1      -1.232  -1.172   0.000  0.00  0.00    +0.000 HD
ATOM      9 HH21 ARG A   1       0.199  -1.185   0.000  0.00  0.00    +0.000 HD
ATOM     10 HH22 ARG A   1       1.054   0.291   0.000  0.00  0.00    +0.000 HD
ENDBRANCH   2   5
ENDBRANCH   1   2
BRANCH   1  11
ATOM     11  CB  ARG A   1      -3.399   0.216   0.000  0.00  0.00    +0.000 C 
BRANCH  11  12
ATOM     12  CA  ARG A   1      -4.097  -0.219   0.000  0.00  0.00    +0.000 C 
BRANCH  12  13
ATOM     13  N   ARG A   1      -4.105  -1.016   0.000  0.00  0.00    +0.000 NA
ATOM     14  H1  ARG A   1      -4.993  -1.517   0.000  0.00  0.00    +0.000 HD
ATOM     15  H2  ARG A   1      -3.227  -1.534   0.000  0.00  0.00    +0.000 HD
ENDBRANCH  12  13
BRANCH  12  16
ATOM     16  C   ARG A   1      -4.798   0.216   0.000  0.00  0.00    +0.000 C 
ATOM     17  O   ARG A   1      -4.811   1.031   0.000  0.00  0.00    +0.000 OA
BRANCH  16  18
ATOM     18  OXT ARG A   1      -5.536  -0.201   0.000  0.00  0.00    +0.000 OA
ATOM     19  HXT ARG A   1      -6.343   0.276   0.000  0.00  0.00    +0.000 HD
ENDBRANCH  16  18
ENDBRANCH  12  16
ENDBRANCH  11  12
ENDBRANCH   1  11
TORSDOF 7
