REMARK  Name = 6917715
REMARK  4 active torsions:
REMARK  status: ('A' for Active; 'I' for Inactive)
REMARK    1  A    between atoms: O_1  and  C_7
REMARK    2  A    between atoms: C_3  and  C_14
REMARK    3  A    between atoms: C_7  and  C_19
REMARK    4  A    between atoms: C_14  and  C_18
REMARK                            x       y       z     vdW  Elec       q    Type
REMARK                         _______ _______ _______ _____ _____    ______ ____
ROOT
ATOM      1  O   UNL     1      -6.197   0.205   0.936  0.00  0.00    +0.000 OA
ATOM      2  C   UNL     1       2.235  -0.264  -0.218  0.00  0.00    +0.000 C 
ATOM      3  C   UNL     1       1.365   1.010  -0.082  0.00  0.00    +0.000 C 
ATOM      4  C   UNL     1      -0.046   0.846  -0.675  0.00  0.00    +0.000 C 
ATOM      5  C   UNL     1      -0.768  -0.328   0.069  0.00  0.00    +0.000 C 
ATOM      6  C   UNL     1       3.578   0.249   0.383  0.00  0.00    +0.000 C 
ATOM      7  C   UNL     1       2.272   2.117  -0.611  0.00  0.00    +0.000 C 
ATOM      8  C   UNL     1       1.523  -1.415   0.524  0.00  0.00    +0.000 C 
ATOM      9  C   UNL     1       3.696   1.681  -0.202  0.00  0.00    +0.000 C 
ATOM     10  C   UNL     1      -2.272  -0.477  -0.345  0.00  0.00    +0.000 C 
ATOM     11  C   UNL     1       0.113  -1.587  -0.033  0.00  0.00    +0.000 C 
ATOM     12  C   UNL     1      -0.847   2.147  -0.558  0.00  0.00    +0.000 C 
ATOM     13  C   UNL     1      -2.237   1.972  -1.147  0.00  0.00    +0.000 C 
ATOM     14  C   UNL     1      -2.989   0.864  -0.461  0.00  0.00    +0.000 C 
ATOM     15  C   UNL     1      -3.004  -1.387   0.672  0.00  0.00    +0.000 C 
ATOM     16  C   UNL     1      -0.232  -2.750  -0.609  0.00  0.00    +0.000 C 
ATOM     17  C   UNL     1      -4.505  -1.417   0.441  0.00  0.00    +0.000 C 
ATOM     18  C   UNL     1      -4.243   1.083  -0.030  0.00  0.00    +0.000 C 
ATOM     19  C   UNL     1      -5.066  -0.021   0.513  0.00  0.00    +0.000 C 
ENDROOT
BRANCH   6  20
ATOM     20  O   UNL     1       4.691  -0.528  -0.039  0.00  0.00    +0.000 OA
ATOM     21  H   UNL     1       4.684  -1.365   0.457  0.00  0.00    +0.000 HD
ENDBRANCH   6  20
BRANCH   2  22
ATOM     22  C   UNL     1       2.465  -0.701  -1.698  0.00  0.00    +0.000 C 
ATOM     23  C   UNL     1       3.290  -1.958  -1.746  0.00  0.00    +0.000 C 
ENDBRANCH   2  22
BRANCH   6  24
ATOM     24  C   UNL     1       3.586   0.306   1.857  0.00  0.00    +0.000 C 
ATOM     25  C   UNL     1       3.592   0.352   3.057  0.00  0.00    +0.000 C 
ENDBRANCH   6  24
TORSDOF 3
