REMARK  Name = 9051
REMARK  4 active torsions:
REMARK  status: ('A' for Active; 'I' for Inactive)
REMARK    1  A    between atoms: C_3  and  C_13
REMARK    2  A    between atoms: C_7  and  C_17
REMARK    3  A    between atoms: C_11  and  C_18
REMARK    4  A    between atoms: C_17  and  C_23
REMARK                            x       y       z     vdW  Elec       q    Type
REMARK                         _______ _______ _______ _____ _____    ______ ____
ROOT
ATOM      1  O   UNL     1       6.136  -0.341  -0.437  0.00  0.00    +0.000 OA
ATOM      2  C   UNL     1      -2.240  -0.191   0.305  0.00  0.00    +0.000 C 
ATOM      3  C   UNL     1      -1.284   0.932  -0.141  0.00  0.00    +0.000 C 
ATOM      4  C   UNL     1      -0.069   1.092   0.778  0.00  0.00    +0.000 C 
ATOM      5  C   UNL     1       0.724  -0.248   0.965  0.00  0.00    +0.000 C 
ATOM      6  C   UNL     1      -3.344  -0.026  -0.764  0.00  0.00    +0.000 C 
ATOM      7  C   UNL     1      -1.466  -1.509   0.224  0.00  0.00    +0.000 C 
ATOM      8  C   UNL     1      -2.220   2.126  -0.337  0.00  0.00    +0.000 C 
ATOM      9  C   UNL     1      -0.209  -1.488   1.106  0.00  0.00    +0.000 C 
ATOM     10  C   UNL     1       1.952  -0.442  -0.020  0.00  0.00    +0.000 C 
ATOM     11  C   UNL     1      -3.500   1.500  -0.917  0.00  0.00    +0.000 C 
ATOM     12  C   UNL     1      -2.816   0.001   1.732  0.00  0.00    +0.000 C 
ATOM     13  C   UNL     1       0.807   2.232   0.340  0.00  0.00    +0.000 C 
ATOM     14  C   UNL     1       2.791   0.842  -0.086  0.00  0.00    +0.000 C 
ATOM     15  C   UNL     1       2.860  -1.587   0.526  0.00  0.00    +0.000 C 
ATOM     16  C   UNL     1       1.512  -0.800  -1.456  0.00  0.00    +0.000 C 
ATOM     17  C   UNL     1       2.088   2.109  -0.022  0.00  0.00    +0.000 C 
ATOM     18  C   UNL     1       4.195  -1.716  -0.198  0.00  0.00    +0.000 C 
ATOM     19  C   UNL     1       4.130   0.855  -0.198  0.00  0.00    +0.000 C 
ATOM     20  C   UNL     1       4.918  -0.397  -0.273  0.00  0.00    +0.000 C 
ENDROOT
BRANCH   6  22
ATOM     21  O   UNL     1      -5.510  -0.134   0.228  0.00  0.00    +0.000 OA
ATOM     22  C   UNL     1      -4.637  -0.702  -0.426  0.00  0.00    +0.000 C 
ATOM     23  C   UNL     1      -4.817  -2.109  -0.929  0.00  0.00    +0.000 C 
ENDBRANCH   6  22
TORSDOF 1
