REMARK  Name = 5084146
REMARK  9 active torsions:
REMARK  status: ('A' for Active; 'I' for Inactive)
REMARK    1  A    between atoms: O_1  and  C_5
REMARK    2  A    between atoms: O_1  and  C_7
REMARK    3  A    between atoms: O_2  and  C_12
REMARK    4  A    between atoms: O_2  and  C_15
REMARK    5  A    between atoms: O_3  and  C_14
REMARK    6  A    between atoms: C_4  and  C_5
REMARK    7  A    between atoms: C_4  and  C_6
REMARK    8  A    between atoms: C_6  and  C_9
REMARK    9  A    between atoms: C_7  and  C_8
REMARK                            x       y       z     vdW  Elec       q    Type
REMARK                         _______ _______ _______ _____ _____    ______ ____
ROOT
ATOM      1  C   UNL     1      -0.517  -0.715  -0.565  0.00  0.00    +0.000 A 
ATOM      2  C   UNL     1      -1.286   0.417  -0.811  0.00  0.00    +0.000 A 
ATOM      3  C   UNL     1      -1.024  -1.767   0.190  0.00  0.00    +0.000 A 
ATOM      4  C   UNL     1      -2.581   0.497  -0.297  0.00  0.00    +0.000 A 
ATOM      5  C   UNL     1      -2.318  -1.686   0.704  0.00  0.00    +0.000 A 
ATOM      6  C   UNL     1      -3.096  -0.555   0.461  0.00  0.00    +0.000 A 
ENDROOT
BRANCH   4   7
ATOM      7  O   UNL     1      -3.331   1.607  -0.541  0.00  0.00    +0.000 OA
ATOM      8  C   UNL     1      -3.236   2.675   0.399  0.00  0.00    +0.000 C 
ENDBRANCH   4   7
BRANCH   6   9
ATOM      9  O   UNL     1      -4.359  -0.488   0.968  0.00  0.00    +0.000 OA
ATOM     10  H   UNL     1      -4.768   0.343   0.670  0.00  0.00    +0.000 HD
ENDBRANCH   6   9
BRANCH   1  11
ATOM     11  C   UNL     1       0.875  -0.801  -1.118  0.00  0.00    +0.000 C 
BRANCH  11  12
ATOM     12  O   UNL     1       1.785  -0.257  -0.171  0.00  0.00    +0.000 OA
BRANCH  12  13
ATOM     13  C   UNL     1       3.124  -0.312  -0.642  0.00  0.00    +0.000 C 
BRANCH  13  14
ATOM     14  C   UNL     1       4.045   0.265   0.423  0.00  0.00    +0.000 C 
BRANCH  14  15
ATOM     15  C   UNL     1       5.504   0.252  -0.025  0.00  0.00    +0.000 C 
ATOM     16  C   UNL     1       6.415   0.868   1.025  0.00  0.00    +0.000 C 
ENDBRANCH  14  15
ENDBRANCH  13  14
ENDBRANCH  12  13
ENDBRANCH  11  12
ENDBRANCH   1  11
TORSDOF 7
