REMARK  Name = 5757
REMARK  3 active torsions:
REMARK  status: ('A' for Active; 'I' for Inactive)
REMARK    1  A    between atoms: O_1  and  C_7
REMARK    2  A    between atoms: O_2  and  C_20
REMARK    3  A    between atoms: C_3  and  C_13
REMARK                            x       y       z     vdW  Elec       q    Type
REMARK                         _______ _______ _______ _____ _____    ______ ____
ROOT
ATOM      1  C   UNL     1       2.664   0.584   0.148  0.00  0.00    +0.000 C 
ATOM      2  C   UNL     1       1.984  -0.695  -0.379  0.00  0.00    +0.000 C 
ATOM      3  C   UNL     1       0.515  -0.780   0.035  0.00  0.00    +0.000 C 
ATOM      4  C   UNL     1      -0.246   0.436  -0.575  0.00  0.00    +0.000 C 
ATOM      5  C   UNL     1       4.095   0.335  -0.367  0.00  0.00    +0.000 C 
ATOM      6  C   UNL     1       1.955   1.793  -0.475  0.00  0.00    +0.000 C 
ATOM      7  C   UNL     1       2.944  -1.806   0.038  0.00  0.00    +0.000 C 
ATOM      8  C   UNL     1       0.440   1.776  -0.195  0.00  0.00    +0.000 C 
ATOM      9  C   UNL     1       4.337  -1.161  -0.088  0.00  0.00    +0.000 C 
ATOM     10  C   UNL     1      -0.154  -2.073  -0.435  0.00  0.00    +0.000 C 
ATOM     11  C   UNL     1       2.665   0.731   1.691  0.00  0.00    +0.000 C 
ATOM     12  C   UNL     1      -1.740   0.364  -0.267  0.00  0.00    +0.000 A 
ATOM     13  C   UNL     1      -1.569  -2.159   0.131  0.00  0.00    +0.000 C 
ATOM     14  C   UNL     1      -2.353  -0.874   0.022  0.00  0.00    +0.000 A 
ATOM     15  C   UNL     1      -2.555   1.506  -0.351  0.00  0.00    +0.000 A 
ATOM     16  C   UNL     1      -3.737  -0.930   0.269  0.00  0.00    +0.000 A 
ATOM     17  C   UNL     1      -3.929   1.436  -0.112  0.00  0.00    +0.000 A 
ATOM     18  C   UNL     1      -4.520   0.219   0.203  0.00  0.00    +0.000 A 
ENDROOT
BRANCH   5  19
ATOM     19  O   UNL     1       5.061   1.150   0.267  0.00  0.00    +0.000 OA
ATOM     20  H   UNL     1       5.936   0.868  -0.052  0.00  0.00    +0.000 HD
ENDBRANCH   5  19
BRANCH  18  21
ATOM     21  O   UNL     1      -5.857   0.148   0.439  0.00  0.00    +0.000 OA
ATOM     22  H   UNL     1      -6.241   1.038   0.349  0.00  0.00    +0.000 HD
ENDBRANCH  18  21
TORSDOF 2
