REMARK  Name = 259331
REMARK  8 active torsions:
REMARK  status: ('A' for Active; 'I' for Inactive)
REMARK    1  A    between atoms: O_3  and  C_11
REMARK    2  A    between atoms: O_4  and  C_24
REMARK    3  A    between atoms: O_4  and  C_25
REMARK    4  A    between atoms: N_6  and  C_26
REMARK    5  A    between atoms: N_6  and  C_27
REMARK    6  A    between atoms: C_7  and  C_17
REMARK    7  A    between atoms: C_26  and  C_28
REMARK    8  A    between atoms: C_27  and  C_29
REMARK                            x       y       z     vdW  Elec       q    Type
REMARK                         _______ _______ _______ _____ _____    ______ ____
ROOT
ATOM      1  C   UNL     1       5.171   0.737  -0.107  0.00  0.00    +0.000 C 
ATOM      2  C   UNL     1       4.625  -0.650   0.291  0.00  0.00    +0.000 C 
ATOM      3  C   UNL     1       3.108  -0.642   0.473  0.00  0.00    +0.000 C 
ATOM      4  C   UNL     1       2.444  -0.252  -0.883  0.00  0.00    +0.000 C 
ATOM      5  C   UNL     1       6.676   0.411  -0.142  0.00  0.00    +0.000 C 
ATOM      6  C   UNL     1       4.561   1.119  -1.461  0.00  0.00    +0.000 C 
ATOM      7  C   UNL     1       5.517  -1.061   1.459  0.00  0.00    +0.000 C 
ATOM      8  C   UNL     1       3.021   1.082  -1.428  0.00  0.00    +0.000 C 
ATOM      9  C   UNL     1       6.895  -0.476   1.100  0.00  0.00    +0.000 C 
ATOM     10  C   UNL     1       2.563  -1.999   0.922  0.00  0.00    +0.000 C 
ATOM     11  C   UNL     1       4.888   1.865   0.918  0.00  0.00    +0.000 C 
ATOM     12  C   UNL     1       0.922  -0.309  -0.790  0.00  0.00    +0.000 A 
ATOM     13  C   UNL     1       1.071  -1.884   1.222  0.00  0.00    +0.000 C 
ATOM     14  C   UNL     1       0.292  -1.117   0.182  0.00  0.00    +0.000 A 
ATOM     15  C   UNL     1       0.111   0.366  -1.719  0.00  0.00    +0.000 A 
ATOM     16  C   UNL     1      -1.111  -1.186   0.234  0.00  0.00    +0.000 A 
ATOM     17  C   UNL     1      -1.282   0.282  -1.662  0.00  0.00    +0.000 A 
ATOM     18  C   UNL     1      -1.894  -0.490  -0.683  0.00  0.00    +0.000 A 
ENDROOT
BRANCH   5  19
ATOM     19  O   UNL     1       7.494   1.565  -0.113  0.00  0.00    +0.000 OA
ATOM     20  H   UNL     1       8.417   1.267  -0.050  0.00  0.00    +0.000 HD
ENDBRANCH   5  19
BRANCH  18  21
ATOM     21  O   UNL     1      -3.251  -0.571  -0.624  0.00  0.00    +0.000 OA
BRANCH  21  24
ATOM     22  O   UNL     1      -3.248   1.263   0.788  0.00  0.00    +0.000 OA
ATOM     23  N   UNL     1      -5.280   0.285   0.217  0.00  0.00    +0.000 N 
ATOM     24  C   UNL     1      -3.886   0.402   0.182  0.00  0.00    +0.000 C 
BRANCH  23  25
ATOM     25  C   UNL     1      -6.027  -0.737  -0.507  0.00  0.00    +0.000 C 
BRANCH  25  27
ATOM     26 CL   UNL     1      -7.137  -3.228  -0.609  0.00  0.00    +0.000 Cl
ATOM     27  C   UNL     1      -6.227  -2.003   0.309  0.00  0.00    +0.000 C 
ENDBRANCH  25  27
ENDBRANCH  23  25
BRANCH  23  28
ATOM     28  C   UNL     1      -6.073   1.218   1.006  0.00  0.00    +0.000 C 
BRANCH  28  30
ATOM     29 CL   UNL     1      -7.452   3.564   1.211  0.00  0.00    +0.000 Cl
ATOM     30  C   UNL     1      -6.490   2.445   0.214  0.00  0.00    +0.000 C 
ENDBRANCH  28  30
ENDBRANCH  23  28
ENDBRANCH  21  24
ENDBRANCH  18  21
TORSDOF 7
