REMARK  Name = 235905
REMARK  4 active torsions:
REMARK  status: ('A' for Active; 'I' for Inactive)
REMARK    1  A    between atoms: O_1  and  C_6
REMARK    2  A    between atoms: C_2  and  C_13
REMARK    3  A    between atoms: C_6  and  C_16
REMARK    4  A    between atoms: C_16  and  C_21
REMARK                            x       y       z     vdW  Elec       q    Type
REMARK                         _______ _______ _______ _____ _____    ______ ____
ROOT
ATOM      1  C   UNL     1       1.635   0.622   0.685  0.00  0.00    +0.000 C 
ATOM      2  C   UNL     1       0.950  -0.685   0.228  0.00  0.00    +0.000 C 
ATOM      3  C   UNL     1      -0.537  -0.737   0.595  0.00  0.00    +0.000 C 
ATOM      4  C   UNL     1      -1.267   0.460  -0.085  0.00  0.00    +0.000 C 
ATOM      5  C   UNL     1       3.115   0.323   0.290  0.00  0.00    +0.000 C 
ATOM      6  C   UNL     1       0.943   1.792  -0.034  0.00  0.00    +0.000 C 
ATOM      7  C   UNL     1       1.871  -1.776   0.762  0.00  0.00    +0.000 C 
ATOM      8  C   UNL     1      -0.575   1.811   0.225  0.00  0.00    +0.000 C 
ATOM      9  C   UNL     1       3.285  -1.173   0.665  0.00  0.00    +0.000 C 
ATOM     10  C   UNL     1      -2.781   0.468   0.281  0.00  0.00    +0.000 C 
ATOM     11  C   UNL     1      -1.188  -2.060   0.169  0.00  0.00    +0.000 C 
ATOM     12  C   UNL     1       1.550   0.863   2.221  0.00  0.00    +0.000 C 
ATOM     13  C   UNL     1      -2.664  -2.089   0.553  0.00  0.00    +0.000 C 
ATOM     14  C   UNL     1      -3.408  -0.894   0.014  0.00  0.00    +0.000 C 
ATOM     15  C   UNL     1      -3.521   1.610  -0.452  0.00  0.00    +0.000 C 
ATOM     16  C   UNL     1      -5.032   1.418  -0.441  0.00  0.00    +0.000 C 
ATOM     17  C   UNL     1      -4.574  -1.043  -0.639  0.00  0.00    +0.000 C 
ATOM     18  C   UNL     1      -5.415   0.103  -1.112  0.00  0.00    +0.000 C 
ENDROOT
BRANCH   5  19
ATOM     19  O   UNL     1       4.036   1.101   1.050  0.00  0.00    +0.000 OA
ATOM     20  H   UNL     1       3.861   2.038   0.858  0.00  0.00    +0.000 HD
ENDBRANCH   5  19
BRANCH   5  21
ATOM     21  C   UNL     1       3.466   0.547  -1.186  0.00  0.00    +0.000 C 
BRANCH  21  22
ATOM     22  C   UNL     1       4.881   0.153  -1.465  0.00  0.00    +0.000 C 
ATOM     23  C   UNL     1       5.229  -0.811  -2.324  0.00  0.00    +0.000 C 
ENDBRANCH  21  22
ENDBRANCH   5  21
TORSDOF 3
