REMARK  Name = 236666
REMARK  3 active torsions:
REMARK  status: ('A' for Active; 'I' for Inactive)
REMARK    1  A    between atoms: O_1  and  C_10
REMARK    2  A    between atoms: C_5  and  C_16
REMARK    3  A    between atoms: C_7  and  C_17
REMARK                            x       y       z     vdW  Elec       q    Type
REMARK                         _______ _______ _______ _____ _____    ______ ____
ROOT
ATOM      1  O   UNL     1       5.755  -0.056  -0.567  0.00  0.00    +0.000 OA
ATOM      2  C   UNL     1      -2.034   0.710  -0.388  0.00  0.00    +0.000 C 
ATOM      3  C   UNL     1      -0.634   0.789   0.231  0.00  0.00    +0.000 C 
ATOM      4  C   UNL     1      -2.800  -0.559   0.031  0.00  0.00    +0.000 C 
ATOM      5  C   UNL     1       0.193  -0.456  -0.240  0.00  0.00    +0.000 C 
ATOM      6  C   UNL     1       1.667  -0.416   0.315  0.00  0.00    +0.000 C 
ATOM      7  C   UNL     1      -2.022  -1.775  -0.486  0.00  0.00    +0.000 C 
ATOM      8  C   UNL     1      -0.572  -1.782   0.034  0.00  0.00    +0.000 C 
ATOM      9  C   UNL     1      -4.136  -0.295  -0.689  0.00  0.00    +0.000 C 
ATOM     10  C   UNL     1      -3.033   1.833  -0.118  0.00  0.00    +0.000 C 
ATOM     11  C   UNL     1       0.064   2.105  -0.137  0.00  0.00    +0.000 C 
ATOM     12  C   UNL     1       2.293   0.942  -0.140  0.00  0.00    +0.000 C 
ATOM     13  C   UNL     1      -4.399   1.205  -0.451  0.00  0.00    +0.000 C 
ATOM     14  C   UNL     1       1.505   2.155   0.360  0.00  0.00    +0.000 C 
ATOM     15  C   UNL     1      -3.031  -0.703   1.557  0.00  0.00    +0.000 C 
ATOM     16  C   UNL     1       1.693  -0.594   1.852  0.00  0.00    +0.000 C 
ATOM     17  C   UNL     1       2.534  -1.528  -0.260  0.00  0.00    +0.000 C 
ATOM     18  C   UNL     1       3.777   1.051   0.215  0.00  0.00    +0.000 C 
ATOM     19  C   UNL     1       3.831  -1.403  -0.574  0.00  0.00    +0.000 C 
ATOM     20  C   UNL     1       4.547  -0.125  -0.344  0.00  0.00    +0.000 C 
ENDROOT
BRANCH   9  21
ATOM     21  O   UNL     1      -5.195  -1.097  -0.203  0.00  0.00    +0.000 OA
ATOM     22  H   UNL     1      -4.948  -2.026  -0.348  0.00  0.00    +0.000 HD
ENDBRANCH   9  21
TORSDOF 1
