REMARK  Name = 443408
REMARK  9 active torsions:
REMARK  status: ('A' for Active; 'I' for Inactive)
REMARK    1  A    between atoms: O_2  and  C_8
REMARK    2  A    between atoms: O_2  and  C_30
REMARK    3  A    between atoms: O_3  and  C_20
REMARK    4  A    between atoms: O_4  and  C_27
REMARK    5  A    between atoms: N_5  and  C_22
REMARK    6  A    between atoms: C_12  and  C_20
REMARK    7  A    between atoms: C_20  and  C_25
REMARK    8  A    between atoms: C_20  and  C_26
REMARK    9  A    between atoms: C_22  and  C_23
REMARK                            x       y       z     vdW  Elec       q    Type
REMARK                         _______ _______ _______ _____ _____    ______ ____
ROOT
ATOM      1  O   UNL     1      -1.952   1.665   1.151  0.00  0.00    +0.000 OA
ATOM      2  N   UNL     1       2.606  -0.761  -0.092  0.00  0.00    +0.000 NA
ATOM      3  C   UNL     1       0.206  -0.575  -0.652  0.00  0.00    +0.000 C 
ATOM      4  C   UNL     1       0.019   0.334   0.586  0.00  0.00    +0.000 C 
ATOM      5  C   UNL     1      -2.241  -0.700   0.300  0.00  0.00    +0.000 C 
ATOM      6  C   UNL     1      -1.411   0.305   1.146  0.00  0.00    +0.000 C 
ATOM      7  C   UNL     1       1.669  -0.302  -1.144  0.00  0.00    +0.000 C 
ATOM      8  C   UNL     1      -0.111  -2.034  -0.219  0.00  0.00    +0.000 C 
ATOM      9  C   UNL     1      -1.537  -2.095   0.405  0.00  0.00    +0.000 C 
ATOM     10  C   UNL     1      -0.859  -0.275  -1.764  0.00  0.00    +0.000 C 
ATOM     11  C   UNL     1      -2.276  -0.262  -1.173  0.00  0.00    +0.000 C 
ATOM     12  C   UNL     1       1.073   0.070   1.681  0.00  0.00    +0.000 C 
ATOM     13  C   UNL     1       0.085   1.731   0.105  0.00  0.00    +0.000 A 
ATOM     14  C   UNL     1       1.885   1.219  -1.543  0.00  0.00    +0.000 C 
ATOM     15  C   UNL     1       2.510   0.017   1.145  0.00  0.00    +0.000 C 
ATOM     16  C   UNL     1       0.988   2.210  -0.829  0.00  0.00    +0.000 A 
ATOM     17  C   UNL     1      -1.015   2.445   0.519  0.00  0.00    +0.000 A 
ATOM     18  C   UNL     1       0.873   3.553  -1.186  0.00  0.00    +0.000 A 
ATOM     19  C   UNL     1      -1.157   3.770   0.170  0.00  0.00    +0.000 A 
ATOM     20  C   UNL     1      -0.180   4.333  -0.665  0.00  0.00    +0.000 A 
ENDROOT
BRANCH   9  21
ATOM     21  C   UNL     1      -2.348  -3.243  -0.202  0.00  0.00    +0.000 C 
ATOM     22  C   UNL     1      -3.746  -3.302   0.410  0.00  0.00    +0.000 C 
ATOM     23  C   UNL     1      -1.619  -4.571  -0.011  0.00  0.00    +0.000 C 
BRANCH  21  24
ATOM     24  O   UNL     1      -2.473  -3.017  -1.605  0.00  0.00    +0.000 OA
ATOM     25  H   UNL     1      -3.004  -3.740  -1.980  0.00  0.00    +0.000 HD
ENDBRANCH  21  24
ENDBRANCH   9  21
BRANCH   5  26
ATOM     26  O   UNL     1      -3.560  -0.773   0.822  0.00  0.00    +0.000 OA
ATOM     27  C   UNL     1      -4.220   0.485   0.753  0.00  0.00    +0.000 C 
ENDBRANCH   5  26
BRANCH  19  28
ATOM     28  O   UNL     1      -2.225   4.500   0.576  0.00  0.00    +0.000 OA
ATOM     29  H   UNL     1      -2.792   3.933   1.127  0.00  0.00    +0.000 HD
ENDBRANCH  19  28
BRANCH   2  30
ATOM     30  C   UNL     1       3.986  -0.868  -0.553  0.00  0.00    +0.000 C 
BRANCH  30  31
ATOM     31  C   UNL     1       4.856  -1.510   0.479  0.00  0.00    +0.000 C 
ATOM     32  C   UNL     1       6.313  -1.682   0.190  0.00  0.00    +0.000 C 
ATOM     33  C   UNL     1       5.859  -0.670   1.201  0.00  0.00    +0.000 C 
ENDBRANCH  30  31
ENDBRANCH   2  30
TORSDOF 6
