REMARK  Name = 223368
REMARK  2 active torsions:
REMARK  status: ('A' for Active; 'I' for Inactive)
REMARK    1  A    between atoms: O_2  and  C_20
REMARK    2  A    between atoms: C_3  and  C_12
REMARK                            x       y       z     vdW  Elec       q    Type
REMARK                         _______ _______ _______ _____ _____    ______ ____
ROOT
ATOM      1  O   UNL     1       4.882   1.291   0.121  0.00  0.00    +0.000 OA
ATOM      2  C   UNL     1       2.595   0.497   0.363  0.00  0.00    +0.000 C 
ATOM      3  C   UNL     1       2.029  -0.576  -0.594  0.00  0.00    +0.000 C 
ATOM      4  C   UNL     1       1.901   1.825   0.055  0.00  0.00    +0.000 C 
ATOM      5  C   UNL     1      -0.243   0.508  -0.585  0.00  0.00    +0.000 C 
ATOM      6  C   UNL     1       0.560  -0.764  -0.335  0.00  0.00    +0.000 C 
ATOM      7  C   UNL     1       3.048  -1.713  -0.514  0.00  0.00    +0.000 C 
ATOM      8  C   UNL     1       0.370   1.703   0.200  0.00  0.00    +0.000 C 
ATOM      9  C   UNL     1       4.059   0.397  -0.027  0.00  0.00    +0.000 C 
ATOM     10  C   UNL     1       4.389  -0.970  -0.603  0.00  0.00    +0.000 C 
ATOM     11  C   UNL     1       2.503   0.154   1.862  0.00  0.00    +0.000 C 
ATOM     12  C   UNL     1      -1.737   0.368  -0.329  0.00  0.00    +0.000 A 
ATOM     13  C   UNL     1       0.004  -1.908   0.088  0.00  0.00    +0.000 C 
ATOM     14  C   UNL     1      -1.453  -2.064   0.379  0.00  0.00    +0.000 C 
ATOM     15  C   UNL     1      -2.295  -0.841   0.125  0.00  0.00    +0.000 A 
ATOM     16  C   UNL     1      -2.595   1.452  -0.589  0.00  0.00    +0.000 A 
ATOM     17  C   UNL     1      -3.680  -0.930   0.343  0.00  0.00    +0.000 A 
ATOM     18  C   UNL     1      -3.970   1.351  -0.372  0.00  0.00    +0.000 A 
ATOM     19  C   UNL     1      -4.512   0.161   0.099  0.00  0.00    +0.000 A 
ENDROOT
BRANCH  19  20
ATOM     20  O   UNL     1      -5.852   0.059   0.313  0.00  0.00    +0.000 OA
ATOM     21  H   UNL     1      -6.052  -0.836   0.637  0.00  0.00    +0.000 HD
ENDBRANCH  19  20
TORSDOF 1
