REMARK  Name = 66414
REMARK  5 active torsions:
REMARK  status: ('A' for Active; 'I' for Inactive)
REMARK    1  A    between atoms: O_1  and  C_8
REMARK    2  A    between atoms: O_2  and  C_20
REMARK    3  A    between atoms: O_2  and  C_22
REMARK    4  A    between atoms: O_3  and  C_21
REMARK    5  A    between atoms: C_4  and  C_14
REMARK                            x       y       z     vdW  Elec       q    Type
REMARK                         _______ _______ _______ _____ _____    ______ ____
ROOT
ATOM      1  C   UNL     1       3.026   0.729   0.121  0.00  0.00    +0.000 C 
ATOM      2  C   UNL     1       2.529  -0.657  -0.337  0.00  0.00    +0.000 C 
ATOM      3  C   UNL     1       1.077  -0.912   0.068  0.00  0.00    +0.000 C 
ATOM      4  C   UNL     1       0.173   0.156  -0.619  0.00  0.00    +0.000 C 
ATOM      5  C   UNL     1       4.486   0.642  -0.365  0.00  0.00    +0.000 C 
ATOM      6  C   UNL     1       2.176   1.796  -0.579  0.00  0.00    +0.000 C 
ATOM      7  C   UNL     1       3.619  -1.606   0.153  0.00  0.00    +0.000 C 
ATOM      8  C   UNL     1       0.671   1.595  -0.313  0.00  0.00    +0.000 C 
ATOM      9  C   UNL     1       4.917  -0.791   0.003  0.00  0.00    +0.000 C 
ATOM     10  C   UNL     1       0.591  -2.306  -0.332  0.00  0.00    +0.000 C 
ATOM     11  C   UNL     1       2.982   0.962   1.653  0.00  0.00    +0.000 C 
ATOM     12  C   UNL     1      -1.303  -0.094  -0.321  0.00  0.00    +0.000 A 
ATOM     13  C   UNL     1      -0.809  -2.546   0.226  0.00  0.00    +0.000 C 
ATOM     14  C   UNL     1      -1.753  -1.385   0.035  0.00  0.00    +0.000 A 
ATOM     15  C   UNL     1      -2.260   0.924  -0.479  0.00  0.00    +0.000 A 
ATOM     16  C   UNL     1      -3.121  -1.608   0.273  0.00  0.00    +0.000 A 
ATOM     17  C   UNL     1      -3.617   0.685  -0.249  0.00  0.00    +0.000 A 
ATOM     18  C   UNL     1      -4.047  -0.579   0.132  0.00  0.00    +0.000 A 
ENDROOT
BRANCH   5  19
ATOM     19  O   UNL     1       5.326   1.612   0.230  0.00  0.00    +0.000 OA
ATOM     20  H   UNL     1       6.235   1.431  -0.064  0.00  0.00    +0.000 HD
ENDBRANCH   5  19
BRANCH  17  21
ATOM     21  O   UNL     1      -4.510   1.703  -0.406  0.00  0.00    +0.000 OA
ATOM     22  C   UNL     1      -4.787   2.504   0.741  0.00  0.00    +0.000 C 
ENDBRANCH  17  21
BRANCH  18  23
ATOM     23  O   UNL     1      -5.366  -0.824   0.364  0.00  0.00    +0.000 OA
ATOM     24  H   UNL     1      -5.869  -0.013   0.178  0.00  0.00    +0.000 HD
ENDBRANCH  18  23
TORSDOF 3
