REMARK  Name = 446934
REMARK  4 active torsions:
REMARK  status: ('A' for Active; 'I' for Inactive)
REMARK    1  A    between atoms: O_1  and  C_13
REMARK    2  A    between atoms: O_2  and  C_21
REMARK    3  A    between atoms: C_6  and  C_18
REMARK    4  A    between atoms: C_7  and  C_19
REMARK                            x       y       z     vdW  Elec       q    Type
REMARK                         _______ _______ _______ _____ _____    ______ ____
ROOT
ATOM      1  C   UNL     1       0.118  -0.475  -0.204  0.00  0.00    +0.000 C 
ATOM      2  C   UNL     1      -0.703   0.762   0.287  0.00  0.00    +0.000 C 
ATOM      3  C   UNL     1      -2.141   0.633  -0.231  0.00  0.00    +0.000 C 
ATOM      4  C   UNL     1       1.626  -0.394   0.241  0.00  0.00    +0.000 C 
ATOM      5  C   UNL     1      -2.842  -0.646   0.271  0.00  0.00    +0.000 C 
ATOM      6  C   UNL     1       2.199   0.958  -0.296  0.00  0.00    +0.000 C 
ATOM      7  C   UNL     1      -0.583  -1.813   0.146  0.00  0.00    +0.000 C 
ATOM      8  C   UNL     1      -2.064  -1.853  -0.274  0.00  0.00    +0.000 C 
ATOM      9  C   UNL     1      -0.057   2.078  -0.170  0.00  0.00    +0.000 C 
ATOM     10  C   UNL     1      -3.139   1.741   0.092  0.00  0.00    +0.000 C 
ATOM     11  C   UNL     1      -4.260  -0.427  -0.299  0.00  0.00    +0.000 C 
ATOM     12  C   UNL     1       1.416   2.171   0.220  0.00  0.00    +0.000 C 
ATOM     13  C   UNL     1       2.450  -1.545  -0.404  0.00  0.00    +0.000 C 
ATOM     14  C   UNL     1      -4.519   1.082  -0.105  0.00  0.00    +0.000 C 
ATOM     15  C   UNL     1       3.703   1.112  -0.040  0.00  0.00    +0.000 C 
ATOM     16  C   UNL     1       1.752  -0.507   1.782  0.00  0.00    +0.000 C 
ATOM     17  C   UNL     1      -2.953  -0.750   1.814  0.00  0.00    +0.000 C 
ATOM     18  C   UNL     1       3.960  -1.404  -0.198  0.00  0.00    +0.000 C 
ATOM     19  C   UNL     1       4.486  -0.048  -0.654  0.00  0.00    +0.000 C 
ENDROOT
BRANCH  11  20
ATOM     20  O   UNL     1      -4.306  -0.729  -1.690  0.00  0.00    +0.000 OA
ATOM     21  H   UNL     1      -4.296  -1.698  -1.779  0.00  0.00    +0.000 HD
ENDBRANCH  11  20
BRANCH  19  22
ATOM     22  O   UNL     1       5.858   0.054  -0.288  0.00  0.00    +0.000 OA
ATOM     23  H   UNL     1       5.915   0.017   0.682  0.00  0.00    +0.000 HD
ENDBRANCH  19  22
TORSDOF 2
