REMARK  Name = 9806190
REMARK  12 active torsions:
REMARK  status: ('A' for Active; 'I' for Inactive)
REMARK    1  A    between atoms: O_1  and  C_9
REMARK    2  A    between atoms: O_1  and  C_27
REMARK    3  A    between atoms: O_3  and  C_24
REMARK    4  A    between atoms: O_3  and  C_35
REMARK    5  A    between atoms: N_6  and  C_34
REMARK    6  A    between atoms: N_6  and  C_36
REMARK    7  A    between atoms: N_6  and  C_37
REMARK    8  A    between atoms: C_7  and  C_16
REMARK    9  A    between atoms: C_9  and  C_19
REMARK   10  A    between atoms: C_14  and  C_21
REMARK   11  A    between atoms: C_19  and  C_24
REMARK   12  A    between atoms: C_27  and  C_33
REMARK                            x       y       z     vdW  Elec       q    Type
REMARK                         _______ _______ _______ _____ _____    ______ ____
ROOT
ATOM      1  O   UNL     1      -5.155  -4.549  -1.717  0.00  0.00    +0.000 OA
ATOM      2  C   UNL     1       1.501  -0.187   0.553  0.00  0.00    +0.000 C 
ATOM      3  C   UNL     1       0.944  -1.521   1.095  0.00  0.00    +0.000 C 
ATOM      4  C   UNL     1       3.013  -0.545   0.488  0.00  0.00    +0.000 C 
ATOM      5  C   UNL     1      -0.561  -1.482   1.380  0.00  0.00    +0.000 C 
ATOM      6  C   UNL     1       0.801   0.072  -0.791  0.00  0.00    +0.000 C 
ATOM      7  C   UNL     1       1.886  -1.855   2.250  0.00  0.00    +0.000 C 
ATOM      8  C   UNL     1       3.266  -1.358   1.777  0.00  0.00    +0.000 C 
ATOM      9  C   UNL     1      -0.758   0.064  -0.725  0.00  0.00    +0.000 C 
ATOM     10  C   UNL     1      -1.337  -1.104   0.101  0.00  0.00    +0.000 C 
ATOM     11  C   UNL     1       1.295   1.012   1.514  0.00  0.00    +0.000 C 
ATOM     12  C   UNL     1      -1.016  -2.816   2.001  0.00  0.00    +0.000 C 
ATOM     13  C   UNL     1      -2.475  -1.762  -0.251  0.00  0.00    +0.000 C 
ATOM     14  C   UNL     1      -2.532  -2.923   1.993  0.00  0.00    +0.000 C 
ATOM     15  C   UNL     1      -3.026  -2.844   0.575  0.00  0.00    +0.000 C 
ATOM     16  C   UNL     1      -3.349  -1.433  -1.445  0.00  0.00    +0.000 C 
ATOM     17  C   UNL     1      -3.917  -3.737   0.112  0.00  0.00    +0.000 C 
ATOM     18  C   UNL     1      -3.727  -2.688  -2.221  0.00  0.00    +0.000 C 
ATOM     19  C   UNL     1      -4.353  -3.713  -1.306  0.00  0.00    +0.000 C 
ENDROOT
BRANCH   9  20
ATOM     20  C   UNL     1      -1.367   1.436  -0.426  0.00  0.00    +0.000 A 
ATOM     21  C   UNL     1      -2.321   1.565   0.579  0.00  0.00    +0.000 A 
ATOM     22  C   UNL     1      -0.963   2.546  -1.162  0.00  0.00    +0.000 A 
ATOM     23  C   UNL     1      -2.876   2.816   0.851  0.00  0.00    +0.000 A 
ATOM     24  C   UNL     1      -1.518   3.797  -0.889  0.00  0.00    +0.000 A 
ATOM     25  C   UNL     1      -2.474   3.932   0.117  0.00  0.00    +0.000 A 
BRANCH  25  26
ATOM     26  N   UNL     1      -3.036   5.196   0.392  0.00  0.00    +0.000 N 
ATOM     27  C   UNL     1      -3.173   6.183  -0.661  0.00  0.00    +0.000 C 
ATOM     28  C   UNL     1      -3.495   5.520   1.728  0.00  0.00    +0.000 C 
ENDBRANCH  25  26
ENDBRANCH   9  20
BRANCH   4  30
ATOM     29  O   UNL     1       4.795   0.854   1.229  0.00  0.00    +0.000 OA
ATOM     30  C   UNL     1       3.947   0.622   0.368  0.00  0.00    +0.000 C 
BRANCH  30  31
ATOM     31  C   UNL     1       3.784   1.488  -0.864  0.00  0.00    +0.000 C 
BRANCH  31  32
ATOM     32  O   UNL     1       5.021   2.053  -1.243  0.00  0.00    +0.000 OA
ATOM     33  C   UNL     1       4.897   2.873  -2.401  0.00  0.00    +0.000 C 
ENDBRANCH  31  32
ENDBRANCH  30  31
ENDBRANCH   4  30
BRANCH   4  34
ATOM     34  O   UNL     1       3.337  -1.379  -0.621  0.00  0.00    +0.000 OA
BRANCH  34  36
ATOM     35  O   UNL     1       5.501  -1.598   0.158  0.00  0.00    +0.000 OA
ATOM     36  C   UNL     1       4.624  -1.837  -0.661  0.00  0.00    +0.000 C 
ATOM     37  C   UNL     1       4.818  -2.696  -1.874  0.00  0.00    +0.000 C 
ENDBRANCH  34  36
ENDBRANCH   4  34
TORSDOF 7
