REMARK  Name = 447715
REMARK  12 active torsions:
REMARK  status: ('A' for Active; 'I' for Inactive)
REMARK    1  A    between atoms: O_1  and  C_12
REMARK    2  A    between atoms: O_2  and  C_24
REMARK    3  A    between atoms: O_3  and  C_30
REMARK    4  A    between atoms: C_8  and  C_20
REMARK    5  A    between atoms: C_9  and  C_21
REMARK    6  A    between atoms: C_11  and  C_22
REMARK    7  A    between atoms: C_15  and  C_25
REMARK    8  A    between atoms: C_22  and  C_26
REMARK    9  A    between atoms: C_22  and  C_27
REMARK   10  A    between atoms: C_25  and  C_28
REMARK   11  A    between atoms: C_26  and  C_29
REMARK   12  A    between atoms: C_29  and  C_30
REMARK                            x       y       z     vdW  Elec       q    Type
REMARK                         _______ _______ _______ _____ _____    ______ ____
ROOT
ATOM      1  C   UNL     1      -0.897  -0.609   0.735  0.00  0.00    +0.000 C 
ATOM      2  C   UNL     1      -1.452   0.762   0.243  0.00  0.00    +0.000 C 
ATOM      3  C   UNL     1       0.593  -0.689   0.366  0.00  0.00    +0.000 C 
ATOM      4  C   UNL     1       1.439   0.433   1.005  0.00  0.00    +0.000 C 
ATOM      5  C   UNL     1      -2.991   0.949   0.538  0.00  0.00    +0.000 C 
ATOM      6  C   UNL     1      -3.822  -0.306   0.066  0.00  0.00    +0.000 C 
ATOM      7  C   UNL     1       2.837   0.016   0.488  0.00  0.00    +0.000 C 
ATOM      8  C   UNL     1      -1.700  -1.781   0.142  0.00  0.00    +0.000 C 
ATOM      9  C   UNL     1      -0.578   1.952   0.735  0.00  0.00    +0.000 C 
ATOM     10  C   UNL     1       0.924   1.771   0.457  0.00  0.00    +0.000 C 
ATOM     11  C   UNL     1      -3.187  -1.653   0.506  0.00  0.00    +0.000 C 
ATOM     12  C   UNL     1       1.370  -1.959   0.704  0.00  0.00    +0.000 C 
ATOM     13  C   UNL     1       2.846  -1.521   0.656  0.00  0.00    +0.000 C 
ATOM     14  C   UNL     1      -3.481   2.236  -0.210  0.00  0.00    +0.000 C 
ATOM     15  C   UNL     1      -4.148  -0.188  -1.433  0.00  0.00    +0.000 C 
ATOM     16  C   UNL     1       1.401   0.451   2.554  0.00  0.00    +0.000 C 
ATOM     17  C   UNL     1      -3.253   1.150   2.052  0.00  0.00    +0.000 C 
ATOM     18  C   UNL     1      -4.925   2.138  -0.693  0.00  0.00    +0.000 C 
ATOM     19  C   UNL     1      -5.086   0.998  -1.703  0.00  0.00    +0.000 C 
ENDROOT
BRANCH   8  20
ATOM     20  O   UNL     1      -1.515  -1.834  -1.268  0.00  0.00    +0.000 OA
ATOM     21  H   UNL     1      -1.883  -2.675  -1.586  0.00  0.00    +0.000 HD
ENDBRANCH   8  20
BRANCH  19  22
ATOM     22  O   UNL     1      -4.823   1.472  -3.022  0.00  0.00    +0.000 OA
ATOM     23  H   UNL     1      -5.456   2.186  -3.209  0.00  0.00    +0.000 HD
ENDBRANCH  19  22
BRANCH   7  24
ATOM     24  C   UNL     1       4.035   0.690   1.141  0.00  0.00    +0.000 C 
ATOM     25  C   UNL     1       3.932   2.211   0.985  0.00  0.00    +0.000 C 
BRANCH  24  26
ATOM     26  C   UNL     1       5.346   0.136   0.547  0.00  0.00    +0.000 C 
BRANCH  26  27
ATOM     27  C   UNL     1       5.449   0.290  -0.972  0.00  0.00    +0.000 C 
BRANCH  27  29
ATOM     28  O   UNL     1       7.564  -0.912  -0.855  0.00  0.00    +0.000 OA
ATOM     29  C   UNL     1       6.713  -0.335  -1.517  0.00  0.00    +0.000 C 
BRANCH  29  30
ATOM     30  O   UNL     1       6.806  -0.172  -2.863  0.00  0.00    +0.000 OA
ATOM     31  H   UNL     1       7.626  -0.572  -3.224  0.00  0.00    +0.000 HD
ENDBRANCH  29  30
ENDBRANCH  27  29
ENDBRANCH  26  27
ENDBRANCH  24  26
ENDBRANCH   7  24
BRANCH  11  32
ATOM     32  C   UNL     1      -3.993  -2.871   0.040  0.00  0.00    +0.000 C 
ATOM     33  C   UNL     1      -5.408  -2.827   0.575  0.00  0.00    +0.000 C 
ENDBRANCH  11  32
TORSDOF 8
