REMARK  Name = 6918405
REMARK  15 active torsions:
REMARK  status: ('A' for Active; 'I' for Inactive)
REMARK    1  A    between atoms: O_1  and  C_13
REMARK    2  A    between atoms: O_1  and  C_26
REMARK    3  A    between atoms: O_2  and  C_23
REMARK    4  A    between atoms: O_2  and  C_27
REMARK    5  A    between atoms: O_3  and  C_24
REMARK    6  A    between atoms: O_3  and  C_28
REMARK    7  A    between atoms: O_4  and  C_25
REMARK    8  A    between atoms: O_4  and  C_29
REMARK    9  A    between atoms: O_5  and  C_20
REMARK   10  A    between atoms: N_7  and  C_9
REMARK   11  A    between atoms: N_8  and  CA_11
REMARK   12  A    between atoms: C_10  and  C_17
REMARK   13  A    between atoms: CA_11  and  C_15
REMARK   14  A    between atoms: CA_11  and  C_20
REMARK   15  A    between atoms: C_14  and  C_19
REMARK                            x       y       z     vdW  Elec       q    Type
REMARK                         _______ _______ _______ _____ _____    ______ ____
ROOT
ATOM      1  C   UNL     1      -2.255   0.829  -0.286  0.00  0.00    +0.000 A 
ATOM      2  C   UNL     1      -0.761   2.429  -1.310  0.00  0.00    +0.000 A 
ATOM      3  C   UNL     1      -1.219   1.118  -1.174  0.00  0.00    +0.000 A 
ATOM      4  C   UNL     1      -2.834   1.851   0.466  0.00  0.00    +0.000 A 
ATOM      5  C   UNL     1      -1.340   3.451  -0.557  0.00  0.00    +0.000 A 
ATOM      6  C   UNL     1      -2.376   3.162   0.331  0.00  0.00    +0.000 A 
ENDROOT
BRANCH   1   8
ATOM      7  O   UNL     1      -1.316  -1.674  -1.642  0.00  0.00    +0.000 OA
ATOM      8  N   UNL     1      -2.709  -0.505  -0.159  0.00  0.00    +0.000 N 
ATOM      9  C   UNL     1      -2.236  -1.631  -0.830  0.00  0.00    +0.000 C 
ATOM     10  H   UNL     1      -3.470  -0.636   0.504  0.00  0.00    +0.000 HD
BRANCH   9  11
ATOM     11  CA  UNL     1      -2.998  -2.889  -0.407  0.00  0.00    +0.000 C 
BRANCH  11  12
ATOM     12  N   UNL     1      -3.014  -3.796  -1.552  0.00  0.00    +0.000 NA
ATOM     13  H1  UNL     1      -3.514  -4.650  -1.306  0.00  0.00    +0.000 HD
ATOM     14  H2  UNL     1      -3.539  -3.372  -2.317  0.00  0.00    +0.000 HD
ENDBRANCH  11  12
BRANCH  11  15
ATOM     15  C   UNL     1      -2.303  -3.551   0.782  0.00  0.00    +0.000 C 
BRANCH  15  16
ATOM     16  O   UNL     1      -2.664  -2.897   1.994  0.00  0.00    +0.000 OA
ATOM     17  H   UNL     1      -2.197  -3.353   2.715  0.00  0.00    +0.000 HD
ENDBRANCH  15  16
ENDBRANCH  11  15
ENDBRANCH   9  11
ENDBRANCH   1   8
BRANCH   4  18
ATOM     18  O   UNL     1      -3.847   1.591   1.340  0.00  0.00    +0.000 OA
ATOM     19  C   UNL     1      -3.481   1.267   2.679  0.00  0.00    +0.000 C 
ENDBRANCH   4  18
BRANCH   2  20
ATOM     20  C   UNL     1       0.319   2.730  -2.236  0.00  0.00    +0.000 C 
ATOM     21  C   UNL     1       1.567   2.207  -2.177  0.00  0.00    +0.000 C 
BRANCH  21  22
ATOM     22  C   UNL     1       2.037   1.245  -1.165  0.00  0.00    +0.000 A 
ATOM     23  C   UNL     1       2.018   1.589   0.187  0.00  0.00    +0.000 A 
ATOM     24  C   UNL     1       2.501  -0.010  -1.558  0.00  0.00    +0.000 A 
ATOM     25  C   UNL     1       2.946  -0.921  -0.600  0.00  0.00    +0.000 A 
ATOM     26  C   UNL     1       2.463   0.678   1.145  0.00  0.00    +0.000 A 
ATOM     27  C   UNL     1       2.927  -0.577   0.752  0.00  0.00    +0.000 A 
BRANCH  25  28
ATOM     28  O   UNL     1       3.397  -2.144  -0.997  0.00  0.00    +0.000 OA
ATOM     29  C   UNL     1       3.383  -2.416  -2.397  0.00  0.00    +0.000 C 
ENDBRANCH  25  28
BRANCH  26  30
ATOM     30  O   UNL     1       2.439   1.027   2.462  0.00  0.00    +0.000 OA
ATOM     31  C   UNL     1       3.605   1.660   2.986  0.00  0.00    +0.000 C 
ENDBRANCH  26  30
BRANCH  27  32
ATOM     32  O   UNL     1       3.362  -1.467   1.688  0.00  0.00    +0.000 OA
ATOM     33  C   UNL     1       2.390  -2.357   2.235  0.00  0.00    +0.000 C 
ENDBRANCH  27  32
ENDBRANCH  21  22
ENDBRANCH   2  20
TORSDOF 11
