REMARK  Name = 5952
REMARK  7 active torsions:
REMARK  status: ('A' for Active; 'I' for Inactive)
REMARK    1  A    between atoms: O_2  and  C_25
REMARK    2  A    between atoms: O_2  and  C_26
REMARK    3  A    between atoms: C_6  and  C_16
REMARK    4  A    between atoms: C_9  and  C_20
REMARK    5  A    between atoms: C_10  and  C_21
REMARK    6  A    between atoms: C_21  and  C_25
REMARK    7  A    between atoms: C_26  and  C_27
REMARK                            x       y       z     vdW  Elec       q    Type
REMARK                         _______ _______ _______ _____ _____    ______ ____
ROOT
ATOM      1  O   UNL     1      -6.905  -1.545   1.015  0.00  0.00    +0.000 OA
ATOM      2  C   UNL     1       0.079   1.506   0.465  0.00  0.00    +0.000 C 
ATOM      3  C   UNL     1       1.186   0.630  -0.159  0.00  0.00    +0.000 C 
ATOM      4  C   UNL     1      -1.299   1.259  -0.157  0.00  0.00    +0.000 C 
ATOM      5  C   UNL     1      -1.684  -0.240   0.051  0.00  0.00    +0.000 C 
ATOM      6  C   UNL     1      -3.112  -0.591  -0.520  0.00  0.00    +0.000 C 
ATOM      7  C   UNL     1       2.402   1.163   0.632  0.00  0.00    +0.000 C 
ATOM      8  C   UNL     1       0.833  -0.837   0.117  0.00  0.00    +0.000 C 
ATOM      9  C   UNL     1      -0.560  -1.198  -0.430  0.00  0.00    +0.000 C 
ATOM     10  C   UNL     1       0.672   2.910   0.420  0.00  0.00    +0.000 C 
ATOM     11  C   UNL     1       2.167   2.686   0.709  0.00  0.00    +0.000 C 
ATOM     12  C   UNL     1      -2.367   2.167   0.466  0.00  0.00    +0.000 C 
ATOM     13  C   UNL     1       1.375   0.847  -1.683  0.00  0.00    +0.000 C 
ATOM     14  C   UNL     1      -4.132   0.440  -0.018  0.00  0.00    +0.000 C 
ATOM     15  C   UNL     1      -3.740   1.894  -0.133  0.00  0.00    +0.000 C 
ATOM     16  C   UNL     1      -3.502  -2.012  -0.021  0.00  0.00    +0.000 C 
ATOM     17  C   UNL     1      -3.135  -0.579  -2.065  0.00  0.00    +0.000 C 
ATOM     18  C   UNL     1      -4.982  -2.328  -0.176  0.00  0.00    +0.000 C 
ATOM     19  C   UNL     1      -5.336   0.121   0.486  0.00  0.00    +0.000 C 
ATOM     20  C   UNL     1      -5.817  -1.279   0.509  0.00  0.00    +0.000 C 
ENDROOT
BRANCH   7  22
ATOM     21  O   UNL     1       4.253   1.541  -0.817  0.00  0.00    +0.000 OA
ATOM     22  C   UNL     1       3.729   0.820   0.032  0.00  0.00    +0.000 C 
BRANCH  22  23
ATOM     23  C   UNL     1       4.380  -0.455   0.526  0.00  0.00    +0.000 C 
BRANCH  23  24
ATOM     24  O   UNL     1       5.626  -0.656  -0.105  0.00  0.00    +0.000 OA
BRANCH  24  26
ATOM     25  O   UNL     1       5.942  -2.614   1.079  0.00  0.00    +0.000 OA
ATOM     26  C   UNL     1       6.316  -1.784   0.262  0.00  0.00    +0.000 C 
ATOM     27  C   UNL     1       7.612  -1.866  -0.486  0.00  0.00    +0.000 C 
ENDBRANCH  24  26
ENDBRANCH  23  24
ENDBRANCH  22  23
ENDBRANCH   7  22
TORSDOF 4
