REMARK  Name = 59084697
REMARK  10 active torsions:
REMARK  status: ('A' for Active; 'I' for Inactive)
REMARK    1  A    between atoms: O_1  and  C_10
REMARK    2  A    between atoms: O_3  and  C_19
REMARK    3  A    between atoms: O_3  and  C_21
REMARK    4  A    between atoms: C_4  and  C_5
REMARK    5  A    between atoms: C_4  and  C_6
REMARK    6  A    between atoms: C_4  and  C_7
REMARK    7  A    between atoms: C_5  and  C_8
REMARK    8  A    between atoms: C_5  and  C_9
REMARK    9  A    between atoms: C_5  and  C_10
REMARK   10  A    between atoms: C_6  and  C_12
REMARK                            x       y       z     vdW  Elec       q    Type
REMARK                         _______ _______ _______ _____ _____    ______ ____
ROOT
ATOM      1  C   UNL     1      -0.722   0.446   0.153  0.00  0.00    +0.000 A 
ATOM      2  C   UNL     1       0.195  -0.453   0.700  0.00  0.00    +0.000 A 
ATOM      3  C   UNL     1      -0.282   1.473  -0.676  0.00  0.00    +0.000 A 
ATOM      4  C   UNL     1       1.567  -0.334   0.423  0.00  0.00    +0.000 A 
ATOM      5  C   UNL     1       2.014   0.710  -0.421  0.00  0.00    +0.000 A 
ATOM      6  C   UNL     1       1.077   1.605  -0.963  0.00  0.00    +0.000 A 
ATOM      7  C   UNL     1       2.503  -1.229   0.964  0.00  0.00    +0.000 A 
ATOM      8  C   UNL     1       3.386   0.829  -0.698  0.00  0.00    +0.000 A 
ATOM      9  C   UNL     1       4.303  -0.069  -0.151  0.00  0.00    +0.000 A 
ATOM     10  C   UNL     1       3.862  -1.097   0.678  0.00  0.00    +0.000 A 
ENDROOT
BRANCH   9  11
ATOM     11  O   UNL     1       5.629   0.059  -0.430  0.00  0.00    +0.000 OA
ATOM     12  C   UNL     1       6.512  -0.894   0.162  0.00  0.00    +0.000 C 
ENDBRANCH   9  11
BRANCH   1  13
ATOM     13  C   UNL     1      -2.211   0.303   0.467  0.00  0.00    +0.000 C 
BRANCH  13  14
ATOM     14  C   UNL     1      -2.971  -0.685  -0.501  0.00  0.00    +0.000 C 
ATOM     15  C   UNL     1      -2.986  -0.212  -1.968  0.00  0.00    +0.000 C 
ATOM     16  C   UNL     1      -2.357  -2.103  -0.476  0.00  0.00    +0.000 C 
BRANCH  14  18
ATOM     17  O   UNL     1      -5.416  -0.508  -0.687  0.00  0.00    +0.000 OA
ATOM     18  C   UNL     1      -4.430  -0.816  -0.032  0.00  0.00    +0.000 C 
BRANCH  18  19
ATOM     19  O   UNL     1      -4.513  -1.305   1.233  0.00  0.00    +0.000 OA
ATOM     20  H   UNL     1      -5.443  -1.379   1.536  0.00  0.00    +0.000 HD
ENDBRANCH  18  19
ENDBRANCH  14  18
ENDBRANCH  13  14
BRANCH  13  21
ATOM     21  C   UNL     1      -2.915   1.681   0.602  0.00  0.00    +0.000 C 
ATOM     22  C   UNL     1      -2.245   2.597   1.623  0.00  0.00    +0.000 C 
ENDBRANCH  13  21
ENDBRANCH   1  13
TORSDOF 6
