REMARK  Name = 656958
REMARK  17 active torsions:
REMARK  status: ('A' for Active; 'I' for Inactive)
REMARK    1  A    between atoms: S_1  and  C_28
REMARK    2  A    between atoms: S_1  and  C_29
REMARK    3  A    between atoms: O_2  and  C_14
REMARK    4  A    between atoms: O_2  and  C_26
REMARK    5  A    between atoms: O_3  and  C_17
REMARK    6  A    between atoms: N_6  and  C_30
REMARK    7  A    between atoms: N_6  and  C_31
REMARK    8  A    between atoms: N_6  and  C_32
REMARK    9  A    between atoms: C_9  and  C_21
REMARK   10  A    between atoms: C_10  and  C_22
REMARK   11  A    between atoms: C_11  and  C_23
REMARK   12  A    between atoms: C_19  and  C_24
REMARK   13  A    between atoms: C_19  and  C_25
REMARK   14  A    between atoms: C_26  and  C_28
REMARK   15  A    between atoms: C_29  and  C_30
REMARK   16  A    between atoms: C_31  and  C_33
REMARK   17  A    between atoms: C_32  and  C_34
REMARK                            x       y       z     vdW  Elec       q    Type
REMARK                         _______ _______ _______ _____ _____    ______ ____
ROOT
ATOM      1  O   UNL     1      -4.176   2.928  -1.951  0.00  0.00    +0.000 OA
ATOM      2  C   UNL     1      -4.265   0.126   0.236  0.00  0.00    +0.000 C 
ATOM      3  C   UNL     1      -3.386   0.906  -0.789  0.00  0.00    +0.000 C 
ATOM      4  C   UNL     1      -2.052   1.499  -0.231  0.00  0.00    +0.000 C 
ATOM      5  C   UNL     1      -3.740  -1.317   0.623  0.00  0.00    +0.000 C 
ATOM      6  C   UNL     1      -2.389   2.378   1.029  0.00  0.00    +0.000 C 
ATOM      7  C   UNL     1      -4.471   1.001   1.514  0.00  0.00    +0.000 C 
ATOM      8  C   UNL     1      -5.620   0.028  -0.520  0.00  0.00    +0.000 C 
ATOM      9  C   UNL     1      -1.042   0.339   0.135  0.00  0.00    +0.000 C 
ATOM     10  C   UNL     1      -3.188   1.593   2.085  0.00  0.00    +0.000 C 
ATOM     11  C   UNL     1      -4.422   1.880  -1.368  0.00  0.00    +0.000 C 
ATOM     12  C   UNL     1      -3.103  -2.119  -0.571  0.00  0.00    +0.000 C 
ATOM     13  C   UNL     1      -5.830   1.373  -1.202  0.00  0.00    +0.000 C 
ATOM     14  C   UNL     1      -1.531  -2.149  -0.634  0.00  0.00    +0.000 C 
ATOM     15  C   UNL     1      -0.875  -0.765  -0.933  0.00  0.00    +0.000 C 
ATOM     16  C   UNL     1      -1.389   2.395  -1.317  0.00  0.00    +0.000 C 
ATOM     17  C   UNL     1      -4.833  -2.149   1.338  0.00  0.00    +0.000 C 
ATOM     18  C   UNL     1      -1.192   3.050   1.713  0.00  0.00    +0.000 C 
ATOM     19  C   UNL     1      -1.085  -3.096  -1.779  0.00  0.00    +0.000 C 
ENDROOT
BRANCH  12  20
ATOM     20  O   UNL     1      -3.577  -3.477  -0.531  0.00  0.00    +0.000 OA
ATOM     21  H   UNL     1      -3.522  -3.839  -1.432  0.00  0.00    +0.000 HD
ENDBRANCH  12  20
BRANCH  14  22
ATOM     22  C   UNL     1      -0.947  -2.728   0.637  0.00  0.00    +0.000 C 
ATOM     23  C   UNL     1       0.133  -3.517   0.673  0.00  0.00    +0.000 C 
ENDBRANCH  14  22
BRANCH   9  24
ATOM     24  O   UNL     1       0.264   0.895   0.364  0.00  0.00    +0.000 OA
BRANCH  24  26
ATOM     25  O   UNL     1       1.030  -1.032   1.370  0.00  0.00    +0.000 OA
ATOM     26  C   UNL     1       1.224  -0.002   0.738  0.00  0.00    +0.000 C 
BRANCH  26  27
ATOM     27  C   UNL     1       2.554   0.501   0.237  0.00  0.00    +0.000 C 
BRANCH  27  28
ATOM     28  S   UNL     1       3.897  -0.623   0.689  0.00  0.00    +0.000 S 
BRANCH  28  29
ATOM     29  C   UNL     1       5.271   0.285  -0.056  0.00  0.00    +0.000 C 
BRANCH  29  30
ATOM     30  C   UNL     1       6.588  -0.435   0.209  0.00  0.00    +0.000 C 
BRANCH  30  31
ATOM     31  N   UNL     1       7.689   0.307  -0.396  0.00  0.00    +0.000 NA
BRANCH  31  32
ATOM     32  C   UNL     1       8.958  -0.390  -0.182  0.00  0.00    +0.000 C 
ATOM     33  C   UNL     1       8.883  -1.795  -0.749  0.00  0.00    +0.000 C 
ENDBRANCH  31  32
BRANCH  31  34
ATOM     34  C   UNL     1       7.756   1.664   0.149  0.00  0.00    +0.000 C 
ATOM     35  C   UNL     1       8.862   2.447  -0.532  0.00  0.00    +0.000 C 
ENDBRANCH  31  34
ENDBRANCH  30  31
ENDBRANCH  29  30
ENDBRANCH  28  29
ENDBRANCH  27  28
ENDBRANCH  26  27
ENDBRANCH  24  26
ENDBRANCH   9  24
TORSDOF 11
