REMARK  Name = 64929
REMARK  8 active torsions:
REMARK  status: ('A' for Active; 'I' for Inactive)
REMARK    1  A    between atoms: O_2  and  C_6
REMARK    2  A    between atoms: O_2  and  C_9
REMARK    3  A    between atoms: O_3  and  C_10
REMARK    4  A    between atoms: C_6  and  C_7
REMARK    5  A    between atoms: C_6  and  C_8
REMARK    6  A    between atoms: C_6  and  C_10
REMARK    7  A    between atoms: C_11  and  C_16
REMARK    8  A    between atoms: C_16  and  C_17
REMARK                            x       y       z     vdW  Elec       q    Type
REMARK                         _______ _______ _______ _____ _____    ______ ____
ROOT
ATOM      1  C   UNL     1       1.978   0.365  -0.545  0.00  0.00    +0.000 A 
ATOM      2  C   UNL     1      -0.657   1.114  -0.056  0.00  0.00    +0.000 A 
ATOM      3  C   UNL     1       0.963  -0.583  -0.633  0.00  0.00    +0.000 A 
ATOM      4  C   UNL     1       1.685   1.684  -0.213  0.00  0.00    +0.000 A 
ATOM      5  C   UNL     1      -0.358  -0.207  -0.388  0.00  0.00    +0.000 A 
ATOM      6  C   UNL     1       0.365   2.060   0.032  0.00  0.00    +0.000 A 
ENDROOT
BRANCH   2   8
ATOM      7  O   UNL     1      -2.307   2.679   0.495  0.00  0.00    +0.000 OA
ATOM      8  C   UNL     1      -2.035   1.506   0.199  0.00  0.00    +0.000 C 
BRANCH   8  10
ATOM      9 CL   UNL     1      -6.566  -2.360  -0.121  0.00  0.00    +0.000 Cl
ATOM     10  C   UNL     1      -3.170   0.537   0.119  0.00  0.00    +0.000 A 
ATOM     11  C   UNL     1      -3.528  -0.151   1.254  0.00  0.00    +0.000 A 
ATOM     12  C   UNL     1      -3.811   0.374  -1.087  0.00  0.00    +0.000 A 
ATOM     13  C   UNL     1      -4.587  -1.056   1.179  0.00  0.00    +0.000 A 
ATOM     14  C   UNL     1      -4.870  -0.530  -1.162  0.00  0.00    +0.000 A 
ATOM     15  C   UNL     1      -5.259  -1.245  -0.029  0.00  0.00    +0.000 A 
ENDBRANCH   8  10
ENDBRANCH   2   8
BRANCH   1  16
ATOM     16  O   UNL     1       3.273  -0.003  -0.787  0.00  0.00    +0.000 OA
BRANCH  16  17
ATOM     17  C   UNL     1       4.029  -0.454   0.338  0.00  0.00    +0.000 C 
ATOM     18  C   UNL     1       3.341  -1.691   0.905  0.00  0.00    +0.000 C 
ATOM     19  C   UNL     1       4.099   0.687   1.348  0.00  0.00    +0.000 C 
BRANCH  17  21
ATOM     20  O   UNL     1       5.755  -0.628  -1.372  0.00  0.00    +0.000 OA
ATOM     21  C   UNL     1       5.411  -0.792  -0.208  0.00  0.00    +0.000 C 
BRANCH  21  22
ATOM     22  O   UNL     1       6.249  -1.305   0.730  0.00  0.00    +0.000 OA
ATOM     23  H   UNL     1       7.131  -1.515   0.356  0.00  0.00    +0.000 HD
ENDBRANCH  21  22
ENDBRANCH  17  21
ENDBRANCH  16  17
ENDBRANCH   1  16
TORSDOF 6
