REMARK  Name = 9904
REMARK  2 active torsions:
REMARK  status: ('A' for Active; 'I' for Inactive)
REMARK    1  A    between atoms: O_1  and  C_8
REMARK    2  A    between atoms: C_4  and  C_14
REMARK                            x       y       z     vdW  Elec       q    Type
REMARK                         _______ _______ _______ _____ _____    ______ ____
ROOT
ATOM      1  O   UNL     1       5.315  -0.239  -1.215  0.00  0.00    +0.000 OA
ATOM      2  C   UNL     1      -1.791   0.683  -0.369  0.00  0.00    +0.000 C 
ATOM      3  C   UNL     1      -2.592  -0.568   0.044  0.00  0.00    +0.000 C 
ATOM      4  C   UNL     1      -0.478   0.816   0.404  0.00  0.00    +0.000 C 
ATOM      5  C   UNL     1       0.403  -0.448   0.113  0.00  0.00    +0.000 C 
ATOM      6  C   UNL     1      -1.754  -1.808  -0.293  0.00  0.00    +0.000 C 
ATOM      7  C   UNL     1      -3.837  -0.369  -0.842  0.00  0.00    +0.000 C 
ATOM      8  C   UNL     1      -2.820   1.807  -0.292  0.00  0.00    +0.000 C 
ATOM      9  C   UNL     1      -0.369  -1.761   0.380  0.00  0.00    +0.000 C 
ATOM     10  C   UNL     1       1.728  -0.335   0.913  0.00  0.00    +0.000 C 
ATOM     11  C   UNL     1       0.274   2.115   0.054  0.00  0.00    +0.000 C 
ATOM     12  C   UNL     1      -4.133   1.140  -0.738  0.00  0.00    +0.000 C 
ATOM     13  C   UNL     1      -2.998  -0.614   1.539  0.00  0.00    +0.000 C 
ATOM     14  C   UNL     1       1.633   2.195   0.756  0.00  0.00    +0.000 C 
ATOM     15  C   UNL     1       2.418   0.944   0.469  0.00  0.00    +0.000 C 
ATOM     16  C   UNL     1       2.678  -1.539   0.828  0.00  0.00    +0.000 C 
ATOM     17  C   UNL     1       3.464  -1.571  -0.471  0.00  0.00    +0.000 C 
ATOM     18  C   UNL     1       3.578   0.981  -0.204  0.00  0.00    +0.000 C 
ATOM     19  C   UNL     1       4.225  -0.278  -0.649  0.00  0.00    +0.000 C 
ENDROOT
BRANCH   7  20
ATOM     20  O   UNL     1      -4.941  -1.150  -0.429  0.00  0.00    +0.000 OA
ATOM     21  H   UNL     1      -4.675  -2.084  -0.481  0.00  0.00    +0.000 HD
ENDBRANCH   7  20
TORSDOF 1
