REMARK  Name = 36709
REMARK  5 active torsions:
REMARK  status: ('A' for Active; 'I' for Inactive)
REMARK    1  A    between atoms: C_3  and  C_12
REMARK    2  A    between atoms: C_5  and  C_14
REMARK    3  A    between atoms: C_5  and  C_15
REMARK    4  A    between atoms: C_15  and  C_19
REMARK    5  A    between atoms: C_19  and  C_23
REMARK                            x       y       z     vdW  Elec       q    Type
REMARK                         _______ _______ _______ _____ _____    ______ ____
ROOT
ATOM      1  O   UNL     1      -6.277  -0.846   1.150  0.00  0.00    +0.000 OA
ATOM      2  C   UNL     1       1.766   0.024  -0.310  0.00  0.00    +0.000 C 
ATOM      3  C   UNL     1       0.737   1.054   0.215  0.00  0.00    +0.000 C 
ATOM      4  C   UNL     1       2.942   0.253   0.696  0.00  0.00    +0.000 C 
ATOM      5  C   UNL     1      -0.537   1.153  -0.639  0.00  0.00    +0.000 C 
ATOM      6  C   UNL     1       1.570   2.314   0.417  0.00  0.00    +0.000 C 
ATOM      7  C   UNL     1       2.938   1.796   0.900  0.00  0.00    +0.000 C 
ATOM      8  C   UNL     1       1.079  -1.353  -0.286  0.00  0.00    +0.000 C 
ATOM      9  C   UNL     1      -1.191  -0.240  -0.734  0.00  0.00    +0.000 C 
ATOM     10  C   UNL     1      -0.225  -1.360  -1.108  0.00  0.00    +0.000 C 
ATOM     11  C   UNL     1       2.235   0.337  -1.763  0.00  0.00    +0.000 C 
ATOM     12  C   UNL     1      -1.473   2.234  -0.069  0.00  0.00    +0.000 C 
ATOM     13  C   UNL     1       2.791  -0.457   2.052  0.00  0.00    +0.000 C 
ATOM     14  C   UNL     1      -2.520  -0.419  -0.530  0.00  0.00    +0.000 C 
ATOM     15  C   UNL     1      -2.878   2.082  -0.629  0.00  0.00    +0.000 C 
ATOM     16  C   UNL     1      -3.411   0.720  -0.270  0.00  0.00    +0.000 C 
ATOM     17  C   UNL     1      -3.252  -1.742  -0.610  0.00  0.00    +0.000 C 
ATOM     18  C   UNL     1      -4.640   0.587   0.256  0.00  0.00    +0.000 C 
ATOM     19  C   UNL     1      -4.218  -1.923   0.556  0.00  0.00    +0.000 C 
ATOM     20  C   UNL     1      -5.150  -0.742   0.671  0.00  0.00    +0.000 C 
ENDROOT
BRANCH   4  22
ATOM     21  O   UNL     1       5.176   0.600  -0.069  0.00  0.00    +0.000 OA
ATOM     22  C   UNL     1       4.273  -0.204   0.154  0.00  0.00    +0.000 C 
BRANCH  22  23
ATOM     23  C   UNL     1       4.417  -1.694  -0.094  0.00  0.00    +0.000 C 
ATOM     24  C   UNL     1       5.850  -2.174   0.046  0.00  0.00    +0.000 C 
ENDBRANCH  22  23
ENDBRANCH   4  22
TORSDOF 2
