REMARK  Name = 289085
REMARK  14 active torsions:
REMARK  status: ('A' for Active; 'I' for Inactive)
REMARK    1  A    between atoms: O_5  and  C_19
REMARK    2  A    between atoms: O_7  and  C_31
REMARK    3  A    between atoms: O_7  and  C_37
REMARK    4  A    between atoms: O_8  and  C_34
REMARK    5  A    between atoms: O_8  and  C_36
REMARK    6  A    between atoms: C_11  and  C_22
REMARK    7  A    between atoms: C_14  and  C_24
REMARK    8  A    between atoms: C_20  and  C_28
REMARK    9  A    between atoms: C_24  and  C_31
REMARK   10  A    between atoms: C_25  and  C_32
REMARK   11  A    between atoms: C_25  and  C_33
REMARK   12  A    between atoms: C_27  and  C_35
REMARK   13  A    between atoms: C_36  and  C_38
REMARK   14  A    between atoms: C_37  and  C_39
REMARK                            x       y       z     vdW  Elec       q    Type
REMARK                         _______ _______ _______ _____ _____    ______ ____
ROOT
ATOM      1  F   UNL     1      -1.030   0.048   1.394  0.00  0.00    +0.000 F 
ATOM      2  O   UNL     1       3.320   0.866   1.058  0.00  0.00    +0.000 OA
ATOM      3  O   UNL     1       3.540   2.955   0.004  0.00  0.00    +0.000 OA
ATOM      4  C   UNL     1       1.835  -0.073  -0.695  0.00  0.00    +0.000 C 
ATOM      5  C   UNL     1       0.852   1.095  -0.473  0.00  0.00    +0.000 C 
ATOM      6  C   UNL     1      -0.610   0.750  -0.799  0.00  0.00    +0.000 C 
ATOM      7  C   UNL     1       3.167   0.642  -0.342  0.00  0.00    +0.000 C 
ATOM      8  C   UNL     1      -1.074  -0.434   0.093  0.00  0.00    +0.000 C 
ATOM      9  C   UNL     1       3.028   2.038  -0.958  0.00  0.00    +0.000 C 
ATOM     10  C   UNL     1       1.519   2.269  -1.192  0.00  0.00    +0.000 C 
ATOM     11  C   UNL     1       1.413  -1.209   0.255  0.00  0.00    +0.000 C 
ATOM     12  C   UNL     1      -0.068  -1.627   0.102  0.00  0.00    +0.000 C 
ATOM     13  C   UNL     1      -2.592  -0.791  -0.180  0.00  0.00    +0.000 C 
ATOM     14  C   UNL     1      -1.499   1.983  -0.569  0.00  0.00    +0.000 C 
ATOM     15  C   UNL     1       1.894  -0.558  -2.168  0.00  0.00    +0.000 C 
ATOM     16  C   UNL     1      -3.476   0.481  -0.084  0.00  0.00    +0.000 C 
ATOM     17  C   UNL     1       3.726   2.228   1.219  0.00  0.00    +0.000 C 
ATOM     18  C   UNL     1      -3.058  -1.817   0.896  0.00  0.00    +0.000 C 
ATOM     19  C   UNL     1      -2.951   1.711  -0.282  0.00  0.00    +0.000 C 
ATOM     20  C   UNL     1      -2.831  -1.392  -1.592  0.00  0.00    +0.000 C 
ATOM     21  C   UNL     1      -4.547  -2.155   0.822  0.00  0.00    +0.000 C 
ATOM     22  C   UNL     1      -4.890   0.246   0.220  0.00  0.00    +0.000 C 
ATOM     23  C   UNL     1       2.881   2.879   2.311  0.00  0.00    +0.000 C 
ATOM     24  C   UNL     1       5.201   2.264   1.601  0.00  0.00    +0.000 C 
ATOM     25  C   UNL     1      -5.388  -0.936   0.609  0.00  0.00    +0.000 C 
ENDROOT
BRANCH  12  26
ATOM     26  O   UNL     1      -0.193  -2.502  -1.007  0.00  0.00    +0.000 OA
ATOM     27  H   UNL     1       0.406  -3.254  -0.866  0.00  0.00    +0.000 HD
ENDBRANCH  12  26
BRANCH   7  29
ATOM     28  O   UNL     1       4.896   0.079  -1.884  0.00  0.00    +0.000 OA
ATOM     29  C   UNL     1       4.395  -0.104  -0.775  0.00  0.00    +0.000 C 
BRANCH  29  30
ATOM     30  C   UNL     1       4.972  -1.084   0.224  0.00  0.00    +0.000 C 
BRANCH  30  31
ATOM     31  O   UNL     1       6.126  -1.707  -0.298  0.00  0.00    +0.000 OA
BRANCH  31  33
ATOM     32  O   UNL     1       6.377  -2.933   1.644  0.00  0.00    +0.000 OA
ATOM     33  C   UNL     1       6.742  -2.621   0.518  0.00  0.00    +0.000 C 
ATOM     34  C   UNL     1       7.945  -3.199  -0.164  0.00  0.00    +0.000 C 
ENDBRANCH  31  33
ENDBRANCH  30  31
ENDBRANCH  29  30
ENDBRANCH   7  29
BRANCH  19  36
ATOM     35  O   UNL     1      -3.251   4.052  -0.371  0.00  0.00    +0.000 OA
ATOM     36  C   UNL     1      -3.747   2.955  -0.189  0.00  0.00    +0.000 C 
ENDBRANCH  19  36
BRANCH  25  37
ATOM     37  O   UNL     1      -6.732  -1.122   0.865  0.00  0.00    +0.000 OA
BRANCH  37  38
ATOM     38  C   UNL     1      -7.414  -1.524  -0.306  0.00  0.00    +0.000 C 
BRANCH  38  40
ATOM     39 CL   UNL     1      -9.582  -0.097   0.511  0.00  0.00    +0.000 Cl
ATOM     40  C   UNL     1      -8.898  -1.657  -0.014  0.00  0.00    +0.000 C 
ENDBRANCH  38  40
ENDBRANCH  37  38
ENDBRANCH  25  37
TORSDOF 9
