REMARK  Name = 441404
REMARK  7 active torsions:
REMARK  status: ('A' for Active; 'I' for Inactive)
REMARK    1  A    between atoms: O_1  and  C_11
REMARK    2  A    between atoms: O_1  and  C_23
REMARK    3  A    between atoms: C_5  and  C_16
REMARK    4  A    between atoms: C_8  and  C_19
REMARK    5  A    between atoms: C_23  and  C_24
REMARK    6  A    between atoms: C_24  and  C_25
REMARK    7  A    between atoms: C_25  and  C_26
REMARK                            x       y       z     vdW  Elec       q    Type
REMARK                         _______ _______ _______ _____ _____    ______ ____
ROOT
ATOM      1  O   UNL     1      -8.017   0.292  -0.158  0.00  0.00    +0.000 OA
ATOM      2  C   UNL     1      -0.433   0.214  -1.068  0.00  0.00    +0.000 C 
ATOM      3  C   UNL     1       0.427   0.587   0.156  0.00  0.00    +0.000 C 
ATOM      4  C   UNL     1      -1.716  -0.529  -0.684  0.00  0.00    +0.000 C 
ATOM      5  C   UNL     1      -2.566   0.387   0.252  0.00  0.00    +0.000 C 
ATOM      6  C   UNL     1      -3.937  -0.271   0.672  0.00  0.00    +0.000 C 
ATOM      7  C   UNL     1      -0.387   1.546   1.033  0.00  0.00    +0.000 C 
ATOM      8  C   UNL     1      -1.734   0.926   1.449  0.00  0.00    +0.000 C 
ATOM      9  C   UNL     1       1.624   1.234  -0.567  0.00  0.00    +0.000 C 
ATOM     10  C   UNL     1       0.563  -0.457  -2.010  0.00  0.00    +0.000 C 
ATOM     11  C   UNL     1      -2.531  -0.916  -1.924  0.00  0.00    +0.000 C 
ATOM     12  C   UNL     1       1.877   0.309  -1.773  0.00  0.00    +0.000 C 
ATOM     13  C   UNL     1      -4.652  -0.805  -0.575  0.00  0.00    +0.000 C 
ATOM     14  C   UNL     1       0.899  -0.619   1.006  0.00  0.00    +0.000 C 
ATOM     15  C   UNL     1      -3.822  -1.624  -1.536  0.00  0.00    +0.000 C 
ATOM     16  C   UNL     1      -4.811   0.817   1.362  0.00  0.00    +0.000 C 
ATOM     17  C   UNL     1      -3.736  -1.449   1.653  0.00  0.00    +0.000 C 
ATOM     18  C   UNL     1      -6.278   0.436   1.481  0.00  0.00    +0.000 C 
ATOM     19  C   UNL     1      -5.955  -0.605  -0.838  0.00  0.00    +0.000 C 
ATOM     20  C   UNL     1      -6.839   0.085   0.129  0.00  0.00    +0.000 C 
ENDROOT
BRANCH   9  21
ATOM     21  O   UNL     1       2.769   1.349   0.255  0.00  0.00    +0.000 OA
BRANCH  21  23
ATOM     22  O   UNL     1       3.973   2.217  -1.511  0.00  0.00    +0.000 OA
ATOM     23  C   UNL     1       3.894   1.861  -0.344  0.00  0.00    +0.000 C 
BRANCH  23  24
ATOM     24  C   UNL     1       5.021   1.917   0.663  0.00  0.00    +0.000 C 
BRANCH  24  25
ATOM     25  C   UNL     1       6.209   1.057   0.239  0.00  0.00    +0.000 C 
BRANCH  25  26
ATOM     26  C   UNL     1       5.822  -0.407   0.122  0.00  0.00    +0.000 C 
ATOM     27  C   UNL     1       6.992  -1.309  -0.259  0.00  0.00    +0.000 C 
ATOM     28  C   UNL     1       5.360  -1.015   1.442  0.00  0.00    +0.000 C 
ATOM     29  C   UNL     1       6.521  -2.709   0.123  0.00  0.00    +0.000 C 
ATOM     30  C   UNL     1       5.462  -2.519   1.210  0.00  0.00    +0.000 C 
ENDBRANCH  25  26
ENDBRANCH  24  25
ENDBRANCH  23  24
ENDBRANCH  21  23
ENDBRANCH   9  21
TORSDOF 5
