REMARK  Name = 13791
REMARK  8 active torsions:
REMARK  status: ('A' for Active; 'I' for Inactive)
REMARK    1  A    between atoms: O_1  and  C_8
REMARK    2  A    between atoms: O_1  and  C_20
REMARK    3  A    between atoms: O_3  and  C_22
REMARK    4  A    between atoms: C_4  and  C_14
REMARK    5  A    between atoms: C_20  and  C_23
REMARK    6  A    between atoms: C_23  and  C_24
REMARK    7  A    between atoms: C_24  and  C_25
REMARK    8  A    between atoms: C_25  and  C_26
REMARK                            x       y       z     vdW  Elec       q    Type
REMARK                         _______ _______ _______ _____ _____    ______ ____
ROOT
ATOM      1  C   UNL     1       0.771   0.107   0.048  0.00  0.00    +0.000 C 
ATOM      2  C   UNL     1      -0.098  -1.112  -0.323  0.00  0.00    +0.000 C 
ATOM      3  C   UNL     1      -1.551  -0.941   0.119  0.00  0.00    +0.000 C 
ATOM      4  C   UNL     1      -2.152   0.298  -0.612  0.00  0.00    +0.000 C 
ATOM      5  C   UNL     1       2.136  -0.398  -0.456  0.00  0.00    +0.000 C 
ATOM      6  C   UNL     1       0.220   1.330  -0.696  0.00  0.00    +0.000 C 
ATOM      7  C   UNL     1       0.710  -2.296   0.201  0.00  0.00    +0.000 C 
ATOM      8  C   UNL     1      -1.273   1.560  -0.395  0.00  0.00    +0.000 C 
ATOM      9  C   UNL     1       2.174  -1.874  -0.015  0.00  0.00    +0.000 C 
ATOM     10  C   UNL     1      -2.409  -2.168  -0.195  0.00  0.00    +0.000 C 
ATOM     11  C   UNL     1       0.839   0.419   1.565  0.00  0.00    +0.000 C 
ATOM     12  C   UNL     1      -3.631   0.474  -0.277  0.00  0.00    +0.000 A 
ATOM     13  C   UNL     1      -3.803  -1.990   0.397  0.00  0.00    +0.000 C 
ATOM     14  C   UNL     1      -4.403  -0.626   0.157  0.00  0.00    +0.000 A 
ATOM     15  C   UNL     1      -4.280   1.705  -0.477  0.00  0.00    +0.000 A 
ATOM     16  C   UNL     1      -5.772  -0.456   0.428  0.00  0.00    +0.000 A 
ATOM     17  C   UNL     1      -5.643   1.857  -0.212  0.00  0.00    +0.000 A 
ATOM     18  C   UNL     1      -6.388   0.778   0.245  0.00  0.00    +0.000 A 
ENDROOT
BRANCH  18  19
ATOM     19  O   UNL     1      -7.715   0.926   0.507  0.00  0.00    +0.000 OA
ATOM     20  H   UNL     1      -7.972   1.846   0.324  0.00  0.00    +0.000 HD
ENDBRANCH  18  19
BRANCH   5  21
ATOM     21  O   UNL     1       3.226   0.335   0.069  0.00  0.00    +0.000 OA
BRANCH  21  23
ATOM     22  O   UNL     1       4.712  -1.056  -1.018  0.00  0.00    +0.000 OA
ATOM     23  C   UNL     1       4.478  -0.101  -0.290  0.00  0.00    +0.000 C 
BRANCH  23  24
ATOM     24  C   UNL     1       5.524   0.785   0.349  0.00  0.00    +0.000 C 
BRANCH  24  25
ATOM     25  C   UNL     1       6.943   0.336   0.004  0.00  0.00    +0.000 C 
BRANCH  25  26
ATOM     26  C   UNL     1       7.986   1.264   0.625  0.00  0.00    +0.000 C 
ATOM     27  C   UNL     1       9.398   0.843   0.252  0.00  0.00    +0.000 C 
ENDBRANCH  25  26
ENDBRANCH  24  25
ENDBRANCH  23  24
ENDBRANCH  21  23
ENDBRANCH   5  21
TORSDOF 6
