REMARK  Name = 92135969
REMARK  13 active torsions:
REMARK  status: ('A' for Active; 'I' for Inactive)
REMARK    1  A    between atoms: O_1  and  C_12
REMARK    2  A    between atoms: O_1  and  C_25
REMARK    3  A    between atoms: O_2  and  C_10
REMARK    4  A    between atoms: O_4  and  C_14
REMARK    5  A    between atoms: N_8  and  C_29
REMARK    6  A    between atoms: C_10  and  C_15
REMARK    7  A    between atoms: C_17  and  C_26
REMARK    8  A    between atoms: C_18  and  C_28
REMARK    9  A    between atoms: C_28  and  C_30
REMARK   10  A    between atoms: C_31  and  C_32
REMARK   11  A    between atoms: C_33  and  C_34
REMARK   12  A    between atoms: C_34  and  C_35
REMARK   13  A    between atoms: C_34  and  C_36
REMARK                            x       y       z     vdW  Elec       q    Type
REMARK                         _______ _______ _______ _____ _____    ______ ____
ROOT
ATOM      1  O   UNL     1      -0.712   2.312  -0.142  0.00  0.00    +0.000 OA
ATOM      2  O   UNL     1      -0.794   2.538  -2.438  0.00  0.00    +0.000 OA
ATOM      3  C   UNL     1       4.232   2.165   0.711  0.00  0.00    +0.000 C 
ATOM      4  C   UNL     1       3.198   3.309   0.865  0.00  0.00    +0.000 C 
ATOM      5  C   UNL     1       3.636   0.827   0.179  0.00  0.00    +0.000 C 
ATOM      6  C   UNL     1       2.386   3.654  -0.391  0.00  0.00    +0.000 C 
ATOM      7  C   UNL     1       1.114   4.433  -0.015  0.00  0.00    +0.000 C 
ATOM      8  C   UNL     1       5.410   2.615  -0.165  0.00  0.00    +0.000 C 
ATOM      9  C   UNL     1       2.308   0.467   0.794  0.00  0.00    +0.000 C 
ATOM     10  C   UNL     1      -0.178   0.051   0.620  0.00  0.00    +0.000 C 
ATOM     11  C   UNL     1      -1.173   0.936  -0.179  0.00  0.00    +0.000 C 
ATOM     12  C   UNL     1       0.032   4.360  -1.096  0.00  0.00    +0.000 C 
ATOM     13  C   UNL     1       1.215   0.210   0.056  0.00  0.00    +0.000 C 
ATOM     14  C   UNL     1      -0.570  -1.429   0.588  0.00  0.00    +0.000 C 
ATOM     15  C   UNL     1      -0.526   2.969  -1.323  0.00  0.00    +0.000 C 
ENDROOT
BRANCH  11  16
ATOM     16  C   UNL     1      -2.548   0.921   0.409  0.00  0.00    +0.000 C 
ATOM     17  C   UNL     1      -2.607   1.397   1.838  0.00  0.00    +0.000 C 
ATOM     18  C   UNL     1      -3.675   0.532  -0.220  0.00  0.00    +0.000 C 
BRANCH  18  19
ATOM     19  C   UNL     1      -5.017   0.506   0.321  0.00  0.00    +0.000 C 
ATOM     20  C   UNL     1      -6.081   0.099  -0.390  0.00  0.00    +0.000 C 
BRANCH  20  21
ATOM     21  C   UNL     1      -7.490   0.068   0.157  0.00  0.00    +0.000 C 
ATOM     22  C   UNL     1      -8.383   1.052  -0.609  0.00  0.00    +0.000 C 
BRANCH  21  24
ATOM     23  N   UNL     1      -8.723  -1.731  -0.951  0.00  0.00    +0.000 NA
ATOM     24  C   UNL     1      -8.052  -1.345   0.158  0.00  0.00    +0.000 A 
ATOM     25  C   UNL     1      -7.855  -2.152   1.266  0.00  0.00    +0.000 A 
ATOM     26  C   UNL     1      -8.381  -3.439   1.235  0.00  0.00    +0.000 A 
ATOM     27  C   UNL     1      -9.219  -2.988  -0.945  0.00  0.00    +0.000 A 
ATOM     28  C   UNL     1      -9.077  -3.873   0.112  0.00  0.00    +0.000 A 
ENDBRANCH  21  24
ENDBRANCH  20  21
ENDBRANCH  18  19
ENDBRANCH  11  16
BRANCH   3  29
ATOM     29  O   UNL     1       4.760   1.913   2.025  0.00  0.00    +0.000 OA
ATOM     30  H   UNL     1       5.160   2.737   2.352  0.00  0.00    +0.000 HD
ENDBRANCH   3  29
BRANCH   7  31
ATOM     31  O   UNL     1       1.451   5.800   0.215  0.00  0.00    +0.000 OA
ATOM     32  H   UNL     1       0.639   6.262   0.486  0.00  0.00    +0.000 HD
ENDBRANCH   7  31
BRANCH   5  33
ATOM     33  O   UNL     1       4.536  -0.259   0.427  0.00  0.00    +0.000 OA
BRANCH  33  41
ATOM     34  O   UNL     1       3.788  -1.281  -1.476  0.00  0.00    +0.000 OA
ATOM     35  N   UNL     1       5.424  -2.296  -0.175  0.00  0.00    +0.000 N 
ATOM     36  N   UNL     1       7.683  -4.045  -0.044  0.00  0.00    +0.000 NA
ATOM     37  C   UNL     1       5.445  -3.533  -0.952  0.00  0.00    +0.000 C 
ATOM     38  C   UNL     1       6.295  -2.287   1.002  0.00  0.00    +0.000 C 
ATOM     39  C   UNL     1       6.877  -3.961  -1.271  0.00  0.00    +0.000 C 
ATOM     40  C   UNL     1       7.710  -2.746   0.644  0.00  0.00    +0.000 C 
ATOM     41  C   UNL     1       4.522  -1.277  -0.489  0.00  0.00    +0.000 C 
ATOM     42  C   UNL     1       9.041  -4.492  -0.351  0.00  0.00    +0.000 C 
ENDBRANCH  33  41
ENDBRANCH   5  33
TORSDOF 8
