REMARK  Name = 62965
REMARK  11 active torsions:
REMARK  status: ('A' for Active; 'I' for Inactive)
REMARK    1  A    between atoms: O_2  and  C_12
REMARK    2  A    between atoms: O_2  and  C_29
REMARK    3  A    between atoms: O_3  and  C_16
REMARK    4  A    between atoms: O_5  and  C_27
REMARK    5  A    between atoms: C_8  and  C_19
REMARK    6  A    between atoms: C_12  and  C_22
REMARK    7  A    between atoms: C_15  and  C_23
REMARK    8  A    between atoms: C_17  and  C_24
REMARK    9  A    between atoms: C_22  and  C_27
REMARK   10  A    between atoms: C_29  and  C_31
REMARK   11  A    between atoms: C_31  and  C_32
REMARK                            x       y       z     vdW  Elec       q    Type
REMARK                         _______ _______ _______ _____ _____    ______ ____
ROOT
ATOM      1 CL   UNL     1       1.808  -1.730   0.396  0.00  0.00    +0.000 Cl
ATOM      2  O   UNL     1       6.745  -1.977   0.322  0.00  0.00    +0.000 OA
ATOM      3  C   UNL     1      -1.115   0.823   0.106  0.00  0.00    +0.000 C 
ATOM      4  C   UNL     1      -0.303   0.200  -1.054  0.00  0.00    +0.000 C 
ATOM      5  C   UNL     1       1.185   0.589  -1.028  0.00  0.00    +0.000 C 
ATOM      6  C   UNL     1       1.862   0.129   0.325  0.00  0.00    +0.000 C 
ATOM      7  C   UNL     1      -2.539   0.289  -0.247  0.00  0.00    +0.000 C 
ATOM      8  C   UNL     1      -1.140   0.549  -2.281  0.00  0.00    +0.000 C 
ATOM      9  C   UNL     1      -0.507   0.316   1.433  0.00  0.00    +0.000 C 
ATOM     10  C   UNL     1      -2.594   0.282  -1.810  0.00  0.00    +0.000 C 
ATOM     11  C   UNL     1       1.014   0.596   1.560  0.00  0.00    +0.000 C 
ATOM     12  C   UNL     1       3.403   0.549   0.344  0.00  0.00    +0.000 C 
ATOM     13  C   UNL     1       1.933   0.061  -2.268  0.00  0.00    +0.000 C 
ATOM     14  C   UNL     1      -1.125   2.378   0.083  0.00  0.00    +0.000 C 
ATOM     15  C   UNL     1       3.418   0.415  -2.239  0.00  0.00    +0.000 C 
ATOM     16  C   UNL     1       4.062   0.010  -0.936  0.00  0.00    +0.000 C 
ATOM     17  C   UNL     1      -3.561   1.260  -2.471  0.00  0.00    +0.000 C 
ATOM     18  C   UNL     1       3.648   2.080   0.362  0.00  0.00    +0.000 C 
ATOM     19  C   UNL     1       4.101   0.026   1.593  0.00  0.00    +0.000 C 
ATOM     20  C   UNL     1       5.132  -0.801  -0.933  0.00  0.00    +0.000 C 
ATOM     21  C   UNL     1       5.168  -0.781   1.597  0.00  0.00    +0.000 C 
ATOM     22  C   UNL     1       5.761  -1.244   0.329  0.00  0.00    +0.000 C 
ENDROOT
BRANCH  11  23
ATOM     23  O   UNL     1       1.201   1.981   1.823  0.00  0.00    +0.000 OA
ATOM     24  H   UNL     1       0.716   2.199   2.637  0.00  0.00    +0.000 HD
ENDBRANCH  11  23
BRANCH   7  26
ATOM     25  O   UNL     1      -4.585   1.506  -0.175  0.00  0.00    +0.000 OA
ATOM     26  C   UNL     1      -3.669   0.978   0.454  0.00  0.00    +0.000 C 
BRANCH  26  27
ATOM     27  C   UNL     1      -3.615   0.984   1.967  0.00  0.00    +0.000 C 
BRANCH  27  28
ATOM     28  O   UNL     1      -4.917   0.990   2.513  0.00  0.00    +0.000 OA
ATOM     29  H   UNL     1      -5.340   0.148   2.271  0.00  0.00    +0.000 HD
ENDBRANCH  27  28
ENDBRANCH  26  27
ENDBRANCH   7  26
BRANCH   7  30
ATOM     30  O   UNL     1      -2.729  -1.046   0.238  0.00  0.00    +0.000 OA
BRANCH  30  32
ATOM     31  O   UNL     1      -4.839  -1.086  -0.695  0.00  0.00    +0.000 OA
ATOM     32  C   UNL     1      -3.934  -1.613  -0.062  0.00  0.00    +0.000 C 
BRANCH  32  33
ATOM     33  C   UNL     1      -3.974  -3.008   0.516  0.00  0.00    +0.000 C 
ATOM     34  C   UNL     1      -5.295  -3.704   0.240  0.00  0.00    +0.000 C 
ENDBRANCH  32  33
ENDBRANCH  30  32
ENDBRANCH   7  30
TORSDOF 7
