REMARK  Name = 236702
REMARK  10 active torsions:
REMARK  status: ('A' for Active; 'I' for Inactive)
REMARK    1  A    between atoms: O_2  and  C_12
REMARK    2  A    between atoms: O_3  and  C_16
REMARK    3  A    between atoms: O_5  and  C_27
REMARK    4  A    between atoms: O_5  and  C_30
REMARK    5  A    between atoms: C_8  and  C_19
REMARK    6  A    between atoms: C_12  and  C_22
REMARK    7  A    between atoms: C_15  and  C_23
REMARK    8  A    between atoms: C_17  and  C_24
REMARK    9  A    between atoms: C_22  and  C_27
REMARK   10  A    between atoms: C_30  and  C_31
REMARK                            x       y       z     vdW  Elec       q    Type
REMARK                         _______ _______ _______ _____ _____    ______ ____
ROOT
ATOM      1  F   UNL     1       1.991   0.214   1.254  0.00  0.00    +0.000 F 
ATOM      2  O   UNL     1       6.807   0.714   1.844  0.00  0.00    +0.000 OA
ATOM      3  C   UNL     1      -1.055  -0.142  -0.457  0.00  0.00    +0.000 C 
ATOM      4  C   UNL     1      -0.051  -1.246  -0.059  0.00  0.00    +0.000 C 
ATOM      5  C   UNL     1       1.355  -1.034  -0.640  0.00  0.00    +0.000 C 
ATOM      6  C   UNL     1       1.922   0.333  -0.125  0.00  0.00    +0.000 C 
ATOM      7  C   UNL     1      -2.333  -0.703   0.235  0.00  0.00    +0.000 C 
ATOM      8  C   UNL     1      -0.792  -2.544  -0.379  0.00  0.00    +0.000 C 
ATOM      9  C   UNL     1      -0.515   1.192   0.098  0.00  0.00    +0.000 C 
ATOM     10  C   UNL     1      -2.282  -2.228  -0.082  0.00  0.00    +0.000 C 
ATOM     11  C   UNL     1       0.926   1.507  -0.364  0.00  0.00    +0.000 C 
ATOM     12  C   UNL     1       3.408   0.577  -0.604  0.00  0.00    +0.000 C 
ATOM     13  C   UNL     1       2.279  -2.203  -0.249  0.00  0.00    +0.000 C 
ATOM     14  C   UNL     1      -1.282  -0.042  -1.991  0.00  0.00    +0.000 C 
ATOM     15  C   UNL     1       3.716  -1.981  -0.705  0.00  0.00    +0.000 C 
ATOM     16  C   UNL     1       4.227  -0.655  -0.202  0.00  0.00    +0.000 C 
ATOM     17  C   UNL     1      -2.842  -3.138   1.008  0.00  0.00    +0.000 C 
ATOM     18  C   UNL     1       3.555   0.770  -2.131  0.00  0.00    +0.000 C 
ATOM     19  C   UNL     1       3.966   1.840   0.037  0.00  0.00    +0.000 C 
ATOM     20  C   UNL     1       5.313  -0.605   0.585  0.00  0.00    +0.000 C 
ATOM     21  C   UNL     1       5.045   1.896   0.823  0.00  0.00    +0.000 C 
ATOM     22  C   UNL     1       5.805   0.673   1.139  0.00  0.00    +0.000 C 
ENDROOT
BRANCH   7  23
ATOM     23  O   UNL     1      -2.294  -0.451   1.635  0.00  0.00    +0.000 OA
ATOM     24  H   UNL     1      -2.147   0.489   1.816  0.00  0.00    +0.000 HD
ENDBRANCH   7  23
BRANCH  11  25
ATOM     25  O   UNL     1       0.917   1.919  -1.722  0.00  0.00    +0.000 OA
ATOM     26  H   UNL     1       1.407   2.756  -1.780  0.00  0.00    +0.000 HD
ENDBRANCH  11  25
BRANCH   7  28
ATOM     27  O   UNL     1      -4.215  -0.474  -1.211  0.00  0.00    +0.000 OA
ATOM     28  C   UNL     1      -3.604  -0.054  -0.229  0.00  0.00    +0.000 C 
BRANCH  28  29
ATOM     29  C   UNL     1      -4.082   1.136   0.576  0.00  0.00    +0.000 C 
BRANCH  29  30
ATOM     30  O   UNL     1      -5.288   1.644   0.046  0.00  0.00    +0.000 OA
BRANCH  30  32
ATOM     31  O   UNL     1      -6.513   0.240   1.413  0.00  0.00    +0.000 OA
ATOM     32  C   UNL     1      -6.445   1.108   0.553  0.00  0.00    +0.000 C 
ATOM     33  C   UNL     1      -7.638   1.740  -0.097  0.00  0.00    +0.000 C 
ENDBRANCH  30  32
ENDBRANCH  29  30
ENDBRANCH  28  29
ENDBRANCH   7  28
TORSDOF 6
