REMARK  Name = 107603
REMARK  13 active torsions:
REMARK  status: ('A' for Active; 'I' for Inactive)
REMARK    1  A    between atoms: O_3  and  C_16
REMARK    2  A    between atoms: O_5  and  C_27
REMARK    3  A    between atoms: O_5  and  C_30
REMARK    4  A    between atoms: C_8  and  C_19
REMARK    5  A    between atoms: C_12  and  C_22
REMARK    6  A    between atoms: C_15  and  C_23
REMARK    7  A    between atoms: C_17  and  C_24
REMARK    8  A    between atoms: C_22  and  C_27
REMARK    9  A    between atoms: C_30  and  C_31
REMARK   10  A    between atoms: C_31  and  C_32
REMARK   11  A    between atoms: C_32  and  C_33
REMARK   12  A    between atoms: C_33  and  C_34
REMARK   13  A    between atoms: C_34  and  C_35
REMARK                            x       y       z     vdW  Elec       q    Type
REMARK                         _______ _______ _______ _____ _____    ______ ____
ROOT
ATOM      1 CL   UNL     1      -2.844  -0.627   1.813  0.00  0.00    +0.000 Cl
ATOM      2  F   UNL     1      -6.196   1.829  -0.094  0.00  0.00    +0.000 F 
ATOM      3  O   UNL     1      -7.312  -2.693   1.450  0.00  0.00    +0.000 OA
ATOM      4  C   UNL     1      -0.030   0.963  -0.340  0.00  0.00    +0.000 C 
ATOM      5  C   UNL     1      -1.333   1.637   0.137  0.00  0.00    +0.000 C 
ATOM      6  C   UNL     1      -2.599   0.992  -0.450  0.00  0.00    +0.000 C 
ATOM      7  C   UNL     1      -2.688  -0.534  -0.043  0.00  0.00    +0.000 C 
ATOM      8  C   UNL     1       0.984   1.837   0.441  0.00  0.00    +0.000 C 
ATOM      9  C   UNL     1      -1.064   3.123  -0.089  0.00  0.00    +0.000 C 
ATOM     10  C   UNL     1      -0.060  -0.516   0.095  0.00  0.00    +0.000 C 
ATOM     11  C   UNL     1       0.433   3.282   0.283  0.00  0.00    +0.000 C 
ATOM     12  C   UNL     1      -1.336  -1.276  -0.351  0.00  0.00    +0.000 C 
ATOM     13  C   UNL     1      -4.009  -1.200  -0.647  0.00  0.00    +0.000 C 
ATOM     14  C   UNL     1      -3.866   1.773  -0.059  0.00  0.00    +0.000 C 
ATOM     15  C   UNL     1       0.211   1.068  -1.869  0.00  0.00    +0.000 C 
ATOM     16  C   UNL     1      -5.138   1.123  -0.591  0.00  0.00    +0.000 C 
ATOM     17  C   UNL     1      -5.215  -0.341  -0.226  0.00  0.00    +0.000 C 
ATOM     18  C   UNL     1       0.624   4.097   1.558  0.00  0.00    +0.000 C 
ATOM     19  C   UNL     1      -4.030  -1.276  -2.195  0.00  0.00    +0.000 C 
ATOM     20  C   UNL     1      -4.158  -2.643  -0.179  0.00  0.00    +0.000 C 
ATOM     21  C   UNL     1      -6.268  -0.831   0.449  0.00  0.00    +0.000 C 
ATOM     22  C   UNL     1      -5.207  -3.129   0.491  0.00  0.00    +0.000 C 
ATOM     23  C   UNL     1      -6.341  -2.254   0.844  0.00  0.00    +0.000 C 
ENDROOT
BRANCH  12  24
ATOM     24  O   UNL     1      -1.220  -1.553  -1.744  0.00  0.00    +0.000 OA
ATOM     25  H   UNL     1      -0.414  -2.079  -1.877  0.00  0.00    +0.000 HD
ENDBRANCH  12  24
BRANCH   8  27
ATOM     26  O   UNL     1       2.829   2.426  -0.948  0.00  0.00    +0.000 OA
ATOM     27  C   UNL     1       2.395   1.707  -0.048  0.00  0.00    +0.000 C 
BRANCH  27  28
ATOM     28  C   UNL     1       3.244   0.650   0.626  0.00  0.00    +0.000 C 
BRANCH  28  29
ATOM     29  O   UNL     1       4.548   0.639   0.086  0.00  0.00    +0.000 OA
BRANCH  29  31
ATOM     30  O   UNL     1       5.145  -1.076   1.509  0.00  0.00    +0.000 OA
ATOM     31  C   UNL     1       5.418  -0.283   0.619  0.00  0.00    +0.000 C 
BRANCH  31  32
ATOM     32  C   UNL     1       6.753  -0.189  -0.086  0.00  0.00    +0.000 C 
BRANCH  32  33
ATOM     33  C   UNL     1       7.756  -1.244   0.381  0.00  0.00    +0.000 C 
BRANCH  33  34
ATOM     34  C   UNL     1       9.104  -1.129  -0.337  0.00  0.00    +0.000 C 
BRANCH  34  35
ATOM     35  C   UNL     1      10.073  -2.217   0.127  0.00  0.00    +0.000 C 
ATOM     36  C   UNL     1      11.398  -2.136  -0.614  0.00  0.00    +0.000 C 
ENDBRANCH  34  35
ENDBRANCH  33  34
ENDBRANCH  32  33
ENDBRANCH  31  32
ENDBRANCH  29  31
ENDBRANCH  28  29
ENDBRANCH  27  28
ENDBRANCH   8  27
TORSDOF 9
