REMARK  Name = 9873754
REMARK  15 active torsions:
REMARK  status: ('A' for Active; 'I' for Inactive)
REMARK    1  A    between atoms: O_1  and  C_14
REMARK    2  A    between atoms: O_1  and  C_15
REMARK    3  A    between atoms: O_3  and  C_19
REMARK    4  A    between atoms: O_3  and  C_22
REMARK    5  A    between atoms: O_4  and  C_21
REMARK    6  A    between atoms: C_5  and  C_6
REMARK    7  A    between atoms: C_5  and  C_7
REMARK    8  A    between atoms: C_6  and  C_8
REMARK    9  A    between atoms: C_7  and  C_9
REMARK   10  A    between atoms: C_8  and  C_11
REMARK   11  A    between atoms: C_8  and  C_12
REMARK   12  A    between atoms: C_9  and  C_10
REMARK   13  A    between atoms: C_10  and  C_13
REMARK   14  A    between atoms: C_13  and  C_14
REMARK   15  A    between atoms: C_15  and  C_16
REMARK                            x       y       z     vdW  Elec       q    Type
REMARK                         _______ _______ _______ _____ _____    ______ ____
ROOT
ATOM      1  O   UNL     1       1.332   0.681   0.207  0.00  0.00    +0.000 OA
ENDROOT
BRANCH   1   3
ATOM      2  O   UNL     1      -0.028   2.012   1.511  0.00  0.00    +0.000 OA
ATOM      3  C   UNL     1       0.133   1.109   0.702  0.00  0.00    +0.000 C 
BRANCH   3   4
ATOM      4  C   UNL     1      -0.977   0.305   0.060  0.00  0.00    +0.000 C 
BRANCH   4   5
ATOM      5  C   UNL     1      -2.371   0.723   0.528  0.00  0.00    +0.000 C 
BRANCH   5   6
ATOM      6  C   UNL     1      -3.481  -0.107  -0.125  0.00  0.00    +0.000 C 
BRANCH   6   7
ATOM      7  C   UNL     1      -4.860   0.316   0.384  0.00  0.00    +0.000 C 
BRANCH   7   8
ATOM      8  C   UNL     1      -5.969  -0.535  -0.242  0.00  0.00    +0.000 C 
BRANCH   8   9
ATOM      9  C   UNL     1      -7.345  -0.135   0.298  0.00  0.00    +0.000 C 
BRANCH   9  10
ATOM     10  C   UNL     1      -8.504  -0.941  -0.317  0.00  0.00    +0.000 C 
ATOM     11  C   UNL     1      -9.828  -0.517   0.323  0.00  0.00    +0.000 C 
ATOM     12  C   UNL     1      -8.590  -0.776  -1.835  0.00  0.00    +0.000 C 
ENDBRANCH   9  10
ENDBRANCH   8   9
ENDBRANCH   7   8
ENDBRANCH   6   7
ENDBRANCH   5   6
ENDBRANCH   4   5
ENDBRANCH   3   4
ENDBRANCH   1   3
BRANCH   1  13
ATOM     13  C   UNL     1       2.484   1.373   0.701  0.00  0.00    +0.000 C 
BRANCH  13  14
ATOM     14  C   UNL     1       3.714   0.790   0.069  0.00  0.00    +0.000 A 
ATOM     15  C   UNL     1       4.375  -0.275   0.679  0.00  0.00    +0.000 A 
ATOM     16  C   UNL     1       4.196   1.315  -1.131  0.00  0.00    +0.000 A 
ATOM     17  C   UNL     1       5.517  -0.817   0.091  0.00  0.00    +0.000 A 
ATOM     18  C   UNL     1       5.339   0.774  -1.719  0.00  0.00    +0.000 A 
ATOM     19  C   UNL     1       6.000  -0.292  -1.108  0.00  0.00    +0.000 A 
BRANCH  17  20
ATOM     20  O   UNL     1       6.154  -1.858   0.697  0.00  0.00    +0.000 OA
ATOM     21  C   UNL     1       5.596  -2.335   1.920  0.00  0.00    +0.000 C 
ENDBRANCH  17  20
BRANCH  19  22
ATOM     22  O   UNL     1       7.115  -0.812  -1.693  0.00  0.00    +0.000 OA
ATOM     23  H   UNL     1       7.299  -0.324  -2.514  0.00  0.00    +0.000 HD
ENDBRANCH  19  22
ENDBRANCH  13  14
ENDBRANCH   1  13
TORSDOF 12
