REMARK  Name = 6883
REMARK  4 active torsions:
REMARK  status: ('A' for Active; 'I' for Inactive)
REMARK    1  A    between atoms: O_3  and  N_9
REMARK    2  A    between atoms: O_3  and  C_13
REMARK    3  A    between atoms: O_4  and  N_10
REMARK    4  A    between atoms: O_4  and  C_14
REMARK                            x       y       z     vdW  Elec       q    Type
REMARK                         _______ _______ _______ _____ _____    ______ ____
ROOT
ATOM      1  O   UNL     1       0.514   0.089  -1.389  0.00  0.00    +0.000 OA
ATOM      2  O   UNL     1      -0.383  -1.999   0.658  0.00  0.00    +0.000 OA
ATOM      3  C   UNL     1       0.445   0.140   0.046  0.00  0.00    +0.000 C 
ATOM      4  C   UNL     1      -0.793  -0.634   0.453  0.00  0.00    +0.000 C 
ATOM      5  C   UNL     1       1.553  -0.660   0.687  0.00  0.00    +0.000 C 
ATOM      6  C   UNL     1      -1.685  -0.527  -0.758  0.00  0.00    +0.000 C 
ATOM      7  C   UNL     1      -0.690  -0.505  -1.901  0.00  0.00    +0.000 C 
ATOM      8  C   UNL     1       1.046  -2.078   0.543  0.00  0.00    +0.000 C 
ENDROOT
BRANCH   5   9
ATOM      9  O   UNL     1       2.807  -0.480   0.069  0.00  0.00    +0.000 OA
BRANCH   9  12
ATOM     10  O   UNL     1       2.963   1.423   1.206  0.00  0.00    +0.000 OA
ATOM     11  O   UNL     1       4.049   1.246  -0.733  0.00  0.00    +0.000 OA
ATOM     12  N   UNL     1       3.324   0.845   0.181  0.00  0.00    +0.000 N 
ENDBRANCH   9  12
ENDBRANCH   5   9
BRANCH   6  13
ATOM     13  O   UNL     1      -2.383   0.712  -0.737  0.00  0.00    +0.000 OA
BRANCH  13  16
ATOM     14  O   UNL     1      -3.832  -0.292   0.602  0.00  0.00    +0.000 OA
ATOM     15  O   UNL     1      -3.586   1.918   0.770  0.00  0.00    +0.000 OA
ATOM     16  N   UNL     1      -3.349   0.801   0.303  0.00  0.00    +0.000 N 
ENDBRANCH  13  16
ENDBRANCH   6  13
TORSDOF 4
