REMARK  Name = 159296
REMARK  12 active torsions:
REMARK  status: ('A' for Active; 'I' for Inactive)
REMARK    1  A    between atoms: P_1  and  O_4
REMARK    2  A    between atoms: P_1  and  O_7
REMARK    3  A    between atoms: P_1  and  O_8
REMARK    4  A    between atoms: P_2  and  O_6
REMARK    5  A    between atoms: P_2  and  O_10
REMARK    6  A    between atoms: P_2  and  O_11
REMARK    7  A    between atoms: O_4  and  C_18
REMARK    8  A    between atoms: O_5  and  C_19
REMARK    9  A    between atoms: O_6  and  C_22
REMARK   10  A    between atoms: N_13  and  C_21
REMARK   11  A    between atoms: N_17  and  C_26
REMARK   12  A    between atoms: C_20  and  C_22
REMARK                            x       y       z     vdW  Elec       q    Type
REMARK                         _______ _______ _______ _____ _____    ______ ____
ROOT
ATOM      1  O   UNL     1       0.656  -0.786  -0.999  0.00  0.00    +0.000 OA
ATOM      2  C   UNL     1       1.253   1.238   0.034  0.00  0.00    +0.000 C 
ATOM      3  C   UNL     1      -0.065   1.480  -0.676  0.00  0.00    +0.000 C 
ATOM      4  C   UNL     1       1.802   0.031  -0.709  0.00  0.00    +0.000 C 
ATOM      5  C   UNL     1      -0.506   0.068  -1.067  0.00  0.00    +0.000 C 
ENDROOT
BRANCH   5   6
ATOM      6  N   UNL     1      -1.561  -0.475  -0.210  0.00  0.00    +0.000 N 
ATOM      7  N   UNL     1      -2.518  -1.511   1.518  0.00  0.00    +0.000 NA
ATOM      8  N   UNL     1      -3.544   0.143  -1.472  0.00  0.00    +0.000 NA
ATOM      9  N   UNL     1      -5.579  -0.601  -0.349  0.00  0.00    +0.000 NA
ATOM     10  C   UNL     1      -2.909  -0.418  -0.431  0.00  0.00    +0.000 A 
ATOM     11  C   UNL     1      -1.378  -1.142   0.973  0.00  0.00    +0.000 A 
ATOM     12  C   UNL     1      -3.483  -1.065   0.651  0.00  0.00    +0.000 A 
ATOM     13  C   UNL     1      -4.872  -1.147   0.671  0.00  0.00    +0.000 A 
ATOM     14  C   UNL     1      -4.881   0.001  -1.342  0.00  0.00    +0.000 A 
BRANCH  13  15
ATOM     15  N   UNL     1      -5.539  -1.784   1.731  0.00  0.00    +0.000 N 
ATOM     16  H   UNL     1      -5.014  -2.191   2.494  0.00  0.00    +0.000 HD
ATOM     17  H   UNL     1      -6.549  -1.830   1.723  0.00  0.00    +0.000 HD
ENDBRANCH  13  15
ENDBRANCH   5   6
BRANCH   3  18
ATOM     18  O   UNL     1       0.120   2.259  -1.858  0.00  0.00    +0.000 OA
ATOM     19  H   UNL     1      -0.749   2.346  -2.286  0.00  0.00    +0.000 HD
ENDBRANCH   3  18
BRANCH   2  20
ATOM     20  O   UNL     1       2.133   2.340  -0.021  0.00  0.00    +0.000 OA
BRANCH  20  21
ATOM     21  P   UNL     1       1.643   3.738   0.621  0.00  0.00    +0.000 P 
ATOM     22  O   UNL     1       0.399   4.318   0.013  0.00  0.00    +0.000 OA
BRANCH  21  23
ATOM     23  O   UNL     1       2.955   4.680   0.544  0.00  0.00    +0.000 OA
ATOM     24  H   UNL     1       2.884   5.616   0.829  0.00  0.00    +0.000 HD
ENDBRANCH  21  23
BRANCH  21  25
ATOM     25  O   UNL     1       1.532   3.382   2.195  0.00  0.00    +0.000 OA
ATOM     26  H   UNL     1       1.156   4.050   2.807  0.00  0.00    +0.000 HD
ENDBRANCH  21  25
ENDBRANCH  20  21
ENDBRANCH   2  20
BRANCH   4  27
ATOM     27  C   UNL     1       2.812  -0.767   0.097  0.00  0.00    +0.000 C 
BRANCH  27  28
ATOM     28  O   UNL     1       3.246  -1.867  -0.683  0.00  0.00    +0.000 OA
BRANCH  28  29
ATOM     29  P   UNL     1       4.334  -2.884  -0.047  0.00  0.00    +0.000 P 
ATOM     30  O   UNL     1       4.738  -4.020  -0.940  0.00  0.00    +0.000 OA
BRANCH  29  31
ATOM     31  O   UNL     1       3.676  -3.315   1.366  0.00  0.00    +0.000 OA
ATOM     32  H   UNL     1       4.128  -3.992   1.913  0.00  0.00    +0.000 HD
ENDBRANCH  29  31
BRANCH  29  33
ATOM     33  O   UNL     1       5.538  -1.897   0.389  0.00  0.00    +0.000 OA
ATOM     34  H   UNL     1       6.373  -2.286   0.726  0.00  0.00    +0.000 HD
ENDBRANCH  29  33
ENDBRANCH  28  29
ENDBRANCH  27  28
ENDBRANCH   4  27
TORSDOF 12
