REMARK  Name = 128882
REMARK  15 active torsions:
REMARK  status: ('A' for Active; 'I' for Inactive)
REMARK    1  A    between atoms: P_1  and  O_5
REMARK    2  A    between atoms: P_1  and  O_8
REMARK    3  A    between atoms: P_1  and  O_9
REMARK    4  A    between atoms: P_2  and  O_7
REMARK    5  A    between atoms: P_2  and  O_11
REMARK    6  A    between atoms: P_2  and  O_12
REMARK    7  A    between atoms: P_3  and  O_11
REMARK    8  A    between atoms: P_3  and  O_14
REMARK    9  A    between atoms: P_3  and  O_15
REMARK   10  A    between atoms: O_5  and  C_22
REMARK   11  A    between atoms: O_6  and  C_23
REMARK   12  A    between atoms: O_7  and  C_26
REMARK   13  A    between atoms: N_17  and  C_25
REMARK   14  A    between atoms: N_21  and  C_30
REMARK   15  A    between atoms: C_24  and  C_26
REMARK                            x       y       z     vdW  Elec       q    Type
REMARK                         _______ _______ _______ _____ _____    ______ ____
ROOT
ATOM      1  O   UNL     1       0.321   0.111  -1.248  0.00  0.00    +0.000 OA
ATOM      2  C   UNL     1       0.264   2.062   0.058  0.00  0.00    +0.000 C 
ATOM      3  C   UNL     1      -1.110   1.913  -0.568  0.00  0.00    +0.000 C 
ATOM      4  C   UNL     1       1.133   1.234  -0.872  0.00  0.00    +0.000 C 
ATOM      5  C   UNL     1      -1.066   0.500  -1.153  0.00  0.00    +0.000 C 
ENDROOT
BRANCH   5   6
ATOM      6  N   UNL     1      -1.797  -0.487  -0.356  0.00  0.00    +0.000 N 
ATOM      7  N   UNL     1      -2.195  -2.010   1.225  0.00  0.00    +0.000 NA
ATOM      8  N   UNL     1      -3.965  -0.450  -1.452  0.00  0.00    +0.000 NA
ATOM      9  N   UNL     1      -5.521  -2.005  -0.394  0.00  0.00    +0.000 NA
ATOM     10  C   UNL     1      -3.095  -0.881  -0.526  0.00  0.00    +0.000 A 
ATOM     11  C   UNL     1      -1.300  -1.194   0.708  0.00  0.00    +0.000 A 
ATOM     12  C   UNL     1      -3.321  -1.824   0.463  0.00  0.00    +0.000 A 
ATOM     13  C   UNL     1      -4.590  -2.393   0.511  0.00  0.00    +0.000 A 
ATOM     14  C   UNL     1      -5.156  -1.071  -1.306  0.00  0.00    +0.000 A 
BRANCH  13  15
ATOM     15  N   UNL     1      -4.909  -3.357   1.484  0.00  0.00    +0.000 N 
ATOM     16  H   UNL     1      -4.216  -3.647   2.161  0.00  0.00    +0.000 HD
ATOM     17  H   UNL     1      -5.838  -3.754   1.499  0.00  0.00    +0.000 HD
ENDBRANCH  13  15
ENDBRANCH   5   6
BRANCH   3  18
ATOM     18  O   UNL     1      -1.301   2.853  -1.625  0.00  0.00    +0.000 OA
ATOM     19  H   UNL     1      -2.178   2.683  -2.009  0.00  0.00    +0.000 HD
ENDBRANCH   3  18
BRANCH   2  20
ATOM     20  O   UNL     1       0.701   3.401   0.143  0.00  0.00    +0.000 OA
BRANCH  20  21
ATOM     21  P   UNL     1      -0.188   4.440   1.001  0.00  0.00    +0.000 P 
ATOM     22  O   UNL     1      -1.600   4.617   0.524  0.00  0.00    +0.000 OA
BRANCH  21  23
ATOM     23  O   UNL     1       0.707   5.786   1.028  0.00  0.00    +0.000 OA
ATOM     24  H   UNL     1       0.341   6.591   1.452  0.00  0.00    +0.000 HD
ENDBRANCH  21  23
BRANCH  21  25
ATOM     25  O   UNL     1      -0.043   3.867   2.507  0.00  0.00    +0.000 OA
ATOM     26  H   UNL     1      -0.576   4.274   3.223  0.00  0.00    +0.000 HD
ENDBRANCH  21  25
ENDBRANCH  20  21
ENDBRANCH   2  20
BRANCH   4  27
ATOM     27  C   UNL     1       2.418   0.747  -0.226  0.00  0.00    +0.000 C 
BRANCH  27  28
ATOM     28  O   UNL     1       3.141  -0.018  -1.174  0.00  0.00    +0.000 OA
BRANCH  28  29
ATOM     29  P   UNL     1       4.564  -0.674  -0.769  0.00  0.00    +0.000 P 
ATOM     30  O   UNL     1       5.228  -1.460  -1.862  0.00  0.00    +0.000 OA
BRANCH  29  31
ATOM     31  O   UNL     1       5.438   0.569  -0.215  0.00  0.00    +0.000 OA
ATOM     32  H   UNL     1       5.870   1.169  -0.859  0.00  0.00    +0.000 HD
ENDBRANCH  29  31
BRANCH  29  33
ATOM     33  O   UNL     1       4.251  -1.531   0.566  0.00  0.00    +0.000 OA
BRANCH  33  34
ATOM     34  P   UNL     1       3.341  -2.847   0.792  0.00  0.00    +0.000 P 
ATOM     35  O   UNL     1       1.893  -2.677   0.437  0.00  0.00    +0.000 OA
BRANCH  34  36
ATOM     36  O   UNL     1       4.126  -3.991  -0.037  0.00  0.00    +0.000 OA
ATOM     37  H   UNL     1       3.721  -4.880  -0.119  0.00  0.00    +0.000 HD
ENDBRANCH  34  36
BRANCH  34  38
ATOM     38  O   UNL     1       3.631  -3.232   2.335  0.00  0.00    +0.000 OA
ATOM     39  H   UNL     1       3.121  -3.962   2.746  0.00  0.00    +0.000 HD
ENDBRANCH  34  38
ENDBRANCH  33  34
ENDBRANCH  29  33
ENDBRANCH  28  29
ENDBRANCH  27  28
ENDBRANCH   4  27
TORSDOF 15
