REMARK  Name = 107758
REMARK  18 active torsions:
REMARK  status: ('A' for Active; 'I' for Inactive)
REMARK    1  A    between atoms: P_1  and  O_5
REMARK    2  A    between atoms: P_1  and  O_11
REMARK    3  A    between atoms: P_1  and  O_12
REMARK    4  A    between atoms: P_2  and  O_6
REMARK    5  A    between atoms: P_2  and  O_13
REMARK    6  A    between atoms: P_2  and  O_14
REMARK    7  A    between atoms: P_3  and  O_7
REMARK    8  A    between atoms: P_3  and  O_15
REMARK    9  A    between atoms: P_3  and  O_16
REMARK   10  A    between atoms: P_4  and  O_8
REMARK   11  A    between atoms: P_4  and  O_17
REMARK   12  A    between atoms: P_4  and  O_18
REMARK   13  A    between atoms: O_5  and  C_23
REMARK   14  A    between atoms: O_6  and  C_24
REMARK   15  A    between atoms: O_7  and  C_25
REMARK   16  A    between atoms: O_8  and  C_26
REMARK   17  A    between atoms: O_9  and  C_27
REMARK   18  A    between atoms: O_10  and  C_28
REMARK                            x       y       z     vdW  Elec       q    Type
REMARK                         _______ _______ _______ _____ _____    ______ ____
ROOT
ATOM      1  C   UNL     1      -1.119  -0.292  -0.244  0.00  0.00    +0.000 C 
ATOM      2  C   UNL     1       0.153  -1.032   0.178  0.00  0.00    +0.000 C 
ATOM      3  C   UNL     1      -1.063   1.194   0.122  0.00  0.00    +0.000 C 
ATOM      4  C   UNL     1       1.473   1.101   0.081  0.00  0.00    +0.000 C 
ATOM      5  C   UNL     1       1.408  -0.356  -0.378  0.00  0.00    +0.000 C 
ATOM      6  C   UNL     1       0.224   1.882  -0.344  0.00  0.00    +0.000 C 
ENDROOT
BRANCH   5   7
ATOM      7  O   UNL     1       1.375  -0.386  -1.808  0.00  0.00    +0.000 OA
ATOM      8  H   UNL     1       0.591   0.086  -2.130  0.00  0.00    +0.000 HD
ENDBRANCH   5   7
BRANCH   6   9
ATOM      9  O   UNL     1       0.291   3.180   0.253  0.00  0.00    +0.000 OA
ATOM     10  H   UNL     1       0.296   3.068   1.219  0.00  0.00    +0.000 HD
ENDBRANCH   6   9
BRANCH   1  11
ATOM     11  O   UNL     1      -2.239  -0.861   0.440  0.00  0.00    +0.000 OA
BRANCH  11  12
ATOM     12  P   UNL     1      -2.841  -2.251  -0.114  0.00  0.00    +0.000 P 
ATOM     13  O   UNL     1      -2.086  -3.482   0.294  0.00  0.00    +0.000 OA
BRANCH  12  14
ATOM     14  O   UNL     1      -4.376  -2.193   0.391  0.00  0.00    +0.000 OA
ATOM     15  H   UNL     1      -4.949  -2.978   0.260  0.00  0.00    +0.000 HD
ENDBRANCH  12  14
BRANCH  12  16
ATOM     16  O   UNL     1      -2.964  -2.012  -1.708  0.00  0.00    +0.000 OA
ATOM     17  H   UNL     1      -3.260  -2.754  -2.278  0.00  0.00    +0.000 HD
ENDBRANCH  12  16
ENDBRANCH  11  12
ENDBRANCH   1  11
BRANCH   2  18
ATOM     18  O   UNL     1       0.118  -2.374  -0.304  0.00  0.00    +0.000 OA
BRANCH  18  19
ATOM     19  P   UNL     1       1.036  -3.475   0.439  0.00  0.00    +0.000 P 
ATOM     20  O   UNL     1       1.086  -3.359   1.934  0.00  0.00    +0.000 OA
BRANCH  19  21
ATOM     21  O   UNL     1       0.434  -4.869  -0.118  0.00  0.00    +0.000 OA
ATOM     22  H   UNL     1       0.765  -5.713   0.258  0.00  0.00    +0.000 HD
ENDBRANCH  19  21
BRANCH  19  23
ATOM     23  O   UNL     1       2.463  -3.360  -0.312  0.00  0.00    +0.000 OA
ATOM     24  H   UNL     1       3.216  -3.898   0.013  0.00  0.00    +0.000 HD
ENDBRANCH  19  23
ENDBRANCH  18  19
ENDBRANCH   2  18
BRANCH   3  25
ATOM     25  O   UNL     1      -2.166   1.863  -0.497  0.00  0.00    +0.000 OA
BRANCH  25  26
ATOM     26  P   UNL     1      -2.670   3.251   0.150  0.00  0.00    +0.000 P 
ATOM     27  O   UNL     1      -1.855   4.458  -0.211  0.00  0.00    +0.000 OA
BRANCH  26  28
ATOM     28  O   UNL     1      -4.219   3.309  -0.311  0.00  0.00    +0.000 OA
ATOM     29  H   UNL     1      -4.741   4.117  -0.120  0.00  0.00    +0.000 HD
ENDBRANCH  26  28
BRANCH  26  30
ATOM     30  O   UNL     1      -2.765   2.930   1.732  0.00  0.00    +0.000 OA
ATOM     31  H   UNL     1      -3.001   3.654   2.350  0.00  0.00    +0.000 HD
ENDBRANCH  26  30
ENDBRANCH  25  26
ENDBRANCH   3  25
BRANCH   4  32
ATOM     32  O   UNL     1       2.622   1.730  -0.485  0.00  0.00    +0.000 OA
BRANCH  32  33
ATOM     33  P   UNL     1       4.061   1.427   0.179  0.00  0.00    +0.000 P 
ATOM     34  O   UNL     1       4.071   1.362   1.679  0.00  0.00    +0.000 OA
BRANCH  33  35
ATOM     35  O   UNL     1       4.515   0.066  -0.567  0.00  0.00    +0.000 OA
ATOM     36  H   UNL     1       5.330  -0.390  -0.268  0.00  0.00    +0.000 HD
ENDBRANCH  33  35
BRANCH  33  37
ATOM     37  O   UNL     1       5.030   2.547  -0.470  0.00  0.00    +0.000 OA
ATOM     38  H   UNL     1       5.962   2.601  -0.168  0.00  0.00    +0.000 HD
ENDBRANCH  33  37
ENDBRANCH  32  33
ENDBRANCH   4  32
TORSDOF 18
