REMARK  Name = 
REMARK  29 active torsions:
REMARK  status: ('A' for Active; 'I' for Inactive)
REMARK    1  A    between atoms: S_2  and  O_4
REMARK    2  A    between atoms: S_2  and  O_5
REMARK    3  A    between atoms: O_5  and  C_6
REMARK    4  A    between atoms: C_6  and  C_7
REMARK    5  A    between atoms: C_9  and  C_10
REMARK    6  A    between atoms: C_9  and  O_16
REMARK    7  A    between atoms: C_10  and  O_11
REMARK    8  A    between atoms: O_11  and  S_12
REMARK    9  A    between atoms: S_12  and  O_15
REMARK   10  A    between atoms: O_16  and  C_17
REMARK   11  A    between atoms: C_19  and  C_20
REMARK   12  A    between atoms: C_20  and  O_21
REMARK   13  A    between atoms: O_21  and  S_22
REMARK   14  A    between atoms: S_22  and  O_25
REMARK   15  A    between atoms: C_26  and  O_27
REMARK   16  A    between atoms: O_27  and  S_28
REMARK   17  A    between atoms: S_28  and  O_31
REMARK   18  A    between atoms: C_32  and  O_33
REMARK   19  A    between atoms: O_33  and  S_34
REMARK   20  A    between atoms: S_34  and  O_37
REMARK   21  A    between atoms: C_38  and  O_39
REMARK   22  A    between atoms: O_39  and  S_40
REMARK   23  A    between atoms: S_40  and  O_43
REMARK   24  A    between atoms: C_44  and  O_45
REMARK   25  A    between atoms: O_45  and  S_46
REMARK   26  A    between atoms: S_46  and  O_49
REMARK   27  A    between atoms: C_50  and  O_51
REMARK   28  A    between atoms: O_51  and  S_52
REMARK   29  A    between atoms: S_52  and  O_55
REMARK                            x       y       z     vdW  Elec       q    Type
REMARK                         _______ _______ _______ _____ _____    ______ ____
ROOT
ATOM      1  O   UNL     1       0.029  -0.203  -0.617  0.00  0.00    +0.000 OA
ENDROOT
BRANCH   1   2
ATOM      2  C   UNL     1      -0.787  -1.119   0.330  0.00  0.00    +0.000 C 
ATOM      3  O   UNL     1      -1.819  -0.053   0.679  0.00  0.00    +0.000 OA
ATOM      4  C   UNL     1      -2.110   0.571  -0.645  0.00  0.00    +0.000 C 
ATOM      5  C   UNL     1      -3.671  -0.154  -0.643  0.00  0.00    +0.000 C 
ATOM      6  C   UNL     1      -3.256  -1.802  -0.397  0.00  0.00    +0.000 C 
ATOM      7  C   UNL     1      -1.643  -1.916  -0.972  0.00  0.00    +0.000 C 
BRANCH   4   8
ATOM      8  C   UNL     1      -2.736   1.950   0.021  0.00  0.00    +0.000 C 
BRANCH   8   9
ATOM      9  O   UNL     1      -2.344   2.107   1.273  0.00  0.00    +0.000 OA
BRANCH   9  10
ATOM     10  S   UNL     1      -3.415   2.010   2.506  0.00  0.00    +0.000 S 
ATOM     11  O   UNL     1      -3.600   3.385   3.109  0.00  0.00    +0.000 OA
ATOM     12  O   UNL     1      -4.718   1.508   1.946  0.00  0.00    +0.000 OA
BRANCH  10  13
ATOM     13  O   UNL     1      -2.892   1.040   3.788  0.00  0.00    +0.000 OA
ATOM     14  H   UNL     1      -2.052   1.383   4.132  0.00  0.00    +0.000 HD
ENDBRANCH  10  13
ENDBRANCH   9  10
ENDBRANCH   8   9
ENDBRANCH   4   8
BRANCH   5  15
ATOM     15  O   UNL     1      -3.785  -0.320  -2.140  0.00  0.00    +0.000 OA
BRANCH  15  16
ATOM     16  S   UNL     1      -4.492   1.028  -2.766  0.00  0.00    +0.000 S 
ATOM     17  O   UNL     1      -5.725   1.337  -1.995  0.00  0.00    +0.000 OA
ATOM     18  O   UNL     1      -4.866   0.730  -4.195  0.00  0.00    +0.000 OA
BRANCH  16  19
ATOM     19  O   UNL     1      -3.483   2.366  -2.856  0.00  0.00    +0.000 OA
ATOM     20  H   UNL     1      -3.200   2.617  -1.963  0.00  0.00    +0.000 HD
ENDBRANCH  16  19
ENDBRANCH  15  16
ENDBRANCH   5  15
BRANCH   6  21
ATOM     21  O   UNL     1      -2.932  -1.700   1.084  0.00  0.00    +0.000 OA
BRANCH  21  22
ATOM     22  S   UNL     1      -4.388  -1.863   1.814  0.00  0.00    +0.000 S 
ATOM     23  O   UNL     1      -5.533  -1.462   0.927  0.00  0.00    +0.000 OA
ATOM     24  O   UNL     1      -4.614  -3.271   2.286  0.00  0.00    +0.000 OA
BRANCH  22  25
ATOM     25  O   UNL     1      -4.515  -0.888   3.190  0.00  0.00    +0.000 OA
ATOM     26  H   UNL     1      -4.376   0.040   2.942  0.00  0.00    +0.000 HD
ENDBRANCH  22  25
ENDBRANCH  21  22
ENDBRANCH   6  21
BRANCH   7  27
ATOM     27  O   UNL     1      -1.656  -0.821  -1.991  0.00  0.00    +0.000 OA
BRANCH  27  28
ATOM     28  S   UNL     1      -0.907  -1.379  -3.361  0.00  0.00    +0.000 S 
ATOM     29  O   UNL     1      -1.822  -1.597  -4.512  0.00  0.00    +0.000 OA
ATOM     30  O   UNL     1      -0.223  -2.696  -3.082  0.00  0.00    +0.000 OA
BRANCH  28  31
ATOM     31  O   UNL     1       0.346  -0.324  -3.771  0.00  0.00    +0.000 OA
ATOM     32  H   UNL     1      -0.020   0.553  -3.965  0.00  0.00    +0.000 HD
ENDBRANCH  28  31
ENDBRANCH  27  28
ENDBRANCH   7  27
ENDBRANCH   1   2
BRANCH   1  35
ATOM     33  C   UNL     1       2.988   0.527   0.768  0.00  0.00    +0.000 C 
ATOM     34  O   UNL     1       2.321   0.329  -0.592  0.00  0.00    +0.000 OA
ATOM     35  C   UNL     1       1.194   0.020   0.046  0.00  0.00    +0.000 C 
ATOM     36  C   UNL     1       1.519  -1.434   0.736  0.00  0.00    +0.000 C 
ATOM     37  C   UNL     1       3.225  -1.171   0.804  0.00  0.00    +0.000 C 
BRANCH  33  38
ATOM     38  C   UNL     1       4.467   0.809   0.090  0.00  0.00    +0.000 C 
BRANCH  38  39
ATOM     39  O   UNL     1       4.906   1.807   0.962  0.00  0.00    +0.000 OA
BRANCH  39  41
ATOM     40  O   UNL     1       4.080   4.269   0.728  0.00  0.00    +0.000 OA
ATOM     41  S   UNL     1       5.050   3.306   0.229  0.00  0.00    +0.000 S 
ATOM     42  O   UNL     1       4.889   3.187  -1.255  0.00  0.00    +0.000 OA
BRANCH  41  43
ATOM     43  O   UNL     1       6.579   3.950   0.550  0.00  0.00    +0.000 OA
ATOM     44  H   UNL     1       6.660   4.818   0.125  0.00  0.00    +0.000 HD
ENDBRANCH  41  43
ENDBRANCH  39  41
ENDBRANCH  38  39
ENDBRANCH  33  38
BRANCH  35  45
ATOM     45  C   UNL     1       0.918   1.023   1.079  0.00  0.00    +0.000 C 
BRANCH  45  46
ATOM     46  O   UNL     1       0.920   2.252   0.638  0.00  0.00    +0.000 OA
BRANCH  46  47
ATOM     47  S   UNL     1       1.111   2.886  -0.773  0.00  0.00    +0.000 S 
ATOM     48  O   UNL     1       0.601   2.172  -2.000  0.00  0.00    +0.000 OA
ATOM     49  O   UNL     1       0.359   4.210  -0.820  0.00  0.00    +0.000 OA
BRANCH  47  50
ATOM     50  O   UNL     1       2.667   3.395  -1.216  0.00  0.00    +0.000 OA
ATOM     51  H   UNL     1       3.266   2.632  -1.227  0.00  0.00    +0.000 HD
ENDBRANCH  47  50
ENDBRANCH  46  47
ENDBRANCH  45  46
ENDBRANCH  35  45
BRANCH  36  52
ATOM     52  O   UNL     1       1.591  -2.061  -0.650  0.00  0.00    +0.000 OA
BRANCH  52  53
ATOM     53  S   UNL     1       2.168  -3.555  -0.629  0.00  0.00    +0.000 S 
ATOM     54  O   UNL     1       3.356  -3.606  -1.572  0.00  0.00    +0.000 OA
ATOM     55  O   UNL     1       1.173  -4.534  -1.221  0.00  0.00    +0.000 OA
BRANCH  53  56
ATOM     56  O   UNL     1       2.633  -4.205   0.809  0.00  0.00    +0.000 OA
ATOM     57  H   UNL     1       3.275  -3.617   1.237  0.00  0.00    +0.000 HD
ENDBRANCH  53  56
ENDBRANCH  52  53
ENDBRANCH  36  52
BRANCH  37  58
ATOM     58  O   UNL     1       3.225  -1.166   2.306  0.00  0.00    +0.000 OA
BRANCH  58  59
ATOM     59  S   UNL     1       4.577  -1.992   2.843  0.00  0.00    +0.000 S 
ATOM     60  O   UNL     1       4.133  -3.300   3.472  0.00  0.00    +0.000 OA
ATOM     61  O   UNL     1       5.437  -2.437   1.679  0.00  0.00    +0.000 OA
BRANCH  59  62
ATOM     62  O   UNL     1       5.469  -1.144   3.978  0.00  0.00    +0.000 OA
ATOM     63  H   UNL     1       4.890  -0.874   4.708  0.00  0.00    +0.000 HD
ENDBRANCH  59  62
ENDBRANCH  58  59
ENDBRANCH  37  58
ENDBRANCH   1  35
TORSDOF 29
