REMARK  Name = 46926304
REMARK  8 active torsions:
REMARK  status: ('A' for Active; 'I' for Inactive)
REMARK    1  A    between atoms: P_1  and  O_5
REMARK    2  A    between atoms: O_3  and  C_14
REMARK    3  A    between atoms: O_4  and  C_15
REMARK    4  A    between atoms: O_5  and  C_18
REMARK    5  A    between atoms: O_6  and  C_19
REMARK    6  A    between atoms: N_11  and  C_16
REMARK    7  A    between atoms: C_17  and  C_18
REMARK    8  A    between atoms: C_21  and  C_22
REMARK                            x       y       z     vdW  Elec       q    Type
REMARK                         _______ _______ _______ _____ _____    ______ ____
ROOT
ATOM      1  O   UNL     1       0.910  -0.822   1.076  0.00  0.00    +0.000 OA
ATOM      2  C   UNL     1       0.107  -2.033  -0.792  0.00  0.00    +0.000 C 
ATOM      3  C   UNL     1       1.466  -2.589  -0.413  0.00  0.00    +0.000 C 
ATOM      4  C   UNL     1      -0.311  -1.319   0.489  0.00  0.00    +0.000 C 
ATOM      5  C   UNL     1       2.039  -1.473   0.451  0.00  0.00    +0.000 C 
ENDROOT
BRANCH   4   6
ATOM      6  N   UNL     1      -1.300  -0.204   0.246  0.00  0.00    +0.000 N 
ATOM      7  N   UNL     1      -2.060   1.831  -0.216  0.00  0.00    +0.000 NA
ATOM      8  C   UNL     1      -2.663  -0.295   0.287  0.00  0.00    +0.000 A 
ATOM      9  C   UNL     1      -0.985   1.091  -0.059  0.00  0.00    +0.000 A 
ATOM     10  C   UNL     1      -3.110   0.973  -0.001  0.00  0.00    +0.000 A 
BRANCH  10  13
ATOM     11  O   UNL     1      -5.434   0.616   0.133  0.00  0.00    +0.000 OA
ATOM     12  N   UNL     1      -4.743   2.740  -0.387  0.00  0.00    +0.000 N 
ATOM     13  C   UNL     1      -4.475   1.398  -0.080  0.00  0.00    +0.000 C 
ATOM     14  H   UNL     1      -5.697   3.080  -0.446  0.00  0.00    +0.000 HD
ATOM     15  H   UNL     1      -4.001   3.410  -0.560  0.00  0.00    +0.000 HD
ENDBRANCH  10  13
BRANCH   8  16
ATOM     16  O   UNL     1      -3.289  -1.430   0.558  0.00  0.00    +0.000 OA
ATOM     17  H   UNL     1      -4.245  -1.248   0.529  0.00  0.00    +0.000 HD
ENDBRANCH   8  16
ENDBRANCH   4   6
BRANCH   2  18
ATOM     18  O   UNL     1      -0.808  -3.035  -1.190  0.00  0.00    +0.000 OA
ATOM     19  H   UNL     1      -0.413  -3.508  -1.942  0.00  0.00    +0.000 HD
ENDBRANCH   2  18
BRANCH   3  20
ATOM     20  O   UNL     1       1.318  -3.748   0.405  0.00  0.00    +0.000 OA
ATOM     21  H   UNL     1       2.211  -4.046   0.651  0.00  0.00    +0.000 HD
ENDBRANCH   3  20
BRANCH   5  22
ATOM     22  C   UNL     1       2.806  -0.431  -0.350  0.00  0.00    +0.000 C 
BRANCH  22  23
ATOM     23  O   UNL     1       3.286   0.562   0.539  0.00  0.00    +0.000 OA
BRANCH  23  24
ATOM     24  P   UNL     1       4.161   1.824  -0.074  0.00  0.00    +0.000 P 
ATOM     25  O   UNL     1       4.493   2.662   1.157  0.00  0.00    +0.000 OA
ATOM     26  O   UNL     1       3.215   2.510  -1.054  0.00  0.00    +0.000 OA
ATOM     27  O   UNL     1       5.377   1.171  -0.725  0.00  0.00    +0.000 OA
ENDBRANCH  23  24
ENDBRANCH  22  23
ENDBRANCH   5  22
TORSDOF 8
