REMARK  Name = 446724
REMARK  17 active torsions:
REMARK  status: ('A' for Active; 'I' for Inactive)
REMARK    1  A    between atoms: P_1  and  O_7
REMARK    2  A    between atoms: P_1  and  O_12
REMARK    3  A    between atoms: P_1  and  C_33
REMARK    4  A    between atoms: P_2  and  O_8
REMARK    5  A    between atoms: P_2  and  O_13
REMARK    6  A    between atoms: P_2  and  C_33
REMARK    7  A    between atoms: O_4  and  C_21
REMARK    8  A    between atoms: O_6  and  C_22
REMARK    9  A    between atoms: O_7  and  C_25
REMARK   10  A    between atoms: O_8  and  C_30
REMARK   11  A    between atoms: O_9  and  C_27
REMARK   12  A    between atoms: O_10  and  C_28
REMARK   13  A    between atoms: O_11  and  C_29
REMARK   14  A    between atoms: N_16  and  C_24
REMARK   15  A    between atoms: N_20  and  C_35
REMARK   16  A    between atoms: C_23  and  C_25
REMARK   17  A    between atoms: C_26  and  C_30
REMARK                            x       y       z     vdW  Elec       q    Type
REMARK                         _______ _______ _______ _____ _____    ______ ____
ROOT
ATOM      1  O   UNL     1      -0.888  -3.234  -0.272  0.00  0.00    +0.000 OA
ENDROOT
BRANCH   1   2
ATOM      2  P   UNL     1      -2.440  -3.473   0.113  0.00  0.00    +0.000 P 
ATOM      3  O   UNL     1      -3.159  -4.444  -0.778  0.00  0.00    +0.000 OA
BRANCH   2   4
ATOM      4  O   UNL     1      -2.411  -3.901   1.673  0.00  0.00    +0.000 OA
ATOM      5  H   UNL     1      -2.101  -4.800   1.912  0.00  0.00    +0.000 HD
ENDBRANCH   2   4
BRANCH   2   6
ATOM      6  C   UNL     1      -3.192  -1.828   0.136  0.00  0.00    +0.000 C 
BRANCH   6   7
ATOM      7  P   UNL     1      -4.905  -1.497   0.613  0.00  0.00    +0.000 P 
ATOM      8  O   UNL     1      -5.924  -2.229  -0.208  0.00  0.00    +0.000 OA
BRANCH   7   9
ATOM      9  O   UNL     1      -4.923  -1.839   2.192  0.00  0.00    +0.000 OA
ATOM     10  H   UNL     1      -4.076  -1.955   2.673  0.00  0.00    +0.000 HD
ENDBRANCH   7   9
BRANCH   7  11
ATOM     11  O   UNL     1      -4.988   0.117   0.561  0.00  0.00    +0.000 OA
BRANCH  11  12
ATOM     12  C   UNL     1      -5.154   0.747  -0.698  0.00  0.00    +0.000 C 
BRANCH  12  14
ATOM     13  O   UNL     1      -5.080   2.906   0.392  0.00  0.00    +0.000 OA
ATOM     14  C   UNL     1      -4.493   2.113  -0.658  0.00  0.00    +0.000 C 
ATOM     15  C   UNL     1      -3.002   2.050  -0.351  0.00  0.00    +0.000 C 
ATOM     16  C   UNL     1      -2.770   3.404   0.285  0.00  0.00    +0.000 C 
ATOM     17  C   UNL     1      -4.018   3.516   1.150  0.00  0.00    +0.000 C 
BRANCH  15  18
ATOM     18  O   UNL     1      -2.231   1.837  -1.514  0.00  0.00    +0.000 OA
ATOM     19  H   UNL     1      -1.295   1.919  -1.262  0.00  0.00    +0.000 HD
ENDBRANCH  15  18
BRANCH  16  20
ATOM     20  O   UNL     1      -2.773   4.414  -0.722  0.00  0.00    +0.000 OA
ATOM     21  H   UNL     1      -2.756   5.273  -0.267  0.00  0.00    +0.000 HD
ENDBRANCH  16  20
BRANCH  17  22
ATOM     22  O   UNL     1      -4.288   4.866   1.483  0.00  0.00    +0.000 OA
ATOM     23  H   UNL     1      -4.826   4.860   2.293  0.00  0.00    +0.000 HD
ENDBRANCH  17  22
ENDBRANCH  12  14
ENDBRANCH  11  12
ENDBRANCH   7  11
ENDBRANCH   6   7
ENDBRANCH   2   6
ENDBRANCH   1   2
BRANCH   1  24
ATOM     24  C   UNL     1      -0.048  -2.434   0.540  0.00  0.00    +0.000 C 
BRANCH  24  28
ATOM     25  O   UNL     1       1.369  -0.475   0.511  0.00  0.00    +0.000 OA
ATOM     26  C   UNL     1       1.290  -1.702  -1.490  0.00  0.00    +0.000 C 
ATOM     27  C   UNL     1       2.137  -0.473  -1.763  0.00  0.00    +0.000 C 
ATOM     28  C   UNL     1       0.475  -1.271  -0.283  0.00  0.00    +0.000 C 
ATOM     29  C   UNL     1       2.364   0.100  -0.363  0.00  0.00    +0.000 C 
BRANCH  29  30
ATOM     30  N   UNL     1       3.699  -0.170   0.172  0.00  0.00    +0.000 N 
ATOM     31  N   UNL     1       5.346  -1.249   1.218  0.00  0.00    +0.000 NA
ATOM     32  N   UNL     1       4.884   1.837  -0.513  0.00  0.00    +0.000 NA
ATOM     33  N   UNL     1       7.215   1.778   0.207  0.00  0.00    +0.000 NA
ATOM     34  C   UNL     1       4.797   0.637   0.081  0.00  0.00    +0.000 A 
ATOM     35  C   UNL     1       4.078  -1.290   0.864  0.00  0.00    +0.000 A 
ATOM     36  C   UNL     1       5.808  -0.050   0.735  0.00  0.00    +0.000 A 
ATOM     37  C   UNL     1       7.055   0.564   0.786  0.00  0.00    +0.000 A 
ATOM     38  C   UNL     1       6.136   2.331  -0.398  0.00  0.00    +0.000 A 
BRANCH  37  39
ATOM     39  N   UNL     1       8.137  -0.062   1.428  0.00  0.00    +0.000 N 
ATOM     40  H   UNL     1       9.034   0.405   1.452  0.00  0.00    +0.000 HD
ATOM     41  H   UNL     1       8.020  -0.968   1.860  0.00  0.00    +0.000 HD
ENDBRANCH  37  39
ENDBRANCH  29  30
BRANCH  26  42
ATOM     42  O   UNL     1       0.472  -2.075  -2.579  0.00  0.00    +0.000 OA
ATOM     43  H   UNL     1      -0.082  -2.820  -2.290  0.00  0.00    +0.000 HD
ENDBRANCH  26  42
BRANCH  27  44
ATOM     44  O   UNL     1       1.425   0.479  -2.552  0.00  0.00    +0.000 OA
ATOM     45  H   UNL     1       2.001   1.256  -2.656  0.00  0.00    +0.000 HD
ENDBRANCH  27  44
ENDBRANCH  24  28
ENDBRANCH   1  24
TORSDOF 17
