REMARK  Name = 5288599
REMARK  19 active torsions:
REMARK  status: ('A' for Active; 'I' for Inactive)
REMARK    1  A    between atoms: P_1  and  O_4
REMARK    2  A    between atoms: P_1  and  O_10
REMARK    3  A    between atoms: P_1  and  O_11
REMARK    4  A    between atoms: P_2  and  O_5
REMARK    5  A    between atoms: P_2  and  O_12
REMARK    6  A    between atoms: P_2  and  O_13
REMARK    7  A    between atoms: P_3  and  O_6
REMARK    8  A    between atoms: P_3  and  O_14
REMARK    9  A    between atoms: P_3  and  O_15
REMARK   10  A    between atoms: O_4  and  C_23
REMARK   11  A    between atoms: O_5  and  C_21
REMARK   12  A    between atoms: O_6  and  C_22
REMARK   13  A    between atoms: O_7  and  C_24
REMARK   14  A    between atoms: O_8  and  C_25
REMARK   15  A    between atoms: O_9  and  C_26
REMARK   16  A    between atoms: O_10  and  C_27
REMARK   17  A    between atoms: O_20  and  C_29
REMARK   18  A    between atoms: C_27  and  C_28
REMARK   19  A    between atoms: C_28  and  C_29
REMARK                            x       y       z     vdW  Elec       q    Type
REMARK                         _______ _______ _______ _____ _____    ______ ____
ROOT
ATOM      1  C   UNL     1      -2.300  -0.413  -0.118  0.00  0.00    +0.000 C 
ATOM      2  C   UNL     1      -2.964   0.693   0.726  0.00  0.00    +0.000 C 
ATOM      3  C   UNL     1      -0.026   0.236   0.816  0.00  0.00    +0.000 C 
ATOM      4  C   UNL     1      -0.830  -0.110  -0.445  0.00  0.00    +0.000 C 
ATOM      5  C   UNL     1      -2.134   1.085   1.957  0.00  0.00    +0.000 C 
ATOM      6  C   UNL     1      -0.672   1.384   1.598  0.00  0.00    +0.000 C 
ENDROOT
BRANCH   4   7
ATOM      7  O   UNL     1      -0.763   0.987  -1.357  0.00  0.00    +0.000 OA
ATOM      8  H   UNL     1      -1.264   0.739  -2.152  0.00  0.00    +0.000 HD
ENDBRANCH   4   7
BRANCH   5   9
ATOM      9  O   UNL     1      -2.203   0.044   2.932  0.00  0.00    +0.000 OA
ATOM     10  H   UNL     1      -3.139  -0.080   3.165  0.00  0.00    +0.000 HD
ENDBRANCH   5   9
BRANCH   6  11
ATOM     11  O   UNL     1       0.055   1.616   2.804  0.00  0.00    +0.000 OA
ATOM     12  H   UNL     1      -0.371   2.359   3.265  0.00  0.00    +0.000 HD
ENDBRANCH   6  11
BRANCH   3  13
ATOM     13  O   UNL     1       1.298   0.624   0.445  0.00  0.00    +0.000 OA
BRANCH  13  14
ATOM     14  P   UNL     1       2.383  -0.505   0.052  0.00  0.00    +0.000 P 
ATOM     15  O   UNL     1       2.335  -1.738   0.909  0.00  0.00    +0.000 OA
BRANCH  14  16
ATOM     16  O   UNL     1       2.120  -0.785  -1.521  0.00  0.00    +0.000 OA
ATOM     17  H   UNL     1       2.544  -1.562  -1.943  0.00  0.00    +0.000 HD
ENDBRANCH  14  16
BRANCH  14  18
ATOM     18  O   UNL     1       3.809   0.262   0.054  0.00  0.00    +0.000 OA
BRANCH  18  19
ATOM     19  C   UNL     1       4.955  -0.442  -0.392  0.00  0.00    +0.000 C 
BRANCH  19  21
ATOM     20  O   UNL     1       6.140   1.594   0.095  0.00  0.00    +0.000 OA
ATOM     21  C   UNL     1       6.187   0.436  -0.317  0.00  0.00    +0.000 C 
BRANCH  21  22
ATOM     22  C   UNL     1       7.481  -0.200  -0.782  0.00  0.00    +0.000 C 
BRANCH  22  23
ATOM     23  O   UNL     1       8.558   0.704  -0.655  0.00  0.00    +0.000 OA
ATOM     24  H   UNL     1       9.357   0.246  -0.966  0.00  0.00    +0.000 HD
ENDBRANCH  22  23
ENDBRANCH  21  22
ENDBRANCH  19  21
ENDBRANCH  18  19
ENDBRANCH  14  18
ENDBRANCH  13  14
ENDBRANCH   3  13
BRANCH   1  25
ATOM     25  O   UNL     1      -2.384  -1.647   0.591  0.00  0.00    +0.000 OA
BRANCH  25  26
ATOM     26  P   UNL     1      -2.311  -3.015  -0.258  0.00  0.00    +0.000 P 
ATOM     27  O   UNL     1      -1.050  -3.211  -1.049  0.00  0.00    +0.000 OA
BRANCH  26  28
ATOM     28  O   UNL     1      -2.591  -4.140   0.869  0.00  0.00    +0.000 OA
ATOM     29  H   UNL     1      -2.509  -5.087   0.625  0.00  0.00    +0.000 HD
ENDBRANCH  26  28
BRANCH  26  30
ATOM     30  O   UNL     1      -3.676  -3.008  -1.124  0.00  0.00    +0.000 OA
ATOM     31  H   UNL     1      -3.832  -3.728  -1.771  0.00  0.00    +0.000 HD
ENDBRANCH  26  30
ENDBRANCH  25  26
ENDBRANCH   1  25
BRANCH   2  32
ATOM     32  O   UNL     1      -3.162   1.859  -0.070  0.00  0.00    +0.000 OA
BRANCH  32  33
ATOM     33  P   UNL     1      -4.376   1.856  -1.132  0.00  0.00    +0.000 P 
ATOM     34  O   UNL     1      -5.645   1.216  -0.650  0.00  0.00    +0.000 OA
BRANCH  33  35
ATOM     35  O   UNL     1      -4.505   3.421  -1.519  0.00  0.00    +0.000 OA
ATOM     36  H   UNL     1      -5.247   3.708  -2.093  0.00  0.00    +0.000 HD
ENDBRANCH  33  35
BRANCH  33  37
ATOM     37  O   UNL     1      -3.729   1.197  -2.459  0.00  0.00    +0.000 OA
ATOM     38  H   UNL     1      -4.304   1.034  -3.237  0.00  0.00    +0.000 HD
ENDBRANCH  33  37
ENDBRANCH  32  33
ENDBRANCH   2  32
TORSDOF 19
