REMARK  Name = 440141
REMARK  12 active torsions:
REMARK  status: ('A' for Active; 'I' for Inactive)
REMARK    1  A    between atoms: P_1  and  O_4
REMARK    2  A    between atoms: P_1  and  O_7
REMARK    3  A    between atoms: P_1  and  O_8
REMARK    4  A    between atoms: P_2  and  O_6
REMARK    5  A    between atoms: P_2  and  O_10
REMARK    6  A    between atoms: P_2  and  O_11
REMARK    7  A    between atoms: O_4  and  C_18
REMARK    8  A    between atoms: O_5  and  C_19
REMARK    9  A    between atoms: O_6  and  C_22
REMARK   10  A    between atoms: N_13  and  C_20
REMARK   11  A    between atoms: N_17  and  C_26
REMARK   12  A    between atoms: C_21  and  C_22
REMARK                            x       y       z     vdW  Elec       q    Type
REMARK                         _______ _______ _______ _____ _____    ______ ____
ROOT
ATOM      1  O   UNL     1       1.113   0.266   1.425  0.00  0.00    +0.000 OA
ATOM      2  C   UNL     1       0.189  -1.421   0.043  0.00  0.00    +0.000 C 
ATOM      3  C   UNL     1       1.468  -1.958   0.654  0.00  0.00    +0.000 C 
ATOM      4  C   UNL     1      -0.147  -0.284   0.996  0.00  0.00    +0.000 C 
ATOM      5  C   UNL     1       2.162  -0.685   1.129  0.00  0.00    +0.000 C 
ENDROOT
BRANCH   4   6
ATOM      6  N   UNL     1      -0.968   0.769   0.402  0.00  0.00    +0.000 N 
ATOM      7  N   UNL     1      -1.486   2.627  -0.720  0.00  0.00    +0.000 NA
ATOM      8  N   UNL     1      -3.194   0.033   1.036  0.00  0.00    +0.000 NA
ATOM      9  N   UNL     1      -4.905   1.565   0.210  0.00  0.00    +0.000 NA
ATOM     10  C   UNL     1      -2.330   0.871   0.444  0.00  0.00    +0.000 A 
ATOM     11  C   UNL     1      -0.507   1.848  -0.308  0.00  0.00    +0.000 A 
ATOM     12  C   UNL     1      -2.631   2.028  -0.257  0.00  0.00    +0.000 A 
ATOM     13  C   UNL     1      -3.976   2.366  -0.365  0.00  0.00    +0.000 A 
ATOM     14  C   UNL     1      -4.463   0.464   0.865  0.00  0.00    +0.000 A 
BRANCH  13  15
ATOM     15  N   UNL     1      -4.372   3.523  -1.059  0.00  0.00    +0.000 N 
ATOM     16  H   UNL     1      -3.680   4.122  -1.490  0.00  0.00    +0.000 HD
ATOM     17  H   UNL     1      -5.355   3.747  -1.124  0.00  0.00    +0.000 HD
ENDBRANCH  13  15
ENDBRANCH   4   6
BRANCH   3  18
ATOM     18  O   UNL     1       1.152  -2.761   1.791  0.00  0.00    +0.000 OA
ATOM     19  H   UNL     1       1.992  -3.050   2.185  0.00  0.00    +0.000 HD
ENDBRANCH   3  18
BRANCH   2  20
ATOM     20  O   UNL     1      -0.843  -2.383  -0.015  0.00  0.00    +0.000 OA
BRANCH  20  21
ATOM     21  P   UNL     1      -0.593  -3.741  -0.865  0.00  0.00    +0.000 P 
ATOM     22  O   UNL     1       0.562  -4.576  -0.395  0.00  0.00    +0.000 OA
BRANCH  21  23
ATOM     23  O   UNL     1      -0.495  -3.223  -2.393  0.00  0.00    +0.000 OA
ATOM     24  H   UNL     1      -0.267  -3.866  -3.099  0.00  0.00    +0.000 HD
ENDBRANCH  21  23
BRANCH  21  25
ATOM     25  O   UNL     1      -2.033  -4.475  -0.812  0.00  0.00    +0.000 OA
ATOM     26  H   UNL     1      -2.118  -5.379  -1.184  0.00  0.00    +0.000 HD
ENDBRANCH  21  25
ENDBRANCH  20  21
ENDBRANCH   2  20
BRANCH   5  27
ATOM     27  C   UNL     1       3.076  -0.078   0.073  0.00  0.00    +0.000 C 
BRANCH  27  28
ATOM     28  O   UNL     1       3.661   1.098   0.603  0.00  0.00    +0.000 OA
BRANCH  28  29
ATOM     29  P   UNL     1       4.684   1.939  -0.330  0.00  0.00    +0.000 P 
ATOM     30  O   UNL     1       5.257   3.170   0.308  0.00  0.00    +0.000 OA
BRANCH  29  31
ATOM     31  O   UNL     1       3.844   2.192  -1.689  0.00  0.00    +0.000 OA
ATOM     32  H   UNL     1       4.237   2.751  -2.393  0.00  0.00    +0.000 HD
ENDBRANCH  29  31
BRANCH  29  33
ATOM     33  O   UNL     1       5.772   0.826  -0.768  0.00  0.00    +0.000 OA
ATOM     34  H   UNL     1       6.564   1.110  -1.274  0.00  0.00    +0.000 HD
ENDBRANCH  29  33
ENDBRANCH  28  29
ENDBRANCH  27  28
ENDBRANCH   5  27
TORSDOF 12
