REMARK  Name = 170119
REMARK  16 active torsions:
REMARK  status: ('A' for Active; 'I' for Inactive)
REMARK    1  A    between atoms: P_1  and  O_9
REMARK    2  A    between atoms: P_1  and  O_11
REMARK    3  A    between atoms: P_1  and  O_12
REMARK    4  A    between atoms: P_2  and  O_10
REMARK    5  A    between atoms: P_2  and  O_11
REMARK    6  A    between atoms: O_5  and  C_24
REMARK    7  A    between atoms: O_6  and  C_25
REMARK    8  A    between atoms: O_7  and  C_28
REMARK    9  A    between atoms: O_8  and  C_29
REMARK   10  A    between atoms: O_9  and  C_32
REMARK   11  A    between atoms: O_10  and  C_33
REMARK   12  A    between atoms: N_17  and  C_26
REMARK   13  A    between atoms: N_18  and  C_31
REMARK   14  A    between atoms: C_27  and  C_32
REMARK   15  A    between atoms: C_30  and  C_33
REMARK   16  A    between atoms: C_40  and  C_45
REMARK                            x       y       z     vdW  Elec       q    Type
REMARK                         _______ _______ _______ _____ _____    ______ ____
ROOT
ATOM      1  P   UNL     1      -4.430   1.126   1.790  0.00  0.00    +0.000 P 
ATOM      2  O   UNL     1      -5.751   1.502   1.184  0.00  0.00    +0.000 OA
ENDROOT
BRANCH   1   3
ATOM      3  O   UNL     1      -4.441   1.040   3.406  0.00  0.00    +0.000 OA
ATOM      4  H   UNL     1      -5.181   0.575   3.851  0.00  0.00    +0.000 HD
ENDBRANCH   1   3
BRANCH   1   5
ATOM      5  O   UNL     1      -3.215   2.140   1.450  0.00  0.00    +0.000 OA
BRANCH   5   6
ATOM      6  C   UNL     1      -1.919   1.891   1.966  0.00  0.00    +0.000 C 
BRANCH   6  11
ATOM      7  O   UNL     1       0.345   2.710   1.984  0.00  0.00    +0.000 OA
ATOM      8  C   UNL     1       0.289   2.138  -0.313  0.00  0.00    +0.000 C 
ATOM      9  C   UNL     1      -0.875   3.066  -0.029  0.00  0.00    +0.000 C 
ATOM     10  C   UNL     1       1.207   2.433   0.863  0.00  0.00    +0.000 C 
ATOM     11  C   UNL     1      -0.985   2.994   1.491  0.00  0.00    +0.000 C 
BRANCH  10  12
ATOM     12  N   UNL     1       2.116   1.340   1.199  0.00  0.00    +0.000 N 
ATOM     13  N   UNL     1       2.845  -0.561   2.142  0.00  0.00    +0.000 NA
ATOM     14  N   UNL     1       4.082   1.996  -0.079  0.00  0.00    +0.000 NA
ATOM     15  N   UNL     1       5.823   0.411   0.221  0.00  0.00    +0.000 N 
ATOM     16  N   UNL     1       5.775  -1.446   1.468  0.00  0.00    +0.000 NA
ATOM     17  C   UNL     1       3.397   1.170   0.761  0.00  0.00    +0.000 A 
ATOM     18  C   UNL     1       1.831   0.276   2.025  0.00  0.00    +0.000 A 
ATOM     19  C   UNL     1       3.804  -0.004   1.361  0.00  0.00    +0.000 A 
ATOM     20  C   UNL     1       5.095  -0.400   1.069  0.00  0.00    +0.000 A 
ATOM     21  C   UNL     1       5.302   1.592  -0.336  0.00  0.00    +0.000 A 
ATOM     22  C   UNL     1       7.052  -0.164   0.073  0.00  0.00    +0.000 A 
ATOM     23  C   UNL     1       6.998  -1.305   0.850  0.00  0.00    +0.000 A 
ENDBRANCH  10  12
BRANCH   8  24
ATOM     24  O   UNL     1       0.918   2.401  -1.551  0.00  0.00    +0.000 OA
ATOM     25  H   UNL     1       0.227   2.412  -2.234  0.00  0.00    +0.000 HD
ENDBRANCH   8  24
BRANCH   9  26
ATOM     26  O   UNL     1      -0.523   4.399  -0.402  0.00  0.00    +0.000 OA
ATOM     27  H   UNL     1      -1.273   4.973  -0.171  0.00  0.00    +0.000 HD
ENDBRANCH   9  26
ENDBRANCH   6  11
ENDBRANCH   5   6
ENDBRANCH   1   5
BRANCH   1  28
ATOM     28  O   UNL     1      -3.883  -0.330   1.347  0.00  0.00    +0.000 OA
BRANCH  28  29
ATOM     29  P   UNL     1      -4.523  -1.821   1.528  0.00  0.00    +0.000 P 
ATOM     30  O   UNL     1      -5.790  -1.903   0.704  0.00  0.00    +0.000 OA
ATOM     31  O   UNL     1      -4.541  -2.161   3.003  0.00  0.00    +0.000 OA
BRANCH  29  32
ATOM     32  O   UNL     1      -3.351  -2.710   0.813  0.00  0.00    +0.000 OA
BRANCH  32  33
ATOM     33  C   UNL     1      -1.994  -2.457   1.140  0.00  0.00    +0.000 C 
BRANCH  33  37
ATOM     34  O   UNL     1      -1.301  -3.144  -1.061  0.00  0.00    +0.000 OA
ATOM     35  C   UNL     1       0.378  -3.204   0.624  0.00  0.00    +0.000 C 
ATOM     36  C   UNL     1       0.763  -2.174  -0.420  0.00  0.00    +0.000 C 
ATOM     37  C   UNL     1      -1.108  -3.407   0.348  0.00  0.00    +0.000 C 
ATOM     38  C   UNL     1      -0.076  -2.618  -1.605  0.00  0.00    +0.000 C 
BRANCH  38  39
ATOM     39  N   UNL     1      -0.315  -1.480  -2.529  0.00  0.00    +0.000 N 
ATOM     40  C   UNL     1      -1.368  -0.680  -2.310  0.00  0.00    +0.000 A 
ATOM     41  C   UNL     1       0.530  -1.289  -3.550  0.00  0.00    +0.000 A 
ATOM     42  C   UNL     1      -1.616   0.391  -3.157  0.00  0.00    +0.000 A 
ATOM     43  C   UNL     1       0.332  -0.234  -4.429  0.00  0.00    +0.000 A 
ATOM     44  C   UNL     1      -0.754   0.613  -4.226  0.00  0.00    +0.000 A 
BRANCH  42  47
ATOM     45  O   UNL     1      -3.002   2.220  -3.686  0.00  0.00    +0.000 OA
ATOM     46  N   UNL     1      -3.578   0.986  -1.840  0.00  0.00    +0.000 N 
ATOM     47  C   UNL     1      -2.755   1.264  -2.929  0.00  0.00    +0.000 C 
ATOM     48  H   UNL     1      -4.383   1.577  -1.661  0.00  0.00    +0.000 HD
ATOM     49  H   UNL     1      -3.448   0.231  -1.179  0.00  0.00    +0.000 HD
ENDBRANCH  42  47
ENDBRANCH  38  39
BRANCH  35  50
ATOM     50  O   UNL     1       1.067  -4.427   0.361  0.00  0.00    +0.000 OA
ATOM     51  H   UNL     1       0.763  -5.077   1.018  0.00  0.00    +0.000 HD
ENDBRANCH  35  50
BRANCH  36  52
ATOM     52  O   UNL     1       2.143  -2.178  -0.719  0.00  0.00    +0.000 OA
ATOM     53  H   UNL     1       2.625  -2.142   0.124  0.00  0.00    +0.000 HD
ENDBRANCH  36  52
ENDBRANCH  33  37
ENDBRANCH  32  33
ENDBRANCH  29  32
ENDBRANCH  28  29
ENDBRANCH   1  28
TORSDOF 16
