REMARK  Name = 447253
REMARK  16 active torsions:
REMARK  status: ('A' for Active; 'I' for Inactive)
REMARK    1  A    between atoms: P_1  and  O_6
REMARK    2  A    between atoms: P_1  and  O_7
REMARK    3  A    between atoms: P_1  and  O_9
REMARK    4  A    between atoms: P_2  and  O_7
REMARK    5  A    between atoms: P_2  and  O_11
REMARK    6  A    between atoms: P_2  and  O_12
REMARK    7  A    between atoms: O_4  and  C_19
REMARK    8  A    between atoms: O_5  and  C_20
REMARK    9  A    between atoms: O_6  and  C_23
REMARK   10  A    between atoms: O_11  and  C_28
REMARK   11  A    between atoms: O_14  and  C_29
REMARK   12  A    between atoms: O_15  and  C_30
REMARK   13  A    between atoms: N_16  and  C_22
REMARK   14  A    between atoms: C_21  and  C_23
REMARK   15  A    between atoms: C_28  and  C_29
REMARK   16  A    between atoms: C_29  and  C_30
REMARK                            x       y       z     vdW  Elec       q    Type
REMARK                         _______ _______ _______ _____ _____    ______ ____
ROOT
ATOM      1  O   UNL     1      -1.071  -2.610   0.750  0.00  0.00    +0.000 OA
ATOM      2  C   UNL     1       0.216  -2.613  -1.238  0.00  0.00    +0.000 C 
ATOM      3  C   UNL     1      -0.934  -1.644  -1.409  0.00  0.00    +0.000 C 
ATOM      4  C   UNL     1       0.285  -2.764   0.275  0.00  0.00    +0.000 C 
ATOM      5  C   UNL     1      -1.886  -2.088  -0.312  0.00  0.00    +0.000 C 
ENDROOT
BRANCH   5   7
ATOM      6  O   UNL     1      -4.470  -1.405  -1.200  0.00  0.00    +0.000 OA
ATOM      7  N   UNL     1      -2.679  -1.006   0.198  0.00  0.00    +0.000 N 
ATOM      8  N   UNL     1      -4.683   0.337   0.239  0.00  0.00    +0.000 NA
ATOM      9  N   UNL     1      -4.894   2.122   1.714  0.00  0.00    +0.000 N 
ATOM     10  C   UNL     1      -2.154  -0.215   1.209  0.00  0.00    +0.000 A 
ATOM     11  C   UNL     1      -3.975  -0.723  -0.301  0.00  0.00    +0.000 A 
ATOM     12  C   UNL     1      -2.818   0.810   1.740  0.00  0.00    +0.000 A 
ATOM     13  C   UNL     1      -4.174   1.073   1.192  0.00  0.00    +0.000 A 
ATOM     14  H   UNL     1      -5.824   2.338   1.370  0.00  0.00    +0.000 HD
ATOM     15  H   UNL     1      -4.527   2.712   2.454  0.00  0.00    +0.000 HD
ENDBRANCH   5   7
BRANCH   2  16
ATOM     16  O   UNL     1      -0.121  -3.884  -1.792  0.00  0.00    +0.000 OA
ATOM     17  H   UNL     1       0.630  -4.481  -1.631  0.00  0.00    +0.000 HD
ENDBRANCH   2  16
BRANCH   3  18
ATOM     18  O   UNL     1      -1.514  -1.720  -2.695  0.00  0.00    +0.000 OA
ATOM     19  H   UNL     1      -2.293  -1.138  -2.699  0.00  0.00    +0.000 HD
ENDBRANCH   3  18
BRANCH   4  20
ATOM     20  C   UNL     1       1.146  -1.703   0.948  0.00  0.00    +0.000 C 
BRANCH  20  21
ATOM     21  O   UNL     1       2.507  -2.078   0.824  0.00  0.00    +0.000 OA
BRANCH  21  22
ATOM     22  P   UNL     1       3.666  -1.137   1.448  0.00  0.00    +0.000 P 
ATOM     23  O   UNL     1       5.064  -1.646   1.249  0.00  0.00    +0.000 OA
BRANCH  22  24
ATOM     24  O   UNL     1       3.239  -0.945   2.996  0.00  0.00    +0.000 OA
ATOM     25  H   UNL     1       3.868  -0.510   3.611  0.00  0.00    +0.000 HD
ENDBRANCH  22  24
BRANCH  22  26
ATOM     26  O   UNL     1       3.394   0.322   0.805  0.00  0.00    +0.000 OA
BRANCH  26  27
ATOM     27  P   UNL     1       3.498   0.845  -0.721  0.00  0.00    +0.000 P 
ATOM     28  O   UNL     1       2.989  -0.123  -1.749  0.00  0.00    +0.000 OA
BRANCH  27  29
ATOM     29  O   UNL     1       5.061   1.236  -0.866  0.00  0.00    +0.000 OA
ATOM     30  H   UNL     1       5.460   1.842  -0.206  0.00  0.00    +0.000 HD
ENDBRANCH  27  29
BRANCH  27  31
ATOM     31  O   UNL     1       2.742   2.274  -0.668  0.00  0.00    +0.000 OA
BRANCH  31  32
ATOM     32  C   UNL     1       1.353   2.295  -0.390  0.00  0.00    +0.000 C 
BRANCH  32  33
ATOM     33  C   UNL     1       0.847   3.733  -0.388  0.00  0.00    +0.000 C 
BRANCH  33  34
ATOM     34  O   UNL     1       1.071   4.300  -1.681  0.00  0.00    +0.000 OA
ATOM     35  H   UNL     1       0.732   5.211  -1.661  0.00  0.00    +0.000 HD
ENDBRANCH  33  34
BRANCH  33  36
ATOM     36  C   UNL     1      -0.646   3.798  -0.098  0.00  0.00    +0.000 C 
BRANCH  36  37
ATOM     37  O   UNL     1      -1.055   5.161  -0.080  0.00  0.00    +0.000 OA
ATOM     38  H   UNL     1      -2.009   5.170   0.108  0.00  0.00    +0.000 HD
ENDBRANCH  36  37
ENDBRANCH  33  36
ENDBRANCH  32  33
ENDBRANCH  31  32
ENDBRANCH  27  31
ENDBRANCH  26  27
ENDBRANCH  22  26
ENDBRANCH  21  22
ENDBRANCH  20  21
ENDBRANCH   4  20
TORSDOF 16
