REMARK  Name = 91557
REMARK  15 active torsions:
REMARK  status: ('A' for Active; 'I' for Inactive)
REMARK    1  A    between atoms: P_1  and  O_7
REMARK    2  A    between atoms: P_1  and  O_8
REMARK    3  A    between atoms: P_1  and  C_29
REMARK    4  A    between atoms: P_2  and  O_10
REMARK    5  A    between atoms: P_2  and  O_11
REMARK    6  A    between atoms: P_2  and  C_29
REMARK    7  A    between atoms: P_3  and  O_10
REMARK    8  A    between atoms: P_3  and  O_13
REMARK    9  A    between atoms: P_3  and  O_14
REMARK   10  A    between atoms: O_5  and  C_21
REMARK   11  A    between atoms: O_6  and  C_22
REMARK   12  A    between atoms: O_7  and  C_25
REMARK   13  A    between atoms: N_16  and  C_24
REMARK   14  A    between atoms: N_20  and  C_30
REMARK   15  A    between atoms: C_23  and  C_25
REMARK                            x       y       z     vdW  Elec       q    Type
REMARK                         _______ _______ _______ _____ _____    ______ ____
ROOT
ATOM      1  O   UNL     1      -0.032  -1.292   0.886  0.00  0.00    +0.000 OA
ATOM      2  C   UNL     1      -0.524  -3.603   0.596  0.00  0.00    +0.000 C 
ATOM      3  C   UNL     1      -1.628  -2.779  -0.036  0.00  0.00    +0.000 C 
ATOM      4  C   UNL     1       0.602  -2.584   0.738  0.00  0.00    +0.000 C 
ATOM      5  C   UNL     1      -1.448  -1.442   0.667  0.00  0.00    +0.000 C 
ENDROOT
BRANCH   5   6
ATOM      6  N   UNL     1      -1.954  -0.299  -0.090  0.00  0.00    +0.000 N 
ATOM      7  N   UNL     1      -1.985   1.385  -1.554  0.00  0.00    +0.000 NA
ATOM      8  N   UNL     1      -4.193  -0.092   0.828  0.00  0.00    +0.000 NA
ATOM      9  N   UNL     1      -5.408   1.757  -0.202  0.00  0.00    +0.000 NA
ATOM     10  C   UNL     1      -3.191   0.273   0.015  0.00  0.00    +0.000 A 
ATOM     11  C   UNL     1      -1.267   0.406  -1.045  0.00  0.00    +0.000 A 
ATOM     12  C   UNL     1      -3.190   1.313  -0.901  0.00  0.00    +0.000 A 
ATOM     13  C   UNL     1      -4.354   2.069  -0.995  0.00  0.00    +0.000 A 
ATOM     14  C   UNL     1      -5.264   0.712   0.647  0.00  0.00    +0.000 A 
BRANCH  13  15
ATOM     15  N   UNL     1      -4.442   3.143  -1.898  0.00  0.00    +0.000 N 
ATOM     16  H   UNL     1      -3.657   3.378  -2.490  0.00  0.00    +0.000 HD
ATOM     17  H   UNL     1      -5.299   3.677  -1.947  0.00  0.00    +0.000 HD
ENDBRANCH  13  15
ENDBRANCH   5   6
BRANCH   2  18
ATOM     18  O   UNL     1      -0.930  -4.025   1.898  0.00  0.00    +0.000 OA
ATOM     19  H   UNL     1      -0.184  -4.508   2.292  0.00  0.00    +0.000 HD
ENDBRANCH   2  18
BRANCH   3  20
ATOM     20  O   UNL     1      -2.916  -3.319   0.182  0.00  0.00    +0.000 OA
ATOM     21  H   UNL     1      -2.921  -4.217  -0.191  0.00  0.00    +0.000 HD
ENDBRANCH   3  20
BRANCH   4  22
ATOM     22  C   UNL     1       1.514  -2.534  -0.480  0.00  0.00    +0.000 C 
BRANCH  22  23
ATOM     23  O   UNL     1       2.518  -1.557  -0.264  0.00  0.00    +0.000 OA
BRANCH  23  24
ATOM     24  P   UNL     1       3.623  -1.306  -1.417  0.00  0.00    +0.000 P 
ATOM     25  O   UNL     1       4.356  -2.524  -1.897  0.00  0.00    +0.000 OA
BRANCH  24  26
ATOM     26  O   UNL     1       2.788  -0.527  -2.562  0.00  0.00    +0.000 OA
ATOM     27  H   UNL     1       2.160  -1.033  -3.121  0.00  0.00    +0.000 HD
ENDBRANCH  24  26
BRANCH  24  28
ATOM     28  C   UNL     1       4.688  -0.008  -0.745  0.00  0.00    +0.000 C 
BRANCH  28  29
ATOM     29  P   UNL     1       4.103   1.614  -0.204  0.00  0.00    +0.000 P 
ATOM     30  O   UNL     1       5.192   2.555   0.215  0.00  0.00    +0.000 OA
BRANCH  29  31
ATOM     31  O   UNL     1       3.201   2.120  -1.444  0.00  0.00    +0.000 OA
ATOM     32  H   UNL     1       2.794   3.012  -1.404  0.00  0.00    +0.000 HD
ENDBRANCH  29  31
BRANCH  29  33
ATOM     33  O   UNL     1       3.019   1.254   0.937  0.00  0.00    +0.000 OA
BRANCH  33  34
ATOM     34  P   UNL     1       2.083   2.178   1.873  0.00  0.00    +0.000 P 
ATOM     35  O   UNL     1       2.825   3.130   2.763  0.00  0.00    +0.000 OA
BRANCH  34  36
ATOM     36  O   UNL     1       1.058   2.870   0.831  0.00  0.00    +0.000 OA
ATOM     37  H   UNL     1       1.362   3.643   0.309  0.00  0.00    +0.000 HD
ENDBRANCH  34  36
BRANCH  34  38
ATOM     38  O   UNL     1       1.154   1.112   2.656  0.00  0.00    +0.000 OA
ATOM     39  H   UNL     1       0.560   1.432   3.368  0.00  0.00    +0.000 HD
ENDBRANCH  34  38
ENDBRANCH  33  34
ENDBRANCH  29  33
ENDBRANCH  28  29
ENDBRANCH  24  28
ENDBRANCH  23  24
ENDBRANCH  22  23
ENDBRANCH   4  22
TORSDOF 15
