REMARK  Name = 444148
REMARK  11 active torsions:
REMARK  status: ('A' for Active; 'I' for Inactive)
REMARK    1  A    between atoms: P_1  and  O_6
REMARK    2  A    between atoms: P_1  and  O_7
REMARK    3  A    between atoms: P_1  and  O_8
REMARK    4  A    between atoms: P_2  and  O_7
REMARK    5  A    between atoms: P_2  and  O_11
REMARK    6  A    between atoms: P_2  and  N_18
REMARK    7  A    between atoms: O_4  and  C_19
REMARK    8  A    between atoms: O_5  and  C_20
REMARK    9  A    between atoms: O_6  and  C_23
REMARK   10  A    between atoms: N_13  and  C_21
REMARK   11  A    between atoms: C_22  and  C_23
REMARK                            x       y       z     vdW  Elec       q    Type
REMARK                         _______ _______ _______ _____ _____    ______ ____
ROOT
ATOM      1  O   UNL     1       0.489   1.085  -0.689  0.00  0.00    +0.000 OA
ATOM      2  C   UNL     1      -0.879   2.575   0.603  0.00  0.00    +0.000 C 
ATOM      3  C   UNL     1       0.519   2.499   1.187  0.00  0.00    +0.000 C 
ATOM      4  C   UNL     1      -0.885   1.433  -0.415  0.00  0.00    +0.000 C 
ATOM      5  C   UNL     1       1.338   2.017   0.002  0.00  0.00    +0.000 C 
ENDROOT
BRANCH   4   7
ATOM      6  O   UNL     1      -4.656  -2.973   0.934  0.00  0.00    +0.000 OA
ATOM      7  N   UNL     1      -1.607   0.244   0.042  0.00  0.00    +0.000 N 
ATOM      8  N   UNL     1      -3.843   0.579  -0.856  0.00  0.00    +0.000 N 
ATOM      9  N   UNL     1      -1.988  -1.723   1.055  0.00  0.00    +0.000 NA
ATOM     10  N   UNL     1      -5.394  -1.178  -0.332  0.00  0.00    +0.000 NA
ATOM     11  N   UNL     1      -6.024   0.699  -1.611  0.00  0.00    +0.000 N 
ATOM     12  C   UNL     1      -2.902  -0.083  -0.177  0.00  0.00    +0.000 A 
ATOM     13  C   UNL     1      -1.091  -0.786   0.797  0.00  0.00    +0.000 A 
ATOM     14  C   UNL     1      -3.125  -1.279   0.441  0.00  0.00    +0.000 A 
ATOM     15  C   UNL     1      -4.433  -1.900   0.387  0.00  0.00    +0.000 A 
ATOM     16  C   UNL     1      -5.098  -0.025  -0.903  0.00  0.00    +0.000 A 
ATOM     17  H   UNL     1      -3.682   1.470  -1.313  0.00  0.00    +0.000 HD
ATOM     18  H   UNL     1      -5.784   1.583  -2.046  0.00  0.00    +0.000 HD
ATOM     19  H   UNL     1      -6.976   0.368  -1.720  0.00  0.00    +0.000 HD
ENDBRANCH   4   7
BRANCH   2  20
ATOM     20  O   UNL     1      -1.088   3.811  -0.077  0.00  0.00    +0.000 OA
ATOM     21  H   UNL     1      -1.980   3.783  -0.463  0.00  0.00    +0.000 HD
ENDBRANCH   2  20
BRANCH   3  22
ATOM     22  O   UNL     1       0.986   3.732   1.690  0.00  0.00    +0.000 OA
ATOM     23  H   UNL     1       1.896   3.598   2.005  0.00  0.00    +0.000 HD
ENDBRANCH   3  22
BRANCH   5  24
ATOM     24  C   UNL     1       2.634   1.334   0.400  0.00  0.00    +0.000 C 
BRANCH  24  25
ATOM     25  O   UNL     1       3.307   0.918  -0.775  0.00  0.00    +0.000 OA
BRANCH  25  26
ATOM     26  P   UNL     1       4.730   0.154  -0.664  0.00  0.00    +0.000 P 
ATOM     27  O   UNL     1       5.338  -0.232  -1.982  0.00  0.00    +0.000 OA
BRANCH  26  28
ATOM     28  O   UNL     1       5.647   1.142   0.231  0.00  0.00    +0.000 OA
ATOM     29  H   UNL     1       6.063   1.920  -0.197  0.00  0.00    +0.000 HD
ENDBRANCH  26  28
BRANCH  26  30
ATOM     30  O   UNL     1       4.439  -1.090   0.325  0.00  0.00    +0.000 OA
BRANCH  30  31
ATOM     31  P   UNL     1       3.502  -2.402   0.147  0.00  0.00    +0.000 P 
ATOM     32  O   UNL     1       2.108  -2.055  -0.301  0.00  0.00    +0.000 OA
BRANCH  31  33
ATOM     33  N   UNL     1       3.652  -3.282   1.537  0.00  0.00    +0.000 NA
ATOM     34  H   UNL     1       3.230  -2.893   2.379  0.00  0.00    +0.000 HD
ATOM     35  H   UNL     1       4.593  -3.566   1.806  0.00  0.00    +0.000 HD
ENDBRANCH  31  33
BRANCH  31  36
ATOM     36  O   UNL     1       4.321  -3.214  -0.996  0.00  0.00    +0.000 OA
ATOM     37  H   UNL     1       4.300  -2.879  -1.918  0.00  0.00    +0.000 HD
ENDBRANCH  31  36
ENDBRANCH  30  31
ENDBRANCH  26  30
ENDBRANCH  25  26
ENDBRANCH  24  25
ENDBRANCH   5  24
TORSDOF 11
