REMARK  Name = 440317
REMARK  15 active torsions:
REMARK  status: ('A' for Active; 'I' for Inactive)
REMARK    1  A    between atoms: P_2  and  O_8
REMARK    2  A    between atoms: P_2  and  O_9
REMARK    3  A    between atoms: P_2  and  O_10
REMARK    4  A    between atoms: P_3  and  O_9
REMARK    5  A    between atoms: P_3  and  O_12
REMARK    6  A    between atoms: P_3  and  O_13
REMARK    7  A    between atoms: P_4  and  O_12
REMARK    8  A    between atoms: P_4  and  O_15
REMARK    9  A    between atoms: P_4  and  O_16
REMARK   10  A    between atoms: O_6  and  C_22
REMARK   11  A    between atoms: O_7  and  C_23
REMARK   12  A    between atoms: O_8  and  C_26
REMARK   13  A    between atoms: N_17  and  C_24
REMARK   14  A    between atoms: N_21  and  C_30
REMARK   15  A    between atoms: C_25  and  C_26
REMARK                            x       y       z     vdW  Elec       q    Type
REMARK                         _______ _______ _______ _____ _____    ______ ____
ROOT
ATOM      1  O   UNL     1      -0.465  -1.730   0.630  0.00  0.00    +0.000 OA
ATOM      2  C   UNL     1      -1.858  -2.465  -1.180  0.00  0.00    +0.000 C 
ATOM      3  C   UNL     1      -0.403  -2.435  -1.609  0.00  0.00    +0.000 C 
ATOM      4  C   UNL     1      -1.831  -1.735   0.164  0.00  0.00    +0.000 C 
ATOM      5  C   UNL     1       0.327  -2.511  -0.280  0.00  0.00    +0.000 C 
ENDROOT
BRANCH   4   6
ATOM      6  N   UNL     1      -2.328  -0.360   0.094  0.00  0.00    +0.000 N 
ATOM      7  N   UNL     1      -2.313   1.851  -0.207  0.00  0.00    +0.000 NA
ATOM      8  N   UNL     1      -4.663  -0.682   0.683  0.00  0.00    +0.000 NA
ATOM      9  N   UNL     1      -5.879   1.434   0.681  0.00  0.00    +0.000 NA
ATOM     10  C   UNL     1      -3.604   0.066   0.335  0.00  0.00    +0.000 A 
ATOM     11  C   UNL     1      -1.590   0.750  -0.227  0.00  0.00    +0.000 A 
ATOM     12  C   UNL     1      -3.574   1.438   0.142  0.00  0.00    +0.000 A 
ATOM     13  C   UNL     1      -4.769   2.126   0.328  0.00  0.00    +0.000 A 
ATOM     14  C   UNL     1      -5.759   0.093   0.834  0.00  0.00    +0.000 A 
BRANCH  13  15
ATOM     15  N   UNL     1      -4.830   3.519   0.152  0.00  0.00    +0.000 N 
ATOM     16  H   UNL     1      -5.709   3.996   0.294  0.00  0.00    +0.000 HD
ATOM     17  H   UNL     1      -4.002   4.037  -0.110  0.00  0.00    +0.000 HD
ENDBRANCH  13  15
ENDBRANCH   4   6
BRANCH   2  18
ATOM     18  O   UNL     1      -2.310  -3.803  -0.979  0.00  0.00    +0.000 OA
ATOM     19  H   UNL     1      -1.748  -4.222  -0.306  0.00  0.00    +0.000 HD
ENDBRANCH   2  18
BRANCH   3  20
ATOM     20  O   UNL     1      -0.050  -3.495  -2.471  0.00  0.00    +0.000 OA
ATOM     21  H   UNL     1      -0.633  -3.446  -3.248  0.00  0.00    +0.000 HD
ENDBRANCH   3  20
BRANCH   5  22
ATOM     22  C   UNL     1       1.741  -1.961  -0.334  0.00  0.00    +0.000 C 
BRANCH  22  23
ATOM     23  O   UNL     1       2.327  -2.068   0.952  0.00  0.00    +0.000 OA
BRANCH  23  24
ATOM     24  P   UNL     1       3.845  -1.544   1.154  0.00  0.00    +0.000 P 
ATOM     25  O   UNL     1       4.394  -1.691   2.543  0.00  0.00    +0.000 OA
BRANCH  24  26
ATOM     26  O   UNL     1       4.672  -2.328   0.006  0.00  0.00    +0.000 OA
ATOM     27  H   UNL     1       5.647  -2.227  -0.028  0.00  0.00    +0.000 HD
ENDBRANCH  24  26
BRANCH  24  28
ATOM     28  O   UNL     1       3.789  -0.029   0.595  0.00  0.00    +0.000 OA
BRANCH  28  29
ATOM     29  P   UNL     1       3.016   1.277   1.150  0.00  0.00    +0.000 P 
ATOM     30  O   UNL     1       1.524   1.138   1.224  0.00  0.00    +0.000 OA
BRANCH  29  31
ATOM     31  O   UNL     1       3.747   1.564   2.563  0.00  0.00    +0.000 OA
ATOM     32  H   UNL     1       3.398   2.275   3.142  0.00  0.00    +0.000 HD
ENDBRANCH  29  31
BRANCH  29  33
ATOM     33  O   UNL     1       3.560   2.458   0.193  0.00  0.00    +0.000 OA
BRANCH  33  35
ATOM     34  S   UNL     1       4.066   4.443  -2.028  0.00  0.00    +0.000 S 
ATOM     35  P   UNL     1       3.385   2.742  -1.389  0.00  0.00    +0.000 P 
BRANCH  35  36
ATOM     36  O   UNL     1       1.800   2.507  -1.633  0.00  0.00    +0.000 OA
ATOM     37  H   UNL     1       1.401   1.657  -1.349  0.00  0.00    +0.000 HD
ENDBRANCH  35  36
BRANCH  35  38
ATOM     38  O   UNL     1       4.034   1.432  -2.087  0.00  0.00    +0.000 OA
ATOM     39  H   UNL     1       3.716   0.545  -1.815  0.00  0.00    +0.000 HD
ENDBRANCH  35  38
ENDBRANCH  33  35
ENDBRANCH  29  33
ENDBRANCH  28  29
ENDBRANCH  24  28
ENDBRANCH  23  24
ENDBRANCH  22  23
ENDBRANCH   5  22
TORSDOF 15
