REMARK  Name = 17473
REMARK  17 active torsions:
REMARK  status: ('A' for Active; 'I' for Inactive)
REMARK    1  A    between atoms: P_1  and  O_7
REMARK    2  A    between atoms: P_1  and  O_12
REMARK    3  A    between atoms: P_1  and  O_15
REMARK    4  A    between atoms: P_2  and  O_8
REMARK    5  A    between atoms: P_2  and  O_12
REMARK    6  A    between atoms: P_2  and  O_17
REMARK    7  A    between atoms: O_5  and  C_23
REMARK    8  A    between atoms: O_6  and  C_24
REMARK    9  A    between atoms: O_7  and  C_28
REMARK   10  A    between atoms: O_8  and  C_31
REMARK   11  A    between atoms: O_9  and  C_27
REMARK   12  A    between atoms: O_10  and  C_29
REMARK   13  A    between atoms: O_11  and  C_30
REMARK   14  A    between atoms: O_13  and  C_35
REMARK   15  A    between atoms: N_21  and  C_26
REMARK   16  A    between atoms: C_25  and  C_28
REMARK   17  A    between atoms: C_32  and  C_35
REMARK                            x       y       z     vdW  Elec       q    Type
REMARK                         _______ _______ _______ _____ _____    ______ ____
ROOT
ATOM      1  P   UNL     1       0.041  -3.863  -0.781  0.00  0.00    +0.000 P 
ATOM      2  O   UNL     1      -0.084  -4.633  -2.063  0.00  0.00    +0.000 OA
ENDROOT
BRANCH   1   3
ATOM      3  O   UNL     1      -0.376  -4.682   0.551  0.00  0.00    +0.000 OA
ATOM      4  H   UNL     1      -0.438  -4.213   1.410  0.00  0.00    +0.000 HD
ENDBRANCH   1   3
BRANCH   1   5
ATOM      5  O   UNL     1       1.518  -3.296  -0.443  0.00  0.00    +0.000 OA
BRANCH   5   6
ATOM      6  C   UNL     1       1.702  -2.561   0.754  0.00  0.00    +0.000 C 
BRANCH   6  10
ATOM      7  O   UNL     1       3.455  -1.267  -0.261  0.00  0.00    +0.000 OA
ATOM      8  C   UNL     1       3.466  -1.324   2.107  0.00  0.00    +0.000 C 
ATOM      9  C   UNL     1       3.140   0.085   1.659  0.00  0.00    +0.000 C 
ATOM     10  C   UNL     1       3.161  -2.135   0.855  0.00  0.00    +0.000 C 
ATOM     11  C   UNL     1       3.621   0.077   0.218  0.00  0.00    +0.000 C 
BRANCH  11  14
ATOM     12  O   UNL     1       4.366   2.739  -0.361  0.00  0.00    +0.000 OA
ATOM     13  O   UNL     1       0.644   3.400  -2.998  0.00  0.00    +0.000 OA
ATOM     14  N   UNL     1       2.865   0.967  -0.617  0.00  0.00    +0.000 N 
ATOM     15  N   UNL     1       2.511   3.066  -1.673  0.00  0.00    +0.000 N 
ATOM     16  C   UNL     1       3.327   2.285  -0.844  0.00  0.00    +0.000 A 
ATOM     17  C   UNL     1       1.682   0.532  -1.202  0.00  0.00    +0.000 A 
ATOM     18  C   UNL     1       0.915   1.288  -1.990  0.00  0.00    +0.000 A 
ATOM     19  C   UNL     1       1.326   2.678  -2.277  0.00  0.00    +0.000 A 
ATOM     20  H   UNL     1       2.824   4.017  -1.850  0.00  0.00    +0.000 HD
ENDBRANCH  11  14
BRANCH   8  21
ATOM     21  O   UNL     1       4.862  -1.445   2.381  0.00  0.00    +0.000 OA
ATOM     22  H   UNL     1       5.030  -2.371   2.626  0.00  0.00    +0.000 HD
ENDBRANCH   8  21
BRANCH   9  23
ATOM     23  O   UNL     1       3.791   1.062   2.444  0.00  0.00    +0.000 OA
ATOM     24  H   UNL     1       3.512   0.929   3.366  0.00  0.00    +0.000 HD
ENDBRANCH   9  23
ENDBRANCH   6  10
ENDBRANCH   5   6
ENDBRANCH   1   5
BRANCH   1  25
ATOM     25  O   UNL     1      -0.884  -2.540  -0.698  0.00  0.00    +0.000 OA
BRANCH  25  26
ATOM     26  P   UNL     1      -2.401  -2.273  -1.189  0.00  0.00    +0.000 P 
ATOM     27  O   UNL     1      -2.615  -2.469  -2.662  0.00  0.00    +0.000 OA
BRANCH  26  28
ATOM     28  O   UNL     1      -3.273  -3.263  -0.251  0.00  0.00    +0.000 OA
ATOM     29  H   UNL     1      -3.321  -4.215  -0.482  0.00  0.00    +0.000 HD
ENDBRANCH  26  28
BRANCH  26  30
ATOM     30  O   UNL     1      -2.750  -0.792  -0.653  0.00  0.00    +0.000 OA
BRANCH  30  35
ATOM     31  O   UNL     1      -1.630   0.556   0.940  0.00  0.00    +0.000 OA
ATOM     32  C   UNL     1      -4.431   1.234   0.758  0.00  0.00    +0.000 C 
ATOM     33  C   UNL     1      -3.929  -0.085   1.346  0.00  0.00    +0.000 C 
ATOM     34  C   UNL     1      -3.344   2.307   0.853  0.00  0.00    +0.000 C 
ATOM     35  C   UNL     1      -2.587  -0.483   0.730  0.00  0.00    +0.000 C 
ATOM     36  C   UNL     1      -2.005   1.791   0.334  0.00  0.00    +0.000 C 
BRANCH  32  37
ATOM     37  O   UNL     1      -5.564   1.687   1.499  0.00  0.00    +0.000 OA
ATOM     38  H   UNL     1      -5.298   1.787   2.429  0.00  0.00    +0.000 HD
ENDBRANCH  32  37
BRANCH  33  39
ATOM     39  O   UNL     1      -4.872  -1.125   1.114  0.00  0.00    +0.000 OA
ATOM     40  H   UNL     1      -4.513  -1.940   1.502  0.00  0.00    +0.000 HD
ENDBRANCH  33  39
BRANCH  34  41
ATOM     41  O   UNL     1      -3.732   3.435   0.071  0.00  0.00    +0.000 OA
ATOM     42  H   UNL     1      -3.821   3.144  -0.853  0.00  0.00    +0.000 HD
ENDBRANCH  34  41
BRANCH  36  44
ATOM     43  O   UNL     1       0.038   2.409   1.459  0.00  0.00    +0.000 OA
ATOM     44  C   UNL     1      -0.894   2.709   0.728  0.00  0.00    +0.000 C 
BRANCH  44  45
ATOM     45  O   UNL     1      -1.060   3.931   0.164  0.00  0.00    +0.000 OA
ATOM     46  H   UNL     1      -0.339   4.548   0.410  0.00  0.00    +0.000 HD
ENDBRANCH  44  45
ENDBRANCH  36  44
ENDBRANCH  30  35
ENDBRANCH  26  30
ENDBRANCH  25  26
ENDBRANCH   1  25
TORSDOF 17
