REMARK  Name = 
REMARK  18 active torsions:
REMARK  status: ('A' for Active; 'I' for Inactive)
REMARK    1  A    between atoms: P_2  and  O_10
REMARK    2  A    between atoms: P_2  and  O_12
REMARK    3  A    between atoms: P_2  and  O_13
REMARK    4  A    between atoms: P_3  and  O_11
REMARK    5  A    between atoms: P_3  and  O_12
REMARK    6  A    between atoms: P_3  and  O_14
REMARK    7  A    between atoms: O_6  and  C_25
REMARK    8  A    between atoms: O_7  and  C_26
REMARK    9  A    between atoms: O_8  and  C_29
REMARK   10  A    between atoms: O_9  and  C_31
REMARK   11  A    between atoms: O_10  and  C_33
REMARK   12  A    between atoms: O_11  and  C_34
REMARK   13  A    between atoms: N_18  and  C_28
REMARK   14  A    between atoms: N_23  and  C_39
REMARK   15  A    between atoms: C_27  and  C_33
REMARK   16  A    between atoms: C_30  and  C_34
REMARK   17  A    between atoms: C_32  and  C_35
REMARK   18  A    between atoms: C_40  and  C_43
REMARK                            x       y       z     vdW  Elec       q    Type
REMARK                         _______ _______ _______ _____ _____    ______ ____
ROOT
ATOM      1  P   UNL     1      -1.802   2.082   0.000  0.00  0.00    +0.000 P 
ATOM      2  O   UNL     1      -2.286   2.750   0.000  0.00  0.00    +0.000 OA
ENDROOT
BRANCH   1   3
ATOM      3  O   UNL     1      -1.318   1.413   0.000  0.00  0.00    +0.000 OA
ATOM      4  H   UNL     1      -1.715   0.528   0.000  0.00  0.00    +0.000 HD
ENDBRANCH   1   3
BRANCH   1   5
ATOM      5  O   UNL     1      -2.470   1.598   0.000  0.00  0.00    +0.000 OA
BRANCH   5   6
ATOM      6  C   UNL     1      -3.223   1.935   0.000  0.00  0.00    +0.000 C 
BRANCH   6  10
ATOM      7  O   UNL     1      -3.893   0.626   0.000  0.00  0.00    +0.000 OA
ATOM      8  C   UNL     1      -4.676   1.707   0.000  0.00  0.00    +0.000 C 
ATOM      9  C   UNL     1      -5.162   1.041   0.000  0.00  0.00    +0.000 C 
ATOM     10  C   UNL     1      -3.892   1.451   0.000  0.00  0.00    +0.000 C 
ATOM     11  C   UNL     1      -4.678   0.372   0.000  0.00  0.00    +0.000 C 
BRANCH  11  12
ATOM     12  N   UNL     1      -4.935  -0.412   0.000  0.00  0.00    +0.000 N 
ATOM     13  N   UNL     1      -4.935  -1.740   0.000  0.00  0.00    +0.000 NA
ATOM     14  N   UNL     1      -6.430  -0.251   0.000  0.00  0.00    +0.000 NA
ATOM     15  N   UNL     1      -7.144  -1.488   0.000  0.00  0.00    +0.000 NA
ATOM     16  C   UNL     1      -5.715  -0.663   0.000  0.00  0.00    +0.000 A 
ATOM     17  C   UNL     1      -4.453  -1.076   0.000  0.00  0.00    +0.000 A 
ATOM     18  C   UNL     1      -5.715  -1.488   0.000  0.00  0.00    +0.000 A 
ATOM     19  C   UNL     1      -6.430  -1.901   0.000  0.00  0.00    +0.000 A 
ATOM     20  C   UNL     1      -7.144  -0.663   0.000  0.00  0.00    +0.000 A 
BRANCH  19  21
ATOM     21  N   UNL     1      -6.430  -2.726   0.000  0.00  0.00    +0.000 N 
ATOM     22  H   UNL     1      -6.873  -2.982   0.000  0.00  0.00    +0.000 HD
ATOM     23  H   UNL     1      -5.987  -2.982   0.000  0.00  0.00    +0.000 HD
ENDBRANCH  19  21
ENDBRANCH  11  12
BRANCH   8  24
ATOM     24  O   UNL     1      -4.929   2.492   0.000  0.00  0.00    +0.000 OA
ATOM     25  H   UNL     1      -4.279   3.212   0.000  0.00  0.00    +0.000 HD
ENDBRANCH   8  24
BRANCH   9  26
ATOM     26  O   UNL     1      -5.987   1.042   0.000  0.00  0.00    +0.000 OA
ATOM     27  H   UNL     1      -6.471   1.883   0.000  0.00  0.00    +0.000 HD
ENDBRANCH   9  26
ENDBRANCH   6  10
ENDBRANCH   5   6
ENDBRANCH   1   5
BRANCH   1  28
ATOM     28  O   UNL     1      -1.134   2.565   0.000  0.00  0.00    +0.000 OA
BRANCH  28  29
ATOM     29  P   UNL     1      -0.381   2.228   0.000  0.00  0.00    +0.000 P 
ATOM     30  O   UNL     1      -0.718   1.475   0.000  0.00  0.00    +0.000 OA
BRANCH  29  31
ATOM     31  O   UNL     1      -0.044   2.982   0.000  0.00  0.00    +0.000 OA
ATOM     32  H   UNL     1       0.921   3.081   0.000  0.00  0.00    +0.000 HD
ENDBRANCH  29  31
BRANCH  29  33
ATOM     33  O   UNL     1       0.372   1.892   0.000  0.00  0.00    +0.000 OA
BRANCH  33  34
ATOM     34  C   UNL     1       1.041   2.375   0.000  0.00  0.00    +0.000 C 
BRANCH  34  37
ATOM     35  O   UNL     1       2.509   2.450   0.000  0.00  0.00    +0.000 OA
ATOM     36  C   UNL     1       1.964   1.231   0.000  0.00  0.00    +0.000 C 
ATOM     37  C   UNL     1       1.794   2.038   0.000  0.00  0.00    +0.000 C 
ATOM     38  C   UNL     1       2.784   1.143   0.000  0.00  0.00    +0.000 C 
ATOM     39  C   UNL     1       3.121   1.897   0.000  0.00  0.00    +0.000 C 
BRANCH  39  42
ATOM     40 SE   UNL     1       4.265   2.820   0.000  0.00  0.00    +0.000 Se
ATOM     41  N   UNL     1       4.541   1.514   0.000  0.00  0.00    +0.000 NA
ATOM     42  C   UNL     1       3.929   2.067   0.000  0.00  0.00    +0.000 A 
ATOM     43  C   UNL     1       5.256   1.925   0.000  0.00  0.00    +0.000 A 
ATOM     44  C   UNL     1       5.086   2.732   0.000  0.00  0.00    +0.000 A 
BRANCH  43  47
ATOM     45  O   UNL     1       6.094   0.767   0.000  0.00  0.00    +0.000 OA
ATOM     46  N   UNL     1       6.677   2.072   0.000  0.00  0.00    +0.000 N 
ATOM     47  C   UNL     1       6.009   1.588   0.000  0.00  0.00    +0.000 C 
ATOM     48  H   UNL     1       6.625   2.581   0.000  0.00  0.00    +0.000 HD
ATOM     49  H   UNL     1       7.144   1.863   0.000  0.00  0.00    +0.000 HD
ENDBRANCH  43  47
ENDBRANCH  39  42
BRANCH  36  50
ATOM     50  O   UNL     1       1.411   0.619   0.000  0.00  0.00    +0.000 OA
ATOM     51  H   UNL     1       0.462   0.823   0.000  0.00  0.00    +0.000 HD
ENDBRANCH  36  50
BRANCH  38  52
ATOM     52  O   UNL     1       3.196   0.428   0.000  0.00  0.00    +0.000 OA
ATOM     53  H   UNL     1       2.709  -0.411   0.000  0.00  0.00    +0.000 HD
ENDBRANCH  38  52
ENDBRANCH  34  37
ENDBRANCH  33  34
ENDBRANCH  29  33
ENDBRANCH  28  29
ENDBRANCH   1  28
TORSDOF 18
