REMARK  Name = 17754189
REMARK  10 active torsions:
REMARK  status: ('A' for Active; 'I' for Inactive)
REMARK    1  A    between atoms: P_1  and  O_4
REMARK    2  A    between atoms: P_1  and  O_6
REMARK    3  A    between atoms: P_1  and  O_7
REMARK    4  A    between atoms: O_3  and  C_13
REMARK    5  A    between atoms: O_3  and  C_20
REMARK    6  A    between atoms: O_4  and  C_17
REMARK    7  A    between atoms: N_10  and  C_15
REMARK    8  A    between atoms: C_12  and  C_16
REMARK    9  A    between atoms: C_14  and  C_17
REMARK   10  A    between atoms: C_21  and  C_23
REMARK                            x       y       z     vdW  Elec       q    Type
REMARK                         _______ _______ _______ _____ _____    ______ ____
ROOT
ATOM      1  O   UNL     1      -0.487   0.722   0.915  0.00  0.00    +0.000 OA
ATOM      2  C   UNL     1      -0.431   1.709  -1.232  0.00  0.00    +0.000 C 
ATOM      3  C   UNL     1       0.809   2.162  -0.474  0.00  0.00    +0.000 C 
ATOM      4  C   UNL     1      -1.349   1.297  -0.083  0.00  0.00    +0.000 C 
ATOM      5  C   UNL     1       0.856   1.182   0.691  0.00  0.00    +0.000 C 
ATOM      6  C   UNL     1      -1.047   2.740  -2.163  0.00  0.00    +0.000 C 
ENDROOT
BRANCH   5   9
ATOM      7  O   UNL     1       3.603   0.922   1.406  0.00  0.00    +0.000 OA
ATOM      8  O   UNL     1       3.871  -3.274  -0.457  0.00  0.00    +0.000 OA
ATOM      9  N   UNL     1       1.683   0.038   0.413  0.00  0.00    +0.000 N 
ATOM     10  N   UNL     1       3.723  -1.170   0.473  0.00  0.00    +0.000 N 
ATOM     11  C   UNL     1       1.120  -1.040  -0.258  0.00  0.00    +0.000 A 
ATOM     12  C   UNL     1       3.038   0.003   0.808  0.00  0.00    +0.000 A 
ATOM     13  C   UNL     1       1.778  -2.161  -0.578  0.00  0.00    +0.000 A 
ATOM     14  C   UNL     1       3.211  -2.273  -0.194  0.00  0.00    +0.000 A 
ATOM     15  C   UNL     1       1.153  -3.310  -1.301  0.00  0.00    +0.000 C 
ATOM     16  H   UNL     1       4.700  -1.217   0.748  0.00  0.00    +0.000 HD
ENDBRANCH   5   9
BRANCH   3  17
ATOM     17  O   UNL     1       0.653   3.475   0.056  0.00  0.00    +0.000 OA
ATOM     18  C   UNL     1       1.909   4.069   0.349  0.00  0.00    +0.000 C 
ENDBRANCH   3  17
BRANCH   4  19
ATOM     19  C   UNL     1      -2.408   0.281  -0.473  0.00  0.00    +0.000 C 
BRANCH  19  20
ATOM     20  O   UNL     1      -3.187  -0.030   0.670  0.00  0.00    +0.000 OA
BRANCH  20  21
ATOM     21  P   UNL     1      -4.392  -1.099   0.514  0.00  0.00    +0.000 P 
ATOM     22  O   UNL     1      -5.165  -1.371   1.772  0.00  0.00    +0.000 OA
BRANCH  21  23
ATOM     23  O   UNL     1      -5.262  -0.485  -0.703  0.00  0.00    +0.000 OA
ATOM     24  H   UNL     1      -6.115  -0.908  -0.937  0.00  0.00    +0.000 HD
ENDBRANCH  21  23
BRANCH  21  25
ATOM     25  O   UNL     1      -3.679  -2.388  -0.152  0.00  0.00    +0.000 OA
ATOM     26  H   UNL     1      -4.205  -3.206  -0.284  0.00  0.00    +0.000 HD
ENDBRANCH  21  25
ENDBRANCH  20  21
ENDBRANCH  19  20
ENDBRANCH   4  19
TORSDOF 7
