REMARK  Name = 439456
REMARK  15 active torsions:
REMARK  status: ('A' for Active; 'I' for Inactive)
REMARK    1  A    between atoms: P_1  and  O_4
REMARK    2  A    between atoms: P_1  and  O_10
REMARK    3  A    between atoms: P_1  and  O_11
REMARK    4  A    between atoms: P_2  and  O_5
REMARK    5  A    between atoms: P_2  and  O_12
REMARK    6  A    between atoms: P_2  and  O_13
REMARK    7  A    between atoms: P_3  and  O_6
REMARK    8  A    between atoms: P_3  and  O_14
REMARK    9  A    between atoms: P_3  and  O_15
REMARK   10  A    between atoms: O_4  and  C_19
REMARK   11  A    between atoms: O_5  and  C_20
REMARK   12  A    between atoms: O_6  and  C_21
REMARK   13  A    between atoms: O_7  and  C_22
REMARK   14  A    between atoms: O_8  and  C_23
REMARK   15  A    between atoms: O_9  and  C_24
REMARK                            x       y       z     vdW  Elec       q    Type
REMARK                         _______ _______ _______ _____ _____    ______ ____
ROOT
ATOM      1  C   UNL     1       0.482  -0.229   0.530  0.00  0.00    +0.000 C 
ATOM      2  C   UNL     1       1.206   0.373  -0.689  0.00  0.00    +0.000 C 
ATOM      3  C   UNL     1      -1.453   1.422   0.203  0.00  0.00    +0.000 C 
ATOM      4  C   UNL     1      -0.500   0.751   1.202  0.00  0.00    +0.000 C 
ATOM      5  C   UNL     1       0.259   1.076  -1.672  0.00  0.00    +0.000 C 
ATOM      6  C   UNL     1      -0.677   2.062  -0.958  0.00  0.00    +0.000 C 
ENDROOT
BRANCH   4   7
ATOM      7  O   UNL     1       0.228   1.771   1.883  0.00  0.00    +0.000 OA
ATOM      8  H   UNL     1      -0.417   2.337   2.340  0.00  0.00    +0.000 HD
ENDBRANCH   4   7
BRANCH   5   9
ATOM      9  O   UNL     1      -0.492   0.101  -2.394  0.00  0.00    +0.000 OA
ATOM     10  H   UNL     1       0.141  -0.474  -2.858  0.00  0.00    +0.000 HD
ENDBRANCH   5   9
BRANCH   6  11
ATOM     11  O   UNL     1      -1.580   2.624  -1.907  0.00  0.00    +0.000 OA
ATOM     12  H   UNL     1      -1.049   3.042  -2.606  0.00  0.00    +0.000 HD
ENDBRANCH   6  11
BRANCH   1  13
ATOM     13  O   UNL     1      -0.219  -1.397   0.110  0.00  0.00    +0.000 OA
BRANCH  13  14
ATOM     14  P   UNL     1       0.636  -2.738  -0.161  0.00  0.00    +0.000 P 
ATOM     15  O   UNL     1       1.742  -3.000   0.819  0.00  0.00    +0.000 OA
BRANCH  14  16
ATOM     16  O   UNL     1       1.099  -2.597  -1.704  0.00  0.00    +0.000 OA
ATOM     17  H   UNL     1       1.691  -3.280  -2.086  0.00  0.00    +0.000 HD
ENDBRANCH  14  16
BRANCH  14  18
ATOM     18  O   UNL     1      -0.510  -3.877  -0.218  0.00  0.00    +0.000 OA
ATOM     19  H   UNL     1      -0.241  -4.818  -0.283  0.00  0.00    +0.000 HD
ENDBRANCH  14  18
ENDBRANCH  13  14
ENDBRANCH   1  13
BRANCH   2  20
ATOM     20  O   UNL     1       2.206   1.291  -0.252  0.00  0.00    +0.000 OA
BRANCH  20  21
ATOM     21  P   UNL     1       3.567   0.691   0.373  0.00  0.00    +0.000 P 
ATOM     22  O   UNL     1       4.106  -0.526  -0.321  0.00  0.00    +0.000 OA
BRANCH  21  23
ATOM     23  O   UNL     1       3.220   0.496   1.940  0.00  0.00    +0.000 OA
ATOM     24  H   UNL     1       3.889   0.081   2.526  0.00  0.00    +0.000 HD
ENDBRANCH  21  23
BRANCH  21  25
ATOM     25  O   UNL     1       4.551   1.974   0.366  0.00  0.00    +0.000 OA
ATOM     26  H   UNL     1       5.491   1.852   0.617  0.00  0.00    +0.000 HD
ENDBRANCH  21  25
ENDBRANCH  20  21
ENDBRANCH   2  20
BRANCH   3  27
ATOM     27  O   UNL     1      -2.378   0.464  -0.306  0.00  0.00    +0.000 OA
BRANCH  27  28
ATOM     28  P   UNL     1      -3.618   0.029   0.632  0.00  0.00    +0.000 P 
ATOM     29  O   UNL     1      -4.252   1.146   1.409  0.00  0.00    +0.000 OA
BRANCH  28  30
ATOM     30  O   UNL     1      -3.023  -1.182   1.523  0.00  0.00    +0.000 OA
ATOM     31  H   UNL     1      -3.584  -1.576   2.224  0.00  0.00    +0.000 HD
ENDBRANCH  28  30
BRANCH  28  32
ATOM     32  O   UNL     1      -4.601  -0.723  -0.409  0.00  0.00    +0.000 OA
ATOM     33  H   UNL     1      -5.487  -1.009  -0.102  0.00  0.00    +0.000 HD
ENDBRANCH  28  32
ENDBRANCH  27  28
ENDBRANCH   3  27
TORSDOF 15
