REMARK  Name = 49866945
REMARK  19 active torsions:
REMARK  status: ('A' for Active; 'I' for Inactive)
REMARK    1  A    between atoms: P_1  and  O_5
REMARK    2  A    between atoms: P_1  and  O_14
REMARK    3  A    between atoms: P_1  and  O_15
REMARK    4  A    between atoms: P_2  and  O_7
REMARK    5  A    between atoms: P_2  and  O_13
REMARK    6  A    between atoms: P_2  and  O_17
REMARK    7  A    between atoms: P_3  and  O_11
REMARK    8  A    between atoms: P_3  and  O_13
REMARK    9  A    between atoms: P_3  and  O_19
REMARK   10  A    between atoms: O_5  and  C_26
REMARK   11  A    between atoms: O_6  and  C_27
REMARK   12  A    between atoms: O_7  and  C_30
REMARK   13  A    between atoms: O_9  and  C_31
REMARK   14  A    between atoms: O_10  and  C_34
REMARK   15  A    between atoms: O_11  and  C_38
REMARK   16  A    between atoms: O_12  and  C_36
REMARK   17  A    between atoms: N_21  and  C_28
REMARK   18  A    between atoms: C_29  and  C_30
REMARK   19  A    between atoms: C_32  and  C_38
REMARK                            x       y       z     vdW  Elec       q    Type
REMARK                         _______ _______ _______ _____ _____    ______ ____
ROOT
ATOM      1  O   UNL     1      -1.215   2.311   2.222  0.00  0.00    +0.000 OA
ATOM      2  C   UNL     1      -0.830   2.175  -0.109  0.00  0.00    +0.000 C 
ATOM      3  C   UNL     1      -2.250   2.655   0.111  0.00  0.00    +0.000 C 
ATOM      4  C   UNL     1      -0.178   2.487   1.234  0.00  0.00    +0.000 C 
ATOM      5  C   UNL     1      -2.500   2.266   1.562  0.00  0.00    +0.000 C 
ENDROOT
BRANCH   4   6
ATOM      6  N   UNL     1       1.018   1.614   1.526  0.00  0.00    +0.000 N 
ATOM      7  N   UNL     1       2.295   0.097   2.577  0.00  0.00    +0.000 NA
ATOM      8  N   UNL     1       2.496   2.267  -0.296  0.00  0.00    +0.000 NA
ATOM      9  N   UNL     1       4.540   1.068  -0.166  0.00  0.00    +0.000 N 
ATOM     10  N   UNL     1       5.129  -0.459   1.360  0.00  0.00    +0.000 NA
ATOM     11  C   UNL     1       2.185   1.549   0.819  0.00  0.00    +0.000 A 
ATOM     12  C   UNL     1       1.134   0.725   2.571  0.00  0.00    +0.000 A 
ATOM     13  C   UNL     1       2.935   0.610   1.496  0.00  0.00    +0.000 A 
ATOM     14  C   UNL     1       4.186   0.360   0.965  0.00  0.00    +0.000 A 
ATOM     15  C   UNL     1       3.688   2.007  -0.774  0.00  0.00    +0.000 A 
ATOM     16  C   UNL     1       5.798   0.668  -0.512  0.00  0.00    +0.000 A 
ATOM     17  C   UNL     1       6.139  -0.271   0.441  0.00  0.00    +0.000 A 
ENDBRANCH   4   6
BRANCH   3  18
ATOM     18  O   UNL     1      -2.314   4.078   0.020  0.00  0.00    +0.000 OA
ATOM     19  H   UNL     1      -3.233   4.340   0.197  0.00  0.00    +0.000 HD
ENDBRANCH   3  18
BRANCH   2  20
ATOM     20  O   UNL     1      -0.192   2.816  -1.195  0.00  0.00    +0.000 OA
BRANCH  20  21
ATOM     21  P   UNL     1      -0.517   2.304  -2.698  0.00  0.00    +0.000 P 
ATOM     22  O   UNL     1      -1.958   2.405  -3.103  0.00  0.00    +0.000 OA
BRANCH  21  23
ATOM     23  O   UNL     1       0.110   0.814  -2.740  0.00  0.00    +0.000 OA
ATOM     24  H   UNL     1      -0.030   0.261  -3.537  0.00  0.00    +0.000 HD
ENDBRANCH  21  23
BRANCH  21  25
ATOM     25  O   UNL     1       0.509   3.164  -3.606  0.00  0.00    +0.000 OA
ATOM     26  H   UNL     1       0.445   3.101  -4.583  0.00  0.00    +0.000 HD
ENDBRANCH  21  25
ENDBRANCH  20  21
ENDBRANCH   2  20
BRANCH   5  27
ATOM     27  C   UNL     1      -3.064   0.860   1.715  0.00  0.00    +0.000 C 
BRANCH  27  28
ATOM     28  O   UNL     1      -4.305   0.785   1.034  0.00  0.00    +0.000 OA
BRANCH  28  29
ATOM     29  P   UNL     1      -5.140  -0.601   1.025  0.00  0.00    +0.000 P 
ATOM     30  O   UNL     1      -6.436  -0.549   0.270  0.00  0.00    +0.000 OA
BRANCH  29  31
ATOM     31  O   UNL     1      -5.294  -0.989   2.589  0.00  0.00    +0.000 OA
ATOM     32  H   UNL     1      -5.882  -1.734   2.837  0.00  0.00    +0.000 HD
ENDBRANCH  29  31
BRANCH  29  33
ATOM     33  O   UNL     1      -4.094  -1.702   0.472  0.00  0.00    +0.000 OA
BRANCH  33  34
ATOM     34  P   UNL     1      -3.397  -1.869  -0.977  0.00  0.00    +0.000 P 
ATOM     35  O   UNL     1      -2.963  -0.581  -1.613  0.00  0.00    +0.000 OA
BRANCH  34  36
ATOM     36  O   UNL     1      -4.496  -2.709  -1.815  0.00  0.00    +0.000 OA
ATOM     37  H   UNL     1      -4.842  -3.546  -1.438  0.00  0.00    +0.000 HD
ENDBRANCH  34  36
BRANCH  34  38
ATOM     38  O   UNL     1      -2.221  -2.943  -0.692  0.00  0.00    +0.000 OA
BRANCH  38  39
ATOM     39  C   UNL     1      -1.155  -2.567   0.164  0.00  0.00    +0.000 C 
BRANCH  39  42
ATOM     40  O   UNL     1       0.446  -2.936  -1.611  0.00  0.00    +0.000 OA
ATOM     41  C   UNL     1       1.317  -2.967   0.584  0.00  0.00    +0.000 C 
ATOM     42  C   UNL     1       0.101  -3.305  -0.264  0.00  0.00    +0.000 C 
ATOM     43  C   UNL     1       2.451  -3.238  -0.385  0.00  0.00    +0.000 C 
ATOM     44  C   UNL     1       1.866  -2.700  -1.682  0.00  0.00    +0.000 C 
BRANCH  41  45
ATOM     45  O   UNL     1       1.380  -3.752   1.755  0.00  0.00    +0.000 OA
ATOM     46  H   UNL     1       2.230  -3.561   2.188  0.00  0.00    +0.000 HD
ENDBRANCH  41  45
BRANCH  43  47
ATOM     47  O   UNL     1       2.661  -4.641  -0.505  0.00  0.00    +0.000 OA
ATOM     48  H   UNL     1       3.350  -4.774  -1.178  0.00  0.00    +0.000 HD
ENDBRANCH  43  47
BRANCH  44  49
ATOM     49  O   UNL     1       2.135  -1.306  -1.772  0.00  0.00    +0.000 OA
ATOM     50  H   UNL     1       2.061  -1.060  -2.709  0.00  0.00    +0.000 HD
ENDBRANCH  44  49
ENDBRANCH  39  42
ENDBRANCH  38  39
ENDBRANCH  34  38
ENDBRANCH  33  34
ENDBRANCH  29  33
ENDBRANCH  28  29
ENDBRANCH  27  28
ENDBRANCH   5  27
TORSDOF 19
