REMARK  Name = 443210
REMARK  17 active torsions:
REMARK  status: ('A' for Active; 'I' for Inactive)
REMARK    1  A    between atoms: P_1  and  O_6
REMARK    2  A    between atoms: P_1  and  O_12
REMARK    3  A    between atoms: P_1  and  O_13
REMARK    4  A    between atoms: P_2  and  O_10
REMARK    5  A    between atoms: P_2  and  O_12
REMARK    6  A    between atoms: P_2  and  O_15
REMARK    7  A    between atoms: O_5  and  C_21
REMARK    8  A    between atoms: O_6  and  C_29
REMARK    9  A    between atoms: O_7  and  C_25
REMARK   10  A    between atoms: O_8  and  C_26
REMARK   11  A    between atoms: O_9  and  C_27
REMARK   12  A    between atoms: O_10  and  C_30
REMARK   13  A    between atoms: O_11  and  C_31
REMARK   14  A    between atoms: N_19  and  C_24
REMARK   15  A    between atoms: C_22  and  C_30
REMARK   16  A    between atoms: C_28  and  C_31
REMARK   17  A    between atoms: C_34  and  C_36
REMARK                            x       y       z     vdW  Elec       q    Type
REMARK                         _______ _______ _______ _____ _____    ______ ____
ROOT
ATOM      1  P   UNL     1      -0.194  -3.674  -0.702  0.00  0.00    +0.000 P 
ATOM      2  O   UNL     1      -0.119  -4.567  -1.906  0.00  0.00    +0.000 OA
ENDROOT
BRANCH   1   3
ATOM      3  O   UNL     1      -1.036  -4.275   0.542  0.00  0.00    +0.000 OA
ATOM      4  H   UNL     1      -1.234  -3.705   1.315  0.00  0.00    +0.000 HD
ENDBRANCH   1   3
BRANCH   1   5
ATOM      5  O   UNL     1       1.225  -3.259  -0.046  0.00  0.00    +0.000 OA
BRANCH   5   6
ATOM      6  C   UNL     1       1.223  -2.417   1.094  0.00  0.00    +0.000 C 
BRANCH   6   9
ATOM      7  O   UNL     1       3.334  -1.479   0.455  0.00  0.00    +0.000 OA
ATOM      8  C   UNL     1       2.763  -1.258   2.745  0.00  0.00    +0.000 C 
ATOM      9  C   UNL     1       2.661  -2.166   1.528  0.00  0.00    +0.000 C 
ATOM     10  C   UNL     1       2.818   0.124   2.138  0.00  0.00    +0.000 C 
ATOM     11  C   UNL     1       3.570  -0.117   0.839  0.00  0.00    +0.000 C 
BRANCH  11  14
ATOM     12  O   UNL     1       4.761   2.389   0.200  0.00  0.00    +0.000 OA
ATOM     13  O   UNL     1       1.813   3.096  -3.259  0.00  0.00    +0.000 OA
ATOM     14  N   UNL     1       3.148   0.754  -0.218  0.00  0.00    +0.000 N 
ATOM     15  N   UNL     1       3.284   2.730  -1.522  0.00  0.00    +0.000 N 
ATOM     16  C   UNL     1       2.073   0.365  -1.007  0.00  0.00    +0.000 A 
ATOM     17  C   UNL     1       3.802   1.981  -0.459  0.00  0.00    +0.000 A 
ATOM     18  C   UNL     1       1.580   1.083  -2.023  0.00  0.00    +0.000 A 
ATOM     19  C   UNL     1       2.217   2.389  -2.340  0.00  0.00    +0.000 A 
ATOM     20  C   UNL     1       0.421   0.646  -2.861  0.00  0.00    +0.000 C 
ATOM     21  H   UNL     1       3.739   3.618  -1.714  0.00  0.00    +0.000 HD
ENDBRANCH  11  14
BRANCH   8  22
ATOM     22  O   UNL     1       3.975  -1.523   3.449  0.00  0.00    +0.000 OA
ATOM     23  H   UNL     1       3.923  -2.434   3.783  0.00  0.00    +0.000 HD
ENDBRANCH   8  22
ENDBRANCH   6   9
ENDBRANCH   5   6
ENDBRANCH   1   5
BRANCH   1  24
ATOM     24  O   UNL     1      -0.905  -2.247  -0.966  0.00  0.00    +0.000 OA
BRANCH  24  25
ATOM     25  P   UNL     1      -2.396  -1.881  -1.471  0.00  0.00    +0.000 P 
ATOM     26  O   UNL     1      -2.590  -1.997  -2.955  0.00  0.00    +0.000 OA
BRANCH  25  27
ATOM     27  O   UNL     1      -3.336  -2.866  -0.596  0.00  0.00    +0.000 OA
ATOM     28  H   UNL     1      -3.426  -3.803  -0.872  0.00  0.00    +0.000 HD
ENDBRANCH  25  27
BRANCH  25  29
ATOM     29  O   UNL     1      -2.682  -0.409  -0.872  0.00  0.00    +0.000 OA
BRANCH  29  35
ATOM     30  O   UNL     1      -1.490   0.763   0.809  0.00  0.00    +0.000 OA
ATOM     31  C   UNL     1      -4.226   1.686   0.793  0.00  0.00    +0.000 C 
ATOM     32  C   UNL     1      -3.046   2.640   0.986  0.00  0.00    +0.000 C 
ATOM     33  C   UNL     1      -3.838   0.263   1.192  0.00  0.00    +0.000 C 
ATOM     34  C   UNL     1      -1.772   2.085   0.334  0.00  0.00    +0.000 C 
ATOM     35  C   UNL     1      -2.532  -0.173   0.526  0.00  0.00    +0.000 C 
BRANCH  31  36
ATOM     36  O   UNL     1      -5.301   2.128   1.626  0.00  0.00    +0.000 OA
ATOM     37  H   UNL     1      -5.001   2.096   2.550  0.00  0.00    +0.000 HD
ENDBRANCH  31  36
BRANCH  32  38
ATOM     38  O   UNL     1      -3.393   3.895   0.405  0.00  0.00    +0.000 OA
ATOM     39  H   UNL     1      -3.505   3.762  -0.552  0.00  0.00    +0.000 HD
ENDBRANCH  32  38
BRANCH  33  40
ATOM     40  O   UNL     1      -4.891  -0.628   0.844  0.00  0.00    +0.000 OA
ATOM     41  H   UNL     1      -4.612  -1.525   1.096  0.00  0.00    +0.000 HD
ENDBRANCH  33  40
BRANCH  34  42
ATOM     42  C   UNL     1      -0.548   2.942   0.647  0.00  0.00    +0.000 C 
BRANCH  42  43
ATOM     43  O   UNL     1      -0.371   2.976   2.052  0.00  0.00    +0.000 OA
ATOM     44  H   UNL     1       0.418   3.515   2.228  0.00  0.00    +0.000 HD
ENDBRANCH  42  43
ENDBRANCH  34  42
ENDBRANCH  29  35
ENDBRANCH  25  29
ENDBRANCH  24  25
ENDBRANCH   1  24
TORSDOF 16
