REMARK  Name = 5289382
REMARK  18 active torsions:
REMARK  status: ('A' for Active; 'I' for Inactive)
REMARK    1  A    between atoms: P_2  and  O_10
REMARK    2  A    between atoms: P_2  and  O_12
REMARK    3  A    between atoms: P_2  and  O_13
REMARK    4  A    between atoms: P_3  and  O_11
REMARK    5  A    between atoms: P_3  and  O_12
REMARK    6  A    between atoms: O_6  and  C_24
REMARK    7  A    between atoms: O_7  and  C_25
REMARK    8  A    between atoms: O_8  and  C_28
REMARK    9  A    between atoms: O_9  and  C_29
REMARK   10  A    between atoms: O_10  and  C_32
REMARK   11  A    between atoms: O_11  and  C_33
REMARK   12  A    between atoms: N_17  and  C_27
REMARK   13  A    between atoms: N_18  and  C_31
REMARK   14  A    between atoms: N_22  and  C_41
REMARK   15  A    between atoms: N_23  and  C_44
REMARK   16  A    between atoms: C_26  and  C_32
REMARK   17  A    between atoms: C_30  and  C_33
REMARK   18  A    between atoms: C_39  and  C_44
REMARK                            x       y       z     vdW  Elec       q    Type
REMARK                         _______ _______ _______ _____ _____    ______ ____
ROOT
ATOM      1  P   UNL     1       4.093   1.315  -1.688  0.00  0.00    +0.000 P 
ATOM      2  O   UNL     1       5.385   1.728  -1.043  0.00  0.00    +0.000 OA
ENDROOT
BRANCH   1   3
ATOM      3  O   UNL     1       4.140   1.275  -3.304  0.00  0.00    +0.000 OA
ATOM      4  H   UNL     1       4.908   0.854  -3.746  0.00  0.00    +0.000 HD
ENDBRANCH   1   3
BRANCH   1   5
ATOM      5  O   UNL     1       2.830   2.267  -1.346  0.00  0.00    +0.000 OA
BRANCH   5   6
ATOM      6  C   UNL     1       1.557   1.980  -1.897  0.00  0.00    +0.000 C 
BRANCH   6  10
ATOM      7  O   UNL     1      -0.739   2.705  -1.940  0.00  0.00    +0.000 OA
ATOM      8  C   UNL     1       0.423   3.054   0.108  0.00  0.00    +0.000 C 
ATOM      9  C   UNL     1      -0.706   2.070   0.341  0.00  0.00    +0.000 C 
ATOM     10  C   UNL     1       0.567   3.030  -1.411  0.00  0.00    +0.000 C 
ATOM     11  C   UNL     1      -1.611   2.361  -0.846  0.00  0.00    +0.000 C 
BRANCH  11  12
ATOM     12  N   UNL     1      -2.466   1.240  -1.232  0.00  0.00    +0.000 N 
ATOM     13  N   UNL     1      -3.104  -0.647  -2.232  0.00  0.00    +0.000 NA
ATOM     14  N   UNL     1      -4.491   1.761   0.006  0.00  0.00    +0.000 NA
ATOM     15  N   UNL     1      -6.220   0.081  -0.376  0.00  0.00    +0.000 NA
ATOM     16  C   UNL     1      -3.750   1.012  -0.825  0.00  0.00    +0.000 A 
ATOM     17  C   UNL     1      -2.123   0.217  -2.075  0.00  0.00    +0.000 A 
ATOM     18  C   UNL     1      -4.127  -0.163  -1.456  0.00  0.00    +0.000 A 
ATOM     19  C   UNL     1      -5.415  -0.626  -1.205  0.00  0.00    +0.000 A 
ATOM     20  C   UNL     1      -5.715   1.214   0.171  0.00  0.00    +0.000 A 
BRANCH  19  21
ATOM     21  N   UNL     1      -5.880  -1.810  -1.802  0.00  0.00    +0.000 N 
ATOM     22  H   UNL     1      -6.820  -2.126  -1.604  0.00  0.00    +0.000 HD
ATOM     23  H   UNL     1      -5.281  -2.340  -2.420  0.00  0.00    +0.000 HD
ENDBRANCH  19  21
ENDBRANCH  11  12
BRANCH   8  24
ATOM     24  O   UNL     1       0.008   4.359   0.510  0.00  0.00    +0.000 OA
ATOM     25  H   UNL     1       0.738   4.970   0.311  0.00  0.00    +0.000 HD
ENDBRANCH   8  24
BRANCH   9  26
ATOM     26  O   UNL     1      -1.370   2.272   1.572  0.00  0.00    +0.000 OA
ATOM     27  H   UNL     1      -2.097   1.628   1.622  0.00  0.00    +0.000 HD
ENDBRANCH   9  26
ENDBRANCH   6  10
ENDBRANCH   5   6
ENDBRANCH   1   5
BRANCH   1  28
ATOM     28  O   UNL     1       3.599  -0.174  -1.296  0.00  0.00    +0.000 OA
BRANCH  28  29
ATOM     29  P   UNL     1       4.305  -1.632  -1.505  0.00  0.00    +0.000 P 
ATOM     30  O   UNL     1       5.557  -1.685  -0.656  0.00  0.00    +0.000 OA
ATOM     31  O   UNL     1       4.367  -1.929  -2.987  0.00  0.00    +0.000 OA
BRANCH  29  32
ATOM     32  O   UNL     1       3.157  -2.588  -0.840  0.00  0.00    +0.000 OA
BRANCH  32  33
ATOM     33  C   UNL     1       1.798  -2.382  -1.188  0.00  0.00    +0.000 C 
BRANCH  33  37
ATOM     34  O   UNL     1       1.089  -3.161   0.977  0.00  0.00    +0.000 OA
ATOM     35  C   UNL     1      -0.551  -3.242  -0.744  0.00  0.00    +0.000 C 
ATOM     36  C   UNL     1      -1.000  -2.259   0.319  0.00  0.00    +0.000 C 
ATOM     37  C   UNL     1       0.936  -3.391  -0.442  0.00  0.00    +0.000 C 
ATOM     38  C   UNL     1      -0.167  -2.701   1.509  0.00  0.00    +0.000 C 
BRANCH  38  39
ATOM     39  N   UNL     1       0.005  -1.581   2.469  0.00  0.00    +0.000 N 
ATOM     40  C   UNL     1       1.028  -0.732   2.295  0.00  0.00    +0.000 A 
ATOM     41  C   UNL     1      -0.868  -1.454   3.477  0.00  0.00    +0.000 A 
ATOM     42  C   UNL     1       1.212   0.324   3.176  0.00  0.00    +0.000 A 
ATOM     43  C   UNL     1      -0.733  -0.417   4.388  0.00  0.00    +0.000 A 
ATOM     44  C   UNL     1       0.320   0.479   4.232  0.00  0.00    +0.000 A 
BRANCH  42  46
ATOM     45  S   UNL     1       3.809   0.859   2.295  0.00  0.00    +0.000 S 
ATOM     46  C   UNL     1       2.318   1.249   2.996  0.00  0.00    +0.000 C 
BRANCH  46  47
ATOM     47  N   UNL     1       2.109   2.551   3.437  0.00  0.00    +0.000 N 
ATOM     48  H   UNL     1       2.843   3.246   3.343  0.00  0.00    +0.000 HD
ATOM     49  H   UNL     1       1.232   2.880   3.826  0.00  0.00    +0.000 HD
ENDBRANCH  46  47
ENDBRANCH  42  46
ENDBRANCH  38  39
BRANCH  35  50
ATOM     50  O   UNL     1      -1.193  -4.499  -0.530  0.00  0.00    +0.000 OA
ATOM     51  H   UNL     1      -0.849  -5.117  -1.198  0.00  0.00    +0.000 HD
ENDBRANCH  35  50
BRANCH  36  52
ATOM     52  O   UNL     1      -2.385  -2.329   0.588  0.00  0.00    +0.000 OA
ATOM     53  H   UNL     1      -2.850  -2.282  -0.264  0.00  0.00    +0.000 HD
ENDBRANCH  36  52
ENDBRANCH  33  37
ENDBRANCH  32  33
ENDBRANCH  29  32
ENDBRANCH  28  29
ENDBRANCH   1  28
TORSDOF 18
