REMARK  Name = 5288989
REMARK  20 active torsions:
REMARK  status: ('A' for Active; 'I' for Inactive)
REMARK    1  A    between atoms: P_2  and  O_7
REMARK    2  A    between atoms: P_2  and  O_14
REMARK    3  A    between atoms: P_2  and  O_15
REMARK    4  A    between atoms: P_3  and  O_9
REMARK    5  A    between atoms: P_3  and  O_13
REMARK    6  A    between atoms: P_3  and  O_17
REMARK    7  A    between atoms: P_4  and  O_12
REMARK    8  A    between atoms: P_4  and  O_13
REMARK    9  A    between atoms: O_7  and  C_29
REMARK   10  A    between atoms: O_8  and  C_30
REMARK   11  A    between atoms: O_9  and  C_37
REMARK   12  A    between atoms: O_10  and  C_33
REMARK   13  A    between atoms: O_11  and  C_34
REMARK   14  A    between atoms: O_12  and  C_38
REMARK   15  A    between atoms: N_22  and  C_31
REMARK   16  A    between atoms: N_23  and  C_36
REMARK   17  A    between atoms: N_27  and  C_45
REMARK   18  A    between atoms: C_32  and  C_37
REMARK   19  A    between atoms: C_35  and  C_38
REMARK   20  A    between atoms: C_44  and  C_49
REMARK                            x       y       z     vdW  Elec       q    Type
REMARK                         _______ _______ _______ _____ _____    ______ ____
ROOT
ATOM      1  P   UNL     1      -2.494   0.199   3.505  0.00  0.00    +0.000 P 
ATOM      2  O   UNL     1      -3.576   1.071   4.076  0.00  0.00    +0.000 OA
ENDROOT
BRANCH   1   3
ATOM      3  O   UNL     1      -1.960  -0.945   4.516  0.00  0.00    +0.000 OA
ATOM      4  H   UNL     1      -2.613  -1.474   5.021  0.00  0.00    +0.000 HD
ENDBRANCH   1   3
BRANCH   1   5
ATOM      5  O   UNL     1      -1.157   0.990   3.050  0.00  0.00    +0.000 OA
BRANCH   5   6
ATOM      6  C   UNL     1      -0.066   0.275   2.497  0.00  0.00    +0.000 C 
BRANCH   6  11
ATOM      7  O   UNL     1       2.329   0.095   2.668  0.00  0.00    +0.000 OA
ATOM      8  C   UNL     1       2.307   1.565   0.812  0.00  0.00    +0.000 C 
ATOM      9  C   UNL     1       1.495   2.197   1.925  0.00  0.00    +0.000 C 
ATOM     10  C   UNL     1       3.154   0.565   1.585  0.00  0.00    +0.000 C 
ATOM     11  C   UNL     1       1.222   1.009   2.843  0.00  0.00    +0.000 C 
BRANCH  10  13
ATOM     12 BR   UNL     1       6.179   0.640   0.106  0.00  0.00    +0.000 Br
ATOM     13  N   UNL     1       3.613  -0.570   0.786  0.00  0.00    +0.000 N 
ATOM     14  N   UNL     1       4.924  -1.835  -0.498  0.00  0.00    +0.000 NA
ATOM     15  N   UNL     1       1.697  -2.047   1.010  0.00  0.00    +0.000 NA
ATOM     16  N   UNL     1       2.044  -4.137  -0.201  0.00  0.00    +0.000 NA
ATOM     17  C   UNL     1       2.919  -1.724   0.560  0.00  0.00    +0.000 A 
ATOM     18  C   UNL     1       4.810  -0.683   0.130  0.00  0.00    +0.000 A 
ATOM     19  C   UNL     1       3.749  -2.495  -0.238  0.00  0.00    +0.000 A 
ATOM     20  C   UNL     1       3.272  -3.745  -0.620  0.00  0.00    +0.000 A 
ATOM     21  C   UNL     1       1.344  -3.276   0.576  0.00  0.00    +0.000 A 
BRANCH  20  22
ATOM     22  N   UNL     1       4.046  -4.593  -1.429  0.00  0.00    +0.000 N 
ATOM     23  H   UNL     1       4.963  -4.303  -1.744  0.00  0.00    +0.000 HD
ATOM     24  H   UNL     1       3.677  -5.496  -1.694  0.00  0.00    +0.000 HD
ENDBRANCH  20  22
ENDBRANCH  10  13
BRANCH   9  25
ATOM     25  O   UNL     1       2.303   3.143   2.625  0.00  0.00    +0.000 OA
ATOM     26  H   UNL     1       1.767   3.497   3.355  0.00  0.00    +0.000 HD
ENDBRANCH   9  25
BRANCH   8  27
ATOM     27  O   UNL     1       3.103   2.497   0.109  0.00  0.00    +0.000 OA
BRANCH  27  28
ATOM     28  P   UNL     1       2.402   3.416  -1.028  0.00  0.00    +0.000 P 
ATOM     29  O   UNL     1       1.288   4.292  -0.534  0.00  0.00    +0.000 OA
BRANCH  28  30
ATOM     30  O   UNL     1       1.990   2.355  -2.176  0.00  0.00    +0.000 OA
ATOM     31  H   UNL     1       1.466   2.666  -2.945  0.00  0.00    +0.000 HD
ENDBRANCH  28  30
BRANCH  28  32
ATOM     32  O   UNL     1       3.653   4.205  -1.681  0.00  0.00    +0.000 OA
ATOM     33  H   UNL     1       3.478   4.905  -2.346  0.00  0.00    +0.000 HD
ENDBRANCH  28  32
ENDBRANCH  27  28
ENDBRANCH   8  27
ENDBRANCH   6  11
ENDBRANCH   5   6
ENDBRANCH   1   5
BRANCH   1  34
ATOM     34  O   UNL     1      -2.936  -0.641   2.196  0.00  0.00    +0.000 OA
BRANCH  34  35
ATOM     35  P   UNL     1      -3.787  -2.027   2.044  0.00  0.00    +0.000 P 
ATOM     36  O   UNL     1      -5.202  -1.776   2.519  0.00  0.00    +0.000 OA
ATOM     37  O   UNL     1      -2.969  -3.160   2.625  0.00  0.00    +0.000 OA
BRANCH  35  38
ATOM     38  O   UNL     1      -3.779  -2.174   0.415  0.00  0.00    +0.000 OA
BRANCH  38  39
ATOM     39  C   UNL     1      -2.551  -2.415  -0.252  0.00  0.00    +0.000 C 
BRANCH  39  43
ATOM     40  O   UNL     1      -3.342  -1.244  -2.202  0.00  0.00    +0.000 OA
ATOM     41  C   UNL     1      -1.541  -2.758  -2.558  0.00  0.00    +0.000 C 
ATOM     42  C   UNL     1      -1.068  -1.349  -2.856  0.00  0.00    +0.000 C 
ATOM     43  C   UNL     1      -2.810  -2.510  -1.749  0.00  0.00    +0.000 C 
ATOM     44  C   UNL     1      -2.385  -0.630  -3.085  0.00  0.00    +0.000 C 
BRANCH  44  45
ATOM     45  N   UNL     1      -2.236   0.825  -2.829  0.00  0.00    +0.000 N 
ATOM     46  C   UNL     1      -2.409   1.282  -1.581  0.00  0.00    +0.000 A 
ATOM     47  C   UNL     1      -1.933   1.633  -3.853  0.00  0.00    +0.000 A 
ATOM     48  C   UNL     1      -2.276   2.636  -1.312  0.00  0.00    +0.000 A 
ATOM     49  C   UNL     1      -1.787   2.997  -3.643  0.00  0.00    +0.000 A 
ATOM     50  C   UNL     1      -1.961   3.500  -2.357  0.00  0.00    +0.000 A 
BRANCH  48  53
ATOM     51  O   UNL     1      -2.727   2.382   0.986  0.00  0.00    +0.000 OA
ATOM     52  N   UNL     1      -2.314   4.512   0.243  0.00  0.00    +0.000 N 
ATOM     53  C   UNL     1      -2.461   3.143   0.037  0.00  0.00    +0.000 C 
ATOM     54  H   UNL     1      -2.431   4.890   1.178  0.00  0.00    +0.000 HD
ATOM     55  H   UNL     1      -2.094   5.196  -0.469  0.00  0.00    +0.000 HD
ENDBRANCH  48  53
ENDBRANCH  44  45
BRANCH  41  56
ATOM     56  O   UNL     1      -1.893  -3.410  -3.778  0.00  0.00    +0.000 OA
ATOM     57  H   UNL     1      -2.235  -4.290  -3.548  0.00  0.00    +0.000 HD
ENDBRANCH  41  56
BRANCH  42  58
ATOM     58  O   UNL     1      -0.222  -1.277  -3.985  0.00  0.00    +0.000 OA
ATOM     59  H   UNL     1       0.545  -1.848  -3.811  0.00  0.00    +0.000 HD
ENDBRANCH  42  58
ENDBRANCH  39  43
ENDBRANCH  38  39
ENDBRANCH  35  38
ENDBRANCH  34  35
ENDBRANCH   1  34
TORSDOF 20
