REMARK  Name = 5289104
REMARK  17 active torsions:
REMARK  status: ('A' for Active; 'I' for Inactive)
REMARK    1  A    between atoms: P_1  and  O_9
REMARK    2  A    between atoms: P_1  and  O_11
REMARK    3  A    between atoms: P_1  and  O_12
REMARK    4  A    between atoms: P_2  and  O_10
REMARK    5  A    between atoms: P_2  and  O_11
REMARK    6  A    between atoms: O_5  and  C_24
REMARK    7  A    between atoms: O_6  and  C_25
REMARK    8  A    between atoms: O_7  and  C_28
REMARK    9  A    between atoms: O_8  and  C_29
REMARK   10  A    between atoms: O_9  and  C_32
REMARK   11  A    between atoms: O_10  and  C_33
REMARK   12  A    between atoms: N_17  and  C_27
REMARK   13  A    between atoms: N_22  and  C_41
REMARK   14  A    between atoms: C_26  and  C_32
REMARK   15  A    between atoms: C_30  and  C_33
REMARK   16  A    between atoms: C_31  and  C_34
REMARK   17  A    between atoms: C_39  and  C_44
REMARK                            x       y       z     vdW  Elec       q    Type
REMARK                         _______ _______ _______ _____ _____    ______ ____
ROOT
ATOM      1  P   UNL     1       4.027  -1.271   1.739  0.00  0.00    +0.000 P 
ATOM      2  O   UNL     1       5.331  -1.684   1.121  0.00  0.00    +0.000 OA
ENDROOT
BRANCH   1   3
ATOM      3  O   UNL     1       4.046  -1.211   3.356  0.00  0.00    +0.000 OA
ATOM      4  H   UNL     1       4.804  -0.780   3.805  0.00  0.00    +0.000 HD
ENDBRANCH   1   3
BRANCH   1   5
ATOM      5  O   UNL     1       2.775  -2.234   1.388  0.00  0.00    +0.000 OA
BRANCH   5   6
ATOM      6  C   UNL     1       1.491  -1.947   1.913  0.00  0.00    +0.000 C 
BRANCH   6  10
ATOM      7  O   UNL     1      -0.805  -2.674   1.935  0.00  0.00    +0.000 OA
ATOM      8  C   UNL     1       0.386  -3.049  -0.092  0.00  0.00    +0.000 C 
ATOM      9  C   UNL     1      -0.741  -2.070  -0.354  0.00  0.00    +0.000 C 
ATOM     10  C   UNL     1       0.509  -3.004   1.428  0.00  0.00    +0.000 C 
ATOM     11  C   UNL     1      -1.662  -2.345   0.825  0.00  0.00    +0.000 C 
BRANCH  11  12
ATOM     12  N   UNL     1      -2.523  -1.221   1.183  0.00  0.00    +0.000 N 
ATOM     13  N   UNL     1      -3.176   0.679   2.148  0.00  0.00    +0.000 NA
ATOM     14  N   UNL     1      -4.530  -1.760  -0.075  0.00  0.00    +0.000 NA
ATOM     15  N   UNL     1      -6.265  -0.077   0.260  0.00  0.00    +0.000 NA
ATOM     16  C   UNL     1      -3.802  -1.000   0.755  0.00  0.00    +0.000 A 
ATOM     17  C   UNL     1      -2.193  -0.186   2.017  0.00  0.00    +0.000 A 
ATOM     18  C   UNL     1      -4.188   0.183   1.365  0.00  0.00    +0.000 A 
ATOM     19  C   UNL     1      -5.473   0.641   1.091  0.00  0.00    +0.000 A 
ATOM     20  C   UNL     1      -5.752  -1.217  -0.264  0.00  0.00    +0.000 A 
BRANCH  19  21
ATOM     21  N   UNL     1      -5.948   1.833   1.665  0.00  0.00    +0.000 N 
ATOM     22  H   UNL     1      -6.885   2.146   1.450  0.00  0.00    +0.000 HD
ATOM     23  H   UNL     1      -5.357   2.373   2.284  0.00  0.00    +0.000 HD
ENDBRANCH  19  21
ENDBRANCH  11  12
BRANCH   8  24
ATOM     24  O   UNL     1      -0.023  -4.360  -0.482  0.00  0.00    +0.000 OA
ATOM     25  H   UNL     1       0.705  -4.968  -0.265  0.00  0.00    +0.000 HD
ENDBRANCH   8  24
BRANCH   9  26
ATOM     26  O   UNL     1      -1.388  -2.289  -1.591  0.00  0.00    +0.000 OA
ATOM     27  H   UNL     1      -0.704  -2.297  -2.282  0.00  0.00    +0.000 HD
ENDBRANCH   9  26
ENDBRANCH   6  10
ENDBRANCH   5   6
ENDBRANCH   1   5
BRANCH   1  28
ATOM     28  O   UNL     1       3.531   0.211   1.321  0.00  0.00    +0.000 OA
BRANCH  28  29
ATOM     29  P   UNL     1       4.225   1.675   1.524  0.00  0.00    +0.000 P 
ATOM     30  O   UNL     1       5.491   1.725   0.695  0.00  0.00    +0.000 OA
ATOM     31  O   UNL     1       4.261   1.990   3.004  0.00  0.00    +0.000 OA
BRANCH  29  32
ATOM     32  O   UNL     1       3.083   2.617   0.827  0.00  0.00    +0.000 OA
BRANCH  32  33
ATOM     33  C   UNL     1       1.720   2.408   1.155  0.00  0.00    +0.000 C 
BRANCH  33  37
ATOM     34  O   UNL     1       1.056   3.153  -1.034  0.00  0.00    +0.000 OA
ATOM     35  C   UNL     1      -0.618   3.261   0.648  0.00  0.00    +0.000 C 
ATOM     36  C   UNL     1      -1.041   2.249  -0.399  0.00  0.00    +0.000 C 
ATOM     37  C   UNL     1       0.874   3.407   0.377  0.00  0.00    +0.000 C 
ATOM     38  C   UNL     1      -0.167   2.628  -1.590  0.00  0.00    +0.000 C 
BRANCH  38  40
ATOM     39  N   UNL     1       1.145   0.675  -2.248  0.00  0.00    +0.000 N 
ATOM     40  C   UNL     1       0.098   1.466  -2.519  0.00  0.00    +0.000 A 
ATOM     41  C   UNL     1      -0.702   1.208  -3.623  0.00  0.00    +0.000 A 
ATOM     42  C   UNL     1       1.464  -0.380  -3.012  0.00  0.00    +0.000 A 
ATOM     43  C   UNL     1      -0.394   0.119  -4.433  0.00  0.00    +0.000 A 
ATOM     44  C   UNL     1       0.699  -0.686  -4.128  0.00  0.00    +0.000 A 
ATOM     45  H   UNL     1       1.720   0.884  -1.433  0.00  0.00    +0.000 HD
BRANCH  42  48
ATOM     46  O   UNL     1       3.282  -0.878  -1.600  0.00  0.00    +0.000 OA
ATOM     47  N   UNL     1       2.960  -2.262  -3.400  0.00  0.00    +0.000 N 
ATOM     48  C   UNL     1       2.618  -1.161  -2.616  0.00  0.00    +0.000 C 
ATOM     49  H   UNL     1       3.760  -2.833  -3.144  0.00  0.00    +0.000 HD
ATOM     50  H   UNL     1       2.466  -2.557  -4.234  0.00  0.00    +0.000 HD
ENDBRANCH  42  48
ENDBRANCH  38  40
BRANCH  35  51
ATOM     51  O   UNL     1      -1.262   4.517   0.429  0.00  0.00    +0.000 OA
ATOM     52  H   UNL     1      -0.921   5.137   1.096  0.00  0.00    +0.000 HD
ENDBRANCH  35  51
BRANCH  36  53
ATOM     53  O   UNL     1      -2.418   2.322  -0.708  0.00  0.00    +0.000 OA
ATOM     54  H   UNL     1      -2.908   2.297   0.131  0.00  0.00    +0.000 HD
ENDBRANCH  36  53
ENDBRANCH  33  37
ENDBRANCH  32  33
ENDBRANCH  29  32
ENDBRANCH  28  29
ENDBRANCH   1  28
TORSDOF 17
