REMARK  Name = 49866641
REMARK  20 active torsions:
REMARK  status: ('A' for Active; 'I' for Inactive)
REMARK    1  A    between atoms: P_1  and  O_5
REMARK    2  A    between atoms: P_1  and  O_14
REMARK    3  A    between atoms: P_1  and  O_15
REMARK    4  A    between atoms: P_2  and  O_7
REMARK    5  A    between atoms: P_2  and  O_13
REMARK    6  A    between atoms: P_2  and  O_17
REMARK    7  A    between atoms: P_3  and  O_11
REMARK    8  A    between atoms: P_3  and  O_13
REMARK    9  A    between atoms: P_3  and  O_19
REMARK   10  A    between atoms: O_5  and  C_26
REMARK   11  A    between atoms: O_6  and  C_28
REMARK   12  A    between atoms: O_7  and  C_30
REMARK   13  A    between atoms: O_9  and  C_34
REMARK   14  A    between atoms: O_10  and  C_37
REMARK   15  A    between atoms: O_11  and  C_40
REMARK   16  A    between atoms: O_12  and  C_38
REMARK   17  A    between atoms: N_21  and  C_27
REMARK   18  A    between atoms: N_25  and  C_36
REMARK   19  A    between atoms: C_29  and  C_30
REMARK   20  A    between atoms: C_35  and  C_40
REMARK                            x       y       z     vdW  Elec       q    Type
REMARK                         _______ _______ _______ _____ _____    ______ ____
ROOT
ATOM      1  O   UNL     1      -0.003   2.669  -1.906  0.00  0.00    +0.000 OA
ATOM      2  C   UNL     1      -0.053   2.207   0.415  0.00  0.00    +0.000 C 
ATOM      3  C   UNL     1      -0.922   2.473  -0.811  0.00  0.00    +0.000 C 
ATOM      4  C   UNL     1       1.167   3.058   0.125  0.00  0.00    +0.000 C 
ATOM      5  C   UNL     1       1.325   2.892  -1.381  0.00  0.00    +0.000 C 
ENDROOT
BRANCH   3   6
ATOM      6  N   UNL     1      -1.894   1.354  -1.099  0.00  0.00    +0.000 N 
ATOM      7  N   UNL     1      -3.860   2.087   0.101  0.00  0.00    +0.000 N 
ATOM      8  N   UNL     1      -2.682  -0.573  -1.926  0.00  0.00    +0.000 NA
ATOM      9  N   UNL     1      -5.906   0.691  -0.545  0.00  0.00    +0.000 NA
ATOM     10  C   UNL     1      -3.176   1.235  -0.674  0.00  0.00    +0.000 A 
ATOM     11  C   UNL     1      -3.656   0.057  -1.196  0.00  0.00    +0.000 A 
ATOM     12  C   UNL     1      -1.640   0.235  -1.856  0.00  0.00    +0.000 A 
ATOM     13  C   UNL     1      -5.033  -0.448  -0.912  0.00  0.00    +0.000 C 
ATOM     14  C   UNL     1      -5.230   1.640   0.384  0.00  0.00    +0.000 C 
ATOM     15  H   UNL     1      -3.498   2.937   0.518  0.00  0.00    +0.000 HD
ATOM     16  H   UNL     1      -6.769   0.347  -0.125  0.00  0.00    +0.000 HD
BRANCH  13  17
ATOM     17  N   UNL     1      -5.564  -1.115  -2.092  0.00  0.00    +0.000 NA
ATOM     18  H   UNL     1      -5.012  -1.948  -2.295  0.00  0.00    +0.000 HD
ATOM     19  H   UNL     1      -6.508  -1.444  -1.893  0.00  0.00    +0.000 HD
ENDBRANCH  13  17
ENDBRANCH   3   6
BRANCH   4  20
ATOM     20  O   UNL     1       0.890   4.432   0.390  0.00  0.00    +0.000 OA
ATOM     21  H   UNL     1       1.689   4.939   0.163  0.00  0.00    +0.000 HD
ENDBRANCH   4  20
BRANCH   2  22
ATOM     22  O   UNL     1      -0.692   2.551   1.628  0.00  0.00    +0.000 OA
BRANCH  22  23
ATOM     23  P   UNL     1      -0.069   1.994   3.017  0.00  0.00    +0.000 P 
ATOM     24  O   UNL     1       1.343   2.423   3.294  0.00  0.00    +0.000 OA
BRANCH  23  25
ATOM     25  O   UNL     1      -1.155   2.466   4.119  0.00  0.00    +0.000 OA
ATOM     26  H   UNL     1      -0.958   2.325   5.069  0.00  0.00    +0.000 HD
ENDBRANCH  23  25
BRANCH  23  27
ATOM     27  O   UNL     1      -0.301   0.396   2.927  0.00  0.00    +0.000 OA
ATOM     28  H   UNL     1       0.069  -0.178   3.631  0.00  0.00    +0.000 HD
ENDBRANCH  23  27
ENDBRANCH  22  23
ENDBRANCH   2  22
BRANCH   5  29
ATOM     29  C   UNL     1       2.194   1.702  -1.763  0.00  0.00    +0.000 C 
BRANCH  29  30
ATOM     30  O   UNL     1       3.486   1.889  -1.213  0.00  0.00    +0.000 OA
BRANCH  30  31
ATOM     31  P   UNL     1       4.637   0.777  -1.454  0.00  0.00    +0.000 P 
ATOM     32  O   UNL     1       5.960   1.093  -0.819  0.00  0.00    +0.000 OA
BRANCH  31  33
ATOM     33  O   UNL     1       4.694   0.597  -3.060  0.00  0.00    +0.000 OA
ATOM     34  H   UNL     1       5.415   0.060  -3.452  0.00  0.00    +0.000 HD
ENDBRANCH  31  33
BRANCH  31  35
ATOM     35  O   UNL     1       3.974  -0.609  -0.949  0.00  0.00    +0.000 OA
BRANCH  35  36
ATOM     36  P   UNL     1       3.521  -1.093   0.525  0.00  0.00    +0.000 P 
ATOM     37  O   UNL     1       2.472  -0.234   1.169  0.00  0.00    +0.000 OA
BRANCH  36  38
ATOM     38  O   UNL     1       4.923  -1.176   1.328  0.00  0.00    +0.000 OA
ATOM     39  H   UNL     1       5.659  -1.697   0.943  0.00  0.00    +0.000 HD
ENDBRANCH  36  38
BRANCH  36  40
ATOM     40  O   UNL     1       3.114  -2.641   0.291  0.00  0.00    +0.000 OA
BRANCH  40  41
ATOM     41  C   UNL     1       1.994  -2.930  -0.526  0.00  0.00    +0.000 C 
BRANCH  41  44
ATOM     42  O   UNL     1       0.527  -2.876   1.395  0.00  0.00    +0.000 OA
ATOM     43  C   UNL     1      -0.288  -4.041  -0.489  0.00  0.00    +0.000 C 
ATOM     44  C   UNL     1       0.966  -3.690   0.293  0.00  0.00    +0.000 C 
ATOM     45  C   UNL     1      -1.323  -4.134   0.614  0.00  0.00    +0.000 C 
ATOM     46  C   UNL     1      -0.907  -2.975   1.507  0.00  0.00    +0.000 C 
BRANCH  43  47
ATOM     47  O   UNL     1      -0.138  -5.240  -1.219  0.00  0.00    +0.000 OA
ATOM     48  H   UNL     1      -1.006  -5.462  -1.597  0.00  0.00    +0.000 HD
ENDBRANCH  43  47
BRANCH  45  49
ATOM     49  O   UNL     1      -1.166  -5.359   1.324  0.00  0.00    +0.000 OA
ATOM     50  H   UNL     1      -1.804  -5.352   2.058  0.00  0.00    +0.000 HD
ENDBRANCH  45  49
BRANCH  46  51
ATOM     51  O   UNL     1      -1.526  -1.782   1.040  0.00  0.00    +0.000 OA
ATOM     52  H   UNL     1      -1.525  -1.151   1.779  0.00  0.00    +0.000 HD
ENDBRANCH  46  51
ENDBRANCH  41  44
ENDBRANCH  40  41
ENDBRANCH  36  40
ENDBRANCH  35  36
ENDBRANCH  31  35
ENDBRANCH  30  31
ENDBRANCH  29  30
ENDBRANCH   5  29
TORSDOF 20
