REMARK  Name = 6132
REMARK  11 active torsions:
REMARK  status: ('A' for Active; 'I' for Inactive)
REMARK    1  A    between atoms: P_1  and  O_6
REMARK    2  A    between atoms: P_1  and  O_8
REMARK    3  A    between atoms: P_1  and  O_9
REMARK    4  A    between atoms: P_2  and  O_8
REMARK    5  A    between atoms: P_2  and  O_11
REMARK    6  A    between atoms: P_2  and  O_12
REMARK    7  A    between atoms: O_4  and  C_17
REMARK    8  A    between atoms: O_5  and  C_18
REMARK    9  A    between atoms: O_6  and  C_21
REMARK   10  A    between atoms: N_14  and  C_20
REMARK   11  A    between atoms: C_19  and  C_21
REMARK                            x       y       z     vdW  Elec       q    Type
REMARK                         _______ _______ _______ _____ _____    ______ ____
ROOT
ATOM      1  O   UNL     1       1.123   1.482   1.110  0.00  0.00    +0.000 OA
ATOM      2  C   UNL     1       1.328   2.948  -0.739  0.00  0.00    +0.000 C 
ATOM      3  C   UNL     1       2.058   1.661  -1.060  0.00  0.00    +0.000 C 
ATOM      4  C   UNL     1       0.413   2.520   0.401  0.00  0.00    +0.000 C 
ATOM      5  C   UNL     1       2.243   1.051   0.319  0.00  0.00    +0.000 C 
ENDROOT
BRANCH   5   7
ATOM      6  O   UNL     1       4.566  -0.535   0.166  0.00  0.00    +0.000 OA
ATOM      7  N   UNL     1       2.266  -0.384   0.286  0.00  0.00    +0.000 N 
ATOM      8  N   UNL     1       3.425  -2.498   0.180  0.00  0.00    +0.000 NA
ATOM      9  N   UNL     1       2.250  -4.505   0.194  0.00  0.00    +0.000 N 
ATOM     10  C   UNL     1       1.062  -1.070   0.330  0.00  0.00    +0.000 A 
ATOM     11  C   UNL     1       3.478  -1.115   0.208  0.00  0.00    +0.000 A 
ATOM     12  C   UNL     1       0.989  -2.399   0.303  0.00  0.00    +0.000 A 
ATOM     13  C   UNL     1       2.281  -3.130   0.223  0.00  0.00    +0.000 A 
ATOM     14  H   UNL     1       1.379  -5.024   0.226  0.00  0.00    +0.000 HD
ATOM     15  H   UNL     1       3.107  -5.044   0.140  0.00  0.00    +0.000 HD
ENDBRANCH   5   7
BRANCH   2  16
ATOM     16  O   UNL     1       2.240   3.920  -0.229  0.00  0.00    +0.000 OA
ATOM     17  H   UNL     1       2.631   3.587   0.596  0.00  0.00    +0.000 HD
ENDBRANCH   2  16
BRANCH   3  18
ATOM     18  O   UNL     1       3.285   1.890  -1.722  0.00  0.00    +0.000 OA
ATOM     19  H   UNL     1       3.732   1.032  -1.813  0.00  0.00    +0.000 HD
ENDBRANCH   3  18
BRANCH   4  20
ATOM     20  C   UNL     1      -0.914   1.947  -0.076  0.00  0.00    +0.000 C 
BRANCH  20  21
ATOM     21  O   UNL     1      -1.679   1.573   1.056  0.00  0.00    +0.000 OA
BRANCH  21  22
ATOM     22  P   UNL     1      -3.151   0.927   0.862  0.00  0.00    +0.000 P 
ATOM     23  O   UNL     1      -3.857   0.575   2.139  0.00  0.00    +0.000 OA
BRANCH  22  24
ATOM     24  O   UNL     1      -3.939   1.993  -0.065  0.00  0.00    +0.000 OA
ATOM     25  H   UNL     1      -4.320   2.795   0.353  0.00  0.00    +0.000 HD
ENDBRANCH  22  24
BRANCH  22  26
ATOM     26  O   UNL     1      -2.916  -0.326  -0.133  0.00  0.00    +0.000 OA
BRANCH  26  27
ATOM     27  P   UNL     1      -3.967  -1.324  -0.846  0.00  0.00    +0.000 P 
ATOM     28  O   UNL     1      -4.950  -0.651  -1.758  0.00  0.00    +0.000 OA
BRANCH  27  29
ATOM     29  O   UNL     1      -4.617  -2.123   0.399  0.00  0.00    +0.000 OA
ATOM     30  H   UNL     1      -5.361  -2.741   0.231  0.00  0.00    +0.000 HD
ENDBRANCH  27  29
BRANCH  27  31
ATOM     31  O   UNL     1      -3.017  -2.427  -1.548  0.00  0.00    +0.000 OA
ATOM     32  H   UNL     1      -3.425  -3.112  -2.120  0.00  0.00    +0.000 HD
ENDBRANCH  27  31
ENDBRANCH  26  27
ENDBRANCH  22  26
ENDBRANCH  21  22
ENDBRANCH  20  21
ENDBRANCH   4  20
TORSDOF 11
