REMARK  Name = 
REMARK  32 active torsions:
REMARK  status: ('A' for Active; 'I' for Inactive)
REMARK    1  A    between atoms: C_1  and  O_2
REMARK    2  A    between atoms: C_1  and  O_3
REMARK    3  A    between atoms: O_3  and  C_4
REMARK    4  A    between atoms: C_4  and  C_6
REMARK    5  A    between atoms: C_7  and  O_57
REMARK    6  A    between atoms: C_8  and  O_56
REMARK    7  A    between atoms: C_9  and  O_55
REMARK    8  A    between atoms: C_10  and  O_12
REMARK    9  A    between atoms: O_12  and  C_13
REMARK   10  A    between atoms: C_14  and  O_54
REMARK   11  A    between atoms: C_15  and  O_53
REMARK   12  A    between atoms: C_16  and  O_24
REMARK   13  A    between atoms: C_18  and  C_19
REMARK   14  A    between atoms: C_19  and  O_21
REMARK   15  A    between atoms: O_21  and  C_22
REMARK   16  A    between atoms: C_22  and  O_23
REMARK   17  A    between atoms: O_24  and  C_25
REMARK   18  A    between atoms: C_26  and  O_52
REMARK   19  A    between atoms: C_27  and  O_51
REMARK   20  A    between atoms: C_28  and  O_36
REMARK   21  A    between atoms: C_30  and  C_31
REMARK   22  A    between atoms: C_31  and  O_33
REMARK   23  A    between atoms: O_33  and  C_34
REMARK   24  A    between atoms: C_34  and  O_35
REMARK   25  A    between atoms: O_36  and  C_37
REMARK   26  A    between atoms: C_38  and  O_50
REMARK   27  A    between atoms: C_39  and  O_49
REMARK   28  A    between atoms: C_40  and  O_48
REMARK   29  A    between atoms: C_42  and  C_43
REMARK   30  A    between atoms: C_43  and  O_45
REMARK   31  A    between atoms: O_45  and  C_46
REMARK   32  A    between atoms: C_46  and  O_47
REMARK                            x       y       z     vdW  Elec       q    Type
REMARK                         _______ _______ _______ _____ _____    ______ ____
ROOT
ATOM      1  O   UNL     1       0.715  -6.188   0.000  0.00  0.00    +0.000 OA
ENDROOT
BRANCH   1   2
ATOM      2  C   UNL     1       1.429  -6.600   0.000  0.00  0.00    +0.000 C 
ATOM      3  C   UNL     1       1.429  -7.425   0.000  0.00  0.00    +0.000 C 
ATOM      4  C   UNL     1       2.143  -7.838   0.000  0.00  0.00    +0.000 C 
ATOM      5  C   UNL     1       2.858  -7.425   0.000  0.00  0.00    +0.000 C 
ATOM      6  O   UNL     1       2.858  -6.600   0.000  0.00  0.00    +0.000 OA
ATOM      7  C   UNL     1       2.143  -6.188   0.000  0.00  0.00    +0.000 C 
BRANCH   4   8
ATOM      8  O   UNL     1       2.143  -8.662   0.000  0.00  0.00    +0.000 OA
ATOM      9  H   UNL     1       1.303  -9.147   0.000  0.00  0.00    +0.000 HD
ENDBRANCH   4   8
BRANCH   3  10
ATOM     10  O   UNL     1       0.715  -7.838   0.000  0.00  0.00    +0.000 OA
ATOM     11  H   UNL     1      -0.126  -7.353   0.000  0.00  0.00    +0.000 HD
ENDBRANCH   3  10
BRANCH   7  12
ATOM     12  C   UNL     1       2.143  -5.362   0.000  0.00  0.00    +0.000 C 
ATOM     13  O   UNL     1       2.858  -4.950   0.000  0.00  0.00    +0.000 OA
BRANCH  12  14
ATOM     14  O   UNL     1       1.429  -4.950   0.000  0.00  0.00    +0.000 OA
BRANCH  14  15
ATOM     15  C   UNL     1       1.429  -4.125   0.000  0.00  0.00    +0.000 C 
BRANCH  15  16
ATOM     16  O   UNL     1       0.715  -3.712   0.000  0.00  0.00    +0.000 OA
ATOM     17  H   UNL     1       0.715  -2.743   0.000  0.00  0.00    +0.000 HD
ENDBRANCH  15  16
ENDBRANCH  14  15
ENDBRANCH  12  14
ENDBRANCH   7  12
BRANCH   5  18
ATOM     18  O   UNL     1       3.572  -7.838   0.000  0.00  0.00    +0.000 OA
BRANCH  18  19
ATOM     19  C   UNL     1       4.287  -7.425   0.000  0.00  0.00    +0.000 C 
ATOM     20  C   UNL     1       4.287  -6.600   0.000  0.00  0.00    +0.000 C 
ATOM     21  C   UNL     1       5.001  -6.188   0.000  0.00  0.00    +0.000 C 
ATOM     22  C   UNL     1       5.716  -6.600   0.000  0.00  0.00    +0.000 C 
ATOM     23  O   UNL     1       5.716  -7.425   0.000  0.00  0.00    +0.000 OA
ATOM     24  C   UNL     1       5.001  -7.838   0.000  0.00  0.00    +0.000 C 
BRANCH  24  25
ATOM     25  C   UNL     1       5.001  -8.662   0.000  0.00  0.00    +0.000 C 
ATOM     26  O   UNL     1       4.287  -9.075   0.000  0.00  0.00    +0.000 OA
BRANCH  25  27
ATOM     27  O   UNL     1       5.716  -9.075   0.000  0.00  0.00    +0.000 OA
BRANCH  27  28
ATOM     28  C   UNL     1       5.716  -9.900   0.000  0.00  0.00    +0.000 C 
BRANCH  28  29
ATOM     29  O   UNL     1       6.430 -10.312   0.000  0.00  0.00    +0.000 OA
ATOM     30  H   UNL     1       6.430 -11.282   0.000  0.00  0.00    +0.000 HD
ENDBRANCH  28  29
ENDBRANCH  27  28
ENDBRANCH  25  27
ENDBRANCH  24  25
BRANCH  22  31
ATOM     31  O   UNL     1       6.430  -6.188   0.000  0.00  0.00    +0.000 OA
ATOM     32  H   UNL     1       7.270  -6.672   0.000  0.00  0.00    +0.000 HD
ENDBRANCH  22  31
BRANCH  21  33
ATOM     33  O   UNL     1       5.001  -5.362   0.000  0.00  0.00    +0.000 OA
ATOM     34  H   UNL     1       5.841  -4.877   0.000  0.00  0.00    +0.000 HD
ENDBRANCH  21  33
BRANCH  20  35
ATOM     35  O   UNL     1       3.572  -6.188   0.000  0.00  0.00    +0.000 OA
ATOM     36  H   UNL     1       3.572  -5.218   0.000  0.00  0.00    +0.000 HD
ENDBRANCH  20  35
ENDBRANCH  18  19
ENDBRANCH   5  18
ENDBRANCH   1   2
BRANCH   1  40
ATOM     37  C   UNL     1      -1.429  -7.425   0.000  0.00  0.00    +0.000 C 
ATOM     38  C   UNL     1      -1.429  -6.600   0.000  0.00  0.00    +0.000 C 
ATOM     39  C   UNL     1      -0.715  -6.188   0.000  0.00  0.00    +0.000 C 
ATOM     40  C   UNL     1       0.000  -6.600   0.000  0.00  0.00    +0.000 C 
ATOM     41  O   UNL     1       0.000  -7.425   0.000  0.00  0.00    +0.000 OA
ATOM     42  C   UNL     1      -0.715  -7.838   0.000  0.00  0.00    +0.000 C 
BRANCH  42  43
ATOM     43  C   UNL     1      -0.715  -8.662   0.000  0.00  0.00    +0.000 C 
ATOM     44  O   UNL     1      -1.429  -9.075   0.000  0.00  0.00    +0.000 OA
BRANCH  43  45
ATOM     45  O   UNL     1       0.000  -9.075   0.000  0.00  0.00    +0.000 OA
BRANCH  45  46
ATOM     46  C   UNL     1       0.000  -9.900   0.000  0.00  0.00    +0.000 C 
BRANCH  46  47
ATOM     47  O   UNL     1      -0.715 -10.312   0.000  0.00  0.00    +0.000 OA
ATOM     48  H   UNL     1      -1.555  -9.827   0.000  0.00  0.00    +0.000 HD
ENDBRANCH  46  47
ENDBRANCH  45  46
ENDBRANCH  43  45
ENDBRANCH  42  43
BRANCH  39  49
ATOM     49  O   UNL     1      -0.715  -5.362   0.000  0.00  0.00    +0.000 OA
ATOM     50  H   UNL     1       0.126  -4.877   0.000  0.00  0.00    +0.000 HD
ENDBRANCH  39  49
BRANCH  38  51
ATOM     51  O   UNL     1      -2.143  -6.188   0.000  0.00  0.00    +0.000 OA
ATOM     52  H   UNL     1      -2.143  -5.218   0.000  0.00  0.00    +0.000 HD
ENDBRANCH  38  51
BRANCH  37  53
ATOM     53  O   UNL     1      -2.143  -7.838   0.000  0.00  0.00    +0.000 OA
BRANCH  53  58
ATOM     54  C   UNL     1      -3.572  -6.188   0.000  0.00  0.00    +0.000 C 
ATOM     55  C   UNL     1      -4.287  -6.600   0.000  0.00  0.00    +0.000 C 
ATOM     56  C   UNL     1      -4.287  -7.425   0.000  0.00  0.00    +0.000 C 
ATOM     57  C   UNL     1      -3.572  -7.838   0.000  0.00  0.00    +0.000 C 
ATOM     58  C   UNL     1      -2.858  -7.425   0.000  0.00  0.00    +0.000 C 
ATOM     59  O   UNL     1      -2.858  -6.600   0.000  0.00  0.00    +0.000 OA
BRANCH  54  60
ATOM     60  C   UNL     1      -3.572  -5.362   0.000  0.00  0.00    +0.000 C 
ATOM     61  O   UNL     1      -2.858  -4.950   0.000  0.00  0.00    +0.000 OA
BRANCH  60  62
ATOM     62  O   UNL     1      -4.287  -4.950   0.000  0.00  0.00    +0.000 OA
BRANCH  62  63
ATOM     63  C   UNL     1      -4.287  -4.125   0.000  0.00  0.00    +0.000 C 
BRANCH  63  64
ATOM     64  O   UNL     1      -5.001  -3.712   0.000  0.00  0.00    +0.000 OA
ATOM     65  H   UNL     1      -5.001  -2.743   0.000  0.00  0.00    +0.000 HD
ENDBRANCH  63  64
ENDBRANCH  62  63
ENDBRANCH  60  62
ENDBRANCH  54  60
BRANCH  57  66
ATOM     66  O   UNL     1      -3.572  -8.662   0.000  0.00  0.00    +0.000 OA
ATOM     67  H   UNL     1      -4.412  -9.147   0.000  0.00  0.00    +0.000 HD
ENDBRANCH  57  66
BRANCH  56  68
ATOM     68  O   UNL     1      -5.001  -7.838   0.000  0.00  0.00    +0.000 OA
ATOM     69  H   UNL     1      -5.841  -7.352   0.000  0.00  0.00    +0.000 HD
ENDBRANCH  56  68
BRANCH  55  70
ATOM     70  O   UNL     1      -5.001  -6.188   0.000  0.00  0.00    +0.000 OA
ATOM     71  H   UNL     1      -5.001  -5.218   0.000  0.00  0.00    +0.000 HD
ENDBRANCH  55  70
ENDBRANCH  53  58
ENDBRANCH  37  53
ENDBRANCH   1  40
TORSDOF 32
