REMARK  Name = 
REMARK  23 active torsions:
REMARK  status: ('A' for Active; 'I' for Inactive)
REMARK    1  A    between atoms: O_3  and  C_24
REMARK    2  A    between atoms: O_3  and  C_27
REMARK    3  A    between atoms: O_5  and  C_22
REMARK    4  A    between atoms: O_5  and  C_30
REMARK    5  A    between atoms: O_6  and  C_19
REMARK    6  A    between atoms: O_7  and  C_20
REMARK    7  A    between atoms: O_8  and  C_21
REMARK    8  A    between atoms: O_9  and  C_23
REMARK    9  A    between atoms: O_10  and  C_25
REMARK   10  A    between atoms: O_11  and  C_26
REMARK   11  A    between atoms: O_12  and  C_29
REMARK   12  A    between atoms: O_13  and  C_31
REMARK   13  A    between atoms: O_14  and  C_32
REMARK   14  A    between atoms: O_15  and  C_33
REMARK   15  A    between atoms: O_16  and  C_34
REMARK   16  A    between atoms: O_17  and  C_35
REMARK   17  A    between atoms: C_18  and  C_27
REMARK   18  A    between atoms: C_28  and  C_29
REMARK   19  A    between atoms: C_30  and  C_31
REMARK   20  A    between atoms: C_31  and  C_32
REMARK   21  A    between atoms: C_32  and  C_33
REMARK   22  A    between atoms: C_33  and  C_34
REMARK   23  A    between atoms: C_34  and  C_35
REMARK                            x       y       z     vdW  Elec       q    Type
REMARK                         _______ _______ _______ _____ _____    ______ ____
ROOT
ATOM      1 FE   UNL     1      -0.206  -4.793   0.000  0.00  0.00    +0.000 Fe
ENDROOT
TORSDOF 0
REMARK  Name = 
REMARK  23 active torsions:
REMARK  status: ('A' for Active; 'I' for Inactive)
REMARK    1  A    between atoms: O_3  and  C_24
REMARK    2  A    between atoms: O_3  and  C_27
REMARK    3  A    between atoms: O_5  and  C_22
REMARK    4  A    between atoms: O_5  and  C_30
REMARK    5  A    between atoms: O_6  and  C_19
REMARK    6  A    between atoms: O_7  and  C_20
REMARK    7  A    between atoms: O_8  and  C_21
REMARK    8  A    between atoms: O_9  and  C_23
REMARK    9  A    between atoms: O_10  and  C_25
REMARK   10  A    between atoms: O_11  and  C_26
REMARK   11  A    between atoms: O_12  and  C_29
REMARK   12  A    between atoms: O_13  and  C_31
REMARK   13  A    between atoms: O_14  and  C_32
REMARK   14  A    between atoms: O_15  and  C_33
REMARK   15  A    between atoms: O_16  and  C_34
REMARK   16  A    between atoms: O_17  and  C_35
REMARK   17  A    between atoms: C_18  and  C_27
REMARK   18  A    between atoms: C_28  and  C_29
REMARK   19  A    between atoms: C_30  and  C_31
REMARK   20  A    between atoms: C_31  and  C_32
REMARK   21  A    between atoms: C_32  and  C_33
REMARK   22  A    between atoms: C_33  and  C_34
REMARK   23  A    between atoms: C_34  and  C_35
REMARK                            x       y       z     vdW  Elec       q    Type
REMARK                         _______ _______ _______ _____ _____    ______ ____
ROOT
ATOM      1  O   UNL     1       0.327   0.000   0.000  0.00  0.00    +0.000 OA
ATOM      2  C   UNL     1      -0.388  -0.412   0.000  0.00  0.00    +0.000 C 
ATOM      3  C   UNL     1      -0.388  -1.238   0.000  0.00  0.00    +0.000 C 
ATOM      4  C   UNL     1       0.327  -1.650   0.000  0.00  0.00    +0.000 C 
ATOM      5  C   UNL     1       1.041  -1.238   0.000  0.00  0.00    +0.000 C 
ATOM      6  C   UNL     1       1.041  -0.412   0.000  0.00  0.00    +0.000 C 
ENDROOT
BRANCH   3   7
ATOM      7  O   UNL     1      -1.102  -1.650   0.000  0.00  0.00    +0.000 OA
ATOM      8  H   UNL     1      -1.942  -1.165   0.000  0.00  0.00    +0.000 HD
ENDBRANCH   3   7
BRANCH   4   9
ATOM      9  O   UNL     1       0.327  -2.475   0.000  0.00  0.00    +0.000 OA
ATOM     10  H   UNL     1      -0.513  -2.960   0.000  0.00  0.00    +0.000 HD
ENDBRANCH   4   9
BRANCH   5  11
ATOM     11  O   UNL     1       1.756  -1.650   0.000  0.00  0.00    +0.000 OA
ATOM     12  H   UNL     1       1.756  -2.620   0.000  0.00  0.00    +0.000 HD
ENDBRANCH   5  11
BRANCH   6  13
ATOM     13  O   UNL     1       1.756   0.000   0.000  0.00  0.00    +0.000 OA
BRANCH  13  14
ATOM     14  C   UNL     1       1.756   0.825   0.000  0.00  0.00    +0.000 C 
BRANCH  14  15
ATOM     15  C   UNL     1       2.470   1.238   0.000  0.00  0.00    +0.000 C 
BRANCH  15  16
ATOM     16  O   UNL     1       3.185   0.825   0.000  0.00  0.00    +0.000 OA
ATOM     17  H   UNL     1       3.185  -0.145   0.000  0.00  0.00    +0.000 HD
ENDBRANCH  15  16
BRANCH  15  18
ATOM     18  C   UNL     1       2.470   2.062   0.000  0.00  0.00    +0.000 C 
BRANCH  18  19
ATOM     19  O   UNL     1       1.756   2.475   0.000  0.00  0.00    +0.000 OA
ATOM     20  H   UNL     1       1.756   3.445   0.000  0.00  0.00    +0.000 HD
ENDBRANCH  18  19
BRANCH  18  21
ATOM     21  C   UNL     1       3.185   2.475   0.000  0.00  0.00    +0.000 C 
BRANCH  21  22
ATOM     22  O   UNL     1       3.899   2.062   0.000  0.00  0.00    +0.000 OA
ATOM     23  H   UNL     1       3.899   1.093   0.000  0.00  0.00    +0.000 HD
ENDBRANCH  21  22
BRANCH  21  24
ATOM     24  C   UNL     1       3.185   3.300   0.000  0.00  0.00    +0.000 C 
BRANCH  24  25
ATOM     25  O   UNL     1       2.470   3.712   0.000  0.00  0.00    +0.000 OA
ATOM     26  H   UNL     1       2.470   4.682   0.000  0.00  0.00    +0.000 HD
ENDBRANCH  24  25
BRANCH  24  27
ATOM     27  C   UNL     1       3.899   3.712   0.000  0.00  0.00    +0.000 C 
BRANCH  27  28
ATOM     28  O   UNL     1       3.899   4.537   0.000  0.00  0.00    +0.000 OA
ATOM     29  H   UNL     1       4.739   5.022   0.000  0.00  0.00    +0.000 HD
ENDBRANCH  27  28
ENDBRANCH  24  27
ENDBRANCH  21  24
ENDBRANCH  18  21
ENDBRANCH  15  18
ENDBRANCH  14  15
ENDBRANCH  13  14
ENDBRANCH   6  13
BRANCH   2  30
ATOM     30  C   UNL     1      -1.102   0.000   0.000  0.00  0.00    +0.000 C 
BRANCH  30  31
ATOM     31  O   UNL     1      -1.102   0.825   0.000  0.00  0.00    +0.000 OA
BRANCH  31  34
ATOM     32  O   UNL     1      -1.817   2.062   0.000  0.00  0.00    +0.000 OA
ATOM     33  C   UNL     1      -2.531   0.825   0.000  0.00  0.00    +0.000 C 
ATOM     34  C   UNL     1      -1.817   1.238   0.000  0.00  0.00    +0.000 C 
ATOM     35  C   UNL     1      -3.245   1.238   0.000  0.00  0.00    +0.000 C 
ATOM     36  C   UNL     1      -3.245   2.062   0.000  0.00  0.00    +0.000 C 
ATOM     37  C   UNL     1      -2.531   2.475   0.000  0.00  0.00    +0.000 C 
BRANCH  33  38
ATOM     38  O   UNL     1      -2.531   0.000   0.000  0.00  0.00    +0.000 OA
ATOM     39  H   UNL     1      -3.371  -0.485   0.000  0.00  0.00    +0.000 HD
ENDBRANCH  33  38
BRANCH  35  40
ATOM     40  O   UNL     1      -3.960   0.825   0.000  0.00  0.00    +0.000 OA
ATOM     41  H   UNL     1      -4.800   1.310   0.000  0.00  0.00    +0.000 HD
ENDBRANCH  35  40
BRANCH  36  42
ATOM     42  O   UNL     1      -3.960   2.475   0.000  0.00  0.00    +0.000 OA
ATOM     43  H   UNL     1      -3.960   3.445   0.000  0.00  0.00    +0.000 HD
ENDBRANCH  36  42
BRANCH  37  44
ATOM     44  C   UNL     1      -2.531   3.300   0.000  0.00  0.00    +0.000 C 
BRANCH  44  45
ATOM     45  O   UNL     1      -1.817   3.712   0.000  0.00  0.00    +0.000 OA
ATOM     46  H   UNL     1      -0.977   3.228   0.000  0.00  0.00    +0.000 HD
ENDBRANCH  44  45
ENDBRANCH  37  44
ENDBRANCH  31  34
ENDBRANCH  30  31
ENDBRANCH   2  30
TORSDOF 23
