REMARK  Name = 148197
REMARK  22 active torsions:
REMARK  status: ('A' for Active; 'I' for Inactive)
REMARK    1  A    between atoms: P_1  and  O_11
REMARK    2  A    between atoms: P_1  and  O_15
REMARK    3  A    between atoms: P_1  and  O_17
REMARK    4  A    between atoms: P_2  and  O_12
REMARK    5  A    between atoms: P_2  and  O_16
REMARK    6  A    between atoms: P_2  and  O_18
REMARK    7  A    between atoms: P_3  and  O_15
REMARK    8  A    between atoms: P_3  and  O_23
REMARK    9  A    between atoms: P_3  and  O_24
REMARK   10  A    between atoms: P_4  and  O_16
REMARK   11  A    between atoms: P_4  and  O_23
REMARK   12  A    between atoms: P_4  and  O_25
REMARK   13  A    between atoms: O_7  and  C_32
REMARK   14  A    between atoms: O_8  and  C_33
REMARK   15  A    between atoms: O_9  and  C_34
REMARK   16  A    between atoms: O_10  and  C_35
REMARK   17  A    between atoms: O_11  and  C_40
REMARK   18  A    between atoms: O_12  and  C_41
REMARK   19  A    between atoms: N_28  and  C_38
REMARK   20  A    between atoms: N_29  and  C_39
REMARK   21  A    between atoms: C_36  and  C_40
REMARK   22  A    between atoms: C_37  and  C_41
REMARK                            x       y       z     vdW  Elec       q    Type
REMARK                         _______ _______ _______ _____ _____    ______ ____
ROOT
ATOM      1  O   UNL     1       3.321  -2.290   0.304  0.00  0.00    +0.000 OA
ENDROOT
BRANCH   1   2
ATOM      2  P   UNL     1       4.775  -1.586   0.277  0.00  0.00    +0.000 P 
ATOM      3  O   UNL     1       5.705  -2.023   1.370  0.00  0.00    +0.000 OA
BRANCH   2   4
ATOM      4  O   UNL     1       5.296  -1.883  -1.224  0.00  0.00    +0.000 OA
ATOM      5  H   UNL     1       5.643  -2.775  -1.438  0.00  0.00    +0.000 HD
ENDBRANCH   2   4
BRANCH   2   6
ATOM      6  O   UNL     1       4.424  -0.010   0.258  0.00  0.00    +0.000 OA
BRANCH   6   7
ATOM      7  P   UNL     1       5.372   1.290   0.101  0.00  0.00    +0.000 P 
ATOM      8  O   UNL     1       6.473   1.127  -0.906  0.00  0.00    +0.000 OA
BRANCH   7   9
ATOM      9  O   UNL     1       5.883   1.560   1.611  0.00  0.00    +0.000 OA
ATOM     10  H   UNL     1       6.615   1.014   1.969  0.00  0.00    +0.000 HD
ENDBRANCH   7   9
BRANCH   7  11
ATOM     11  O   UNL     1       4.348   2.506  -0.203  0.00  0.00    +0.000 OA
BRANCH  11  12
ATOM     12  C   UNL     1       3.267   2.758   0.678  0.00  0.00    +0.000 C 
BRANCH  12  16
ATOM     13  O   UNL     1       1.931   3.598  -1.134  0.00  0.00    +0.000 OA
ATOM     14  C   UNL     1       1.274   4.298   1.031  0.00  0.00    +0.000 C 
ATOM     15  C   UNL     1       0.196   3.396   0.467  0.00  0.00    +0.000 C 
ATOM     16  C   UNL     1       2.471   3.948   0.159  0.00  0.00    +0.000 C 
ATOM     17  C   UNL     1       0.510   3.422  -1.019  0.00  0.00    +0.000 C 
BRANCH  17  20
ATOM     18  O   UNL     1      -1.955   3.015  -2.336  0.00  0.00    +0.000 OA
ATOM     19  O   UNL     1      -0.820  -1.293  -3.518  0.00  0.00    +0.000 OA
ATOM     20  N   UNL     1       0.135   2.204  -1.680  0.00  0.00    +0.000 N 
ATOM     21  N   UNL     1      -1.388   0.870  -2.923  0.00  0.00    +0.000 N 
ATOM     22  C   UNL     1      -1.127   2.102  -2.310  0.00  0.00    +0.000 A 
ATOM     23  C   UNL     1       1.014   1.127  -1.699  0.00  0.00    +0.000 A 
ATOM     24  C   UNL     1       0.750  -0.042  -2.287  0.00  0.00    +0.000 A 
ATOM     25  C   UNL     1      -0.546  -0.231  -2.968  0.00  0.00    +0.000 A 
ATOM     26  H   UNL     1      -2.290   0.773  -3.382  0.00  0.00    +0.000 HD
ENDBRANCH  17  20
BRANCH  14  27
ATOM     27  O   UNL     1       0.945   5.667   0.798  0.00  0.00    +0.000 OA
ATOM     28  H   UNL     1       1.680   6.205   1.141  0.00  0.00    +0.000 HD
ENDBRANCH  14  27
BRANCH  15  29
ATOM     29  O   UNL     1      -1.104   3.868   0.756  0.00  0.00    +0.000 OA
ATOM     30  H   UNL     1      -1.734   3.286   0.299  0.00  0.00    +0.000 HD
ENDBRANCH  15  29
ENDBRANCH  12  16
ENDBRANCH  11  12
ENDBRANCH   7  11
ENDBRANCH   6   7
ENDBRANCH   2   6
ENDBRANCH   1   2
BRANCH   1  31
ATOM     31  P   UNL     1       2.901  -3.846   0.195  0.00  0.00    +0.000 P 
ATOM     32  O   UNL     1       3.323  -4.525  -1.075  0.00  0.00    +0.000 OA
BRANCH  31  33
ATOM     33  O   UNL     1       3.512  -4.486   1.548  0.00  0.00    +0.000 OA
ATOM     34  H   UNL     1       4.474  -4.672   1.592  0.00  0.00    +0.000 HD
ENDBRANCH  31  33
BRANCH  31  35
ATOM     35  O   UNL     1       1.310  -3.823   0.472  0.00  0.00    +0.000 OA
BRANCH  35  36
ATOM     36  P   UNL     1       0.456  -3.206   1.698  0.00  0.00    +0.000 P 
ATOM     37  O   UNL     1       0.790  -3.783   3.042  0.00  0.00    +0.000 OA
BRANCH  36  38
ATOM     38  O   UNL     1       0.719  -1.617   1.552  0.00  0.00    +0.000 OA
ATOM     39  H   UNL     1       1.578  -1.248   1.848  0.00  0.00    +0.000 HD
ENDBRANCH  36  38
BRANCH  36  40
ATOM     40  O   UNL     1      -1.075  -3.393   1.212  0.00  0.00    +0.000 OA
BRANCH  40  41
ATOM     41  C   UNL     1      -1.454  -2.871  -0.049  0.00  0.00    +0.000 C 
BRANCH  41  45
ATOM     42  O   UNL     1      -3.693  -2.488   0.734  0.00  0.00    +0.000 OA
ATOM     43  C   UNL     1      -3.443  -2.634  -1.617  0.00  0.00    +0.000 C 
ATOM     44  C   UNL     1      -3.837  -1.216  -1.261  0.00  0.00    +0.000 C 
ATOM     45  C   UNL     1      -2.929  -3.167  -0.287  0.00  0.00    +0.000 C 
ATOM     46  C   UNL     1      -4.402  -1.389   0.138  0.00  0.00    +0.000 C 
BRANCH  46  49
ATOM     47  O   UNL     1      -6.327   0.654   0.450  0.00  0.00    +0.000 OA
ATOM     48  O   UNL     1      -3.591   3.050   3.282  0.00  0.00    +0.000 OA
ATOM     49  N   UNL     1      -4.219  -0.221   0.952  0.00  0.00    +0.000 N 
ATOM     50  N   UNL     1      -4.963   1.846   1.860  0.00  0.00    +0.000 N 
ATOM     51  C   UNL     1      -5.248   0.747   1.040  0.00  0.00    +0.000 A 
ATOM     52  C   UNL     1      -3.032  -0.041   1.651  0.00  0.00    +0.000 A 
ATOM     53  C   UNL     1      -2.774   1.012   2.429  0.00  0.00    +0.000 A 
ATOM     54  C   UNL     1      -3.796   2.068   2.575  0.00  0.00    +0.000 A 
ATOM     55  H   UNL     1      -5.688   2.554   1.938  0.00  0.00    +0.000 HD
ENDBRANCH  46  49
BRANCH  43  56
ATOM     56  O   UNL     1      -4.597  -3.393  -1.978  0.00  0.00    +0.000 OA
ATOM     57  H   UNL     1      -4.302  -4.302  -2.158  0.00  0.00    +0.000 HD
ENDBRANCH  43  56
BRANCH  44  58
ATOM     58  O   UNL     1      -4.779  -0.678  -2.166  0.00  0.00    +0.000 OA
ATOM     59  H   UNL     1      -4.377  -0.696  -3.050  0.00  0.00    +0.000 HD
ENDBRANCH  44  58
ENDBRANCH  41  45
ENDBRANCH  40  41
ENDBRANCH  36  40
ENDBRANCH  35  36
ENDBRANCH  31  35
ENDBRANCH   1  31
TORSDOF 22
