REMARK  Name = 133021
REMARK  7 active torsions:
REMARK  status: ('A' for Active; 'I' for Inactive)
REMARK    1  A    between atoms: O_2  and  C_19
REMARK    2  A    between atoms: C_5  and  C_11
REMARK    3  A    between atoms: C_5  and  C_12
REMARK    4  A    between atoms: C_9  and  C_14
REMARK    5  A    between atoms: C_10  and  C_15
REMARK    6  A    between atoms: C_13  and  C_16
REMARK    7  A    between atoms: C_14  and  C_19
REMARK                            x       y       z     vdW  Elec       q    Type
REMARK                         _______ _______ _______ _____ _____    ______ ____
ROOT
ATOM      1  N   UNL     1      -1.839  -0.874  -0.509  0.00  0.00    +0.000 N 
ATOM      2  C   UNL     1      -4.083  -0.282  -0.152  0.00  0.00    +0.000 C 
ATOM      3  C   UNL     1      -3.168  -1.436  -0.661  0.00  0.00    +0.000 C 
ATOM      4  C   UNL     1      -3.209   1.016  -0.272  0.00  0.00    +0.000 C 
ATOM      5  C   UNL     1      -1.835   0.470  -0.291  0.00  0.00    +0.000 A 
ATOM      6  C   UNL     1      -0.591  -1.384  -0.517  0.00  0.00    +0.000 A 
ATOM      7  C   UNL     1      -0.532   0.871  -0.158  0.00  0.00    +0.000 A 
ATOM      8  C   UNL     1      -5.354  -0.173  -0.998  0.00  0.00    +0.000 C 
ATOM      9  C   UNL     1      -4.468  -0.525   1.319  0.00  0.00    +0.000 C 
ATOM     10  C   UNL     1       0.260  -0.311  -0.302  0.00  0.00    +0.000 A 
ENDROOT
BRANCH  10  12
ATOM     11 CL   UNL     1       6.173  -0.908  -0.098  0.00  0.00    +0.000 Cl
ATOM     12  C   UNL     1       1.689  -0.456  -0.253  0.00  0.00    +0.000 A 
ATOM     13  C   UNL     1       2.321  -0.713   0.963  0.00  0.00    +0.000 A 
ATOM     14  C   UNL     1       2.442  -0.340  -1.421  0.00  0.00    +0.000 A 
ATOM     15  C   UNL     1       3.708  -0.853   1.011  0.00  0.00    +0.000 A 
ATOM     16  C   UNL     1       3.829  -0.480  -1.373  0.00  0.00    +0.000 A 
ATOM     17  C   UNL     1       4.462  -0.736  -0.157  0.00  0.00    +0.000 A 
ENDBRANCH  10  12
BRANCH   7  18
ATOM     18  C   UNL     1      -0.145   2.232   0.075  0.00  0.00    +0.000 A 
ATOM     19  C   UNL     1       0.104   3.082  -1.004  0.00  0.00    +0.000 A 
ATOM     20  C   UNL     1      -0.018   2.710   1.380  0.00  0.00    +0.000 A 
ATOM     21  C   UNL     1       0.481   4.406  -0.778  0.00  0.00    +0.000 A 
ATOM     22  C   UNL     1       0.359   4.034   1.606  0.00  0.00    +0.000 A 
ATOM     23  C   UNL     1       0.608   4.882   0.527  0.00  0.00    +0.000 A 
ENDBRANCH   7  18
BRANCH   6  24
ATOM     24  C   UNL     1      -0.327  -2.822  -0.722  0.00  0.00    +0.000 C 
BRANCH  24  26
ATOM     25  O   UNL     1      -0.420  -2.982   1.692  0.00  0.00    +0.000 OA
ATOM     26  C   UNL     1      -0.316  -3.546   0.609  0.00  0.00    +0.000 C 
BRANCH  26  27
ATOM     27  O   UNL     1      -0.130  -4.883   0.483  0.00  0.00    +0.000 OA
ATOM     28  H   UNL     1      -0.103  -5.332   1.355  0.00  0.00    +0.000 HD
ENDBRANCH  26  27
ENDBRANCH  24  26
ENDBRANCH   6  24
TORSDOF 5
