REMARK  Name = 5282379
REMARK  11 active torsions:
REMARK  status: ('A' for Active; 'I' for Inactive)
REMARK    1  A    between atoms: O_1  and  C_22
REMARK    2  A    between atoms: C_3  and  C_9
REMARK    3  A    between atoms: C_3  and  C_10
REMARK    4  A    between atoms: C_6  and  C_11
REMARK    5  A    between atoms: C_8  and  C_12
REMARK    6  A    between atoms: C_13  and  C_14
REMARK    7  A    between atoms: C_14  and  C_15
REMARK    8  A    between atoms: C_16  and  C_17
REMARK    9  A    between atoms: C_18  and  C_19
REMARK   10  A    between atoms: C_19  and  C_20
REMARK   11  A    between atoms: C_21  and  C_22
REMARK                            x       y       z     vdW  Elec       q    Type
REMARK                         _______ _______ _______ _____ _____    ______ ____
ROOT
ATOM      1  C   UNL     1       0.219   0.918  -0.298  0.00  0.00    +0.000 C 
ATOM      2  C   UNL     1       0.141   2.380  -0.675  0.00  0.00    +0.000 C 
ATOM      3  C   UNL     1       1.439   0.360  -0.134  0.00  0.00    +0.000 C 
ENDROOT
BRANCH   1   5
ATOM      4  C   UNL     1      -2.276   0.708  -0.286  0.00  0.00    +0.000 C 
ATOM      5  C   UNL     1      -1.043   0.197  -0.133  0.00  0.00    +0.000 C 
BRANCH   4   9
ATOM      6  C   UNL     1      -4.658   0.663   0.592  0.00  0.00    +0.000 C 
ATOM      7  C   UNL     1      -5.788  -0.321   1.003  0.00  0.00    +0.000 C 
ATOM      8  C   UNL     1      -6.112  -1.316  -0.097  0.00  0.00    +0.000 C 
ATOM      9  C   UNL     1      -3.489  -0.072  -0.104  0.00  0.00    +0.000 C 
ATOM     10  C   UNL     1      -4.881  -2.147  -0.427  0.00  0.00    +0.000 C 
ATOM     11  C   UNL     1      -3.595  -1.354  -0.537  0.00  0.00    +0.000 C 
ATOM     12  C   UNL     1      -4.210   1.367   1.896  0.00  0.00    +0.000 C 
ATOM     13  C   UNL     1      -5.243   1.727  -0.365  0.00  0.00    +0.000 C 
ATOM     14  C   UNL     1      -2.490  -2.164  -1.176  0.00  0.00    +0.000 C 
ENDBRANCH   4   9
ENDBRANCH   1   5
BRANCH   3  15
ATOM     15  C   UNL     1       2.743   0.982  -0.272  0.00  0.00    +0.000 C 
ATOM     16  C   UNL     1       3.890   0.307  -0.079  0.00  0.00    +0.000 C 
BRANCH  16  17
ATOM     17  C   UNL     1       5.253   0.839  -0.187  0.00  0.00    +0.000 C 
ATOM     18  C   UNL     1       5.401   2.287  -0.577  0.00  0.00    +0.000 C 
ATOM     19  C   UNL     1       6.279  -0.005   0.047  0.00  0.00    +0.000 C 
BRANCH  19  21
ATOM     20  O   UNL     1       6.102  -2.383  -0.356  0.00  0.00    +0.000 OA
ATOM     21  C   UNL     1       6.162  -1.436   0.406  0.00  0.00    +0.000 C 
BRANCH  21  22
ATOM     22  O   UNL     1       6.155  -1.536   1.758  0.00  0.00    +0.000 OA
ATOM     23  H   UNL     1       6.086  -2.468   2.056  0.00  0.00    +0.000 HD
ENDBRANCH  21  22
ENDBRANCH  19  21
ENDBRANCH  16  17
ENDBRANCH   3  15
TORSDOF 6
