REMARK  Name = 229455
REMARK  6 active torsions:
REMARK  status: ('A' for Active; 'I' for Inactive)
REMARK    1  A    between atoms: O_1  and  C_9
REMARK    2  A    between atoms: O_1  and  C_22
REMARK    3  A    between atoms: C_5  and  C_15
REMARK    4  A    between atoms: C_22  and  C_23
REMARK    5  A    between atoms: C_23  and  C_24
REMARK    6  A    between atoms: C_24  and  C_25
REMARK                            x       y       z     vdW  Elec       q    Type
REMARK                         _______ _______ _______ _____ _____    ______ ____
ROOT
ATOM      1  O   UNL     1      -8.753   1.180  -0.680  0.00  0.00    +0.000 OA
ATOM      2  C   UNL     1      -1.496  -1.238  -0.189  0.00  0.00    +0.000 C 
ATOM      3  C   UNL     1      -0.452  -0.145   0.110  0.00  0.00    +0.000 C 
ATOM      4  C   UNL     1      -2.857  -0.933   0.438  0.00  0.00    +0.000 C 
ATOM      5  C   UNL     1      -3.387   0.411  -0.144  0.00  0.00    +0.000 C 
ATOM      6  C   UNL     1      -0.941   1.166  -0.518  0.00  0.00    +0.000 C 
ATOM      7  C   UNL     1       0.773  -0.774  -0.582  0.00  0.00    +0.000 C 
ATOM      8  C   UNL     1      -0.776  -2.531   0.185  0.00  0.00    +0.000 C 
ATOM      9  C   UNL     1      -2.343   1.550  -0.012  0.00  0.00    +0.000 C 
ATOM     10  C   UNL     1      -4.765   0.789   0.481  0.00  0.00    +0.000 C 
ATOM     11  C   UNL     1       0.691  -2.266  -0.202  0.00  0.00    +0.000 C 
ATOM     12  C   UNL     1      -3.874  -2.051   0.176  0.00  0.00    +0.000 C 
ATOM     13  C   UNL     1      -0.163   0.082   1.615  0.00  0.00    +0.000 C 
ATOM     14  C   UNL     1      -5.214  -1.724   0.824  0.00  0.00    +0.000 C 
ATOM     15  C   UNL     1      -5.743  -0.376   0.399  0.00  0.00    +0.000 C 
ATOM     16  C   UNL     1      -5.330   2.059  -0.189  0.00  0.00    +0.000 C 
ATOM     17  C   UNL     1      -6.794   2.291   0.140  0.00  0.00    +0.000 C 
ATOM     18  C   UNL     1      -7.024  -0.252   0.018  0.00  0.00    +0.000 C 
ATOM     19  C   UNL     1      -7.609   1.083  -0.243  0.00  0.00    +0.000 C 
ENDROOT
BRANCH   7  20
ATOM     20  O   UNL     1       1.998  -0.196  -0.172  0.00  0.00    +0.000 OA
BRANCH  20  22
ATOM     21  O   UNL     1       3.165  -1.690  -1.487  0.00  0.00    +0.000 OA
ATOM     22  C   UNL     1       3.136  -0.751  -0.703  0.00  0.00    +0.000 C 
BRANCH  22  23
ATOM     23  C   UNL     1       4.349  -0.025  -0.167  0.00  0.00    +0.000 C 
BRANCH  23  24
ATOM     24  C   UNL     1       5.649  -0.580  -0.747  0.00  0.00    +0.000 C 
BRANCH  24  25
ATOM     25  C   UNL     1       6.855   0.150  -0.214  0.00  0.00    +0.000 A 
ATOM     26  C   UNL     1       7.328   1.268  -0.887  0.00  0.00    +0.000 A 
ATOM     27  C   UNL     1       7.473  -0.305   0.942  0.00  0.00    +0.000 A 
ATOM     28  C   UNL     1       8.443   1.944  -0.393  0.00  0.00    +0.000 A 
ATOM     29  C   UNL     1       8.588   0.372   1.435  0.00  0.00    +0.000 A 
ATOM     30  C   UNL     1       9.073   1.496   0.768  0.00  0.00    +0.000 A 
ENDBRANCH  24  25
ENDBRANCH  23  24
ENDBRANCH  22  23
ENDBRANCH  20  22
ENDBRANCH   7  20
TORSDOF 5
