REMARK  Name = 91273
REMARK  5 active torsions:
REMARK  status: ('A' for Active; 'I' for Inactive)
REMARK    1  A    between atoms: N_3  and  C_17
REMARK    2  A    between atoms: N_4  and  C_20
REMARK    3  A    between atoms: C_17  and  C_18
REMARK    4  A    between atoms: C_18  and  C_19
REMARK    5  A    between atoms: C_19  and  C_20
REMARK                            x       y       z     vdW  Elec       q    Type
REMARK                         _______ _______ _______ _____ _____    ______ ____
ROOT
ATOM      1  C   UNL     1      -1.421   0.036  -0.333  0.00  0.00    +0.000 C 
ENDROOT
BRANCH   1   2
ATOM      2  C   UNL     1      -2.334  -0.915  -1.099  0.00  0.00    +0.000 C 
BRANCH   2   5
ATOM      3  O   UNL     1      -4.292   0.890  -2.332  0.00  0.00    +0.000 OA
ATOM      4  O   UNL     1      -3.818  -2.208   1.073  0.00  0.00    +0.000 OA
ATOM      5  N   UNL     1      -3.731  -0.743  -0.749  0.00  0.00    +0.000 N 
ATOM      6  C   UNL     1      -6.416   1.257  -0.074  0.00  0.00    +0.000 C 
ATOM      7  C   UNL     1      -6.189  -0.236   1.569  0.00  0.00    +0.000 C 
ATOM      8  C   UNL     1      -5.947  -0.008  -0.818  0.00  0.00    +0.000 C 
ATOM      9  C   UNL     1      -5.791  -1.036   0.314  0.00  0.00    +0.000 C 
ATOM     10  C   UNL     1      -5.667   1.170   1.258  0.00  0.00    +0.000 C 
ATOM     11  C   UNL     1      -7.868   1.029   0.389  0.00  0.00    +0.000 C 
ATOM     12  C   UNL     1      -7.710  -0.001   1.523  0.00  0.00    +0.000 C 
ATOM     13  C   UNL     1      -4.571   0.122  -1.421  0.00  0.00    +0.000 C 
ATOM     14  C   UNL     1      -4.336  -1.429   0.285  0.00  0.00    +0.000 C 
ENDBRANCH   2   5
ENDBRANCH   1   2
BRANCH   1  15
ATOM     15  C   UNL     1       0.054  -0.127  -0.716  0.00  0.00    +0.000 C 
BRANCH  15  16
ATOM     16  C   UNL     1       0.933   0.864   0.047  0.00  0.00    +0.000 C 
BRANCH  16  17
ATOM     17  N   UNL     1       2.334   0.699  -0.338  0.00  0.00    +0.000 NA
ATOM     18  N   UNL     1       5.113   0.192   0.089  0.00  0.00    +0.000 N 
ATOM     19  N   UNL     1       6.980  -1.211  -0.260  0.00  0.00    +0.000 NA
ATOM     20  N   UNL     1       7.253   0.984   0.695  0.00  0.00    +0.000 NA
ATOM     21  C   UNL     1       3.175   1.693   0.341  0.00  0.00    +0.000 C 
ATOM     22  C   UNL     1       2.802  -0.654  -0.014  0.00  0.00    +0.000 C 
ATOM     23  C   UNL     1       4.636   1.568  -0.097  0.00  0.00    +0.000 C 
ATOM     24  C   UNL     1       4.251  -0.858  -0.463  0.00  0.00    +0.000 C 
ATOM     25  C   UNL     1       6.494  -0.018   0.178  0.00  0.00    +0.000 A 
ATOM     26  C   UNL     1       8.315  -1.380  -0.161  0.00  0.00    +0.000 A 
ATOM     27  C   UNL     1       8.580   0.748   0.765  0.00  0.00    +0.000 A 
ATOM     28  C   UNL     1       9.172  -0.427   0.349  0.00  0.00    +0.000 A 
ENDBRANCH  16  17
ENDBRANCH  15  16
ENDBRANCH   1  15
TORSDOF 5
