REMARK  Name = 104903
REMARK  7 active torsions:
REMARK  status: ('A' for Active; 'I' for Inactive)
REMARK    1  A    between atoms: N_3  and  C_26
REMARK    2  A    between atoms: N_6  and  C_37
REMARK    3  A    between atoms: C_9  and  C_18
REMARK    4  A    between atoms: C_11  and  C_21
REMARK    5  A    between atoms: C_14  and  C_22
REMARK    6  A    between atoms: C_19  and  C_25
REMARK    7  A    between atoms: C_21  and  C_26
REMARK                            x       y       z     vdW  Elec       q    Type
REMARK                         _______ _______ _______ _____ _____    ______ ____
ROOT
ATOM      1  O   UNL     1       0.884  -2.082  -1.213  0.00  0.00    +0.000 OA
ATOM      2  C   UNL     1       1.234  -1.149  -0.491  0.00  0.00    +0.000 C 
ENDROOT
BRANCH   2   6
ATOM      3  O   UNL     1      10.640   3.057   1.321  0.00  0.00    +0.000 OA
ATOM      4  C   UNL     1       3.755  -0.792  -0.365  0.00  0.00    +0.000 C 
ATOM      5  C   UNL     1       4.807  -1.399   0.581  0.00  0.00    +0.000 C 
ATOM      6  C   UNL     1       2.468  -1.254   0.352  0.00  0.00    +0.000 C 
ATOM      7  C   UNL     1       6.247  -1.209   0.076  0.00  0.00    +0.000 C 
ATOM      8  C   UNL     1       4.316  -2.826   0.819  0.00  0.00    +0.000 C 
ATOM      9  C   UNL     1       2.774  -2.713   0.773  0.00  0.00    +0.000 C 
ATOM     10  C   UNL     1       3.981   0.728  -0.366  0.00  0.00    +0.000 C 
ATOM     11  C   UNL     1       6.479   0.235  -0.423  0.00  0.00    +0.000 C 
ATOM     12  C   UNL     1       7.236  -1.591   1.194  0.00  0.00    +0.000 C 
ATOM     13  C   UNL     1       3.837  -1.337  -1.815  0.00  0.00    +0.000 C 
ATOM     14  C   UNL     1       7.952   0.595  -0.752  0.00  0.00    +0.000 C 
ATOM     15  C   UNL     1       5.435   1.085  -0.574  0.00  0.00    +0.000 C 
ATOM     16  C   UNL     1       2.132  -3.063   2.111  0.00  0.00    +0.000 C 
ATOM     17  C   UNL     1       8.687  -1.326   0.807  0.00  0.00    +0.000 C 
ATOM     18  C   UNL     1       8.851   0.115   0.391  0.00  0.00    +0.000 C 
ATOM     19  C   UNL     1       8.357  -0.117  -2.066  0.00  0.00    +0.000 C 
ATOM     20  C   UNL     1       8.162   2.080  -1.026  0.00  0.00    +0.000 C 
ATOM     21  C   UNL     1       9.710   0.908   1.051  0.00  0.00    +0.000 C 
ATOM     22  C   UNL     1       9.014   2.876  -0.371  0.00  0.00    +0.000 C 
ATOM     23  C   UNL     1       9.852   2.339   0.715  0.00  0.00    +0.000 C 
ENDBRANCH   2   6
BRANCH   2  24
ATOM     24  C   UNL     1       0.471   0.157  -0.387  0.00  0.00    +0.000 C 
BRANCH  24  25
ATOM     25  N   UNL     1      -0.948  -0.089  -0.639  0.00  0.00    +0.000 NA
ATOM     26  N   UNL     1      -3.759   0.205  -0.225  0.00  0.00    +0.000 N 
ATOM     27  N   UNL     1      -5.847  -0.904  -0.134  0.00  0.00    +0.000 NA
ATOM     28  N   UNL     1      -7.923  -1.929  -0.037  0.00  0.00    +0.000 N 
ATOM     29  N   UNL     1      -7.867   0.381   0.143  0.00  0.00    +0.000 NA
ATOM     30  C   UNL     1      -1.588  -0.669   0.548  0.00  0.00    +0.000 C 
ATOM     31  C   UNL     1      -1.628   1.156  -1.014  0.00  0.00    +0.000 C 
ATOM     32  C   UNL     1      -3.061  -0.985   0.279  0.00  0.00    +0.000 C 
ATOM     33  C   UNL     1      -3.103   0.903  -1.335  0.00  0.00    +0.000 C 
ATOM     34  C   UNL     1      -5.152   0.252  -0.101  0.00  0.00    +0.000 A 
ATOM     35  C   UNL     1      -5.735   1.494   0.048  0.00  0.00    +0.000 A 
ATOM     36  C   UNL     1      -7.110   1.497   0.167  0.00  0.00    +0.000 A 
ATOM     37  C   UNL     1      -7.181  -0.768  -0.008  0.00  0.00    +0.000 A 
ATOM     38  C   UNL     1      -7.352  -3.265  -0.195  0.00  0.00    +0.000 C 
ATOM     39  C   UNL     1      -9.378  -1.976   0.084  0.00  0.00    +0.000 C 
ATOM     40  C   UNL     1      -8.513  -4.199   0.137  0.00  0.00    +0.000 C 
ATOM     41  C   UNL     1      -9.730  -3.409  -0.310  0.00  0.00    +0.000 C 
BRANCH  36  42
ATOM     42  N   UNL     1      -7.731   2.718   0.318  0.00  0.00    +0.000 N 
ATOM     43  C   UNL     1      -7.028   3.998   0.359  0.00  0.00    +0.000 C 
ATOM     44  C   UNL     1      -9.175   2.892   0.455  0.00  0.00    +0.000 C 
ATOM     45  C   UNL     1      -8.144   5.032   0.229  0.00  0.00    +0.000 C 
ATOM     46  C   UNL     1      -9.327   4.348   0.891  0.00  0.00    +0.000 C 
ENDBRANCH  36  42
ENDBRANCH  24  25
ENDBRANCH   2  24
TORSDOF 4
