REMARK  Name = 447368
REMARK  9 active torsions:
REMARK  status: ('A' for Active; 'I' for Inactive)
REMARK    1  A    between atoms: O_6  and  C_16
REMARK    2  A    between atoms: N_9  and  C_10
REMARK    3  A    between atoms: N_9  and  C_12
REMARK    4  A    between atoms: C_10  and  C_11
REMARK    5  A    between atoms: C_10  and  C_16
REMARK    6  A    between atoms: C_11  and  C_14
REMARK    7  A    between atoms: C_12  and  C_13
REMARK    8  A    between atoms: C_15  and  C_18
REMARK    9  A    between atoms: C_22  and  C_29
REMARK                            x       y       z     vdW  Elec       q    Type
REMARK                         _______ _______ _______ _____ _____    ______ ____
ROOT
ATOM      1  O   UNL     1       0.356  -2.055   1.962  0.00  0.00    +0.000 OA
ATOM      2  N   UNL     1      -0.047  -0.863  -0.029  0.00  0.00    +0.000 N 
ATOM      3  C   UNL     1       0.731  -1.615   0.876  0.00  0.00    +0.000 C 
ENDROOT
BRANCH   3   6
ATOM      4 CL   UNL     1       1.233  -4.199  -0.716  0.00  0.00    +0.000 Cl
ATOM      5 CL   UNL     1       6.407  -2.724  -0.600  0.00  0.00    +0.000 Cl
ATOM      6  C   UNL     1       2.119  -1.920   0.494  0.00  0.00    +0.000 A 
ATOM      7  C   UNL     1       2.439  -3.064  -0.224  0.00  0.00    +0.000 A 
ATOM      8  C   UNL     1       3.103  -1.020   0.879  0.00  0.00    +0.000 A 
ATOM      9  C   UNL     1       3.768  -3.314  -0.562  0.00  0.00    +0.000 A 
ATOM     10  C   UNL     1       4.433  -1.269   0.540  0.00  0.00    +0.000 A 
ATOM     11  C   UNL     1       4.766  -2.416  -0.180  0.00  0.00    +0.000 A 
ENDBRANCH   3   6
BRANCH   2  12
ATOM     12  C   UNL     1      -1.424  -0.481   0.163  0.00  0.00    +0.000 C 
BRANCH  12  14
ATOM     13  O   UNL     1      -0.880   0.364   2.364  0.00  0.00    +0.000 OA
ATOM     14  C   UNL     1      -1.572   0.454   1.355  0.00  0.00    +0.000 C 
BRANCH  14  15
ATOM     15  O   UNL     1      -2.528   1.404   1.217  0.00  0.00    +0.000 OA
ATOM     16  H   UNL     1      -2.586   1.983   2.006  0.00  0.00    +0.000 HD
ENDBRANCH  14  15
ENDBRANCH  12  14
BRANCH  12  17
ATOM     17  C   UNL     1      -2.319  -1.713   0.349  0.00  0.00    +0.000 C 
BRANCH  17  18
ATOM     18  C   UNL     1      -3.770  -1.440   0.034  0.00  0.00    +0.000 A 
ATOM     19  C   UNL     1      -4.614  -1.005   1.044  0.00  0.00    +0.000 A 
ATOM     20  C   UNL     1      -4.232  -1.629  -1.259  0.00  0.00    +0.000 A 
ATOM     21  C   UNL     1      -5.954  -0.753   0.753  0.00  0.00    +0.000 A 
ATOM     22  C   UNL     1      -5.572  -1.377  -1.550  0.00  0.00    +0.000 A 
ATOM     23  C   UNL     1      -6.434  -0.939  -0.544  0.00  0.00    +0.000 A 
ENDBRANCH  17  18
ENDBRANCH  12  17
ENDBRANCH   2  12
BRANCH   2  24
ATOM     24  C   UNL     1       0.581  -0.426  -1.278  0.00  0.00    +0.000 C 
BRANCH  24  25
ATOM     25  C   UNL     1       0.587   1.070  -1.410  0.00  0.00    +0.000 A 
ATOM     26  C   UNL     1       0.955   1.855  -0.324  0.00  0.00    +0.000 A 
ATOM     27  C   UNL     1       0.225   1.654  -2.618  0.00  0.00    +0.000 A 
ATOM     28  C   UNL     1       0.962   3.244  -0.448  0.00  0.00    +0.000 A 
ATOM     29  C   UNL     1       0.231   3.043  -2.742  0.00  0.00    +0.000 A 
ATOM     30  C   UNL     1       0.600   3.838  -1.657  0.00  0.00    +0.000 A 
BRANCH  28  34
ATOM     31  F   UNL     1       1.313   5.434   0.449  0.00  0.00    +0.000 F 
ATOM     32  F   UNL     1       0.558   3.923   1.810  0.00  0.00    +0.000 F 
ATOM     33  F   UNL     1       2.626   3.845   1.141  0.00  0.00    +0.000 F 
ATOM     34  C   UNL     1       1.354   4.094   0.713  0.00  0.00    +0.000 C 
ENDBRANCH  28  34
ENDBRANCH  24  25
ENDBRANCH   2  24
TORSDOF 9
