REMARK  Name = 53497429
REMARK  8 active torsions:
REMARK  status: ('A' for Active; 'I' for Inactive)
REMARK    1  A    between atoms: O_4  and  C_19
REMARK    2  A    between atoms: O_4  and  C_26
REMARK    3  A    between atoms: O_7  and  C_24
REMARK    4  A    between atoms: O_7  and  C_39
REMARK    5  A    between atoms: N_9  and  C_17
REMARK    6  A    between atoms: C_20  and  C_21
REMARK    7  A    between atoms: C_22  and  C_23
REMARK    8  A    between atoms: C_31  and  C_36
REMARK                            x       y       z     vdW  Elec       q    Type
REMARK                         _______ _______ _______ _____ _____    ______ ____
ROOT
ATOM      1  O   UNL     1       2.505  -2.557   1.832  0.00  0.00    +0.000 OA
ATOM      2  N   UNL     1       1.894  -1.442  -0.147  0.00  0.00    +0.000 N 
ATOM      3  C   UNL     1       2.766  -2.118   0.717  0.00  0.00    +0.000 C 
ATOM      4  H   UNL     1       2.266  -1.162  -1.052  0.00  0.00    +0.000 HD
ENDROOT
BRANCH   2  14
ATOM      5  O   UNL     1      -6.272   0.969  -1.483  0.00  0.00    +0.000 OA
ATOM      6  N   UNL     1      -4.284   0.489  -0.374  0.00  0.00    +0.000 N 
ATOM      7  C   UNL     1      -2.285   0.601  -1.790  0.00  0.00    +0.000 C 
ATOM      8  C   UNL     1      -1.512  -0.109  -0.710  0.00  0.00    +0.000 A 
ATOM      9  C   UNL     1      -3.469   1.365  -1.211  0.00  0.00    +0.000 C 
ATOM     10  C   UNL     1      -2.147  -0.489   0.486  0.00  0.00    +0.000 A 
ATOM     11  C   UNL     1      -3.599  -0.171   0.745  0.00  0.00    +0.000 C 
ATOM     12  C   UNL     1      -0.166  -0.441  -0.917  0.00  0.00    +0.000 A 
ATOM     13  C   UNL     1      -1.412  -1.171   1.467  0.00  0.00    +0.000 A 
ATOM     14  C   UNL     1       0.552  -1.122   0.066  0.00  0.00    +0.000 A 
ATOM     15  C   UNL     1      -0.070  -1.484   1.258  0.00  0.00    +0.000 A 
ATOM     16  C   UNL     1      -5.670   0.427  -0.557  0.00  0.00    +0.000 C 
BRANCH  16  17
ATOM     17  O   UNL     1      -6.301  -0.319   0.443  0.00  0.00    +0.000 OA
BRANCH  17  18
ATOM     18  C   UNL     1      -7.690  -0.406   0.300  0.00  0.00    +0.000 A 
ATOM     19  C   UNL     1      -8.250  -1.451  -0.435  0.00  0.00    +0.000 A 
ATOM     20  C   UNL     1      -8.514   0.551   0.891  0.00  0.00    +0.000 A 
ATOM     21  C   UNL     1      -9.635  -1.538  -0.579  0.00  0.00    +0.000 A 
ATOM     22  C   UNL     1      -9.898   0.464   0.747  0.00  0.00    +0.000 A 
ATOM     23  C   UNL     1     -10.459  -0.580   0.012  0.00  0.00    +0.000 A 
ENDBRANCH  17  18
ENDBRANCH  16  17
ENDBRANCH   2  14
BRANCH   3  24
ATOM     24  C   UNL     1       4.140  -2.336   0.192  0.00  0.00    +0.000 A 
ATOM     25  C   UNL     1       4.968  -1.274  -0.169  0.00  0.00    +0.000 A 
ATOM     26  C   UNL     1       6.251  -1.524  -0.656  0.00  0.00    +0.000 A 
ATOM     27  C   UNL     1       4.594  -3.649   0.065  0.00  0.00    +0.000 A 
ATOM     28  C   UNL     1       6.705  -2.837  -0.784  0.00  0.00    +0.000 A 
ATOM     29  C   UNL     1       5.876  -3.899  -0.423  0.00  0.00    +0.000 A 
BRANCH  25  30
ATOM     30  C   UNL     1       4.503   0.097  -0.039  0.00  0.00    +0.000 A 
ATOM     31  C   UNL     1       4.432   0.918  -1.164  0.00  0.00    +0.000 A 
ATOM     32  C   UNL     1       4.129   0.591   1.210  0.00  0.00    +0.000 A 
ATOM     33  C   UNL     1       3.611   2.728   0.209  0.00  0.00    +0.000 A 
ATOM     34  C   UNL     1       3.986   2.233  -1.040  0.00  0.00    +0.000 A 
ATOM     35  C   UNL     1       3.683   1.906   1.335  0.00  0.00    +0.000 A 
BRANCH  33  39
ATOM     36  F   UNL     1       2.808   4.459   1.627  0.00  0.00    +0.000 F 
ATOM     37  F   UNL     1       4.055   5.064  -0.048  0.00  0.00    +0.000 F 
ATOM     38  F   UNL     1       2.018   4.406  -0.398  0.00  0.00    +0.000 F 
ATOM     39  C   UNL     1       3.134   4.134   0.342  0.00  0.00    +0.000 C 
ENDBRANCH  33  39
ENDBRANCH  25  30
BRANCH  26  40
ATOM     40  O   UNL     1       7.085  -0.506  -1.017  0.00  0.00    +0.000 OA
ATOM     41  C   UNL     1       7.939   0.019  -0.003  0.00  0.00    +0.000 C 
ENDBRANCH  26  40
ENDBRANCH   3  24
TORSDOF 7
