REMARK  Name = 159325
REMARK  13 active torsions:
REMARK  status: ('A' for Active; 'I' for Inactive)
REMARK    1  A    between atoms: O_10  and  C_26
REMARK    2  A    between atoms: O_10  and  C_36
REMARK    3  A    between atoms: O_11  and  C_29
REMARK    4  A    between atoms: O_11  and  C_38
REMARK    5  A    between atoms: N_15  and  C_17
REMARK    6  A    between atoms: N_15  and  C_23
REMARK    7  A    between atoms: C_16  and  C_21
REMARK    8  A    between atoms: C_21  and  C_25
REMARK    9  A    between atoms: C_23  and  C_30
REMARK   10  A    between atoms: C_27  and  C_31
REMARK   11  A    between atoms: C_34  and  C_40
REMARK   12  A    between atoms: C_35  and  C_39
REMARK   13  A    between atoms: C_36  and  C_41
REMARK                            x       y       z     vdW  Elec       q    Type
REMARK                         _______ _______ _______ _____ _____    ______ ____
ROOT
ATOM      1  O   UNL     1      -4.737  -2.005  -1.008  0.00  0.00    +0.000 OA
ATOM      2  N   UNL     1      -3.709  -0.084  -0.108  0.00  0.00    +0.000 N 
ATOM      3  C   UNL     1      -3.756   0.950   0.961  0.00  0.00    +0.000 C 
ATOM      4  C   UNL     1      -1.229   0.928   0.874  0.00  0.00    +0.000 C 
ATOM      5  C   UNL     1      -2.469   1.775   1.116  0.00  0.00    +0.000 C 
ATOM      6  C   UNL     1      -1.326   0.390  -0.536  0.00  0.00    +0.000 A 
ATOM      7  C   UNL     1      -2.571  -0.101  -0.991  0.00  0.00    +0.000 A 
ATOM      8  C   UNL     1      -0.202   0.305  -1.376  0.00  0.00    +0.000 A 
ATOM      9  C   UNL     1      -2.660  -0.614  -2.296  0.00  0.00    +0.000 A 
ATOM     10  C   UNL     1      -4.686  -1.107  -0.169  0.00  0.00    +0.000 C 
ATOM     11  C   UNL     1      -0.309  -0.218  -2.663  0.00  0.00    +0.000 A 
ATOM     12  C   UNL     1      -1.539  -0.668  -3.125  0.00  0.00    +0.000 A 
ENDROOT
BRANCH  11  16
ATOM     13  F   UNL     1       0.636  -0.804  -4.783  0.00  0.00    +0.000 F 
ATOM     14  F   UNL     1       1.459   0.939  -3.789  0.00  0.00    +0.000 F 
ATOM     15  F   UNL     1       1.890  -1.051  -3.024  0.00  0.00    +0.000 F 
ATOM     16  C   UNL     1       0.892  -0.281  -3.547  0.00  0.00    +0.000 C 
ENDBRANCH  11  16
BRANCH   4  18
ATOM     17  O   UNL     1      -0.419   3.282  -0.569  0.00  0.00    +0.000 OA
ATOM     18  N   UNL     1      -0.045   1.715   1.127  0.00  0.00    +0.000 N 
ATOM     19  C   UNL     1       0.263   2.855   0.361  0.00  0.00    +0.000 C 
BRANCH  19  20
ATOM     20  O   UNL     1       1.428   3.451   0.767  0.00  0.00    +0.000 OA
ATOM     21  C   UNL     1       1.825   4.621   0.042  0.00  0.00    +0.000 C 
ENDBRANCH  19  20
BRANCH  18  22
ATOM     22  C   UNL     1       0.817   1.267   2.221  0.00  0.00    +0.000 C 
BRANCH  22  23
ATOM     23  C   UNL     1       1.896   0.340   1.742  0.00  0.00    +0.000 A 
ATOM     24  C   UNL     1       1.670  -1.036   1.708  0.00  0.00    +0.000 A 
ATOM     25  C   UNL     1       3.126   0.855   1.331  0.00  0.00    +0.000 A 
ATOM     26  C   UNL     1       2.673  -1.897   1.264  0.00  0.00    +0.000 A 
ATOM     27  C   UNL     1       4.129  -0.007   0.887  0.00  0.00    +0.000 A 
ATOM     28  C   UNL     1       3.903  -1.383   0.853  0.00  0.00    +0.000 A 
BRANCH  27  32
ATOM     29  F   UNL     1       5.524   1.905   0.534  0.00  0.00    +0.000 F 
ATOM     30  F   UNL     1       6.502   0.078   1.175  0.00  0.00    +0.000 F 
ATOM     31  F   UNL     1       5.731   0.242  -0.852  0.00  0.00    +0.000 F 
ATOM     32  C   UNL     1       5.444   0.544   0.447  0.00  0.00    +0.000 C 
ENDBRANCH  27  32
BRANCH  26  36
ATOM     33  F   UNL     1       1.185  -3.729   1.658  0.00  0.00    +0.000 F 
ATOM     34  F   UNL     1       2.547  -3.912  -0.020  0.00  0.00    +0.000 F 
ATOM     35  F   UNL     1       3.304  -4.064   2.013  0.00  0.00    +0.000 F 
ATOM     36  C   UNL     1       2.430  -3.369   1.228  0.00  0.00    +0.000 C 
ENDBRANCH  26  36
ENDBRANCH  22  23
ENDBRANCH  18  22
ENDBRANCH   4  18
BRANCH   3  37
ATOM     37  C   UNL     1      -4.918   1.931   0.733  0.00  0.00    +0.000 C 
ATOM     38  C   UNL     1      -5.068   2.885   1.900  0.00  0.00    +0.000 C 
ENDBRANCH   3  37
BRANCH  10  39
ATOM     39  O   UNL     1      -5.582  -1.037   0.869  0.00  0.00    +0.000 OA
BRANCH  39  40
ATOM     40  C   UNL     1      -6.579  -2.065   0.922  0.00  0.00    +0.000 C 
ATOM     41  C   UNL     1      -7.470  -1.826   2.122  0.00  0.00    +0.000 C 
ENDBRANCH  39  40
ENDBRANCH  10  39
TORSDOF 10
