REMARK  Name = 5726921
REMARK  5 active torsions:
REMARK  status: ('A' for Active; 'I' for Inactive)
REMARK    1  A    between atoms: O_4  and  C_18
REMARK    2  A    between atoms: N_7  and  C_9
REMARK    3  A    between atoms: N_8  and  C_20
REMARK    4  A    between atoms: C_9  and  C_10
REMARK    5  A    between atoms: C_14  and  C_15
REMARK                            x       y       z     vdW  Elec       q    Type
REMARK                         _______ _______ _______ _____ _____    ______ ____
ROOT
ATOM      1  S   UNL     1       0.084   1.199  -1.286  0.00  0.00    +0.000 S 
ATOM      2  S   UNL     1      -2.481   1.624  -2.800  0.00  0.00    +0.000 S 
ATOM      3  O   UNL     1      -1.536   0.997   2.163  0.00  0.00    +0.000 OA
ATOM      4  N   UNL     1      -2.190   1.298  -0.075  0.00  0.00    +0.000 N 
ATOM      5  C   UNL     1      -1.286   1.096   0.969  0.00  0.00    +0.000 C 
ATOM      6  C   UNL     1       0.088   1.016   0.419  0.00  0.00    +0.000 C 
ATOM      7  C   UNL     1      -1.667   1.385  -1.360  0.00  0.00    +0.000 C 
ATOM      8  C   UNL     1       1.170   0.826   1.175  0.00  0.00    +0.000 C 
ENDROOT
BRANCH   8   9
ATOM      9  C   UNL     1       2.560   0.737   0.689  0.00  0.00    +0.000 A 
ATOM     10  C   UNL     1       3.111  -0.489   0.352  0.00  0.00    +0.000 A 
ATOM     11  C   UNL     1       3.291   1.909   0.580  0.00  0.00    +0.000 A 
ATOM     12  C   UNL     1       4.428  -0.544  -0.105  0.00  0.00    +0.000 A 
ATOM     13  C   UNL     1       4.608   1.854   0.122  0.00  0.00    +0.000 A 
ATOM     14  C   UNL     1       5.176   0.627  -0.220  0.00  0.00    +0.000 A 
BRANCH  12  17
ATOM     15  O   UNL     1       6.212  -1.792  -0.867  0.00  0.00    +0.000 OA
ATOM     16  O   UNL     1       4.349  -2.836  -0.354  0.00  0.00    +0.000 OA
ATOM     17  N   UNL     1       5.026  -1.785  -0.460  0.00  0.00    +0.000 N 
ENDBRANCH  12  17
BRANCH  10  18
ATOM     18  O   UNL     1       2.380  -1.638   0.464  0.00  0.00    +0.000 OA
ATOM     19  H   UNL     1       1.500  -1.460   0.831  0.00  0.00    +0.000 HD
ENDBRANCH  10  18
ENDBRANCH   8   9
BRANCH   4  20
ATOM     20  C   UNL     1      -3.624   1.414   0.172  0.00  0.00    +0.000 C 
BRANCH  20  21
ATOM     21  C   UNL     1      -4.313   0.081   0.119  0.00  0.00    +0.000 A 
ATOM     22  C   UNL     1      -4.821  -0.383  -1.089  0.00  0.00    +0.000 A 
ATOM     23  C   UNL     1      -4.437  -0.675   1.278  0.00  0.00    +0.000 A 
ATOM     24  C   UNL     1      -5.462  -1.621  -1.138  0.00  0.00    +0.000 A 
ATOM     25  C   UNL     1      -5.077  -1.914   1.229  0.00  0.00    +0.000 A 
ATOM     26  C   UNL     1      -5.589  -2.386   0.021  0.00  0.00    +0.000 A 
ENDBRANCH  20  21
ENDBRANCH   4  20
TORSDOF 5
