REMARK  Name = 1286536
REMARK  6 active torsions:
REMARK  status: ('A' for Active; 'I' for Inactive)
REMARK    1  A    between atoms: O_6  and  C_20
REMARK    2  A    between atoms: N_8  and  C_9
REMARK    3  A    between atoms: C_9  and  C_12
REMARK    4  A    between atoms: C_12  and  C_20
REMARK    5  A    between atoms: C_14  and  C_15
REMARK    6  A    between atoms: C_16  and  C_17
REMARK                            x       y       z     vdW  Elec       q    Type
REMARK                         _______ _______ _______ _____ _____    ______ ____
ROOT
ATOM      1  S   UNL     1      -3.058   2.654   1.361  0.00  0.00    +0.000 S 
ATOM      2  S   UNL     1      -5.662   1.153   1.237  0.00  0.00    +0.000 S 
ATOM      3  O   UNL     1      -1.128   0.261  -0.898  0.00  0.00    +0.000 OA
ATOM      4  N   UNL     1      -3.295   0.489  -0.017  0.00  0.00    +0.000 N 
ATOM      5  C   UNL     1      -1.963   0.849  -0.224  0.00  0.00    +0.000 C 
ATOM      6  C   UNL     1      -1.672   2.099   0.518  0.00  0.00    +0.000 C 
ATOM      7  C   UNL     1      -4.058   1.316   0.800  0.00  0.00    +0.000 C 
ATOM      8  C   UNL     1      -0.478   2.693   0.515  0.00  0.00    +0.000 C 
ENDROOT
BRANCH   8  10
ATOM      9  O   UNL     1       1.525   1.332   0.363  0.00  0.00    +0.000 OA
ATOM     10  C   UNL     1       0.671   2.212  -0.196  0.00  0.00    +0.000 A 
ATOM     11  C   UNL     1       2.482   1.096  -0.572  0.00  0.00    +0.000 A 
ATOM     12  C   UNL     1       1.046   2.551  -1.462  0.00  0.00    +0.000 A 
ATOM     13  C   UNL     1       2.233   1.822  -1.713  0.00  0.00    +0.000 A 
BRANCH  11  15
ATOM     14 CL   UNL     1       6.744  -2.734   1.045  0.00  0.00    +0.000 Cl
ATOM     15  C   UNL     1       3.510   0.173  -0.182  0.00  0.00    +0.000 A 
ATOM     16  C   UNL     1       4.546  -0.143  -1.067  0.00  0.00    +0.000 A 
ATOM     17  C   UNL     1       3.483  -0.417   1.086  0.00  0.00    +0.000 A 
ATOM     18  C   UNL     1       5.544  -1.041  -0.688  0.00  0.00    +0.000 A 
ATOM     19  C   UNL     1       4.482  -1.315   1.464  0.00  0.00    +0.000 A 
ATOM     20  C   UNL     1       5.512  -1.626   0.578  0.00  0.00    +0.000 A 
ENDBRANCH  11  15
ENDBRANCH   8  10
BRANCH   4  21
ATOM     21  C   UNL     1      -3.864  -0.707  -0.632  0.00  0.00    +0.000 C 
BRANCH  21  22
ATOM     22  C   UNL     1      -3.639  -1.950   0.217  0.00  0.00    +0.000 C 
BRANCH  22  24
ATOM     23  O   UNL     1      -4.820  -3.258  -1.467  0.00  0.00    +0.000 OA
ATOM     24  C   UNL     1      -4.204  -3.206  -0.411  0.00  0.00    +0.000 C 
BRANCH  24  25
ATOM     25  O   UNL     1      -3.937  -4.302   0.346  0.00  0.00    +0.000 OA
ATOM     26  H   UNL     1      -4.297  -5.121  -0.057  0.00  0.00    +0.000 HD
ENDBRANCH  24  25
ENDBRANCH  22  24
ENDBRANCH  21  22
ENDBRANCH   4  21
TORSDOF 6
