REMARK  Name = 49841217
REMARK  9 active torsions:
REMARK  status: ('A' for Active; 'I' for Inactive)
REMARK    1  A    between atoms: N_8  and  C_15
REMARK    2  A    between atoms: N_8  and  C_23
REMARK    3  A    between atoms: N_9  and  C_29
REMARK    4  A    between atoms: C_10  and  C_18
REMARK    5  A    between atoms: C_11  and  C_21
REMARK    6  A    between atoms: C_22  and  C_28
REMARK    7  A    between atoms: C_30  and  C_35
REMARK    8  A    between atoms: C_38  and  C_41
REMARK    9  A    between atoms: C_40  and  C_42
REMARK                            x       y       z     vdW  Elec       q    Type
REMARK                         _______ _______ _______ _____ _____    ______ ____
ROOT
ATOM      1  O   UNL     1      -5.450   0.778   0.370  0.00  0.00    +0.000 OA
ATOM      2  N   UNL     1      -3.507   0.832  -0.945  0.00  0.00    +0.000 N 
ATOM      3  C   UNL     1      -2.018   0.780  -1.032  0.00  0.00    +0.000 C 
ATOM      4  C   UNL     1      -1.485   1.487  -2.301  0.00  0.00    +0.000 C 
ATOM      5  C   UNL     1      -2.244   1.126  -3.574  0.00  0.00    +0.000 C 
ATOM      6  C   UNL     1      -3.730   1.383  -3.375  0.00  0.00    +0.000 C 
ATOM      7  C   UNL     1      -4.277   0.620  -2.178  0.00  0.00    +0.000 C 
ATOM      8  C   UNL     1      -4.229   0.890   0.261  0.00  0.00    +0.000 C 
ENDROOT
BRANCH   8  10
ATOM      9  F   UNL     1      -3.266  -1.255   1.766  0.00  0.00    +0.000 F 
ATOM     10  C   UNL     1      -3.495   1.096   1.515  0.00  0.00    +0.000 A 
ATOM     11  C   UNL     1      -3.251   2.381   2.001  0.00  0.00    +0.000 A 
ATOM     12  C   UNL     1      -3.038  -0.015   2.222  0.00  0.00    +0.000 A 
ATOM     13  C   UNL     1      -2.551   2.554   3.195  0.00  0.00    +0.000 A 
ATOM     14  C   UNL     1      -3.728   3.589   1.263  0.00  0.00    +0.000 C 
ATOM     15  C   UNL     1      -2.337   0.157   3.417  0.00  0.00    +0.000 A 
ATOM     16  C   UNL     1      -2.095   1.442   3.903  0.00  0.00    +0.000 A 
ENDBRANCH   8  10
BRANCH   3  17
ATOM     17  C   UNL     1      -1.465  -0.621  -0.777  0.00  0.00    +0.000 A 
ATOM     18  C   UNL     1      -0.454  -3.179  -0.312  0.00  0.00    +0.000 A 
ATOM     19  C   UNL     1      -0.670  -0.864   0.343  0.00  0.00    +0.000 A 
ATOM     20  C   UNL     1      -1.755  -1.657  -1.665  0.00  0.00    +0.000 A 
ATOM     21  C   UNL     1      -0.165  -2.143   0.575  0.00  0.00    +0.000 A 
ATOM     22  C   UNL     1      -1.249  -2.937  -1.433  0.00  0.00    +0.000 A 
BRANCH  18  23
ATOM     23  N   UNL     1       0.057  -4.473  -0.077  0.00  0.00    +0.000 N 
ATOM     24  H   UNL     1      -0.120  -5.180  -0.782  0.00  0.00    +0.000 HD
BRANCH  23  25
ATOM     25  C   UNL     1       0.887  -4.794   1.064  0.00  0.00    +0.000 C 
ATOM     26  C   UNL     1       2.343  -4.441   0.788  0.00  0.00    +0.000 C 
ATOM     27  C   UNL     1       0.943  -6.301   1.282  0.00  0.00    +0.000 C 
ATOM     28  C   UNL     1       1.980  -6.804   0.280  0.00  0.00    +0.000 C 
ATOM     29  C   UNL     1       2.883  -5.611  -0.032  0.00  0.00    +0.000 C 
ENDBRANCH  23  25
ENDBRANCH  18  23
ENDBRANCH   3  17
BRANCH   4  32
ATOM     30  O   UNL     1       0.429   0.800  -3.529  0.00  0.00    +0.000 OA
ATOM     31  N   UNL     1       0.700   1.698  -1.370  0.00  0.00    +0.000 N 
ATOM     32  C   UNL     1      -0.010   1.282  -2.490  0.00  0.00    +0.000 C 
ATOM     33  H   UNL     1       0.183   2.109  -0.598  0.00  0.00    +0.000 HD
BRANCH  31  34
ATOM     34  C   UNL     1       2.101   1.661  -1.177  0.00  0.00    +0.000 A 
ATOM     35  C   UNL     1       2.652   2.122   0.018  0.00  0.00    +0.000 A 
ATOM     36  C   UNL     1       2.932   1.165  -2.182  0.00  0.00    +0.000 A 
ATOM     37  C   UNL     1       4.033   2.088   0.209  0.00  0.00    +0.000 A 
ATOM     38  C   UNL     1       4.313   1.131  -1.992  0.00  0.00    +0.000 A 
ATOM     39  C   UNL     1       4.864   1.592  -0.796  0.00  0.00    +0.000 A 
ATOM     40  C   UNL     1       6.346   1.544  -0.615  0.00  0.00    +0.000 C 
BRANCH  37  44
ATOM     41  F   UNL     1       3.638   3.034   2.354  0.00  0.00    +0.000 F 
ATOM     42  F   UNL     1       5.300   1.642   2.189  0.00  0.00    +0.000 F 
ATOM     43  F   UNL     1       5.467   3.632   1.341  0.00  0.00    +0.000 F 
ATOM     44  C   UNL     1       4.601   2.588   1.497  0.00  0.00    +0.000 C 
ENDBRANCH  37  44
ENDBRANCH  31  34
ENDBRANCH   4  32
TORSDOF 7
