REMARK  Name = 92834
REMARK  1 active torsions:
REMARK  status: ('A' for Active; 'I' for Inactive)
REMARK    1  A    between atoms: C_5  and  C_16
REMARK                            x       y       z     vdW  Elec       q    Type
REMARK                         _______ _______ _______ _____ _____    ______ ____
ROOT
ATOM      1  O   UNL     1       4.872   1.136  -0.711  0.00  0.00    +0.000 OA
ATOM      2  O   UNL     1      -5.674   0.043  -0.759  0.00  0.00    +0.000 OA
ATOM      3  C   UNL     1       1.941  -0.678  -0.279  0.00  0.00    +0.000 C 
ATOM      4  C   UNL     1       0.542  -0.771   0.332  0.00  0.00    +0.000 C 
ATOM      5  C   UNL     1       2.686   0.584   0.203  0.00  0.00    +0.000 C 
ATOM      6  C   UNL     1      -0.279   0.470  -0.134  0.00  0.00    +0.000 C 
ATOM      7  C   UNL     1       1.938   1.800  -0.333  0.00  0.00    +0.000 C 
ATOM      8  C   UNL     1       0.472   1.801   0.137  0.00  0.00    +0.000 C 
ATOM      9  C   UNL     1      -1.712   0.456   0.480  0.00  0.00    +0.000 C 
ATOM     10  C   UNL     1       2.942  -1.808  -0.066  0.00  0.00    +0.000 C 
ATOM     11  C   UNL     1      -0.184  -2.058  -0.074  0.00  0.00    +0.000 C 
ATOM     12  C   UNL     1       4.040   0.288  -0.418  0.00  0.00    +0.000 C 
ATOM     13  C   UNL     1       4.250  -1.205  -0.601  0.00  0.00    +0.000 C 
ATOM     14  C   UNL     1      -1.571  -2.115   0.557  0.00  0.00    +0.000 C 
ATOM     15  C   UNL     1      -2.393  -0.887   0.252  0.00  0.00    +0.000 C 
ATOM     16  C   UNL     1       2.914   0.694   1.722  0.00  0.00    +0.000 C 
ATOM     17  C   UNL     1      -2.548   1.625  -0.079  0.00  0.00    +0.000 C 
ATOM     18  C   UNL     1      -4.029   1.482   0.226  0.00  0.00    +0.000 C 
ATOM     19  C   UNL     1      -3.666  -1.020  -0.156  0.00  0.00    +0.000 C 
ATOM     20  C   UNL     1      -4.541   0.166  -0.299  0.00  0.00    +0.000 C 
ENDROOT
TORSDOF 0
