REMARK  Name = 22323
REMARK  5 active torsions:
REMARK  status: ('A' for Active; 'I' for Inactive)
REMARK    1  A    between atoms: N_3  and  C_8
REMARK    2  A    between atoms: N_4  and  C_11
REMARK    3  A    between atoms: N_5  and  C_14
REMARK    4  A    between atoms: C_8  and  C_9
REMARK    5  A    between atoms: C_8  and  C_10
REMARK                            x       y       z     vdW  Elec       q    Type
REMARK                         _______ _______ _______ _____ _____    ______ ____
ROOT
ATOM      1  N   UNL     1      -0.529   1.681   0.470  0.00  0.00    +0.000 N 
ATOM      2  N   UNL     1       1.101   0.200  -0.451  0.00  0.00    +0.000 NA
ATOM      3  N   UNL     1       1.657   2.301   0.541  0.00  0.00    +0.000 N 
ATOM      4  C   UNL     1       0.769   1.320   0.138  0.00  0.00    +0.000 C 
ATOM      5  H   UNL     1      -0.669   2.644   0.767  0.00  0.00    +0.000 HD
ATOM      6  H   UNL     1       1.335   3.144   1.004  0.00  0.00    +0.000 HD
ATOM      7  H   UNL     1       2.657   2.215   0.392  0.00  0.00    +0.000 HD
ENDROOT
BRANCH   1  10
ATOM      8 CL   UNL     1      -2.870  -2.842   0.113  0.00  0.00    +0.000 Cl
ATOM      9 CL   UNL     1      -5.641  -1.220  -0.292  0.00  0.00    +0.000 Cl
ATOM     10  C   UNL     1      -1.738   0.977   0.289  0.00  0.00    +0.000 A 
ATOM     11  C   UNL     1      -1.738  -0.418   0.286  0.00  0.00    +0.000 A 
ATOM     12  C   UNL     1      -2.932   1.676   0.114  0.00  0.00    +0.000 A 
ATOM     13  C   UNL     1      -2.934  -1.114   0.108  0.00  0.00    +0.000 A 
ATOM     14  C   UNL     1      -4.127   0.980  -0.064  0.00  0.00    +0.000 A 
ATOM     15  C   UNL     1      -4.128  -0.415  -0.068  0.00  0.00    +0.000 A 
ENDBRANCH   1  10
BRANCH   2  18
ATOM     16  N   UNL     1       3.077  -0.634   0.230  0.00  0.00    +0.000 NA
ATOM     17  N   UNL     1       2.936   0.373  -1.938  0.00  0.00    +0.000 N 
ATOM     18  C   UNL     1       2.436  -0.029  -0.718  0.00  0.00    +0.000 C 
ATOM     19  H   UNL     1       2.330   0.830  -2.612  0.00  0.00    +0.000 HD
ATOM     20  H   UNL     1       3.909   0.282  -2.200  0.00  0.00    +0.000 HD
BRANCH  16  21
ATOM     21  C   UNL     1       4.490  -0.916   0.008  0.00  0.00    +0.000 C 
ATOM     22  C   UNL     1       5.311   0.272   0.488  0.00  0.00    +0.000 C 
ATOM     23  C   UNL     1       4.861  -2.193   0.746  0.00  0.00    +0.000 C 
ENDBRANCH  16  21
ENDBRANCH   2  18
TORSDOF 3
