REMARK  Name = 10275777
REMARK  8 active torsions:
REMARK  status: ('A' for Active; 'I' for Inactive)
REMARK    1  A    between atoms: O_2  and  C_19
REMARK    2  A    between atoms: O_2  and  C_29
REMARK    3  A    between atoms: N_5  and  C_10
REMARK    4  A    between atoms: N_6  and  C_25
REMARK    5  A    between atoms: N_6  and  C_26
REMARK    6  A    between atoms: C_11  and  C_24
REMARK    7  A    between atoms: C_12  and  C_14
REMARK    8  A    between atoms: C_13  and  C_22
REMARK                            x       y       z     vdW  Elec       q    Type
REMARK                         _______ _______ _______ _____ _____    ______ ____
ROOT
ATOM      1  C   UNL     1      -2.118   1.675   0.055  0.00  0.00    +0.000 A 
ATOM      2  C   UNL     1      -2.922   0.607   0.417  0.00  0.00    +0.000 A 
ATOM      3  C   UNL     1      -2.659   2.914  -0.250  0.00  0.00    +0.000 A 
ATOM      4  C   UNL     1      -4.305   0.781   0.475  0.00  0.00    +0.000 A 
ATOM      5  C   UNL     1      -4.865   2.022   0.171  0.00  0.00    +0.000 A 
ATOM      6  C   UNL     1      -4.042   3.088  -0.192  0.00  0.00    +0.000 A 
ENDROOT
BRANCH   2  11
ATOM      7 CL   UNL     1      -0.257  -7.088  -0.245  0.00  0.00    +0.000 Cl
ATOM      8  O   UNL     1      -2.080  -0.953   1.924  0.00  0.00    +0.000 OA
ATOM      9  N   UNL     1      -2.232  -1.590  -0.329  0.00  0.00    +0.000 N 
ATOM     10  N   UNL     1      -1.710  -3.591  -1.478  0.00  0.00    +0.000 NA
ATOM     11  C   UNL     1      -2.369  -0.701   0.745  0.00  0.00    +0.000 C 
ATOM     12  C   UNL     1      -1.752  -2.923  -0.312  0.00  0.00    +0.000 A 
ATOM     13  C   UNL     1      -1.367  -3.430   0.910  0.00  0.00    +0.000 A 
ATOM     14  C   UNL     1      -0.895  -4.738   0.938  0.00  0.00    +0.000 A 
ATOM     15  C   UNL     1      -1.247  -4.859  -1.412  0.00  0.00    +0.000 A 
ATOM     16  C   UNL     1      -0.831  -5.473  -0.241  0.00  0.00    +0.000 A 
ATOM     17  H   UNL     1      -2.509  -1.261  -1.251  0.00  0.00    +0.000 HD
ENDBRANCH   2  11
BRANCH   1  19
ATOM     18  O   UNL     1       0.015   3.655  -0.664  0.00  0.00    +0.000 OA
ATOM     19  N   UNL     1      -0.712   1.522  -0.010  0.00  0.00    +0.000 N 
ATOM     20  C   UNL     1       0.255   2.478  -0.352  0.00  0.00    +0.000 C 
ATOM     21  H   UNL     1      -0.385   0.603   0.269  0.00  0.00    +0.000 HD
BRANCH  20  22
ATOM     22  C   UNL     1       1.633   2.013  -0.357  0.00  0.00    +0.000 A 
ATOM     23  C   UNL     1       4.244   1.133  -0.364  0.00  0.00    +0.000 A 
ATOM     24  C   UNL     1       2.673   2.912  -0.122  0.00  0.00    +0.000 A 
ATOM     25  C   UNL     1       1.915   0.668  -0.596  0.00  0.00    +0.000 A 
ATOM     26  C   UNL     1       3.995   2.466  -0.125  0.00  0.00    +0.000 A 
ATOM     27  C   UNL     1       3.237   0.222  -0.599  0.00  0.00    +0.000 A 
BRANCH  23  30
ATOM     28  N   UNL     1       6.243   0.198   0.816  0.00  0.00    +0.000 N 
ATOM     29  N   UNL     1       6.245   0.703  -1.527  0.00  0.00    +0.000 NA
ATOM     30  C   UNL     1       5.654   0.657  -0.367  0.00  0.00    +0.000 C 
ATOM     31  C   UNL     1       7.648  -0.199   0.862  0.00  0.00    +0.000 C 
ATOM     32  C   UNL     1       5.543   0.152   2.097  0.00  0.00    +0.000 C 
ATOM     33  H   UNL     1       7.205   0.356  -1.456  0.00  0.00    +0.000 HD
ENDBRANCH  23  30
ENDBRANCH  20  22
ENDBRANCH   1  19
BRANCH   5  34
ATOM     34  O   UNL     1      -6.214   2.192   0.228  0.00  0.00    +0.000 OA
ATOM     35  C   UNL     1      -6.719   3.487  -0.095  0.00  0.00    +0.000 C 
ENDBRANCH   5  34
TORSDOF 5
