REMARK  Name = 5994
REMARK  4 active torsions:
REMARK  status: ('A' for Active; 'I' for Inactive)
REMARK    1  A    between atoms: C_4  and  C_15
REMARK    2  A    between atoms: C_7  and  C_18
REMARK    3  A    between atoms: C_8  and  C_19
REMARK    4  A    between atoms: C_19  and  C_23
REMARK                            x       y       z     vdW  Elec       q    Type
REMARK                         _______ _______ _______ _____ _____    ______ ____
ROOT
ATOM      1  O   UNL     1      -6.087  -0.251   1.000  0.00  0.00    +0.000 OA
ATOM      2  C   UNL     1       1.434   0.951   0.384  0.00  0.00    +0.000 C 
ATOM      3  C   UNL     1       2.308  -0.244  -0.054  0.00  0.00    +0.000 C 
ATOM      4  C   UNL     1       0.047   0.946  -0.267  0.00  0.00    +0.000 C 
ATOM      5  C   UNL     1      -0.691  -0.371   0.130  0.00  0.00    +0.000 C 
ATOM      6  C   UNL     1      -2.152  -0.456  -0.458  0.00  0.00    +0.000 C 
ATOM      7  C   UNL     1       3.603   0.099   0.715  0.00  0.00    +0.000 C 
ATOM      8  C   UNL     1       1.607  -1.529   0.407  0.00  0.00    +0.000 C 
ATOM      9  C   UNL     1       0.177  -1.628  -0.154  0.00  0.00    +0.000 C 
ATOM     10  C   UNL     1       2.348   2.153   0.172  0.00  0.00    +0.000 C 
ATOM     11  C   UNL     1      -0.780   2.163   0.167  0.00  0.00    +0.000 C 
ATOM     12  C   UNL     1       3.741   1.628   0.565  0.00  0.00    +0.000 C 
ATOM     13  C   UNL     1      -2.901   0.849  -0.158  0.00  0.00    +0.000 C 
ATOM     14  C   UNL     1       2.567  -0.307  -1.582  0.00  0.00    +0.000 C 
ATOM     15  C   UNL     1      -2.169   2.136  -0.457  0.00  0.00    +0.000 C 
ATOM     16  C   UNL     1      -2.881  -1.655   0.215  0.00  0.00    +0.000 C 
ATOM     17  C   UNL     1      -2.147  -0.668  -1.989  0.00  0.00    +0.000 C 
ATOM     18  C   UNL     1      -4.390  -1.633   0.030  0.00  0.00    +0.000 C 
ATOM     19  C   UNL     1      -4.155   0.901   0.324  0.00  0.00    +0.000 C 
ATOM     20  C   UNL     1      -4.959  -0.327   0.518  0.00  0.00    +0.000 C 
ENDROOT
BRANCH   7  22
ATOM     21  O   UNL     1       5.519  -0.194  -0.674  0.00  0.00    +0.000 OA
ATOM     22  C   UNL     1       4.819  -0.633   0.237  0.00  0.00    +0.000 C 
ATOM     23  C   UNL     1       5.142  -1.930   0.927  0.00  0.00    +0.000 C 
ENDBRANCH   7  22
TORSDOF 1
