REMARK  Name = 55245
REMARK  8 active torsions:
REMARK  status: ('A' for Active; 'I' for Inactive)
REMARK    1  A    between atoms: O_1  and  C_7
REMARK    2  A    between atoms: N_3  and  C_29
REMARK    3  A    between atoms: N_3  and  C_31
REMARK    4  A    between atoms: N_3  and  C_32
REMARK    5  A    between atoms: C_4  and  C_14
REMARK    6  A    between atoms: C_7  and  C_19
REMARK    7  A    between atoms: C_11  and  C_17
REMARK    8  A    between atoms: C_26  and  C_30
REMARK                            x       y       z     vdW  Elec       q    Type
REMARK                         _______ _______ _______ _____ _____    ______ ____
ROOT
ATOM      1  O   UNL     1       1.148  -6.197  -1.047  0.00  0.00    +0.000 OA
ATOM      2  C   UNL     1       1.313   1.953   0.339  0.00  0.00    +0.000 C 
ATOM      3  C   UNL     1       2.077   0.802   1.023  0.00  0.00    +0.000 C 
ATOM      4  C   UNL     1       1.175  -0.369   1.426  0.00  0.00    +0.000 C 
ATOM      5  C   UNL     1       2.466   2.999   0.177  0.00  0.00    +0.000 C 
ATOM      6  C   UNL     1       0.702   1.397  -0.961  0.00  0.00    +0.000 C 
ATOM      7  C   UNL     1       2.880   1.508   2.116  0.00  0.00    +0.000 C 
ATOM      8  C   UNL     1       3.229   2.889   1.525  0.00  0.00    +0.000 C 
ATOM      9  C   UNL     1      -0.164   0.111  -0.776  0.00  0.00    +0.000 C 
ATOM     10  C   UNL     1       0.450  -0.930   0.184  0.00  0.00    +0.000 C 
ATOM     11  C   UNL     1       1.992  -1.427   2.189  0.00  0.00    +0.000 C 
ATOM     12  C   UNL     1       0.185   2.564   1.213  0.00  0.00    +0.000 C 
ATOM     13  C   UNL     1       0.349  -2.270  -0.024  0.00  0.00    +0.000 C 
ATOM     14  C   UNL     1       1.214  -2.727   2.307  0.00  0.00    +0.000 C 
ATOM     15  C   UNL     1       0.905  -3.241   0.928  0.00  0.00    +0.000 C 
ATOM     16  C   UNL     1      -0.390  -2.932  -1.170  0.00  0.00    +0.000 C 
ATOM     17  C   UNL     1       1.143  -4.525   0.609  0.00  0.00    +0.000 C 
ATOM     18  C   UNL     1       0.444  -4.034  -1.810  0.00  0.00    +0.000 C 
ATOM     19  C   UNL     1       0.909  -5.024  -0.769  0.00  0.00    +0.000 C 
ENDROOT
BRANCH   9  20
ATOM     20  C   UNL     1      -1.650   0.402  -0.554  0.00  0.00    +0.000 A 
ATOM     21  C   UNL     1      -2.465   0.708  -1.639  0.00  0.00    +0.000 A 
ATOM     22  C   UNL     1      -2.177   0.359   0.734  0.00  0.00    +0.000 A 
ATOM     23  C   UNL     1      -3.819   0.973  -1.437  0.00  0.00    +0.000 A 
ATOM     24  C   UNL     1      -3.532   0.623   0.937  0.00  0.00    +0.000 A 
ATOM     25  C   UNL     1      -4.353   0.930  -0.148  0.00  0.00    +0.000 A 
BRANCH  25  26
ATOM     26  N   UNL     1      -5.722   1.197   0.057  0.00  0.00    +0.000 N 
ATOM     27  C   UNL     1      -6.434   2.100  -0.826  0.00  0.00    +0.000 C 
ATOM     28  C   UNL     1      -6.439   0.562   1.145  0.00  0.00    +0.000 C 
ENDBRANCH  25  26
ENDBRANCH   9  20
BRANCH   5  29
ATOM     29  C   UNL     1       3.389   2.693  -0.935  0.00  0.00    +0.000 C 
ATOM     30  C   UNL     1       4.140   2.445  -1.839  0.00  0.00    +0.000 C 
ATOM     31  C   UNL     1       5.054   2.143  -2.939  0.00  0.00    +0.000 C 
ENDBRANCH   5  29
BRANCH   5  32
ATOM     32  O   UNL     1       1.982   4.317  -0.034  0.00  0.00    +0.000 OA
ATOM     33  H   UNL     1       2.726   4.934   0.076  0.00  0.00    +0.000 HD
ENDBRANCH   5  32
TORSDOF 4
