REMARK  Name = 5282181
REMARK  12 active torsions:
REMARK  status: ('A' for Active; 'I' for Inactive)
REMARK    1  A    between atoms: O_1  and  C_26
REMARK    2  A    between atoms: O_2  and  C_27
REMARK    3  A    between atoms: C_3  and  C_11
REMARK    4  A    between atoms: C_4  and  C_9
REMARK    5  A    between atoms: C_9  and  C_14
REMARK    6  A    between atoms: C_9  and  C_15
REMARK    7  A    between atoms: C_14  and  C_17
REMARK    8  A    between atoms: C_16  and  C_19
REMARK    9  A    between atoms: C_17  and  C_18
REMARK   10  A    between atoms: C_18  and  C_20
REMARK   11  A    between atoms: C_20  and  C_24
REMARK   12  A    between atoms: C_20  and  C_25
REMARK                            x       y       z     vdW  Elec       q    Type
REMARK                         _______ _______ _______ _____ _____    ______ ____
ROOT
ATOM      1  C   UNL     1       1.313  -0.900  -0.453  0.00  0.00    +0.000 C 
ATOM      2  C   UNL     1       2.624  -0.077  -0.514  0.00  0.00    +0.000 C 
ATOM      3  C   UNL     1       0.524  -0.045   0.570  0.00  0.00    +0.000 C 
ATOM      4  C   UNL     1       2.142   1.392  -0.519  0.00  0.00    +0.000 C 
ATOM      5  C   UNL     1       0.713   1.383   0.055  0.00  0.00    +0.000 C 
ATOM      6  C   UNL     1       1.481  -2.320   0.124  0.00  0.00    +0.000 C 
ATOM      7  C   UNL     1      -0.835  -0.632   0.841  0.00  0.00    +0.000 C 
ATOM      8  C   UNL     1       0.629  -0.980  -1.841  0.00  0.00    +0.000 C 
ATOM      9  C   UNL     1       0.124  -2.957   0.472  0.00  0.00    +0.000 C 
ATOM     10  C   UNL     1      -0.764  -2.058   1.348  0.00  0.00    +0.000 C 
ATOM     11  C   UNL     1      -2.000   0.008   0.670  0.00  0.00    +0.000 C 
ENDROOT
BRANCH  11  12
ATOM     12  C   UNL     1      -3.280  -0.592   0.950  0.00  0.00    +0.000 C 
ATOM     13  C   UNL     1      -4.447   0.049   0.780  0.00  0.00    +0.000 C 
ATOM     14  C   UNL     1      -5.771  -0.624   1.042  0.00  0.00    +0.000 C 
ATOM     15  C   UNL     1      -4.535   1.424   0.291  0.00  0.00    +0.000 C 
ATOM     16  C   UNL     1      -6.746  -0.457  -0.126  0.00  0.00    +0.000 C 
ATOM     17  C   UNL     1      -5.537   1.662  -0.815  0.00  0.00    +0.000 C 
ATOM     18  C   UNL     1      -6.893   1.020  -0.507  0.00  0.00    +0.000 C 
ATOM     19  C   UNL     1      -3.819   2.429   0.822  0.00  0.00    +0.000 C 
BRANCH  16  20
ATOM     20  O   UNL     1      -8.014  -0.976   0.264  0.00  0.00    +0.000 OA
ATOM     21  H   UNL     1      -8.620  -0.861  -0.487  0.00  0.00    +0.000 HD
ENDBRANCH  16  20
BRANCH  17  22
ATOM     22  O   UNL     1      -5.008   1.110  -2.022  0.00  0.00    +0.000 OA
ATOM     23  H   UNL     1      -4.167   1.559  -2.209  0.00  0.00    +0.000 HD
ENDBRANCH  17  22
ENDBRANCH  11  12
BRANCH   2  24
ATOM     24  C   UNL     1       3.570  -0.395  -1.664  0.00  0.00    +0.000 C 
ATOM     25  C   UNL     1       3.942  -1.883  -1.642  0.00  0.00    +0.000 C 
BRANCH  24  26
ATOM     26  C   UNL     1       4.859   0.452  -1.627  0.00  0.00    +0.000 C 
BRANCH  26  27
ATOM     27  C   UNL     1       5.696   0.349  -0.345  0.00  0.00    +0.000 C 
BRANCH  27  28
ATOM     28  C   UNL     1       6.922   1.268  -0.340  0.00  0.00    +0.000 C 
BRANCH  28  29
ATOM     29  C   UNL     1       7.800   1.111   0.917  0.00  0.00    +0.000 C 
ATOM     30  C   UNL     1       8.291  -0.324   1.115  0.00  0.00    +0.000 C 
ATOM     31  C   UNL     1       7.018   1.562   2.154  0.00  0.00    +0.000 C 
ENDBRANCH  28  29
ENDBRANCH  27  28
ENDBRANCH  26  27
ENDBRANCH  24  26
ENDBRANCH   2  24
TORSDOF 8
