REMARK  Name = 69259387
REMARK  5 active torsions:
REMARK  status: ('A' for Active; 'I' for Inactive)
REMARK    1  A    between atoms: O_1  and  C_7
REMARK    2  A    between atoms: O_2  and  C_22
REMARK    3  A    between atoms: C_3  and  C_15
REMARK    4  A    between atoms: C_7  and  C_18
REMARK    5  A    between atoms: C_8  and  C_19
REMARK                            x       y       z     vdW  Elec       q    Type
REMARK                         _______ _______ _______ _____ _____    ______ ____
ROOT
ATOM      1  C   UNL     1      -2.603  -0.501   0.191  0.00  0.00    +0.000 C 
ATOM      2  C   UNL     1      -1.819   0.762  -0.226  0.00  0.00    +0.000 C 
ATOM      3  C   UNL     1      -0.405   0.815   0.366  0.00  0.00    +0.000 C 
ATOM      4  C   UNL     1       0.391  -0.441  -0.110  0.00  0.00    +0.000 C 
ATOM      5  C   UNL     1      -3.994  -0.203  -0.452  0.00  0.00    +0.000 C 
ATOM      6  C   UNL     1       1.878  -0.455   0.413  0.00  0.00    +0.000 C 
ATOM      7  C   UNL     1      -1.838  -1.724  -0.340  0.00  0.00    +0.000 C 
ATOM      8  C   UNL     1      -0.384  -1.757   0.168  0.00  0.00    +0.000 C 
ATOM      9  C   UNL     1      -2.784   1.900   0.090  0.00  0.00    +0.000 C 
ATOM     10  C   UNL     1      -4.180   1.319  -0.202  0.00  0.00    +0.000 C 
ATOM     11  C   UNL     1       0.329   2.099  -0.049  0.00  0.00    +0.000 C 
ATOM     12  C   UNL     1       2.528   0.901   0.108  0.00  0.00    +0.000 C 
ATOM     13  C   UNL     1      -2.768  -0.647   1.733  0.00  0.00    +0.000 C 
ATOM     14  C   UNL     1       1.749   2.131   0.503  0.00  0.00    +0.000 C 
ATOM     15  C   UNL     1       2.648  -1.608  -0.303  0.00  0.00    +0.000 C 
ATOM     16  C   UNL     1      -4.109  -0.525  -1.947  0.00  0.00    +0.000 C 
ATOM     17  C   UNL     1       1.951  -0.692   1.940  0.00  0.00    +0.000 C 
ATOM     18  C   UNL     1       4.162  -1.445  -0.229  0.00  0.00    +0.000 C 
ATOM     19  C   UNL     1       3.731   1.022  -0.485  0.00  0.00    +0.000 C 
ATOM     20  C   UNL     1       4.598  -0.136  -0.879  0.00  0.00    +0.000 C 
ENDROOT
BRANCH   5  21
ATOM     21  O   UNL     1      -5.028  -0.932   0.205  0.00  0.00    +0.000 OA
ATOM     22  H   UNL     1      -5.882  -0.611  -0.133  0.00  0.00    +0.000 HD
ENDBRANCH   5  21
BRANCH  20  23
ATOM     23  O   UNL     1       5.947   0.117  -0.495  0.00  0.00    +0.000 OA
ATOM     24  H   UNL     1       6.485  -0.634  -0.801  0.00  0.00    +0.000 HD
ENDBRANCH  20  23
TORSDOF 2
