REMARK  Name = 11300765
REMARK  4 active torsions:
REMARK  status: ('A' for Active; 'I' for Inactive)
REMARK    1  A    between atoms: O_1  and  C_13
REMARK    2  A    between atoms: O_2  and  C_20
REMARK    3  A    between atoms: C_6  and  C_16
REMARK    4  A    between atoms: C_7  and  C_18
REMARK                            x       y       z     vdW  Elec       q    Type
REMARK                         _______ _______ _______ _____ _____    ______ ____
ROOT
ATOM      1  C   UNL     1      -0.638   0.793   0.225  0.00  0.00    +0.000 C 
ATOM      2  C   UNL     1      -2.045   0.708  -0.375  0.00  0.00    +0.000 C 
ATOM      3  C   UNL     1       0.190  -0.446  -0.265  0.00  0.00    +0.000 C 
ATOM      4  C   UNL     1      -2.797  -0.569   0.048  0.00  0.00    +0.000 C 
ATOM      5  C   UNL     1       1.669  -0.396   0.271  0.00  0.00    +0.000 C 
ATOM      6  C   UNL     1      -0.561  -1.778   0.012  0.00  0.00    +0.000 C 
ATOM      7  C   UNL     1      -2.019  -1.777  -0.486  0.00  0.00    +0.000 C 
ATOM      8  C   UNL     1       2.277   0.966  -0.212  0.00  0.00    +0.000 C 
ATOM      9  C   UNL     1       0.047   2.118  -0.142  0.00  0.00    +0.000 C 
ATOM     10  C   UNL     1      -3.048   1.823  -0.086  0.00  0.00    +0.000 C 
ATOM     11  C   UNL     1      -4.145  -0.309  -0.652  0.00  0.00    +0.000 C 
ATOM     12  C   UNL     1       1.502   2.175   0.317  0.00  0.00    +0.000 C 
ATOM     13  C   UNL     1      -4.414   1.187  -0.400  0.00  0.00    +0.000 C 
ATOM     14  C   UNL     1      -3.004  -0.722   1.576  0.00  0.00    +0.000 C 
ATOM     15  C   UNL     1       3.777   1.062   0.088  0.00  0.00    +0.000 C 
ATOM     16  C   UNL     1       1.713  -0.551   1.812  0.00  0.00    +0.000 C 
ATOM     17  C   UNL     1       2.535  -1.523  -0.279  0.00  0.00    +0.000 C 
ATOM     18  C   UNL     1       4.541  -0.054  -0.635  0.00  0.00    +0.000 C 
ATOM     19  C   UNL     1       3.809  -1.364  -0.673  0.00  0.00    +0.000 C 
ENDROOT
BRANCH  11  20
ATOM     20  O   UNL     1      -5.191  -1.121  -0.155  0.00  0.00    +0.000 OA
ATOM     21  H   UNL     1      -6.014  -0.833  -0.586  0.00  0.00    +0.000 HD
ENDBRANCH  11  20
BRANCH  18  22
ATOM     22  O   UNL     1       5.801  -0.221   0.011  0.00  0.00    +0.000 OA
ATOM     23  H   UNL     1       6.264   0.634  -0.025  0.00  0.00    +0.000 HD
ENDBRANCH  18  22
TORSDOF 2
