REMARK  Name = 6128
REMARK  2 active torsions:
REMARK  status: ('A' for Active; 'I' for Inactive)
REMARK    1  A    between atoms: C_6  and  C_17
REMARK    2  A    between atoms: C_7  and  C_18
REMARK                            x       y       z     vdW  Elec       q    Type
REMARK                         _______ _______ _______ _____ _____    ______ ____
ROOT
ATOM      1  O   UNL     1      -4.944  -1.069  -0.876  0.00  0.00    +0.000 OA
ATOM      2  O   UNL     1       5.558   0.150  -1.039  0.00  0.00    +0.000 OA
ATOM      3  C   UNL     1      -0.633   0.775   0.358  0.00  0.00    +0.000 C 
ATOM      4  C   UNL     1       0.197  -0.449  -0.147  0.00  0.00    +0.000 C 
ATOM      5  C   UNL     1      -2.022   0.714  -0.284  0.00  0.00    +0.000 C 
ATOM      6  C   UNL     1      -2.778  -0.571   0.112  0.00  0.00    +0.000 C 
ATOM      7  C   UNL     1       1.668  -0.467   0.423  0.00  0.00    +0.000 C 
ATOM      8  C   UNL     1      -0.568  -1.790   0.036  0.00  0.00    +0.000 C 
ATOM      9  C   UNL     1      -2.020  -1.756  -0.476  0.00  0.00    +0.000 C 
ATOM     10  C   UNL     1       0.093   2.081   0.013  0.00  0.00    +0.000 C 
ATOM     11  C   UNL     1      -3.027   1.832  -0.031  0.00  0.00    +0.000 C 
ATOM     12  C   UNL     1       2.312   0.910   0.220  0.00  0.00    +0.000 C 
ATOM     13  C   UNL     1      -4.118  -0.240  -0.519  0.00  0.00    +0.000 C 
ATOM     14  C   UNL     1       1.489   2.111   0.622  0.00  0.00    +0.000 C 
ATOM     15  C   UNL     1      -4.324   1.262  -0.624  0.00  0.00    +0.000 C 
ATOM     16  C   UNL     1       2.477  -1.551  -0.346  0.00  0.00    +0.000 C 
ATOM     17  C   UNL     1      -3.037  -0.762   1.618  0.00  0.00    +0.000 C 
ATOM     18  C   UNL     1       1.698  -0.796   1.933  0.00  0.00    +0.000 C 
ATOM     19  C   UNL     1       3.982  -1.429  -0.169  0.00  0.00    +0.000 C 
ATOM     20  C   UNL     1       3.552   1.095  -0.264  0.00  0.00    +0.000 C 
ATOM     21  C   UNL     1       4.445  -0.050  -0.557  0.00  0.00    +0.000 C 
ENDROOT
TORSDOF 0
