REMARK  Name = 12544
REMARK  12 active torsions:
REMARK  status: ('A' for Active; 'I' for Inactive)
REMARK    1  A    between atoms: O_1  and  C_16
REMARK    2  A    between atoms: O_2  and  C_26
REMARK    3  A    between atoms: O_4  and  C_32
REMARK    4  A    between atoms: N_6  and  C_31
REMARK    5  A    between atoms: C_8  and  C_21
REMARK    6  A    between atoms: C_11  and  C_24
REMARK    7  A    between atoms: C_12  and  C_22
REMARK    8  A    between atoms: C_22  and  C_27
REMARK    9  A    between atoms: C_22  and  C_28
REMARK   10  A    between atoms: C_27  and  C_29
REMARK   11  A    between atoms: C_29  and  C_30
REMARK   12  A    between atoms: C_31  and  C_32
REMARK                            x       y       z     vdW  Elec       q    Type
REMARK                         _______ _______ _______ _____ _____    ______ ____
ROOT
ATOM      1  C   UNL     1      -1.319  -1.067  -0.234  0.00  0.00    +0.000 C 
ATOM      2  C   UNL     1      -0.386  -0.314   0.738  0.00  0.00    +0.000 C 
ATOM      3  C   UNL     1      -2.773  -1.138   0.258  0.00  0.00    +0.000 C 
ATOM      4  C   UNL     1      -3.313   0.323   0.427  0.00  0.00    +0.000 C 
ATOM      5  C   UNL     1      -4.807   0.337   0.932  0.00  0.00    +0.000 C 
ATOM      6  C   UNL     1       0.954  -0.493  -0.016  0.00  0.00    +0.000 C 
ATOM      7  C   UNL     1      -5.693  -0.496  -0.052  0.00  0.00    +0.000 C 
ATOM      8  C   UNL     1      -0.883   1.134   0.828  0.00  0.00    +0.000 C 
ATOM      9  C   UNL     1      -2.354   1.204   1.276  0.00  0.00    +0.000 C 
ATOM     10  C   UNL     1      -3.666  -1.978  -0.674  0.00  0.00    +0.000 C 
ATOM     11  C   UNL     1      -0.572  -2.370  -0.510  0.00  0.00    +0.000 C 
ATOM     12  C   UNL     1       0.913  -1.964  -0.492  0.00  0.00    +0.000 C 
ATOM     13  C   UNL     1      -5.144  -1.919  -0.277  0.00  0.00    +0.000 C 
ATOM     14  C   UNL     1      -5.391   1.777   1.034  0.00  0.00    +0.000 C 
ATOM     15  C   UNL     1      -0.315  -0.931   2.157  0.00  0.00    +0.000 C 
ATOM     16  C   UNL     1      -5.939   0.225  -1.395  0.00  0.00    +0.000 C 
ATOM     17  C   UNL     1      -4.922  -0.266   2.358  0.00  0.00    +0.000 C 
ATOM     18  C   UNL     1      -5.594   2.463  -0.310  0.00  0.00    +0.000 C 
ATOM     19  C   UNL     1      -6.499   1.631  -1.208  0.00  0.00    +0.000 C 
ENDROOT
BRANCH  10  20
ATOM     20  O   UNL     1      -3.503  -1.562  -2.026  0.00  0.00    +0.000 OA
ATOM     21  H   UNL     1      -2.655  -1.906  -2.351  0.00  0.00    +0.000 HD
ENDBRANCH  10  20
BRANCH  19  22
ATOM     22  O   UNL     1      -6.601   2.278  -2.472  0.00  0.00    +0.000 OA
ATOM     23  H   UNL     1      -5.711   2.326  -2.860  0.00  0.00    +0.000 HD
ENDBRANCH  19  22
BRANCH   6  24
ATOM     24  C   UNL     1       2.222  -0.157   0.757  0.00  0.00    +0.000 C 
ATOM     25  C   UNL     1       2.165   1.294   1.250  0.00  0.00    +0.000 C 
BRANCH  24  26
ATOM     26  C   UNL     1       3.502  -0.363  -0.079  0.00  0.00    +0.000 C 
BRANCH  26  27
ATOM     27  C   UNL     1       4.787  -0.091   0.705  0.00  0.00    +0.000 C 
BRANCH  27  30
ATOM     28  O   UNL     1       6.002  -0.759  -1.280  0.00  0.00    +0.000 OA
ATOM     29  N   UNL     1       7.189  -0.116   0.611  0.00  0.00    +0.000 N 
ATOM     30  C   UNL     1       6.035  -0.368  -0.117  0.00  0.00    +0.000 C 
ATOM     31  H   UNL     1       7.109   0.225   1.565  0.00  0.00    +0.000 HD
BRANCH  29  32
ATOM     32  C   UNL     1       8.517  -0.289   0.069  0.00  0.00    +0.000 C 
BRANCH  32  34
ATOM     33  O   UNL     1      10.151   1.017  -1.122  0.00  0.00    +0.000 OA
ATOM     34  C   UNL     1       9.048   0.957  -0.593  0.00  0.00    +0.000 C 
BRANCH  34  35
ATOM     35  O   UNL     1       8.190   2.002  -0.545  0.00  0.00    +0.000 OA
ATOM     36  H   UNL     1       8.558   2.800  -0.982  0.00  0.00    +0.000 HD
ENDBRANCH  34  35
ENDBRANCH  32  34
ENDBRANCH  29  32
ENDBRANCH  27  30
ENDBRANCH  26  27
ENDBRANCH  24  26
ENDBRANCH   6  24
TORSDOF 9
