REMARK  Name = 6445540
REMARK  11 active torsions:
REMARK  status: ('A' for Active; 'I' for Inactive)
REMARK    1  A    between atoms: O_3  and  C_18
REMARK    2  A    between atoms: O_4  and  C_24
REMARK    3  A    between atoms: C_9  and  C_13
REMARK    4  A    between atoms: C_15  and  C_20
REMARK    5  A    between atoms: C_17  and  C_22
REMARK    6  A    between atoms: C_19  and  C_27
REMARK    7  A    between atoms: C_20  and  C_28
REMARK    8  A    between atoms: C_21  and  C_29
REMARK    9  A    between atoms: C_21  and  C_30
REMARK   10  A    between atoms: C_31  and  C_32
REMARK   11  A    between atoms: C_34  and  C_35
REMARK                            x       y       z     vdW  Elec       q    Type
REMARK                         _______ _______ _______ _____ _____    ______ ____
ROOT
ATOM      1  O   UNL     1      -0.699   4.964   0.370  0.00  0.00    +0.000 OA
ATOM      2  O   UNL     1       4.637  -1.743   0.317  0.00  0.00    +0.000 OA
ATOM      3  O   UNL     1      -0.072   0.078   3.637  0.00  0.00    +0.000 OA
ATOM      4  N   UNL     1      -0.235   0.633   1.389  0.00  0.00    +0.000 N 
ATOM      5  C   UNL     1       0.581   4.345   0.237  0.00  0.00    +0.000 C 
ATOM      6  C   UNL     1      -0.531   3.708   1.057  0.00  0.00    +0.000 C 
ATOM      7  C   UNL     1       0.937   3.950  -1.163  0.00  0.00    +0.000 C 
ATOM      8  C   UNL     1      -1.470   2.642   0.566  0.00  0.00    +0.000 C 
ATOM      9  C   UNL     1       1.621   5.111   0.995  0.00  0.00    +0.000 C 
ATOM     10  C   UNL     1       1.663   2.611  -1.160  0.00  0.00    +0.000 C 
ATOM     11  C   UNL     1      -1.477   1.398   1.470  0.00  0.00    +0.000 C 
ATOM     12  C   UNL     1       2.111   2.138  -2.545  0.00  0.00    +0.000 C 
ATOM     13  C   UNL     1       2.194   0.589  -2.669  0.00  0.00    +0.000 C 
ATOM     14  C   UNL     1       2.991  -0.045  -1.497  0.00  0.00    +0.000 C 
ATOM     15  C   UNL     1       3.007  -1.588  -1.443  0.00  0.00    +0.000 C 
ATOM     16  C   UNL     1       2.545  -2.861   0.847  0.00  0.00    +0.000 C 
ATOM     17  C   UNL     1       0.785   0.004  -2.820  0.00  0.00    +0.000 C 
ATOM     18  C   UNL     1       3.499  -2.040  -0.058  0.00  0.00    +0.000 C 
ATOM     19  C   UNL     1       1.285  -2.032   1.254  0.00  0.00    +0.000 C 
ATOM     20  C   UNL     1       1.584  -0.810   2.140  0.00  0.00    +0.000 C 
ATOM     21  C   UNL     1       0.342   0.005   2.481  0.00  0.00    +0.000 C 
ATOM     22  C   UNL     1       3.866  -2.240  -2.523  0.00  0.00    +0.000 C 
ATOM     23  C   UNL     1       2.123  -4.137   0.084  0.00  0.00    +0.000 C 
ATOM     24  C   UNL     1       3.326  -3.337   2.094  0.00  0.00    +0.000 C 
ATOM     25  H   UNL     1       0.151   0.453   0.468  0.00  0.00    +0.000 HD
ENDROOT
BRANCH  11  26
ATOM     26  C   UNL     1      -2.593   0.476   1.086  0.00  0.00    +0.000 C 
ATOM     27  C   UNL     1      -3.605   0.243   2.176  0.00  0.00    +0.000 C 
ATOM     28  C   UNL     1      -2.747  -0.104  -0.122  0.00  0.00    +0.000 C 
BRANCH  28  31
ATOM     29  S   UNL     1      -5.187  -3.023  -1.038  0.00  0.00    +0.000 S 
ATOM     30  N   UNL     1      -4.907  -0.455  -1.133  0.00  0.00    +0.000 NA
ATOM     31  C   UNL     1      -3.792  -0.993  -0.547  0.00  0.00    +0.000 A 
ATOM     32  C   UNL     1      -3.744  -2.349  -0.402  0.00  0.00    +0.000 A 
ATOM     33  C   UNL     1      -5.721  -1.442  -1.437  0.00  0.00    +0.000 A 
ATOM     34  C   UNL     1      -7.038  -1.271  -2.088  0.00  0.00    +0.000 C 
ENDBRANCH  28  31
ENDBRANCH  11  26
BRANCH  14  35
ATOM     35  O   UNL     1       4.327   0.466  -1.526  0.00  0.00    +0.000 OA
ATOM     36  H   UNL     1       4.693   0.304  -2.412  0.00  0.00    +0.000 HD
ENDBRANCH  14  35
BRANCH  19  37
ATOM     37  O   UNL     1       0.392  -2.893   1.971  0.00  0.00    +0.000 OA
ATOM     38  H   UNL     1       0.744  -3.025   2.867  0.00  0.00    +0.000 HD
ENDBRANCH  19  37
TORSDOF 4
