REMARK  Name = 11396600
REMARK  13 active torsions:
REMARK  status: ('A' for Active; 'I' for Inactive)
REMARK    1  A    between atoms: O_2  and  C_23
REMARK    2  A    between atoms: O_3  and  C_25
REMARK    3  A    between atoms: C_4  and  C_11
REMARK    4  A    between atoms: C_7  and  C_14
REMARK    5  A    between atoms: C_14  and  C_15
REMARK    6  A    between atoms: C_14  and  C_17
REMARK    7  A    between atoms: C_15  and  C_19
REMARK    8  A    between atoms: C_16  and  C_18
REMARK    9  A    between atoms: C_21  and  C_23
REMARK   10  A    between atoms: C_23  and  C_28
REMARK   11  A    between atoms: C_23  and  C_29
REMARK   12  A    between atoms: C_28  and  C_31
REMARK   13  A    between atoms: C_29  and  C_32
REMARK                            x       y       z     vdW  Elec       q    Type
REMARK                         _______ _______ _______ _____ _____    ______ ____
ROOT
ATOM      1  C   UNL     1       0.837   0.949  -0.847  0.00  0.00    +0.000 C 
ATOM      2  C   UNL     1       0.131   0.455   0.444  0.00  0.00    +0.000 C 
ATOM      3  C   UNL     1       1.438  -0.289  -1.538  0.00  0.00    +0.000 C 
ATOM      4  C   UNL     1       1.783   1.953  -0.222  0.00  0.00    +0.000 C 
ATOM      5  C   UNL     1       0.003   1.710   1.312  0.00  0.00    +0.000 C 
ATOM      6  C   UNL     1      -1.018  -0.450   0.104  0.00  0.00    +0.000 C 
ATOM      7  C   UNL     1       0.350  -1.333  -1.863  0.00  0.00    +0.000 C 
ATOM      8  C   UNL     1      -0.089   1.716  -1.823  0.00  0.00    +0.000 C 
ATOM      9  C   UNL     1      -0.572  -1.672  -0.676  0.00  0.00    +0.000 C 
ATOM     10  C   UNL     1       1.292   2.397   0.949  0.00  0.00    +0.000 C 
ATOM     11  C   UNL     1      -2.295  -0.233   0.445  0.00  0.00    +0.000 C 
ENDROOT
BRANCH  11  13
ATOM     12  F   UNL     1      -5.934   1.631  -0.511  0.00  0.00    +0.000 F 
ATOM     13  C   UNL     1      -3.368  -1.135   0.105  0.00  0.00    +0.000 C 
ATOM     14  C   UNL     1      -4.649  -0.918   0.446  0.00  0.00    +0.000 C 
ATOM     15  C   UNL     1      -5.752  -1.862   0.035  0.00  0.00    +0.000 C 
ATOM     16  C   UNL     1      -5.083   0.257   1.197  0.00  0.00    +0.000 C 
ATOM     17  C   UNL     1      -6.931  -1.127  -0.609  0.00  0.00    +0.000 C 
ATOM     18  C   UNL     1      -6.287   0.972   0.633  0.00  0.00    +0.000 C 
ATOM     19  C   UNL     1      -7.422   0.010   0.290  0.00  0.00    +0.000 C 
ATOM     20  C   UNL     1      -4.488   0.660   2.330  0.00  0.00    +0.000 C 
BRANCH  17  21
ATOM     21  O   UNL     1      -8.006  -2.037  -0.816  0.00  0.00    +0.000 OA
ATOM     22  H   UNL     1      -7.678  -2.752  -1.386  0.00  0.00    +0.000 HD
ENDBRANCH  17  21
ENDBRANCH  11  13
BRANCH   4  23
ATOM     23  C   UNL     1       3.027   2.411  -0.894  0.00  0.00    +0.000 C 
ATOM     24  C   UNL     1       2.926   3.888  -1.278  0.00  0.00    +0.000 C 
BRANCH  23  25
ATOM     25  C   UNL     1       4.291   2.120  -0.058  0.00  0.00    +0.000 C 
BRANCH  25  26
ATOM     26  C   UNL     1       4.483   0.675   0.321  0.00  0.00    +0.000 C 
ATOM     27  C   UNL     1       5.579  -0.034   0.009  0.00  0.00    +0.000 C 
BRANCH  27  28
ATOM     28  C   UNL     1       5.858  -1.482   0.370  0.00  0.00    +0.000 C 
BRANCH  28  29
ATOM     29  O   UNL     1       4.774  -2.069   1.095  0.00  0.00    +0.000 OA
ATOM     30  H   UNL     1       3.954  -1.961   0.587  0.00  0.00    +0.000 HD
ENDBRANCH  28  29
BRANCH  28  31
ATOM     31  C   UNL     1       7.143  -1.597   1.228  0.00  0.00    +0.000 C 
ATOM     32  C   UNL     1       7.085  -0.891   2.581  0.00  0.00    +0.000 C 
ENDBRANCH  28  31
BRANCH  28  33
ATOM     33  C   UNL     1       6.050  -2.329  -0.913  0.00  0.00    +0.000 C 
ATOM     34  C   UNL     1       4.843  -2.346  -1.848  0.00  0.00    +0.000 C 
ENDBRANCH  28  33
ENDBRANCH  27  28
ENDBRANCH  25  26
ENDBRANCH  23  25
ENDBRANCH   4  23
TORSDOF 9
