REMARK  Name = 107778
REMARK  14 active torsions:
REMARK  status: ('A' for Active; 'I' for Inactive)
REMARK    1  A    between atoms: O_2  and  C_16
REMARK    2  A    between atoms: O_3  and  C_21
REMARK    3  A    between atoms: C_6  and  C_12
REMARK    4  A    between atoms: C_6  and  C_13
REMARK    5  A    between atoms: C_11  and  C_21
REMARK    6  A    between atoms: C_15  and  C_17
REMARK    7  A    between atoms: C_15  and  C_20
REMARK    8  A    between atoms: C_15  and  C_22
REMARK    9  A    between atoms: C_15  and  C_23
REMARK   10  A    between atoms: C_20  and  C_24
REMARK   11  A    between atoms: C_24  and  C_25
REMARK   12  A    between atoms: C_25  and  C_26
REMARK   13  A    between atoms: C_26  and  C_27
REMARK   14  A    between atoms: C_27  and  C_28
REMARK                            x       y       z     vdW  Elec       q    Type
REMARK                         _______ _______ _______ _____ _____    ______ ____
ROOT
ATOM      1  O   UNL     1      -1.258   1.855   1.549  0.00  0.00    +0.000 OA
ATOM      2  C   UNL     1      -3.021   0.195   1.149  0.00  0.00    +0.000 C 
ATOM      3  C   UNL     1      -2.534  -0.060  -0.292  0.00  0.00    +0.000 C 
ATOM      4  C   UNL     1      -2.684   1.638   1.603  0.00  0.00    +0.000 C 
ATOM      5  C   UNL     1      -4.506  -0.194   1.276  0.00  0.00    +0.000 C 
ATOM      6  C   UNL     1      -2.671  -1.566  -0.620  0.00  0.00    +0.000 C 
ATOM      7  C   UNL     1      -1.133   0.482  -0.475  0.00  0.00    +0.000 A 
ATOM      8  C   UNL     1      -0.594   1.393   0.444  0.00  0.00    +0.000 A 
ATOM      9  C   UNL     1      -3.984  -2.168  -0.179  0.00  0.00    +0.000 C 
ATOM     10  C   UNL     1      -3.052   1.837   3.083  0.00  0.00    +0.000 C 
ATOM     11  C   UNL     1      -3.373   2.746   0.788  0.00  0.00    +0.000 C 
ATOM     12  C   UNL     1      -4.814  -1.527   0.661  0.00  0.00    +0.000 C 
ATOM     13  C   UNL     1      -0.358   0.129  -1.593  0.00  0.00    +0.000 A 
ATOM     14  C   UNL     1       1.470   1.503  -0.818  0.00  0.00    +0.000 A 
ATOM     15  C   UNL     1       0.706   1.884   0.282  0.00  0.00    +0.000 A 
ATOM     16  C   UNL     1       0.934   0.631  -1.760  0.00  0.00    +0.000 A 
ENDROOT
BRANCH  14  17
ATOM     17  C   UNL     1       2.850   2.038  -0.992  0.00  0.00    +0.000 C 
ATOM     18  C   UNL     1       3.338   3.023   0.126  0.00  0.00    +0.000 C 
ATOM     19  C   UNL     1       2.938   2.872  -2.314  0.00  0.00    +0.000 C 
BRANCH  17  20
ATOM     20  C   UNL     1       3.941   0.900  -1.112  0.00  0.00    +0.000 C 
BRANCH  20  21
ATOM     21  C   UNL     1       4.061   0.006   0.133  0.00  0.00    +0.000 C 
BRANCH  21  22
ATOM     22  C   UNL     1       5.157  -1.058   0.007  0.00  0.00    +0.000 C 
BRANCH  22  23
ATOM     23  C   UNL     1       5.265  -1.968   1.233  0.00  0.00    +0.000 C 
BRANCH  23  24
ATOM     24  C   UNL     1       6.367  -3.013   1.051  0.00  0.00    +0.000 C 
ATOM     25  C   UNL     1       6.458  -3.941   2.252  0.00  0.00    +0.000 C 
ENDBRANCH  23  24
ENDBRANCH  22  23
ENDBRANCH  21  22
ENDBRANCH  20  21
ENDBRANCH  17  20
ENDBRANCH  14  17
BRANCH  13  26
ATOM     26  O   UNL     1      -0.829  -0.654  -2.604  0.00  0.00    +0.000 OA
ATOM     27  H   UNL     1      -0.143  -0.771  -3.283  0.00  0.00    +0.000 HD
ENDBRANCH  13  26
BRANCH   9  28
ATOM     28  C   UNL     1      -4.312  -3.523  -0.734  0.00  0.00    +0.000 C 
BRANCH  28  29
ATOM     29  O   UNL     1      -4.361  -3.461  -2.147  0.00  0.00    +0.000 OA
ATOM     30  H   UNL     1      -5.072  -2.844  -2.392  0.00  0.00    +0.000 HD
ENDBRANCH  28  29
ENDBRANCH   9  28
TORSDOF 9
