REMARK  Name = 9867869
REMARK  9 active torsions:
REMARK  status: ('A' for Active; 'I' for Inactive)
REMARK    1  A    between atoms: O_5  and  C_17
REMARK    2  A    between atoms: O_6  and  C_18
REMARK    3  A    between atoms: O_7  and  C_20
REMARK    4  A    between atoms: O_8  and  C_22
REMARK    5  A    between atoms: C_16  and  C_24
REMARK    6  A    between atoms: C_24  and  C_28
REMARK    7  A    between atoms: C_24  and  C_29
REMARK    8  A    between atoms: C_24  and  C_30
REMARK    9  A    between atoms: C_25  and  C_31
REMARK                            x       y       z     vdW  Elec       q    Type
REMARK                         _______ _______ _______ _____ _____    ______ ____
ROOT
ATOM      1  O   UNL     1      -0.733  -0.052   1.558  0.00  0.00    +0.000 OA
ATOM      2  O   UNL     1       0.444  -2.703  -0.195  0.00  0.00    +0.000 OA
ATOM      3  O   UNL     1      -0.269   2.208   1.018  0.00  0.00    +0.000 OA
ATOM      4  O   UNL     1      -2.642   1.401  -0.470  0.00  0.00    +0.000 OA
ATOM      5  O   UNL     1      -0.766  -2.908   1.734  0.00  0.00    +0.000 OA
ATOM      6  O   UNL     1       0.050   3.787  -0.620  0.00  0.00    +0.000 OA
ATOM      7  O   UNL     1      -3.932   1.844   1.372  0.00  0.00    +0.000 OA
ATOM      8  C   UNL     1       0.069  -0.381  -0.680  0.00  0.00    +0.000 C 
ATOM      9  C   UNL     1       1.088   0.503   0.114  0.00  0.00    +0.000 C 
ATOM     10  C   UNL     1      -0.885  -0.877   0.410  0.00  0.00    +0.000 C 
ATOM     11  C   UNL     1       0.834  -1.649  -1.098  0.00  0.00    +0.000 C 
ATOM     12  C   UNL     1       2.263  -0.471   0.416  0.00  0.00    +0.000 C 
ATOM     13  C   UNL     1      -2.310  -0.893  -0.184  0.00  0.00    +0.000 C 
ATOM     14  C   UNL     1      -0.853   0.288  -1.736  0.00  0.00    +0.000 C 
ATOM     15  C   UNL     1       0.290   0.920   1.336  0.00  0.00    +0.000 C 
ATOM     16  C   UNL     1       2.305  -1.317  -0.859  0.00  0.00    +0.000 C 
ATOM     17  C   UNL     1      -2.287   0.227  -1.202  0.00  0.00    +0.000 C 
ATOM     18  C   UNL     1       1.527   1.861  -0.431  0.00  0.00    +0.000 C 
ATOM     19  C   UNL     1      -0.415  -2.259   0.761  0.00  0.00    +0.000 C 
ATOM     20  C   UNL     1      -3.427  -0.457   0.761  0.00  0.00    +0.000 C 
ATOM     21  C   UNL     1       0.367   2.747  -0.068  0.00  0.00    +0.000 C 
ATOM     22  C   UNL     1      -3.383   1.047   0.625  0.00  0.00    +0.000 C 
ATOM     23  C   UNL     1      -4.819  -0.955   0.392  0.00  0.00    +0.000 C 
ENDROOT
BRANCH  12  24
ATOM     24  C   UNL     1       3.616   0.144   0.758  0.00  0.00    +0.000 C 
ATOM     25  C   UNL     1       4.663  -0.968   0.946  0.00  0.00    +0.000 C 
ATOM     26  C   UNL     1       4.069   1.075  -0.381  0.00  0.00    +0.000 C 
ATOM     27  C   UNL     1       3.507   0.958   2.060  0.00  0.00    +0.000 C 
ENDBRANCH  12  24
BRANCH  13  28
ATOM     28  O   UNL     1      -2.588  -2.101  -0.876  0.00  0.00    +0.000 OA
ATOM     29  H   UNL     1      -2.738  -2.796  -0.213  0.00  0.00    +0.000 HD
ENDBRANCH  13  28
BRANCH  14  30
ATOM     30  O   UNL     1      -0.798  -0.416  -2.973  0.00  0.00    +0.000 OA
ATOM     31  H   UNL     1      -1.381   0.044  -3.600  0.00  0.00    +0.000 HD
ENDBRANCH  14  30
BRANCH  16  32
ATOM     32  O   UNL     1       3.081  -2.492  -0.718  0.00  0.00    +0.000 OA
ATOM     33  H   UNL     1       2.696  -3.019   0.003  0.00  0.00    +0.000 HD
ENDBRANCH  16  32
BRANCH  18  34
ATOM     34  O   UNL     1       1.934   1.888  -1.770  0.00  0.00    +0.000 OA
ATOM     35  H   UNL     1       1.408   1.263  -2.290  0.00  0.00    +0.000 HD
ENDBRANCH  18  34
TORSDOF 5
