REMARK  Name = 443936
REMARK  13 active torsions:
REMARK  status: ('A' for Active; 'I' for Inactive)
REMARK    1  A    between atoms: O_3  and  C_14
REMARK    2  A    between atoms: O_3  and  C_30
REMARK    3  A    between atoms: O_4  and  C_17
REMARK    4  A    between atoms: O_6  and  C_28
REMARK    5  A    between atoms: O_6  and  C_34
REMARK    6  A    between atoms: C_10  and  C_21
REMARK    7  A    between atoms: C_14  and  C_24
REMARK    8  A    between atoms: C_18  and  C_25
REMARK    9  A    between atoms: C_24  and  C_28
REMARK   10  A    between atoms: C_30  and  C_32
REMARK   11  A    between atoms: C_32  and  C_33
REMARK   12  A    between atoms: C_33  and  C_35
REMARK   13  A    between atoms: C_34  and  C_36
REMARK                            x       y       z     vdW  Elec       q    Type
REMARK                         _______ _______ _______ _____ _____    ______ ____
ROOT
ATOM      1  F   UNL     1      -2.115  -0.060  -1.174  0.00  0.00    +0.000 F 
ATOM      2  F   UNL     1      -5.046  -2.534   0.824  0.00  0.00    +0.000 F 
ATOM      3  O   UNL     1      -6.725   0.525  -2.623  0.00  0.00    +0.000 OA
ATOM      4  C   UNL     1       0.643  -0.020   1.010  0.00  0.00    +0.000 C 
ATOM      5  C   UNL     1      -0.403  -1.139   0.815  0.00  0.00    +0.000 C 
ATOM      6  C   UNL     1      -1.844  -0.679   1.082  0.00  0.00    +0.000 C 
ATOM      7  C   UNL     1      -2.204   0.487   0.098  0.00  0.00    +0.000 C 
ATOM      8  C   UNL     1       1.939  -0.834   0.740  0.00  0.00    +0.000 C 
ATOM      9  C   UNL     1       0.319   1.094  -0.004  0.00  0.00    +0.000 C 
ATOM     10  C   UNL     1       0.162  -2.299   1.631  0.00  0.00    +0.000 C 
ATOM     11  C   UNL     1      -1.131   1.617   0.103  0.00  0.00    +0.000 C 
ATOM     12  C   UNL     1      -3.708   0.946   0.255  0.00  0.00    +0.000 C 
ATOM     13  C   UNL     1       1.689  -2.188   1.441  0.00  0.00    +0.000 C 
ATOM     14  C   UNL     1      -2.818  -1.858   0.923  0.00  0.00    +0.000 C 
ATOM     15  C   UNL     1       0.674   0.548   2.455  0.00  0.00    +0.000 C 
ATOM     16  C   UNL     1      -4.273  -1.434   1.061  0.00  0.00    +0.000 C 
ATOM     17  C   UNL     1      -4.587  -0.305   0.110  0.00  0.00    +0.000 C 
ATOM     18  C   UNL     1      -4.027   1.602   1.618  0.00  0.00    +0.000 C 
ATOM     19  C   UNL     1      -4.050   1.986  -0.802  0.00  0.00    +0.000 C 
ATOM     20  C   UNL     1      -5.550  -0.431  -0.817  0.00  0.00    +0.000 C 
ATOM     21  C   UNL     1      -5.007   1.863  -1.727  0.00  0.00    +0.000 C 
ATOM     22  C   UNL     1      -5.834   0.644  -1.788  0.00  0.00    +0.000 C 
ENDROOT
BRANCH  11  23
ATOM     23  O   UNL     1      -1.257   2.447   1.247  0.00  0.00    +0.000 OA
ATOM     24  H   UNL     1      -1.711   3.262   0.972  0.00  0.00    +0.000 HD
ENDBRANCH  11  23
BRANCH   8  26
ATOM     25  O   UNL     1       3.934  -0.681   2.034  0.00  0.00    +0.000 OA
ATOM     26  C   UNL     1       3.203  -0.165   1.190  0.00  0.00    +0.000 C 
BRANCH  26  27
ATOM     27  C   UNL     1       3.519   1.169   0.549  0.00  0.00    +0.000 C 
BRANCH  27  28
ATOM     28  O   UNL     1       4.915   1.365   0.469  0.00  0.00    +0.000 OA
BRANCH  28  30
ATOM     29  O   UNL     1       4.598   3.425  -0.529  0.00  0.00    +0.000 OA
ATOM     30  C   UNL     1       5.330   2.545  -0.096  0.00  0.00    +0.000 C 
ATOM     31  C   UNL     1       6.827   2.615  -0.113  0.00  0.00    +0.000 C 
ENDBRANCH  28  30
ENDBRANCH  27  28
ENDBRANCH  26  27
ENDBRANCH   8  26
BRANCH   8  32
ATOM     32  O   UNL     1       2.132  -1.052  -0.654  0.00  0.00    +0.000 OA
BRANCH  32  34
ATOM     33  O   UNL     1       3.983  -2.353  -0.204  0.00  0.00    +0.000 OA
ATOM     34  C   UNL     1       3.201  -1.837  -0.991  0.00  0.00    +0.000 C 
BRANCH  34  35
ATOM     35  C   UNL     1       3.265  -1.968  -2.496  0.00  0.00    +0.000 C 
BRANCH  35  36
ATOM     36  C   UNL     1       4.699  -2.125  -2.995  0.00  0.00    +0.000 C 
ATOM     37  C   UNL     1       5.548  -0.915  -2.642  0.00  0.00    +0.000 C 
ENDBRANCH  35  36
ENDBRANCH  34  35
ENDBRANCH  32  34
ENDBRANCH   8  32
TORSDOF 9
