REMARK  Name = 4369270
REMARK  5 active torsions:
REMARK  status: ('A' for Active; 'I' for Inactive)
REMARK    1  A    between atoms: O_1  and  C_5
REMARK    2  A    between atoms: O_2  and  C_23
REMARK    3  A    between atoms: C_8  and  C_19
REMARK    4  A    between atoms: C_9  and  C_21
REMARK    5  A    between atoms: C_13  and  C_24
REMARK                            x       y       z     vdW  Elec       q    Type
REMARK                         _______ _______ _______ _____ _____    ______ ____
ROOT
ATOM      1  C   UNL     1      -0.313  -1.730   0.203  0.00  0.00    +0.000 C 
ATOM      2  C   UNL     1       1.137  -1.468  -0.318  0.00  0.00    +0.000 C 
ATOM      3  C   UNL     1       1.435   0.046  -0.497  0.00  0.00    +0.000 C 
ATOM      4  C   UNL     1      -1.420  -0.917  -0.574  0.00  0.00    +0.000 C 
ATOM      5  C   UNL     1       2.920   0.343  -0.942  0.00  0.00    +0.000 C 
ATOM      6  C   UNL     1       3.918  -0.363   0.029  0.00  0.00    +0.000 C 
ATOM      7  C   UNL     1       0.383   0.743  -1.390  0.00  0.00    +0.000 C 
ATOM      8  C   UNL     1      -0.827  -0.115  -1.748  0.00  0.00    +0.000 C 
ATOM      9  C   UNL     1      -2.020   0.023   0.519  0.00  0.00    +0.000 C 
ATOM     10  C   UNL     1       2.195  -2.171   0.561  0.00  0.00    +0.000 C 
ATOM     11  C   UNL     1      -0.521  -1.381   1.698  0.00  0.00    +0.000 C 
ATOM     12  C   UNL     1       3.629  -1.867   0.144  0.00  0.00    +0.000 C 
ATOM     13  C   UNL     1      -1.930  -0.814   1.790  0.00  0.00    +0.000 C 
ATOM     14  C   UNL     1       3.227   1.869  -0.950  0.00  0.00    +0.000 C 
ATOM     15  C   UNL     1      -2.510  -1.846  -1.172  0.00  0.00    +0.000 C 
ATOM     16  C   UNL     1       3.961   0.290   1.429  0.00  0.00    +0.000 C 
ATOM     17  C   UNL     1       3.183  -0.169  -2.385  0.00  0.00    +0.000 C 
ATOM     18  C   UNL     1       3.260   2.511   0.436  0.00  0.00    +0.000 C 
ATOM     19  C   UNL     1       4.214   1.796   1.386  0.00  0.00    +0.000 C 
ENDROOT
BRANCH   9  22
ATOM     20  O   UNL     1      -5.075   1.732  -0.752  0.00  0.00    +0.000 OA
ATOM     21  O   UNL     1      -6.723   1.121   0.733  0.00  0.00    +0.000 OA
ATOM     22  C   UNL     1      -3.390   0.564   0.268  0.00  0.00    +0.000 C 
ATOM     23  C   UNL     1      -3.677   1.450  -0.879  0.00  0.00    +0.000 C 
ATOM     24  C   UNL     1      -4.485   0.344   0.991  0.00  0.00    +0.000 C 
ATOM     25  C   UNL     1      -5.567   1.088   0.346  0.00  0.00    +0.000 C 
ENDBRANCH   9  22
BRANCH   1  26
ATOM     26  O   UNL     1      -0.569  -3.136   0.056  0.00  0.00    +0.000 OA
ATOM     27  H   UNL     1      -0.034  -3.620   0.706  0.00  0.00    +0.000 HD
ENDBRANCH   1  26
BRANCH  19  28
ATOM     28  O   UNL     1       5.566   2.057   1.018  0.00  0.00    +0.000 OA
ATOM     29  H   UNL     1       5.693   3.021   1.030  0.00  0.00    +0.000 HD
ENDBRANCH  19  28
TORSDOF 3
