REMARK  Name = 11302
REMARK  3 active torsions:
REMARK  status: ('A' for Active; 'I' for Inactive)
REMARK    1  A    between atoms: O_1  and  C_13
REMARK    2  A    between atoms: C_6  and  C_17
REMARK    3  A    between atoms: C_7  and  C_18
REMARK                            x       y       z     vdW  Elec       q    Type
REMARK                         _______ _______ _______ _____ _____    ______ ____
ROOT
ATOM      1  O   UNL     1       4.942  -0.132  -1.708  0.00  0.00    +0.000 OA
ATOM      2  C   UNL     1      -0.502   0.823   0.449  0.00  0.00    +0.000 C 
ATOM      3  C   UNL     1       0.393  -0.428   0.168  0.00  0.00    +0.000 C 
ATOM      4  C   UNL     1      -1.784   0.704  -0.383  0.00  0.00    +0.000 C 
ATOM      5  C   UNL     1      -2.597  -0.560  -0.043  0.00  0.00    +0.000 C 
ATOM      6  C   UNL     1       1.754  -0.362   0.954  0.00  0.00    +0.000 C 
ATOM      7  C   UNL     1       2.485   0.982   0.617  0.00  0.00    +0.000 C 
ATOM      8  C   UNL     1      -0.390  -1.755   0.358  0.00  0.00    +0.000 C 
ATOM      9  C   UNL     1      -1.738  -1.784  -0.384  0.00  0.00    +0.000 C 
ATOM     10  C   UNL     1       0.247   2.127   0.143  0.00  0.00    +0.000 C 
ATOM     11  C   UNL     1      -2.820   1.823  -0.317  0.00  0.00    +0.000 C 
ATOM     12  C   UNL     1      -3.804  -0.338  -0.975  0.00  0.00    +0.000 C 
ATOM     13  C   UNL     1       1.589   2.207   0.866  0.00  0.00    +0.000 C 
ATOM     14  C   UNL     1      -4.111   1.166  -0.837  0.00  0.00    +0.000 C 
ATOM     15  C   UNL     1       2.712  -1.538   0.602  0.00  0.00    +0.000 C 
ATOM     16  C   UNL     1      -3.066  -0.653   1.432  0.00  0.00    +0.000 C 
ATOM     17  C   UNL     1       1.520  -0.449   2.485  0.00  0.00    +0.000 C 
ATOM     18  C   UNL     1       3.042   1.024  -0.819  0.00  0.00    +0.000 C 
ATOM     19  C   UNL     1       3.209  -1.533  -0.835  0.00  0.00    +0.000 C 
ATOM     20  C   UNL     1       3.855  -0.206  -1.138  0.00  0.00    +0.000 C 
ENDROOT
BRANCH  12  21
ATOM     21  O   UNL     1      -4.936  -1.117  -0.639  0.00  0.00    +0.000 OA
ATOM     22  H   UNL     1      -5.311  -0.785   0.195  0.00  0.00    +0.000 HD
ENDBRANCH  12  21
TORSDOF 1
