REMARK  Name = 42627296
REMARK  6 active torsions:
REMARK  status: ('A' for Active; 'I' for Inactive)
REMARK    1  A    between atoms: O_1  and  C_7
REMARK    2  A    between atoms: O_2  and  C_20
REMARK    3  A    between atoms: C_3  and  C_13
REMARK    4  A    between atoms: C_19  and  C_21
REMARK    5  A    between atoms: C_22  and  C_23
REMARK    6  A    between atoms: C_23  and  C_24
REMARK                            x       y       z     vdW  Elec       q    Type
REMARK                         _______ _______ _______ _____ _____    ______ ____
ROOT
ATOM      1  C   UNL     1       3.276   0.835  -0.019  0.00  0.00    +0.000 C 
ATOM      2  C   UNL     1       2.956  -0.661  -0.213  0.00  0.00    +0.000 C 
ATOM      3  C   UNL     1       1.520  -1.001   0.187  0.00  0.00    +0.000 C 
ATOM      4  C   UNL     1       0.545  -0.195  -0.724  0.00  0.00    +0.000 C 
ATOM      5  C   UNL     1       4.760   0.827  -0.432  0.00  0.00    +0.000 C 
ATOM      6  C   UNL     1       2.354   1.643  -0.940  0.00  0.00    +0.000 C 
ATOM      7  C   UNL     1       4.114  -1.366   0.487  0.00  0.00    +0.000 C 
ATOM      8  C   UNL     1       0.868   1.323  -0.688  0.00  0.00    +0.000 C 
ATOM      9  C   UNL     1       5.323  -0.450   0.222  0.00  0.00    +0.000 C 
ATOM     10  C   UNL     1       1.210  -2.492   0.051  0.00  0.00    +0.000 C 
ATOM     11  C   UNL     1       3.124   1.348   1.436  0.00  0.00    +0.000 C 
ATOM     12  C   UNL     1      -0.909  -0.554  -0.432  0.00  0.00    +0.000 A 
ATOM     13  C   UNL     1      -0.185  -2.783   0.598  0.00  0.00    +0.000 C 
ATOM     14  C   UNL     1      -1.237  -1.797   0.153  0.00  0.00    +0.000 A 
ATOM     15  C   UNL     1      -1.960   0.297  -0.816  0.00  0.00    +0.000 A 
ATOM     16  C   UNL     1      -2.584  -2.128   0.385  0.00  0.00    +0.000 A 
ATOM     17  C   UNL     1      -3.294  -0.048  -0.588  0.00  0.00    +0.000 A 
ATOM     18  C   UNL     1      -3.606  -1.259   0.017  0.00  0.00    +0.000 A 
ENDROOT
BRANCH   5  19
ATOM     19  O   UNL     1       5.478   1.970  -0.008  0.00  0.00    +0.000 OA
ATOM     20  H   UNL     1       6.411   1.833  -0.244  0.00  0.00    +0.000 HD
ENDBRANCH   5  19
BRANCH  18  21
ATOM     21  O   UNL     1      -4.898  -1.621   0.256  0.00  0.00    +0.000 OA
ATOM     22  H   UNL     1      -4.911  -2.495   0.682  0.00  0.00    +0.000 HD
ENDBRANCH  18  21
BRANCH  17  23
ATOM     23  C   UNL     1      -4.343   0.877  -0.999  0.00  0.00    +0.000 C 
ATOM     24  C   UNL     1      -4.853   1.875  -0.245  0.00  0.00    +0.000 C 
BRANCH  24  25
ATOM     25  C   UNL     1      -4.403   2.182   1.154  0.00  0.00    +0.000 C 
ATOM     26  C   UNL     1      -3.256   3.180   1.161  0.00  0.00    +0.000 C 
ENDBRANCH  24  25
ENDBRANCH  17  23
TORSDOF 4
