REMARK  Name = 11794741
REMARK  7 active torsions:
REMARK  status: ('A' for Active; 'I' for Inactive)
REMARK    1  A    between atoms: O_2  and  C_12
REMARK    2  A    between atoms: O_3  and  C_13
REMARK    3  A    between atoms: O_5  and  C_27
REMARK    4  A    between atoms: C_7  and  C_18
REMARK    5  A    between atoms: C_12  and  C_22
REMARK    6  A    between atoms: C_14  and  C_21
REMARK    7  A    between atoms: C_22  and  C_27
REMARK                            x       y       z     vdW  Elec       q    Type
REMARK                         _______ _______ _______ _____ _____    ______ ____
ROOT
ATOM      1  F   UNL     1      -1.374   0.163  -1.289  0.00  0.00    +0.000 F 
ATOM      2  O   UNL     1      -6.248   0.182  -1.560  0.00  0.00    +0.000 OA
ATOM      3  C   UNL     1       1.800   0.149   0.226  0.00  0.00    +0.000 C 
ATOM      4  C   UNL     1       0.884  -1.061  -0.088  0.00  0.00    +0.000 C 
ATOM      5  C   UNL     1      -0.498  -0.973   0.579  0.00  0.00    +0.000 C 
ATOM      6  C   UNL     1      -1.228   0.321   0.080  0.00  0.00    +0.000 C 
ATOM      7  C   UNL     1       1.094   1.407  -0.319  0.00  0.00    +0.000 C 
ATOM      8  C   UNL     1       3.093  -0.294  -0.529  0.00  0.00    +0.000 C 
ATOM      9  C   UNL     1      -0.340   1.593   0.231  0.00  0.00    +0.000 C 
ATOM     10  C   UNL     1      -2.697   0.430   0.653  0.00  0.00    +0.000 C 
ATOM     11  C   UNL     1       1.769  -2.271   0.215  0.00  0.00    +0.000 C 
ATOM     12  C   UNL     1      -1.324  -2.234   0.266  0.00  0.00    +0.000 C 
ATOM     13  C   UNL     1       3.131  -1.789  -0.245  0.00  0.00    +0.000 C 
ATOM     14  C   UNL     1       2.098   0.310   1.745  0.00  0.00    +0.000 C 
ATOM     15  C   UNL     1      -2.744  -2.144   0.814  0.00  0.00    +0.000 C 
ATOM     16  C   UNL     1      -3.415  -0.885   0.327  0.00  0.00    +0.000 C 
ATOM     17  C   UNL     1      -2.763   0.642   2.183  0.00  0.00    +0.000 C 
ATOM     18  C   UNL     1      -3.416   1.618   0.031  0.00  0.00    +0.000 C 
ATOM     19  C   UNL     1      -4.551  -0.958  -0.385  0.00  0.00    +0.000 C 
ATOM     20  C   UNL     1       4.192  -2.596  -0.373  0.00  0.00    +0.000 C 
ATOM     21  C   UNL     1      -4.546   1.551  -0.680  0.00  0.00    +0.000 C 
ATOM     22  C   UNL     1      -5.201   0.254  -0.924  0.00  0.00    +0.000 C 
ENDROOT
BRANCH   8  23
ATOM     23  O   UNL     1       2.962  -0.089  -1.930  0.00  0.00    +0.000 OA
ATOM     24  H   UNL     1       3.705  -0.531  -2.376  0.00  0.00    +0.000 HD
ENDBRANCH   8  23
BRANCH   9  25
ATOM     25  O   UNL     1      -0.286   2.040   1.576  0.00  0.00    +0.000 OA
ATOM     26  H   UNL     1      -0.861   2.820   1.650  0.00  0.00    +0.000 HD
ENDBRANCH   9  25
BRANCH   8  28
ATOM     27  O   UNL     1       5.272  -0.139   0.436  0.00  0.00    +0.000 OA
ATOM     28  C   UNL     1       4.330   0.446  -0.097  0.00  0.00    +0.000 C 
BRANCH  28  29
ATOM     29  C   UNL     1       4.344   1.938  -0.357  0.00  0.00    +0.000 C 
BRANCH  29  30
ATOM     30  O   UNL     1       5.661   2.392  -0.586  0.00  0.00    +0.000 OA
ATOM     31  H   UNL     1       6.160   2.268   0.239  0.00  0.00    +0.000 HD
ENDBRANCH  29  30
ENDBRANCH  28  29
ENDBRANCH   8  28
TORSDOF 5
