REMARK  Name = 9053
REMARK  7 active torsions:
REMARK  status: ('A' for Active; 'I' for Inactive)
REMARK    1  A    between atoms: O_2  and  C_14
REMARK    2  A    between atoms: O_4  and  C_25
REMARK    3  A    between atoms: C_6  and  C_17
REMARK    4  A    between atoms: C_10  and  C_20
REMARK    5  A    between atoms: C_13  and  C_21
REMARK    6  A    between atoms: C_15  and  C_22
REMARK    7  A    between atoms: C_20  and  C_25
REMARK                            x       y       z     vdW  Elec       q    Type
REMARK                         _______ _______ _______ _____ _____    ______ ____
ROOT
ATOM      1  F   UNL     1       3.358  -2.967  -0.434  0.00  0.00    +0.000 F 
ATOM      2  O   UNL     1       5.963   0.555   1.768  0.00  0.00    +0.000 OA
ATOM      3  C   UNL     1      -2.011   0.163  -0.183  0.00  0.00    +0.000 C 
ATOM      4  C   UNL     1      -1.041  -0.999   0.107  0.00  0.00    +0.000 C 
ATOM      5  C   UNL     1       0.334  -0.823  -0.551  0.00  0.00    +0.000 C 
ATOM      6  C   UNL     1       0.991   0.491   0.003  0.00  0.00    +0.000 C 
ATOM      7  C   UNL     1      -3.248  -0.354   0.592  0.00  0.00    +0.000 C 
ATOM      8  C   UNL     1      -1.866  -2.244  -0.207  0.00  0.00    +0.000 C 
ATOM      9  C   UNL     1      -1.392   1.448   0.394  0.00  0.00    +0.000 C 
ATOM     10  C   UNL     1      -3.294  -1.871   0.260  0.00  0.00    +0.000 C 
ATOM     11  C   UNL     1       0.035   1.720  -0.132  0.00  0.00    +0.000 C 
ATOM     12  C   UNL     1       2.464   0.695  -0.533  0.00  0.00    +0.000 C 
ATOM     13  C   UNL     1       1.224  -2.045  -0.276  0.00  0.00    +0.000 C 
ATOM     14  C   UNL     1      -2.346   0.339  -1.688  0.00  0.00    +0.000 C 
ATOM     15  C   UNL     1       2.643  -1.860  -0.792  0.00  0.00    +0.000 C 
ATOM     16  C   UNL     1       3.243  -0.594  -0.235  0.00  0.00    +0.000 C 
ATOM     17  C   UNL     1      -3.737  -2.696   1.465  0.00  0.00    +0.000 C 
ATOM     18  C   UNL     1       2.548   0.967  -2.052  0.00  0.00    +0.000 C 
ATOM     19  C   UNL     1       3.103   1.896   0.149  0.00  0.00    +0.000 C 
ATOM     20  C   UNL     1       4.362  -0.629   0.506  0.00  0.00    +0.000 C 
ATOM     21  C   UNL     1       4.216   1.864   0.888  0.00  0.00    +0.000 C 
ATOM     22  C   UNL     1       4.932   0.595   1.106  0.00  0.00    +0.000 C 
ENDROOT
BRANCH  11  23
ATOM     23  O   UNL     1      -0.033   2.172  -1.477  0.00  0.00    +0.000 OA
ATOM     24  H   UNL     1      -0.593   2.967  -1.496  0.00  0.00    +0.000 HD
ENDBRANCH  11  23
BRANCH   7  26
ATOM     25  O   UNL     1      -5.477  -0.261  -0.244  0.00  0.00    +0.000 OA
ATOM     26  C   UNL     1      -4.524   0.349   0.239  0.00  0.00    +0.000 C 
BRANCH  26  27
ATOM     27  C   UNL     1      -4.567   1.838   0.510  0.00  0.00    +0.000 C 
BRANCH  27  28
ATOM     28  O   UNL     1      -5.881   2.251   0.818  0.00  0.00    +0.000 OA
ATOM     29  H   UNL     1      -5.852   3.209   0.981  0.00  0.00    +0.000 HD
ENDBRANCH  27  28
ENDBRANCH  26  27
ENDBRANCH   7  26
TORSDOF 4
