REMARK  Name = 20054914
REMARK  7 active torsions:
REMARK  status: ('A' for Active; 'I' for Inactive)
REMARK    1  A    between atoms: O_7  and  C_27
REMARK    2  A    between atoms: C_9  and  C_20
REMARK    3  A    between atoms: C_12  and  C_23
REMARK    4  A    between atoms: C_18  and  C_25
REMARK    5  A    between atoms: C_21  and  C_28
REMARK    6  A    between atoms: C_21  and  C_29
REMARK    7  A    between atoms: C_23  and  C_27
REMARK                            x       y       z     vdW  Elec       q    Type
REMARK                         _______ _______ _______ _____ _____    ______ ____
ROOT
ATOM      1 CL   UNL     1       1.496   0.388  -1.696  0.00  0.00    +0.000 Cl
ATOM      2 CL   UNL     1       0.737  -3.243   0.670  0.00  0.00    +0.000 Cl
ATOM      3  F   UNL     1       3.636   2.610   1.648  0.00  0.00    +0.000 F 
ATOM      4  O   UNL     1      -2.952   0.519  -1.176  0.00  0.00    +0.000 OA
ATOM      5  O   UNL     1      -3.476   2.283   0.287  0.00  0.00    +0.000 OA
ATOM      6  O   UNL     1       6.376   0.515  -1.848  0.00  0.00    +0.000 OA
ATOM      7  C   UNL     1      -1.533  -0.673   0.474  0.00  0.00    +0.000 C 
ATOM      8  C   UNL     1      -0.668   0.597   0.631  0.00  0.00    +0.000 C 
ATOM      9  C   UNL     1       0.794   0.303   1.008  0.00  0.00    +0.000 C 
ATOM     10  C   UNL     1      -2.899  -0.011   0.146  0.00  0.00    +0.000 C 
ATOM     11  C   UNL     1       1.487  -0.601  -0.093  0.00  0.00    +0.000 C 
ATOM     12  C   UNL     1      -2.967   1.208   1.073  0.00  0.00    +0.000 C 
ATOM     13  C   UNL     1      -1.519   1.498   1.530  0.00  0.00    +0.000 C 
ATOM     14  C   UNL     1      -0.912  -1.530  -0.651  0.00  0.00    +0.000 C 
ATOM     15  C   UNL     1       0.598  -1.857  -0.455  0.00  0.00    +0.000 C 
ATOM     16  C   UNL     1       3.028  -0.851   0.266  0.00  0.00    +0.000 C 
ATOM     17  C   UNL     1       1.565   1.613   1.265  0.00  0.00    +0.000 C 
ATOM     18  C   UNL     1      -1.676  -1.480   1.794  0.00  0.00    +0.000 C 
ATOM     19  C   UNL     1      -3.486   1.842  -1.072  0.00  0.00    +0.000 C 
ATOM     20  C   UNL     1       3.043   1.383   1.558  0.00  0.00    +0.000 C 
ATOM     21  C   UNL     1       3.691   0.519   0.503  0.00  0.00    +0.000 C 
ATOM     22  C   UNL     1       3.282  -1.664   1.562  0.00  0.00    +0.000 C 
ATOM     23  C   UNL     1       3.729  -1.627  -0.841  0.00  0.00    +0.000 C 
ATOM     24  C   UNL     1      -4.922   1.838  -1.584  0.00  0.00    +0.000 C 
ATOM     25  C   UNL     1      -2.631   2.798  -1.900  0.00  0.00    +0.000 C 
ATOM     26  C   UNL     1       4.764   0.947  -0.182  0.00  0.00    +0.000 C 
ATOM     27  C   UNL     1       4.798  -1.201  -1.521  0.00  0.00    +0.000 C 
ATOM     28  C   UNL     1       5.392   0.117  -1.232  0.00  0.00    +0.000 C 
ENDROOT
BRANCH  10  30
ATOM     29  O   UNL     1      -4.685  -1.067   1.320  0.00  0.00    +0.000 OA
ATOM     30  C   UNL     1      -4.072  -0.941   0.261  0.00  0.00    +0.000 C 
BRANCH  30  31
ATOM     31  C   UNL     1      -4.449  -1.704  -0.991  0.00  0.00    +0.000 C 
BRANCH  31  32
ATOM     32  O   UNL     1      -5.569  -2.529  -0.754  0.00  0.00    +0.000 OA
ATOM     33  H   UNL     1      -5.750  -3.014  -1.577  0.00  0.00    +0.000 HD
ENDBRANCH  31  32
ENDBRANCH  30  31
ENDBRANCH  10  30
TORSDOF 3
