REMARK  Name = 10577938
REMARK  13 active torsions:
REMARK  status: ('A' for Active; 'I' for Inactive)
REMARK    1  A    between atoms: O_1  and  C_16
REMARK    2  A    between atoms: O_1  and  C_28
REMARK    3  A    between atoms: O_2  and  C_18
REMARK    4  A    between atoms: O_2  and  C_29
REMARK    5  A    between atoms: O_3  and  C_21
REMARK    6  A    between atoms: O_3  and  C_30
REMARK    7  A    between atoms: C_8  and  C_12
REMARK    8  A    between atoms: C_8  and  C_13
REMARK    9  A    between atoms: C_20  and  C_25
REMARK   10  A    between atoms: C_22  and  C_26
REMARK   11  A    between atoms: C_28  and  C_31
REMARK   12  A    between atoms: C_29  and  C_32
REMARK   13  A    between atoms: C_30  and  C_33
REMARK                            x       y       z     vdW  Elec       q    Type
REMARK                         _______ _______ _______ _____ _____    ______ ____
ROOT
ATOM      1  O   UNL     1      -1.073  -3.043   0.903  0.00  0.00    +0.000 OA
ATOM      2  C   UNL     1      -5.751  -0.437   0.110  0.00  0.00    +0.000 C 
ATOM      3  C   UNL     1      -5.016   0.440  -0.868  0.00  0.00    +0.000 C 
ATOM      4  C   UNL     1      -4.670  -1.035  -0.753  0.00  0.00    +0.000 C 
ATOM      5  C   UNL     1      -4.136   1.541  -0.337  0.00  0.00    +0.000 C 
ATOM      6  C   UNL     1      -5.552  -0.262   1.580  0.00  0.00    +0.000 C 
ATOM      7  C   UNL     1      -7.161  -0.789  -0.235  0.00  0.00    +0.000 C 
ATOM      8  C   UNL     1      -3.386  -1.431  -0.155  0.00  0.00    +0.000 C 
ATOM      9  C   UNL     1      -0.277   0.201  -0.785  0.00  0.00    +0.000 C 
ATOM     10  C   UNL     1       0.062  -1.163  -0.124  0.00  0.00    +0.000 C 
ATOM     11  C   UNL     1      -2.997   1.878  -1.311  0.00  0.00    +0.000 C 
ATOM     12  C   UNL     1       1.054   0.611  -1.444  0.00  0.00    +0.000 C 
ATOM     13  C   UNL     1       1.162  -1.780  -1.016  0.00  0.00    +0.000 C 
ATOM     14  C   UNL     1       1.500  -0.715  -2.077  0.00  0.00    +0.000 C 
ATOM     15  C   UNL     1      -0.947   1.236   0.152  0.00  0.00    +0.000 C 
ATOM     16  C   UNL     1      -2.332  -1.990  -0.777  0.00  0.00    +0.000 C 
ATOM     17  C   UNL     1      -1.711   2.309  -0.622  0.00  0.00    +0.000 C 
ATOM     18  C   UNL     1      -1.114  -2.137   0.069  0.00  0.00    +0.000 C 
ATOM     19  C   UNL     1       2.959  -0.755  -2.506  0.00  0.00    +0.000 C 
ATOM     20  C   UNL     1      -2.247  -2.428  -2.202  0.00  0.00    +0.000 C 
ATOM     21  C   UNL     1      -1.297   3.584  -0.722  0.00  0.00    +0.000 C 
ENDROOT
BRANCH  10  22
ATOM     22  O   UNL     1       0.630  -0.985   1.173  0.00  0.00    +0.000 OA
BRANCH  22  24
ATOM     23  O   UNL     1       1.554  -3.102   1.205  0.00  0.00    +0.000 OA
ATOM     24  C   UNL     1       1.099  -2.118   1.773  0.00  0.00    +0.000 C 
ATOM     25  C   UNL     1       0.978  -1.989   3.261  0.00  0.00    +0.000 C 
ENDBRANCH  22  24
ENDBRANCH  10  22
BRANCH  12  26
ATOM     26  O   UNL     1       2.017   1.096  -0.521  0.00  0.00    +0.000 OA
BRANCH  26  28
ATOM     27  O   UNL     1       3.472   2.221  -1.905  0.00  0.00    +0.000 OA
ATOM     28  C   UNL     1       3.243   1.396  -1.034  0.00  0.00    +0.000 C 
BRANCH  28  29
ATOM     29  C   UNL     1       4.300   0.576  -0.391  0.00  0.00    +0.000 A 
ATOM     30  C   UNL     1       5.611   0.745  -0.789  0.00  0.00    +0.000 A 
ATOM     31  C   UNL     1       3.940  -0.331   0.585  0.00  0.00    +0.000 A 
ATOM     32  C   UNL     1       6.604  -0.025  -0.185  0.00  0.00    +0.000 A 
ATOM     33  C   UNL     1       4.933  -1.101   1.189  0.00  0.00    +0.000 A 
ATOM     34  C   UNL     1       6.265  -0.949   0.804  0.00  0.00    +0.000 A 
ENDBRANCH  28  29
ENDBRANCH  26  28
ENDBRANCH  12  26
BRANCH  15  35
ATOM     35  O   UNL     1      -0.008   1.849   1.035  0.00  0.00    +0.000 OA
BRANCH  35  37
ATOM     36  O   UNL     1      -1.726   2.948   2.120  0.00  0.00    +0.000 OA
ATOM     37  C   UNL     1      -0.540   2.684   1.974  0.00  0.00    +0.000 C 
ATOM     38  C   UNL     1       0.556   3.251   2.825  0.00  0.00    +0.000 C 
ENDBRANCH  35  37
ENDBRANCH  15  35
TORSDOF 7
