REMARK  Name = 27125
REMARK  5 active torsions:
REMARK  status: ('A' for Active; 'I' for Inactive)
REMARK    1  A    between atoms: O_1  and  C_9
REMARK    2  A    between atoms: O_2  and  C_10
REMARK    3  A    between atoms: O_3  and  C_12
REMARK    4  A    between atoms: O_4  and  C_22
REMARK    5  A    between atoms: C_5  and  C_15
REMARK                            x       y       z     vdW  Elec       q    Type
REMARK                         _______ _______ _______ _____ _____    ______ ____
ROOT
ATOM      1  C   UNL     1      -2.219  -1.004   0.223  0.00  0.00    +0.000 C 
ATOM      2  C   UNL     1      -1.674   0.378  -0.202  0.00  0.00    +0.000 C 
ATOM      3  C   UNL     1      -0.199   0.550   0.186  0.00  0.00    +0.000 C 
ATOM      4  C   UNL     1       0.641  -0.534  -0.558  0.00  0.00    +0.000 C 
ATOM      5  C   UNL     1      -3.682  -0.849  -0.234  0.00  0.00    +0.000 C 
ATOM      6  C   UNL     1      -2.724   1.349   0.349  0.00  0.00    +0.000 C 
ATOM      7  C   UNL     1      -1.430  -2.082  -0.529  0.00  0.00    +0.000 C 
ATOM      8  C   UNL     1      -4.062   0.588   0.186  0.00  0.00    +0.000 C 
ATOM      9  C   UNL     1       0.085  -1.958  -0.288  0.00  0.00    +0.000 C 
ATOM     10  C   UNL     1       0.359   1.933  -0.157  0.00  0.00    +0.000 C 
ATOM     11  C   UNL     1      -2.156  -1.291   1.745  0.00  0.00    +0.000 C 
ATOM     12  C   UNL     1       2.135  -0.370  -0.291  0.00  0.00    +0.000 A 
ATOM     13  C   UNL     1       1.780   2.072   0.382  0.00  0.00    +0.000 C 
ATOM     14  C   UNL     1       2.659   0.877   0.112  0.00  0.00    +0.000 A 
ATOM     15  C   UNL     1       3.037  -1.424  -0.525  0.00  0.00    +0.000 A 
ATOM     16  C   UNL     1       4.042   1.022   0.323  0.00  0.00    +0.000 A 
ATOM     17  C   UNL     1       4.409  -1.265  -0.321  0.00  0.00    +0.000 A 
ATOM     18  C   UNL     1       4.912  -0.043   0.108  0.00  0.00    +0.000 A 
ENDROOT
BRANCH   5  19
ATOM     19  O   UNL     1      -4.562  -1.789   0.357  0.00  0.00    +0.000 OA
ATOM     20  H   UNL     1      -4.662  -1.579   1.300  0.00  0.00    +0.000 HD
ENDBRANCH   5  19
BRANCH   6  21
ATOM     21  O   UNL     1      -2.712   2.577  -0.355  0.00  0.00    +0.000 OA
ATOM     22  H   UNL     1      -2.910   2.390  -1.288  0.00  0.00    +0.000 HD
ENDBRANCH   6  21
BRANCH   8  23
ATOM     23  O   UNL     1      -4.888   1.149  -0.824  0.00  0.00    +0.000 OA
ATOM     24  H   UNL     1      -5.064   2.072  -0.574  0.00  0.00    +0.000 HD
ENDBRANCH   8  23
BRANCH  18  25
ATOM     25  O   UNL     1       6.248   0.113   0.311  0.00  0.00    +0.000 OA
ATOM     26  H   UNL     1       6.697  -0.726   0.113  0.00  0.00    +0.000 HD
ENDBRANCH  18  25
TORSDOF 4
