REMARK  Name = 34457
REMARK  17 active torsions:
REMARK  status: ('A' for Active; 'I' for Inactive)
REMARK    1  A    between atoms: O_3  and  C_14
REMARK    2  A    between atoms: O_4  and  C_17
REMARK    3  A    between atoms: O_6  and  C_28
REMARK    4  A    between atoms: O_6  and  C_31
REMARK    5  A    between atoms: N_9  and  C_40
REMARK    6  A    between atoms: N_9  and  C_41
REMARK    7  A    between atoms: N_9  and  C_42
REMARK    8  A    between atoms: C_10  and  C_21
REMARK    9  A    between atoms: C_14  and  C_24
REMARK   10  A    between atoms: C_18  and  C_25
REMARK   11  A    between atoms: C_24  and  C_28
REMARK   12  A    between atoms: C_31  and  C_32
REMARK   13  A    between atoms: C_32  and  C_33
REMARK   14  A    between atoms: C_33  and  C_34
REMARK   15  A    between atoms: C_34  and  C_35
REMARK   16  A    between atoms: C_41  and  C_43
REMARK   17  A    between atoms: C_42  and  C_44
REMARK                            x       y       z     vdW  Elec       q    Type
REMARK                         _______ _______ _______ _____ _____    ______ ____
ROOT
ATOM      1  O   UNL     1       7.587  -2.711  -2.553  0.00  0.00    +0.000 OA
ATOM      2  C   UNL     1       1.592   1.861   0.737  0.00  0.00    +0.000 C 
ATOM      3  C   UNL     1       3.115   1.954   0.979  0.00  0.00    +0.000 C 
ATOM      4  C   UNL     1       3.797   0.588   1.143  0.00  0.00    +0.000 C 
ATOM      5  C   UNL     1       3.576  -0.246  -0.168  0.00  0.00    +0.000 C 
ATOM      6  C   UNL     1       1.249   3.375   0.689  0.00  0.00    +0.000 C 
ATOM      7  C   UNL     1       1.380   1.075  -0.573  0.00  0.00    +0.000 C 
ATOM      8  C   UNL     1       3.232   2.977   2.106  0.00  0.00    +0.000 C 
ATOM      9  C   UNL     1       2.069  -0.308  -0.572  0.00  0.00    +0.000 C 
ATOM     10  C   UNL     1       4.342  -1.628  -0.133  0.00  0.00    +0.000 C 
ATOM     11  C   UNL     1       2.111   3.995   1.812  0.00  0.00    +0.000 C 
ATOM     12  C   UNL     1       5.296   0.767   1.442  0.00  0.00    +0.000 C 
ATOM     13  C   UNL     1       0.824   1.191   1.910  0.00  0.00    +0.000 C 
ATOM     14  C   UNL     1       6.041  -0.561   1.485  0.00  0.00    +0.000 C 
ATOM     15  C   UNL     1       5.805  -1.331   0.211  0.00  0.00    +0.000 C 
ATOM     16  C   UNL     1       3.794  -2.624   0.915  0.00  0.00    +0.000 C 
ATOM     17  C   UNL     1       4.224  -2.324  -1.481  0.00  0.00    +0.000 C 
ATOM     18  C   UNL     1       6.841  -1.678  -0.570  0.00  0.00    +0.000 C 
ATOM     19  C   UNL     1       5.250  -2.670  -2.264  0.00  0.00    +0.000 C 
ATOM     20  C   UNL     1       6.636  -2.382  -1.852  0.00  0.00    +0.000 C 
ENDROOT
BRANCH   6  21
ATOM     21  O   UNL     1       1.618   3.949  -0.562  0.00  0.00    +0.000 OA
ATOM     22  H   UNL     1       1.574   4.917  -0.481  0.00  0.00    +0.000 HD
ENDBRANCH   6  21
BRANCH   9  23
ATOM     23  O   UNL     1       1.347  -1.199   0.267  0.00  0.00    +0.000 OA
ATOM     24  H   UNL     1       0.431  -1.236  -0.057  0.00  0.00    +0.000 HD
ENDBRANCH   9  23
BRANCH   6  26
ATOM     25  O   UNL     1      -0.724   3.869   1.929  0.00  0.00    +0.000 OA
ATOM     26  C   UNL     1      -0.210   3.690   0.826  0.00  0.00    +0.000 C 
BRANCH  26  27
ATOM     27  C   UNL     1      -1.002   3.772  -0.462  0.00  0.00    +0.000 C 
BRANCH  27  28
ATOM     28  O   UNL     1      -2.347   3.403  -0.244  0.00  0.00    +0.000 OA
BRANCH  28  30
ATOM     29  O   UNL     1      -2.827   3.759  -2.472  0.00  0.00    +0.000 OA
ATOM     30  C   UNL     1      -3.171   3.438  -1.342  0.00  0.00    +0.000 C 
BRANCH  30  31
ATOM     31  C   UNL     1      -4.580   3.052  -0.956  0.00  0.00    +0.000 C 
BRANCH  31  32
ATOM     32  C   UNL     1      -5.384   2.477  -2.124  0.00  0.00    +0.000 C 
BRANCH  32  33
ATOM     33  C   UNL     1      -4.790   1.190  -2.715  0.00  0.00    +0.000 C 
BRANCH  33  34
ATOM     34  C   UNL     1      -4.654   0.054  -1.735  0.00  0.00    +0.000 A 
ATOM     35  C   UNL     1      -5.701  -0.853  -1.569  0.00  0.00    +0.000 A 
ATOM     36  C   UNL     1      -3.481  -0.092  -0.994  0.00  0.00    +0.000 A 
ATOM     37  C   UNL     1      -5.575  -1.905  -0.661  0.00  0.00    +0.000 A 
ATOM     38  C   UNL     1      -3.355  -1.144  -0.087  0.00  0.00    +0.000 A 
ATOM     39  C   UNL     1      -4.402  -2.050   0.079  0.00  0.00    +0.000 A 
BRANCH  39  40
ATOM     40  N   UNL     1      -4.275  -3.114   0.997  0.00  0.00    +0.000 N 
BRANCH  40  41
ATOM     41  C   UNL     1      -5.442  -3.640   1.678  0.00  0.00    +0.000 C 
BRANCH  41  43
ATOM     42 CL   UNL     1      -5.019  -1.918   3.757  0.00  0.00    +0.000 Cl
ATOM     43  C   UNL     1      -6.118  -2.562   2.511  0.00  0.00    +0.000 C 
ENDBRANCH  41  43
ENDBRANCH  40  41
BRANCH  40  44
ATOM     44  C   UNL     1      -2.974  -3.687   1.280  0.00  0.00    +0.000 C 
BRANCH  44  46
ATOM     45 CL   UNL     1      -3.350  -5.548  -0.685  0.00  0.00    +0.000 Cl
ATOM     46  C   UNL     1      -2.343  -4.258   0.020  0.00  0.00    +0.000 C 
ENDBRANCH  44  46
ENDBRANCH  40  44
ENDBRANCH  39  40
ENDBRANCH  33  34
ENDBRANCH  32  33
ENDBRANCH  31  32
ENDBRANCH  30  31
ENDBRANCH  28  30
ENDBRANCH  27  28
ENDBRANCH  26  27
ENDBRANCH   6  26
TORSDOF 15
