REMARK  Name = 76965484
REMARK  8 active torsions:
REMARK  status: ('A' for Active; 'I' for Inactive)
REMARK    1  A    between atoms: O_1  and  C_21
REMARK    2  A    between atoms: O_2  and  C_22
REMARK    3  A    between atoms: N_3  and  C_16
REMARK    4  A    between atoms: C_4  and  C_8
REMARK    5  A    between atoms: C_6  and  C_16
REMARK    6  A    between atoms: C_7  and  C_18
REMARK    7  A    between atoms: C_8  and  C_17
REMARK    8  A    between atoms: C_11  and  C_22
REMARK                            x       y       z     vdW  Elec       q    Type
REMARK                         _______ _______ _______ _____ _____    ______ ____
ROOT
ATOM      1  C   UNL     1      -0.054   0.049   0.649  0.00  0.00    +0.000 C 
ATOM      2  C   UNL     1       2.339   0.628   0.173  0.00  0.00    +0.000 C 
ATOM      3  C   UNL     1       0.894   1.129   0.042  0.00  0.00    +0.000 C 
ATOM      4  C   UNL     1       2.579  -0.709  -0.562  0.00  0.00    +0.000 C 
ATOM      5  C   UNL     1       0.219  -1.370   0.099  0.00  0.00    +0.000 C 
ATOM      6  C   UNL     1       1.702  -1.772   0.118  0.00  0.00    +0.000 C 
ATOM      7  C   UNL     1       3.479   1.518  -0.314  0.00  0.00    +0.000 C 
ATOM      8  C   UNL     1       4.083  -0.817  -0.391  0.00  0.00    +0.000 C 
ATOM      9  C   UNL     1       4.687   0.570  -0.303  0.00  0.00    +0.000 C 
ATOM     10  C   UNL     1       2.291  -0.676  -2.082  0.00  0.00    +0.000 C 
ATOM     11  C   UNL     1       4.795  -1.942  -0.258  0.00  0.00    +0.000 C 
ENDROOT
BRANCH   1  12
ATOM     12  C   UNL     1      -1.545   0.393   0.443  0.00  0.00    +0.000 C 
ATOM     13  C   UNL     1      -2.398  -0.915   0.351  0.00  0.00    +0.000 C 
ATOM     14  C   UNL     1      -1.664   1.174  -0.893  0.00  0.00    +0.000 C 
ATOM     15  C   UNL     1      -1.983   1.298   1.613  0.00  0.00    +0.000 C 
ATOM     16  C   UNL     1      -3.846  -0.636  -0.091  0.00  0.00    +0.000 C 
ATOM     17  C   UNL     1      -3.105   1.440  -1.317  0.00  0.00    +0.000 C 
ATOM     18  C   UNL     1      -3.909   0.148  -1.398  0.00  0.00    +0.000 C 
BRANCH  18  19
ATOM     19  O   UNL     1      -5.271   0.450  -1.681  0.00  0.00    +0.000 OA
ATOM     20  H   UNL     1      -5.294   0.943  -2.519  0.00  0.00    +0.000 HD
ENDBRANCH  18  19
BRANCH  13  21
ATOM     21  C   UNL     1      -2.419  -1.748   1.639  0.00  0.00    +0.000 C 
BRANCH  21  22
ATOM     22  O   UNL     1      -2.663  -3.096   1.290  0.00  0.00    +0.000 OA
ATOM     23  H   UNL     1      -2.693  -3.607   2.117  0.00  0.00    +0.000 HD
ENDBRANCH  21  22
ENDBRANCH  13  21
ENDBRANCH   1  12
BRANCH   3  24
ATOM     24  C   UNL     1       0.724   2.489   0.731  0.00  0.00    +0.000 C 
BRANCH  24  25
ATOM     25  N   UNL     1       1.066   2.397   2.139  0.00  0.00    +0.000 NA
ATOM     26  H   UNL     1       0.366   1.866   2.652  0.00  0.00    +0.000 HD
ATOM     27  H   UNL     1       1.062   3.330   2.550  0.00  0.00    +0.000 HD
ENDBRANCH  24  25
ENDBRANCH   3  24
TORSDOF 6
