REMARK  Name = 656666
REMARK  11 active torsions:
REMARK  status: ('A' for Active; 'I' for Inactive)
REMARK    1  A    between atoms: O_2  and  C_24
REMARK    2  A    between atoms: C_3  and  C_14
REMARK    3  A    between atoms: C_6  and  C_13
REMARK    4  A    between atoms: C_13  and  C_19
REMARK    5  A    between atoms: C_13  and  C_21
REMARK    6  A    between atoms: C_16  and  C_22
REMARK    7  A    between atoms: C_19  and  C_25
REMARK    8  A    between atoms: C_25  and  C_26
REMARK    9  A    between atoms: C_26  and  C_27
REMARK   10  A    between atoms: C_27  and  C_28
REMARK   11  A    between atoms: C_27  and  C_29
REMARK                            x       y       z     vdW  Elec       q    Type
REMARK                         _______ _______ _______ _____ _____    ______ ____
ROOT
ATOM      1  C   UNL     1      -0.908  -0.046  -1.047  0.00  0.00    +0.000 C 
ATOM      2  C   UNL     1      -0.200  -0.821   0.088  0.00  0.00    +0.000 C 
ATOM      3  C   UNL     1       1.323  -0.725  -0.007  0.00  0.00    +0.000 C 
ATOM      4  C   UNL     1      -2.377  -0.383  -0.692  0.00  0.00    +0.000 C 
ATOM      5  C   UNL     1       1.734   0.768   0.138  0.00  0.00    +0.000 C 
ATOM      6  C   UNL     1      -0.530   1.436  -0.913  0.00  0.00    +0.000 C 
ATOM      7  C   UNL     1      -0.868  -2.191   0.056  0.00  0.00    +0.000 C 
ATOM      8  C   UNL     1      -2.328  -1.886  -0.328  0.00  0.00    +0.000 C 
ATOM      9  C   UNL     1       0.998   1.644  -0.910  0.00  0.00    +0.000 C 
ATOM     10  C   UNL     1       2.041  -1.550   1.061  0.00  0.00    +0.000 C 
ATOM     11  C   UNL     1      -0.554  -0.538  -2.473  0.00  0.00    +0.000 C 
ATOM     12  C   UNL     1       3.254   0.937   0.188  0.00  0.00    +0.000 C 
ATOM     13  C   UNL     1       3.567  -1.485   0.870  0.00  0.00    +0.000 C 
ATOM     14  C   UNL     1       4.071  -0.084   0.542  0.00  0.00    +0.000 C 
ATOM     15  C   UNL     1       3.798   2.326  -0.086  0.00  0.00    +0.000 C 
ATOM     16  C   UNL     1       5.566   0.101   0.704  0.00  0.00    +0.000 C 
ATOM     17  C   UNL     1       5.318   2.415  -0.196  0.00  0.00    +0.000 C 
ATOM     18  C   UNL     1       5.995   1.558   0.859  0.00  0.00    +0.000 C 
ENDROOT
BRANCH  13  20
ATOM     19  I   UNL     1       3.279  -4.430   0.240  0.00  0.00    +0.000 I 
ATOM     20  C   UNL     1       4.022  -2.487  -0.200  0.00  0.00    +0.000 C 
ENDBRANCH  13  20
BRANCH  18  21
ATOM     21  O   UNL     1       7.405   1.663   0.700  0.00  0.00    +0.000 OA
ATOM     22  H   UNL     1       7.634   1.349  -0.191  0.00  0.00    +0.000 HD
ENDBRANCH  18  21
BRANCH   4  23
ATOM     23  C   UNL     1      -3.425  -0.063  -1.748  0.00  0.00    +0.000 C 
ATOM     24  C   UNL     1      -3.364   1.425  -2.116  0.00  0.00    +0.000 C 
BRANCH  23  25
ATOM     25  C   UNL     1      -4.858  -0.415  -1.294  0.00  0.00    +0.000 C 
BRANCH  25  26
ATOM     26  C   UNL     1      -5.337   0.256   0.000  0.00  0.00    +0.000 C 
BRANCH  26  27
ATOM     27  C   UNL     1      -6.736  -0.190   0.438  0.00  0.00    +0.000 C 
BRANCH  27  28
ATOM     28  C   UNL     1      -7.245   0.537   1.698  0.00  0.00    +0.000 C 
ATOM     29  C   UNL     1      -7.271   2.057   1.529  0.00  0.00    +0.000 C 
ATOM     30  C   UNL     1      -6.368   0.169   2.898  0.00  0.00    +0.000 C 
ENDBRANCH  27  28
ENDBRANCH  26  27
ENDBRANCH  25  26
ENDBRANCH  23  25
ENDBRANCH   4  23
TORSDOF 7
