REMARK  Name = 5284533
REMARK  5 active torsions:
REMARK  status: ('A' for Active; 'I' for Inactive)
REMARK    1  A    between atoms: O_2  and  C_9
REMARK    2  A    between atoms: C_5  and  C_15
REMARK    3  A    between atoms: C_9  and  C_19
REMARK    4  A    between atoms: C_13  and  C_20
REMARK    5  A    between atoms: C_19  and  C_24
REMARK                            x       y       z     vdW  Elec       q    Type
REMARK                         _______ _______ _______ _____ _____    ______ ____
ROOT
ATOM      1 CL   UNL     1       3.070  -3.386   0.218  0.00  0.00    +0.000 Cl
ATOM      2  O   UNL     1       6.143   0.753   0.874  0.00  0.00    +0.000 OA
ATOM      3  C   UNL     1      -2.304   0.294  -0.213  0.00  0.00    +0.000 C 
ATOM      4  C   UNL     1      -1.376  -0.893   0.156  0.00  0.00    +0.000 C 
ATOM      5  C   UNL     1       0.009  -0.779  -0.498  0.00  0.00    +0.000 C 
ATOM      6  C   UNL     1       0.679   0.525   0.027  0.00  0.00    +0.000 C 
ATOM      7  C   UNL     1      -3.597  -0.159   0.513  0.00  0.00    +0.000 C 
ATOM      8  C   UNL     1      -1.644   1.587   0.297  0.00  0.00    +0.000 C 
ATOM      9  C   UNL     1      -2.241  -2.117  -0.140  0.00  0.00    +0.000 C 
ATOM     10  C   UNL     1      -0.213   1.761  -0.250  0.00  0.00    +0.000 C 
ATOM     11  C   UNL     1       2.170   0.641  -0.456  0.00  0.00    +0.000 C 
ATOM     12  C   UNL     1      -3.669  -1.678   0.245  0.00  0.00    +0.000 C 
ATOM     13  C   UNL     1      -2.568   0.422  -1.740  0.00  0.00    +0.000 C 
ATOM     14  C   UNL     1       0.894  -1.968  -0.246  0.00  0.00    +0.000 C 
ATOM     15  C   UNL     1       2.945  -0.608   0.028  0.00  0.00    +0.000 C 
ATOM     16  C   UNL     1       2.799   1.921   0.161  0.00  0.00    +0.000 C 
ATOM     17  C   UNL     1       2.271   0.725  -1.998  0.00  0.00    +0.000 C 
ATOM     18  C   UNL     1       2.213  -1.883  -0.001  0.00  0.00    +0.000 C 
ATOM     19  C   UNL     1       4.307   1.999  -0.009  0.00  0.00    +0.000 C 
ATOM     20  C   UNL     1       4.213  -0.525   0.476  0.00  0.00    +0.000 C 
ATOM     21  C   UNL     1       4.973   0.749   0.495  0.00  0.00    +0.000 C 
ENDROOT
BRANCH   7  23
ATOM     22  O   UNL     1      -5.538   0.174  -0.834  0.00  0.00    +0.000 OA
ATOM     23  C   UNL     1      -4.839   0.569   0.099  0.00  0.00    +0.000 C 
ATOM     24  C   UNL     1      -5.192   1.806   0.880  0.00  0.00    +0.000 C 
ENDBRANCH   7  23
BRANCH   7  25
ATOM     25  O   UNL     1      -3.503   0.072   1.916  0.00  0.00    +0.000 OA
ATOM     26  H   UNL     1      -4.226  -0.409   2.356  0.00  0.00    +0.000 HD
ENDBRANCH   7  25
TORSDOF 2
