REMARK  Name = 5284597
REMARK  3 active torsions:
REMARK  status: ('A' for Active; 'I' for Inactive)
REMARK    1  A    between atoms: O_1  and  C_7
REMARK    2  A    between atoms: C_3  and  C_14
REMARK    3  A    between atoms: C_7  and  C_17
REMARK                            x       y       z     vdW  Elec       q    Type
REMARK                         _______ _______ _______ _____ _____    ______ ____
ROOT
ATOM      1  O   UNL     1       5.881   0.128   0.801  0.00  0.00    +0.000 OA
ATOM      2  C   UNL     1      -2.499   0.513  -0.252  0.00  0.00    +0.000 C 
ATOM      3  C   UNL     1      -1.723  -0.731   0.234  0.00  0.00    +0.000 C 
ATOM      4  C   UNL     1      -0.307  -0.814  -0.345  0.00  0.00    +0.000 C 
ATOM      5  C   UNL     1       0.490   0.454   0.079  0.00  0.00    +0.000 C 
ATOM      6  C   UNL     1      -3.895   0.249   0.393  0.00  0.00    +0.000 C 
ATOM      7  C   UNL     1      -1.734   1.758   0.224  0.00  0.00    +0.000 C 
ATOM      8  C   UNL     1      -2.689  -1.880  -0.034  0.00  0.00    +0.000 C 
ATOM      9  C   UNL     1      -0.273   1.758  -0.263  0.00  0.00    +0.000 C 
ATOM     10  C   UNL     1      -4.085  -1.280   0.213  0.00  0.00    +0.000 C 
ATOM     11  C   UNL     1       1.933   0.433  -0.514  0.00  0.00    +0.000 C 
ATOM     12  C   UNL     1       0.431  -2.074   0.126  0.00  0.00    +0.000 C 
ATOM     13  C   UNL     1      -2.650   0.584  -1.800  0.00  0.00    +0.000 C 
ATOM     14  C   UNL     1       1.828  -2.140  -0.483  0.00  0.00    +0.000 C 
ATOM     15  C   UNL     1       2.629  -0.889  -0.218  0.00  0.00    +0.000 C 
ATOM     16  C   UNL     1      -4.027   0.635   1.872  0.00  0.00    +0.000 C 
ATOM     17  C   UNL     1       2.746   1.637   0.006  0.00  0.00    +0.000 C 
ATOM     18  C   UNL     1       4.233   1.500  -0.270  0.00  0.00    +0.000 C 
ATOM     19  C   UNL     1       3.896  -0.988   0.214  0.00  0.00    +0.000 C 
ATOM     20  C   UNL     1       4.754   0.215   0.320  0.00  0.00    +0.000 C 
ENDROOT
BRANCH   6  21
ATOM     21  O   UNL     1      -4.938   0.932  -0.300  0.00  0.00    +0.000 OA
ATOM     22  H   UNL     1      -5.788   0.625   0.056  0.00  0.00    +0.000 HD
ENDBRANCH   6  21
TORSDOF 1
