REMARK  Name = 9842127
REMARK  5 active torsions:
REMARK  status: ('A' for Active; 'I' for Inactive)
REMARK    1  A    between atoms: O_1  and  C_7
REMARK    2  A    between atoms: O_2  and  C_21
REMARK    3  A    between atoms: O_2  and  C_23
REMARK    4  A    between atoms: C_3  and  C_14
REMARK    5  A    between atoms: C_7  and  C_18
REMARK                            x       y       z     vdW  Elec       q    Type
REMARK                         _______ _______ _______ _____ _____    ______ ____
ROOT
ATOM      1  C   UNL     1      -3.606  -0.613   0.585  0.00  0.00    +0.000 C 
ATOM      2  C   UNL     1      -3.036   0.756   0.157  0.00  0.00    +0.000 C 
ATOM      3  C   UNL     1      -1.512   0.836   0.281  0.00  0.00    +0.000 C 
ATOM      4  C   UNL     1      -0.859  -0.274  -0.591  0.00  0.00    +0.000 C 
ATOM      5  C   UNL     1      -5.135  -0.333   0.462  0.00  0.00    +0.000 C 
ATOM      6  C   UNL     1      -3.014  -1.684  -0.350  0.00  0.00    +0.000 C 
ATOM      7  C   UNL     1      -3.882   1.758   0.938  0.00  0.00    +0.000 C 
ATOM      8  C   UNL     1      -1.475  -1.671  -0.335  0.00  0.00    +0.000 C 
ATOM      9  C   UNL     1      -5.274   1.101   1.038  0.00  0.00    +0.000 C 
ATOM     10  C   UNL     1       0.682  -0.261  -0.369  0.00  0.00    +0.000 C 
ATOM     11  C   UNL     1      -0.985   2.219  -0.134  0.00  0.00    +0.000 C 
ATOM     12  C   UNL     1      -3.266  -0.999   2.054  0.00  0.00    +0.000 C 
ATOM     13  C   UNL     1       1.263   1.147  -0.451  0.00  0.00    +0.000 C 
ATOM     14  C   UNL     1       1.415  -1.194  -1.353  0.00  0.00    +0.000 C 
ATOM     15  C   UNL     1       0.498   2.248  -0.346  0.00  0.00    +0.000 C 
ATOM     16  C   UNL     1       2.931  -1.183  -1.123  0.00  0.00    +0.000 C 
ATOM     17  C   UNL     1       2.697   1.260  -0.655  0.00  0.00    +0.000 C 
ATOM     18  C   UNL     1       3.473   0.205  -0.940  0.00  0.00    +0.000 C 
ENDROOT
BRANCH   5  19
ATOM     19  O   UNL     1      -5.914  -1.232   1.240  0.00  0.00    +0.000 OA
ATOM     20  H   UNL     1      -5.796  -1.030   2.182  0.00  0.00    +0.000 HD
ENDBRANCH   5  19
BRANCH   5  21
ATOM     21  C   UNL     1      -5.638  -0.365  -0.925  0.00  0.00    +0.000 C 
ATOM     22  C   UNL     1      -6.048  -0.392  -2.053  0.00  0.00    +0.000 C 
ENDBRANCH   5  21
BRANCH  18  23
ATOM     23  O   UNL     1       4.835   0.363  -1.105  0.00  0.00    +0.000 OA
BRANCH  23  24
ATOM     24  C   UNL     1       5.547  -0.412  -0.163  0.00  0.00    +0.000 C 
ATOM     25  C   UNL     1       5.248   0.042   1.256  0.00  0.00    +0.000 C 
ATOM     26  C   UNL     1       7.048  -0.195  -0.272  0.00  0.00    +0.000 C 
ATOM     27  C   UNL     1       6.420  -0.493   2.068  0.00  0.00    +0.000 C 
ATOM     28  C   UNL     1       7.586  -0.631   1.086  0.00  0.00    +0.000 C 
ENDBRANCH  23  24
ENDBRANCH  18  23
TORSDOF 4
