REMARK  Name = 73412
REMARK  13 active torsions:
REMARK  status: ('A' for Active; 'I' for Inactive)
REMARK    1  A    between atoms: O_1  and  C_13
REMARK    2  A    between atoms: O_2  and  C_23
REMARK    3  A    between atoms: O_3  and  C_24
REMARK    4  A    between atoms: O_4  and  C_30
REMARK    5  A    between atoms: O_5  and  C_34
REMARK    6  A    between atoms: C_7  and  C_21
REMARK    7  A    between atoms: C_9  and  C_25
REMARK    8  A    between atoms: C_10  and  C_27
REMARK    9  A    between atoms: C_14  and  C_30
REMARK   10  A    between atoms: C_14  and  C_32
REMARK   11  A    between atoms: C_20  and  C_34
REMARK   12  A    between atoms: C_28  and  C_35
REMARK   13  A    between atoms: C_31  and  C_36
REMARK                            x       y       z     vdW  Elec       q    Type
REMARK                         _______ _______ _______ _____ _____    ______ ____
ROOT
ATOM      1  C   UNL     1      -0.232   0.882   0.086  0.00  0.00    +0.000 C 
ATOM      2  C   UNL     1      -0.991  -0.348  -0.538  0.00  0.00    +0.000 C 
ATOM      3  C   UNL     1      -2.557  -0.188  -0.829  0.00  0.00    +0.000 C 
ATOM      4  C   UNL     1       1.226   0.360   0.644  0.00  0.00    +0.000 C 
ATOM      5  C   UNL     1      -3.230   0.399   0.471  0.00  0.00    +0.000 C 
ATOM      6  C   UNL     1      -1.077   1.501   1.236  0.00  0.00    +0.000 C 
ATOM      7  C   UNL     1      -2.566   1.718   0.941  0.00  0.00    +0.000 C 
ATOM      8  C   UNL     1      -4.811   0.369   0.515  0.00  0.00    +0.000 C 
ATOM      9  C   UNL     1       1.967  -0.435  -0.454  0.00  0.00    +0.000 C 
ATOM     10  C   UNL     1       3.499  -0.585  -0.411  0.00  0.00    +0.000 C 
ATOM     11  C   UNL     1      -3.145  -1.616  -1.054  0.00  0.00    +0.000 C 
ATOM     12  C   UNL     1      -0.179  -0.939  -1.712  0.00  0.00    +0.000 C 
ATOM     13  C   UNL     1       2.070   1.575   1.141  0.00  0.00    +0.000 C 
ATOM     14  C   UNL     1       4.174   0.760  -0.036  0.00  0.00    +0.000 C 
ATOM     15  C   UNL     1      -0.003   1.986  -0.993  0.00  0.00    +0.000 C 
ATOM     16  C   UNL     1       3.576   1.319   1.267  0.00  0.00    +0.000 C 
ATOM     17  C   UNL     1      -5.287  -1.086   0.204  0.00  0.00    +0.000 C 
ATOM     18  C   UNL     1      -4.673  -1.684  -1.061  0.00  0.00    +0.000 C 
ATOM     19  C   UNL     1      -2.854   0.616  -2.118  0.00  0.00    +0.000 C 
ATOM     20  C   UNL     1       1.301  -0.984  -1.489  0.00  0.00    +0.000 C 
ATOM     21  C   UNL     1       1.069  -0.603   1.859  0.00  0.00    +0.000 C 
ATOM     22  C   UNL     1       4.008  -1.792   0.454  0.00  0.00    +0.000 C 
ATOM     23  C   UNL     1       5.705   0.621   0.066  0.00  0.00    +0.000 C 
ATOM     24  C   UNL     1       5.559  -1.869   0.439  0.00  0.00    +0.000 C 
ATOM     25  C   UNL     1      -5.508   1.391  -0.405  0.00  0.00    +0.000 C 
ATOM     26  C   UNL     1       6.160  -0.545   0.927  0.00  0.00    +0.000 C 
ATOM     27  C   UNL     1       3.382  -3.119  -0.004  0.00  0.00    +0.000 C 
ATOM     28  C   UNL     1       6.115  -3.008   1.302  0.00  0.00    +0.000 C 
ENDROOT
BRANCH   7  29
ATOM     29  O   UNL     1      -2.750   2.790   0.036  0.00  0.00    +0.000 OA
ATOM     30  H   UNL     1      -2.310   3.574   0.408  0.00  0.00    +0.000 HD
ENDBRANCH   7  29
BRANCH  17  31
ATOM     31  O   UNL     1      -6.709  -1.143   0.048  0.00  0.00    +0.000 OA
ATOM     32  H   UNL     1      -7.111  -0.994   0.920  0.00  0.00    +0.000 HD
ENDBRANCH  17  31
BRANCH  18  33
ATOM     33  O   UNL     1      -5.055  -3.063  -1.127  0.00  0.00    +0.000 OA
ATOM     34  H   UNL     1      -4.693  -3.517  -0.347  0.00  0.00    +0.000 HD
ENDBRANCH  18  33
BRANCH  14  36
ATOM     35  O   UNL     1       3.351   1.552  -2.185  0.00  0.00    +0.000 OA
ATOM     36  C   UNL     1       3.963   1.768  -1.150  0.00  0.00    +0.000 C 
BRANCH  36  37
ATOM     37  O   UNL     1       4.552   2.950  -0.843  0.00  0.00    +0.000 OA
ATOM     38  H   UNL     1       4.426   3.616  -1.552  0.00  0.00    +0.000 HD
ENDBRANCH  36  37
ENDBRANCH  14  36
BRANCH   8  39
ATOM     39  C   UNL     1      -5.290   0.713   1.956  0.00  0.00    +0.000 C 
BRANCH  39  40
ATOM     40  O   UNL     1      -4.761  -0.264   2.819  0.00  0.00    +0.000 OA
ATOM     41  H   UNL     1      -5.066  -0.053   3.718  0.00  0.00    +0.000 HD
ENDBRANCH  39  40
ENDBRANCH   8  39
TORSDOF 7
