REMARK  Name = 5273648
REMARK  10 active torsions:
REMARK  status: ('A' for Active; 'I' for Inactive)
REMARK    1  A    between atoms: O_1  and  C_19
REMARK    2  A    between atoms: O_2  and  C_21
REMARK    3  A    between atoms: C_3  and  C_17
REMARK    4  A    between atoms: C_5  and  C_20
REMARK    5  A    between atoms: C_6  and  C_23
REMARK    6  A    between atoms: C_10  and  C_26
REMARK    7  A    between atoms: C_10  and  C_27
REMARK    8  A    between atoms: C_16  and  C_30
REMARK    9  A    between atoms: C_28  and  C_31
REMARK   10  A    between atoms: C_28  and  C_32
REMARK                            x       y       z     vdW  Elec       q    Type
REMARK                         _______ _______ _______ _____ _____    ______ ____
ROOT
ATOM      1  C   UNL     1      -0.618  -0.771   0.197  0.00  0.00    +0.000 C 
ATOM      2  C   UNL     1      -1.335   0.590  -0.154  0.00  0.00    +0.000 C 
ATOM      3  C   UNL     1      -2.873   0.751   0.234  0.00  0.00    +0.000 C 
ATOM      4  C   UNL     1       0.814  -0.845  -0.574  0.00  0.00    +0.000 C 
ATOM      5  C   UNL     1      -3.637  -0.527  -0.255  0.00  0.00    +0.000 C 
ATOM      6  C   UNL     1      -1.540  -1.945  -0.227  0.00  0.00    +0.000 C 
ATOM      7  C   UNL     1      -2.981  -1.818   0.272  0.00  0.00    +0.000 C 
ATOM      8  C   UNL     1      -5.210  -0.486  -0.101  0.00  0.00    +0.000 C 
ATOM      9  C   UNL     1      -0.443   1.773   0.267  0.00  0.00    +0.000 C 
ATOM     10  C   UNL     1       1.666   0.407  -0.219  0.00  0.00    +0.000 C 
ATOM     11  C   UNL     1      -3.443   1.998  -0.535  0.00  0.00    +0.000 C 
ATOM     12  C   UNL     1       1.546  -2.171  -0.212  0.00  0.00    +0.000 C 
ATOM     13  C   UNL     1       0.918   1.718  -0.428  0.00  0.00    +0.000 C 
ATOM     14  C   UNL     1       3.740  -0.992   0.293  0.00  0.00    +0.000 C 
ATOM     15  C   UNL     1      -0.366  -0.895   1.732  0.00  0.00    +0.000 C 
ATOM     16  C   UNL     1       2.956   0.335   0.212  0.00  0.00    +0.000 C 
ATOM     17  C   UNL     1      -5.771   0.948  -0.379  0.00  0.00    +0.000 C 
ATOM     18  C   UNL     1      -3.071   1.017   1.744  0.00  0.00    +0.000 C 
ATOM     19  C   UNL     1       3.036  -2.117  -0.516  0.00  0.00    +0.000 C 
ATOM     20  C   UNL     1      -4.806   1.791  -1.206  0.00  0.00    +0.000 C 
ATOM     21  C   UNL     1       0.663  -0.857  -2.128  0.00  0.00    +0.000 C 
ATOM     22  C   UNL     1       3.768   1.541   0.676  0.00  0.00    +0.000 C 
ATOM     23  C   UNL     1       5.163  -0.842  -0.326  0.00  0.00    +0.000 C 
ATOM     24  C   UNL     1      -5.706  -1.037   1.252  0.00  0.00    +0.000 C 
ATOM     25  C   UNL     1      -5.811  -1.419  -1.193  0.00  0.00    +0.000 C 
ATOM     26  C   UNL     1       5.132   1.692  -0.031  0.00  0.00    +0.000 C 
ATOM     27  C   UNL     1       5.936   0.390   0.136  0.00  0.00    +0.000 C 
ATOM     28  C   UNL     1       3.880  -1.397   1.783  0.00  0.00    +0.000 C 
ATOM     29  C   UNL     1       4.932   2.036  -1.521  0.00  0.00    +0.000 C 
ATOM     30  C   UNL     1       5.916   2.846   0.623  0.00  0.00    +0.000 C 
ENDROOT
BRANCH  17  31
ATOM     31  O   UNL     1      -6.074   1.674   0.808  0.00  0.00    +0.000 OA
ATOM     32  H   UNL     1      -6.454   2.530   0.545  0.00  0.00    +0.000 HD
ENDBRANCH  17  31
BRANCH  19  33
ATOM     33  O   UNL     1       3.618  -3.388  -0.224  0.00  0.00    +0.000 OA
ATOM     34  H   UNL     1       4.506  -3.408  -0.618  0.00  0.00    +0.000 HD
ENDBRANCH  19  33
TORSDOF 2
