REMARK  Name = 9845059
REMARK  7 active torsions:
REMARK  status: ('A' for Active; 'I' for Inactive)
REMARK    1  A    between atoms: O_2  and  C_26
REMARK    2  A    between atoms: O_4  and  C_31
REMARK    3  A    between atoms: C_5  and  C_16
REMARK    4  A    between atoms: C_9  and  C_21
REMARK    5  A    between atoms: C_11  and  C_20
REMARK    6  A    between atoms: C_21  and  C_25
REMARK    7  A    between atoms: C_24  and  C_26
REMARK                            x       y       z     vdW  Elec       q    Type
REMARK                         _______ _______ _______ _____ _____    ______ ____
ROOT
ATOM      1  C   UNL     1      -1.460   0.943   0.288  0.00  0.00    +0.000 C 
ATOM      2  C   UNL     1      -0.413   1.764  -0.492  0.00  0.00    +0.000 C 
ATOM      3  C   UNL     1       1.022   1.523  -0.014  0.00  0.00    +0.000 C 
ATOM      4  C   UNL     1       1.366   0.009  -0.148  0.00  0.00    +0.000 C 
ATOM      5  C   UNL     1      -2.745   1.464  -0.393  0.00  0.00    +0.000 C 
ATOM      6  C   UNL     1      -1.158  -0.542   0.043  0.00  0.00    +0.000 C 
ATOM      7  C   UNL     1       2.826  -0.290   0.367  0.00  0.00    +0.000 C 
ATOM      8  C   UNL     1       0.274  -0.906   0.471  0.00  0.00    +0.000 C 
ATOM      9  C   UNL     1      -0.973   3.182  -0.455  0.00  0.00    +0.000 C 
ATOM     10  C   UNL     1      -2.494   2.976  -0.575  0.00  0.00    +0.000 C 
ATOM     11  C   UNL     1       2.019   2.381  -0.810  0.00  0.00    +0.000 C 
ATOM     12  C   UNL     1      -1.478   1.234   1.810  0.00  0.00    +0.000 C 
ATOM     13  C   UNL     1       3.817   0.706  -0.256  0.00  0.00    +0.000 C 
ATOM     14  C   UNL     1       3.237  -1.731  -0.053  0.00  0.00    +0.000 C 
ATOM     15  C   UNL     1       3.433   1.893  -0.757  0.00  0.00    +0.000 C 
ATOM     16  C   UNL     1       2.920  -0.163   1.910  0.00  0.00    +0.000 C 
ATOM     17  C   UNL     1       4.701  -2.069   0.260  0.00  0.00    +0.000 C 
ATOM     18  C   UNL     1       5.218   0.309  -0.333  0.00  0.00    +0.000 C 
ATOM     19  C   UNL     1       5.625  -0.943  -0.083  0.00  0.00    +0.000 C 
ENDROOT
BRANCH   5  21
ATOM     20  O   UNL     1      -4.415   1.963   1.220  0.00  0.00    +0.000 OA
ATOM     21  C   UNL     1      -4.004   1.181   0.366  0.00  0.00    +0.000 C 
BRANCH  21  22
ATOM     22  C   UNL     1      -4.762  -0.068   0.072  0.00  0.00    +0.000 A 
ATOM     23  C   UNL     1      -4.707  -0.592  -1.201  0.00  0.00    +0.000 A 
ATOM     24  C   UNL     1      -5.490  -0.654   1.084  0.00  0.00    +0.000 A 
ATOM     25  C   UNL     1      -5.416  -1.761  -1.476  0.00  0.00    +0.000 A 
ATOM     26  C   UNL     1      -6.199  -1.824   0.809  0.00  0.00    +0.000 A 
ATOM     27  C   UNL     1      -6.162  -2.377  -0.471  0.00  0.00    +0.000 A 
BRANCH  27  28
ATOM     28  O   UNL     1      -6.853  -3.518  -0.739  0.00  0.00    +0.000 OA
ATOM     29  H   UNL     1      -6.715  -3.759  -1.671  0.00  0.00    +0.000 HD
ENDBRANCH  27  28
ENDBRANCH  21  22
ENDBRANCH   5  21
BRANCH  19  31
ATOM     30  O   UNL     1       7.825  -0.645  -0.931  0.00  0.00    +0.000 OA
ATOM     31  C   UNL     1       7.059  -1.226  -0.184  0.00  0.00    +0.000 C 
BRANCH  31  32
ATOM     32  O   UNL     1       7.386  -2.217   0.671  0.00  0.00    +0.000 OA
ATOM     33  H   UNL     1       8.341  -2.437   0.633  0.00  0.00    +0.000 HD
ENDBRANCH  31  32
ENDBRANCH  19  31
TORSDOF 5
