REMARK  Name = 2723722
REMARK  7 active torsions:
REMARK  status: ('A' for Active; 'I' for Inactive)
REMARK    1  A    between atoms: O_1  and  C_23
REMARK    2  A    between atoms: O_1  and  C_25
REMARK    3  A    between atoms: C_4  and  C_16
REMARK    4  A    between atoms: C_8  and  C_19
REMARK    5  A    between atoms: C_10  and  C_22
REMARK    6  A    between atoms: C_22  and  C_24
REMARK    7  A    between atoms: C_25  and  C_26
REMARK                            x       y       z     vdW  Elec       q    Type
REMARK                         _______ _______ _______ _____ _____    ______ ____
ROOT
ATOM      1  C   UNL     1       3.186  -0.319  -0.042  0.00  0.00    +0.000 C 
ATOM      2  C   UNL     1       2.413   0.914   0.468  0.00  0.00    +0.000 C 
ATOM      3  C   UNL     1       1.013   1.045  -0.139  0.00  0.00    +0.000 C 
ATOM      4  C   UNL     1       0.189  -0.238   0.174  0.00  0.00    +0.000 C 
ATOM      5  C   UNL     1      -1.255  -0.169  -0.467  0.00  0.00    +0.000 C 
ATOM      6  C   UNL     1       2.403  -1.565   0.394  0.00  0.00    +0.000 C 
ATOM      7  C   UNL     1       4.523  -0.103   0.702  0.00  0.00    +0.000 C 
ATOM      8  C   UNL     1       0.964  -1.545  -0.150  0.00  0.00    +0.000 C 
ATOM      9  C   UNL     1       3.405   2.057   0.281  0.00  0.00    +0.000 C 
ATOM     10  C   UNL     1       4.765   1.419   0.614  0.00  0.00    +0.000 C 
ATOM     11  C   UNL     1       0.293   2.283   0.416  0.00  0.00    +0.000 C 
ATOM     12  C   UNL     1      -1.888   1.212  -0.238  0.00  0.00    +0.000 C 
ATOM     13  C   UNL     1       3.398  -0.335  -1.578  0.00  0.00    +0.000 C 
ATOM     14  C   UNL     1      -2.143  -1.255   0.211  0.00  0.00    +0.000 C 
ATOM     15  C   UNL     1      -1.181   2.281   0.168  0.00  0.00    +0.000 C 
ATOM     16  C   UNL     1      -1.207  -0.425  -1.992  0.00  0.00    +0.000 C 
ATOM     17  C   UNL     1      -3.374   1.338  -0.481  0.00  0.00    +0.000 C 
ATOM     18  C   UNL     1      -3.634  -1.137  -0.103  0.00  0.00    +0.000 C 
ATOM     19  C   UNL     1      -4.163   0.252   0.243  0.00  0.00    +0.000 C 
ENDROOT
BRANCH   7  21
ATOM     20  O   UNL     1       6.374  -0.467  -0.757  0.00  0.00    +0.000 OA
ATOM     21  C   UNL     1       5.669  -0.896   0.155  0.00  0.00    +0.000 C 
ATOM     22  C   UNL     1       5.917  -2.243   0.777  0.00  0.00    +0.000 C 
ENDBRANCH   7  21
BRANCH  19  23
ATOM     23  O   UNL     1      -5.529   0.350  -0.145  0.00  0.00    +0.000 OA
BRANCH  23  25
ATOM     24  O   UNL     1      -6.251  -1.046   1.548  0.00  0.00    +0.000 OA
ATOM     25  C   UNL     1      -6.377  -0.551   0.436  0.00  0.00    +0.000 C 
ATOM     26  C   UNL     1      -7.511  -0.856  -0.495  0.00  0.00    +0.000 C 
ENDBRANCH  23  25
ENDBRANCH  19  23
TORSDOF 3
