REMARK  Name = 9980241
REMARK  9 active torsions:
REMARK  status: ('A' for Active; 'I' for Inactive)
REMARK    1  A    between atoms: O_2  and  C_13
REMARK    2  A    between atoms: O_3  and  C_14
REMARK    3  A    between atoms: O_5  and  C_28
REMARK    4  A    between atoms: O_5  and  C_30
REMARK    5  A    between atoms: C_8  and  C_19
REMARK    6  A    between atoms: C_13  and  C_23
REMARK    7  A    between atoms: C_15  and  C_22
REMARK    8  A    between atoms: C_23  and  C_28
REMARK    9  A    between atoms: C_30  and  C_31
REMARK                            x       y       z     vdW  Elec       q    Type
REMARK                         _______ _______ _______ _____ _____    ______ ____
ROOT
ATOM      1  F   UNL     1      -1.909   0.300  -1.255  0.00  0.00    +0.000 F 
ATOM      2  O   UNL     1      -6.666   1.333  -1.611  0.00  0.00    +0.000 OA
ATOM      3  C   UNL     1       1.133  -0.525   0.306  0.00  0.00    +0.000 C 
ATOM      4  C   UNL     1       0.010  -1.482  -0.166  0.00  0.00    +0.000 C 
ATOM      5  C   UNL     1      -1.354  -1.192   0.481  0.00  0.00    +0.000 C 
ATOM      6  C   UNL     1      -1.792   0.270   0.126  0.00  0.00    +0.000 C 
ATOM      7  C   UNL     1       0.714   0.903  -0.099  0.00  0.00    +0.000 C 
ATOM      8  C   UNL     1       2.343  -1.132  -0.472  0.00  0.00    +0.000 C 
ATOM      9  C   UNL     1      -0.676   1.311   0.443  0.00  0.00    +0.000 C 
ATOM     10  C   UNL     1      -3.232   0.608   0.680  0.00  0.00    +0.000 C 
ATOM     11  C   UNL     1       0.623  -2.872   0.007  0.00  0.00    +0.000 C 
ATOM     12  C   UNL     1      -2.401  -2.217   0.005  0.00  0.00    +0.000 C 
ATOM     13  C   UNL     1       2.072  -2.626  -0.367  0.00  0.00    +0.000 C 
ATOM     14  C   UNL     1       1.393  -0.599   1.839  0.00  0.00    +0.000 C 
ATOM     15  C   UNL     1      -3.796  -1.904   0.534  0.00  0.00    +0.000 C 
ATOM     16  C   UNL     1      -4.183  -0.489   0.187  0.00  0.00    +0.000 C 
ATOM     17  C   UNL     1      -3.319   0.655   2.223  0.00  0.00    +0.000 C 
ATOM     18  C   UNL     1      -3.676   1.979   0.191  0.00  0.00    +0.000 C 
ATOM     19  C   UNL     1       2.956  -3.611  -0.571  0.00  0.00    +0.000 C 
ATOM     20  C   UNL     1      -5.280  -0.251  -0.549  0.00  0.00    +0.000 C 
ATOM     21  C   UNL     1      -4.765   2.223  -0.544  0.00  0.00    +0.000 C 
ATOM     22  C   UNL     1      -5.654   1.120  -0.953  0.00  0.00    +0.000 C 
ENDROOT
BRANCH   8  23
ATOM     23  O   UNL     1       2.314  -0.748  -1.842  0.00  0.00    +0.000 OA
ATOM     24  H   UNL     1       2.973  -1.278  -2.322  0.00  0.00    +0.000 HD
ENDBRANCH   8  23
BRANCH   9  25
ATOM     25  O   UNL     1      -0.592   1.584   1.832  0.00  0.00    +0.000 OA
ATOM     26  H   UNL     1      -1.003   2.451   1.988  0.00  0.00    +0.000 HD
ENDBRANCH   9  25
BRANCH   8  28
ATOM     27  O   UNL     1       4.467  -1.530   0.544  0.00  0.00    +0.000 OA
ATOM     28  C   UNL     1       3.683  -0.710   0.067  0.00  0.00    +0.000 C 
BRANCH  28  29
ATOM     29  C   UNL     1       4.003   0.767  -0.014  0.00  0.00    +0.000 C 
BRANCH  29  30
ATOM     30  O   UNL     1       5.393   0.969  -0.163  0.00  0.00    +0.000 OA
BRANCH  30  32
ATOM     31  O   UNL     1       5.084   3.258  -0.206  0.00  0.00    +0.000 OA
ATOM     32  C   UNL     1       5.809   2.273  -0.248  0.00  0.00    +0.000 C 
ATOM     33  C   UNL     1       7.298   2.334  -0.402  0.00  0.00    +0.000 C 
ENDBRANCH  30  32
ENDBRANCH  29  30
ENDBRANCH  28  29
ENDBRANCH   8  28
TORSDOF 6
