REMARK  Name = 231084
REMARK  9 active torsions:
REMARK  status: ('A' for Active; 'I' for Inactive)
REMARK    1  A    between atoms: O_1  and  C_11
REMARK    2  A    between atoms: O_1  and  C_23
REMARK    3  A    between atoms: C_5  and  C_16
REMARK    4  A    between atoms: C_8  and  C_19
REMARK    5  A    between atoms: C_23  and  C_24
REMARK    6  A    between atoms: C_24  and  C_25
REMARK    7  A    between atoms: C_25  and  C_26
REMARK    8  A    between atoms: C_26  and  C_27
REMARK    9  A    between atoms: C_26  and  C_28
REMARK                            x       y       z     vdW  Elec       q    Type
REMARK                         _______ _______ _______ _____ _____    ______ ____
ROOT
ATOM      1  O   UNL     1       7.648   0.631   1.125  0.00  0.00    +0.000 OA
ATOM      2  C   UNL     1       0.284  -1.162   0.174  0.00  0.00    +0.000 C 
ATOM      3  C   UNL     1      -0.685  -0.009  -0.152  0.00  0.00    +0.000 C 
ATOM      4  C   UNL     1       1.674  -0.957  -0.436  0.00  0.00    +0.000 C 
ATOM      5  C   UNL     1       2.279   0.367   0.128  0.00  0.00    +0.000 C 
ATOM      6  C   UNL     1       3.736   0.651  -0.407  0.00  0.00    +0.000 C 
ATOM      7  C   UNL     1      -0.121   1.274   0.469  0.00  0.00    +0.000 C 
ATOM      8  C   UNL     1       1.304   1.567  -0.035  0.00  0.00    +0.000 C 
ATOM      9  C   UNL     1      -1.957  -0.550   0.529  0.00  0.00    +0.000 C 
ATOM     10  C   UNL     1      -0.513  -2.412  -0.194  0.00  0.00    +0.000 C 
ATOM     11  C   UNL     1       2.602  -2.136  -0.123  0.00  0.00    +0.000 C 
ATOM     12  C   UNL     1      -1.964  -2.049   0.170  0.00  0.00    +0.000 C 
ATOM     13  C   UNL     1       4.598  -0.607  -0.239  0.00  0.00    +0.000 C 
ATOM     14  C   UNL     1      -0.938   0.215  -1.665  0.00  0.00    +0.000 C 
ATOM     15  C   UNL     1       3.993  -1.911  -0.703  0.00  0.00    +0.000 C 
ATOM     16  C   UNL     1       4.340   1.824   0.418  0.00  0.00    +0.000 C 
ATOM     17  C   UNL     1       3.737   1.039  -1.903  0.00  0.00    +0.000 C 
ATOM     18  C   UNL     1       5.848   1.959   0.274  0.00  0.00    +0.000 C 
ATOM     19  C   UNL     1       5.842  -0.603   0.268  0.00  0.00    +0.000 C 
ATOM     20  C   UNL     1       6.526   0.661   0.624  0.00  0.00    +0.000 C 
ENDROOT
BRANCH   9  21
ATOM     21  O   UNL     1      -3.135   0.099   0.094  0.00  0.00    +0.000 OA
BRANCH  21  23
ATOM     22  O   UNL     1      -4.414  -1.298   1.411  0.00  0.00    +0.000 OA
ATOM     23  C   UNL     1      -4.315  -0.375   0.616  0.00  0.00    +0.000 C 
BRANCH  23  24
ATOM     24  C   UNL     1      -5.470   0.430   0.064  0.00  0.00    +0.000 C 
BRANCH  24  25
ATOM     25  C   UNL     1      -6.816  -0.068   0.593  0.00  0.00    +0.000 C 
BRANCH  25  26
ATOM     26  C   UNL     1      -8.024   0.678  -0.004  0.00  0.00    +0.000 C 
ATOM     27  C   UNL     1      -8.060   0.600  -1.531  0.00  0.00    +0.000 C 
ATOM     28  C   UNL     1      -8.000   2.143   0.438  0.00  0.00    +0.000 C 
ENDBRANCH  25  26
ENDBRANCH  24  25
ENDBRANCH  23  24
ENDBRANCH  21  23
ENDBRANCH   9  21
TORSDOF 5
