REMARK  Name = 54707177
REMARK  20 active torsions:
REMARK  status: ('A' for Active; 'I' for Inactive)
REMARK    1  A    between atoms: O_1  and  C_18
REMARK    2  A    between atoms: O_2  and  C_20
REMARK    3  A    between atoms: O_4  and  C_23
REMARK    4  A    between atoms: O_5  and  C_26
REMARK    5  A    between atoms: O_7  and  C_33
REMARK    6  A    between atoms: O_9  and  C_43
REMARK    7  A    between atoms: N_11  and  C_19
REMARK    8  A    between atoms: N_11  and  C_31
REMARK    9  A    between atoms: N_11  and  C_32
REMARK   10  A    between atoms: N_12  and  C_37
REMARK   11  A    between atoms: N_13  and  C_37
REMARK   12  A    between atoms: N_13  and  C_38
REMARK   13  A    between atoms: N_14  and  C_42
REMARK   14  A    between atoms: C_20  and  C_29
REMARK   15  A    between atoms: C_27  and  C_34
REMARK   16  A    between atoms: C_38  and  C_39
REMARK   17  A    between atoms: C_39  and  C_40
REMARK   18  A    between atoms: C_40  and  C_41
REMARK   19  A    between atoms: C_41  and  C_42
REMARK   20  A    between atoms: C_42  and  C_43
REMARK                            x       y       z     vdW  Elec       q    Type
REMARK                         _______ _______ _______ _____ _____    ______ ____
ROOT
ATOM      1  O   UNK     1      -3.596  -1.596  -2.509  0.00  0.00    +0.000 OA
ATOM      2  O   UNK     1      -2.451   2.724   2.255  0.00  0.00    +0.000 OA
ATOM      3  C   UNK     1      -3.660  -0.397   0.908  0.00  0.00    +0.000 C 
ATOM      4  C   UNK     1      -2.128  -2.406   0.551  0.00  0.00    +0.000 C 
ATOM      5  C   UNK     1      -2.384  -1.148   1.399  0.00  0.00    +0.000 C 
ATOM      6  C   UNK     1      -3.642  -0.060  -0.607  0.00  0.00    +0.000 C 
ATOM      7  C   UNK     1      -3.869   0.865   1.762  0.00  0.00    +0.000 C 
ATOM      8  C   UNK     1      -0.983  -3.345   1.034  0.00  0.00    +0.000 C 
ATOM      9  C   UNK     1      -1.933  -1.935  -0.857  0.00  0.00    +0.000 C 
ATOM     10  C   UNK     1      -3.118  -1.247  -1.433  0.00  0.00    +0.000 C 
ATOM     11  C   UNK     1      -2.824   1.174  -0.943  0.00  0.00    +0.000 C 
ATOM     12  C   UNK     1       0.378  -2.988   0.437  0.00  0.00    +0.000 A 
ATOM     13  C   UNK     1      -2.859   1.936   1.401  0.00  0.00    +0.000 C 
ATOM     14  C   UNK     1      -0.771  -1.940  -1.524  0.00  0.00    +0.000 C 
ATOM     15  C   UNK     1      -2.409   2.071  -0.024  0.00  0.00    +0.000 C 
ATOM     16  C   UNK     1       0.466  -2.348  -0.821  0.00  0.00    +0.000 A 
ATOM     17  C   UNK     1      -1.300  -4.800   0.637  0.00  0.00    +0.000 C 
ATOM     18  C   UNK     1       1.560  -3.361   1.107  0.00  0.00    +0.000 A 
ATOM     19  C   UNK     1       1.740  -2.064  -1.344  0.00  0.00    +0.000 A 
ATOM     20  C   UNK     1       2.811  -3.081   0.563  0.00  0.00    +0.000 A 
ATOM     21  C   UNK     1       2.901  -2.429  -0.659  0.00  0.00    +0.000 A 
ENDROOT
BRANCH  15  24
ATOM     22  O   UNK     1      -1.902   4.360  -0.225  0.00  0.00    +0.000 OA
ATOM     23  N   UNK     1      -0.333   2.793  -0.935  0.00  0.00    +0.000 N 
ATOM     24  C   UNK     1      -1.539   3.200  -0.397  0.00  0.00    +0.000 C 
ATOM     25  H   UNK     1      -0.129   1.803  -1.030  0.00  0.00    +0.000 HD
BRANCH  23  26
ATOM     26  C   UNK     1       0.674   3.737  -1.371  0.00  0.00    +0.000 C 
BRANCH  26  27
ATOM     27  N   UNK     1       1.821   2.990  -1.862  0.00  0.00    +0.000 NA
ATOM     28  H   UNK     1       1.507   2.192  -2.412  0.00  0.00    +0.000 HD
BRANCH  27  29
ATOM     29  C   UNK     1       2.669   2.556  -0.760  0.00  0.00    +0.000 C 
BRANCH  29  30
ATOM     30  C   UNK     1       3.874   1.781  -1.291  0.00  0.00    +0.000 C 
BRANCH  30  31
ATOM     31  C   UNK     1       4.773   1.309  -0.145  0.00  0.00    +0.000 C 
BRANCH  31  32
ATOM     32  C   UNK     1       6.017   0.543  -0.616  0.00  0.00    +0.000 C 
BRANCH  32  33
ATOM     33  C   UNK     1       6.900  -0.002   0.514  0.00  0.00    +0.000 C 
BRANCH  33  34
ATOM     34  N   UNK     1       6.158  -0.929   1.370  0.00  0.00    +0.000 NA
ATOM     35  H   UNK     1       6.795  -1.368   2.034  0.00  0.00    +0.000 HD
ATOM     36  H   UNK     1       5.775  -1.685   0.803  0.00  0.00    +0.000 HD
ENDBRANCH  33  34
BRANCH  33  38
ATOM     37  O   UNK     1       7.223   1.171   2.599  0.00  0.00    +0.000 OA
ATOM     38  C   UNK     1       7.468   1.086   1.401  0.00  0.00    +0.000 C 
BRANCH  38  39
ATOM     39  O   UNK     1       8.261   1.974   0.751  0.00  0.00    +0.000 OA
ATOM     40  H   UNK     1       8.604   2.668   1.353  0.00  0.00    +0.000 HD
ENDBRANCH  38  39
ENDBRANCH  33  38
ENDBRANCH  32  33
ENDBRANCH  31  32
ENDBRANCH  30  31
ENDBRANCH  29  30
ENDBRANCH  27  29
ENDBRANCH  26  27
ENDBRANCH  23  26
ENDBRANCH  15  24
BRANCH   7  41
ATOM     41  N   UNK     1      -5.189   1.464   1.587  0.00  0.00    +0.000 NA
ATOM     42  C   UNK     1      -5.340   2.627   2.460  0.00  0.00    +0.000 C 
ATOM     43  C   UNK     1      -6.235   0.479   1.858  0.00  0.00    +0.000 C 
ENDBRANCH   7  41
BRANCH   6  44
ATOM     44  O   UNK     1      -4.971   0.185  -1.068  0.00  0.00    +0.000 OA
ATOM     45  H   UNK     1      -4.927   0.484  -1.993  0.00  0.00    +0.000 HD
ENDBRANCH   6  44
BRANCH   8  46
ATOM     46  O   UNK     1      -0.948  -3.321   2.465  0.00  0.00    +0.000 OA
ATOM     47  H   UNK     1      -1.809  -3.632   2.793  0.00  0.00    +0.000 HD
ENDBRANCH   8  46
BRANCH  11  48
ATOM     48  O   UNK     1      -2.559   1.289  -2.299  0.00  0.00    +0.000 OA
ATOM     49  H   UNK     1      -2.058   2.106  -2.456  0.00  0.00    +0.000 HD
ENDBRANCH  11  48
BRANCH  14  50
ATOM     50  O   UNK     1      -0.680  -1.466  -2.818  0.00  0.00    +0.000 OA
ATOM     51  H   UNK     1      -1.565  -1.257  -3.157  0.00  0.00    +0.000 HD
ENDBRANCH  14  50
BRANCH  19  52
ATOM     52  O   UNK     1       1.930  -1.449  -2.550  0.00  0.00    +0.000 OA
ATOM     53  H   UNK     1       2.881  -1.357  -2.729  0.00  0.00    +0.000 HD
ENDBRANCH  19  52
TORSDOF 17
