REMARK  Name = 68873
REMARK  2 active torsions:
REMARK  status: ('A' for Active; 'I' for Inactive)
REMARK    1  A    between atoms: C_7  and  C_20
REMARK    2  A    between atoms: C_16  and  C_23
REMARK                            x       y       z     vdW  Elec       q    Type
REMARK                         _______ _______ _______ _____ _____    ______ ____
ROOT
ATOM      1  O   UNL     1       4.264   0.569   0.717  0.00  0.00    +0.000 OA
ATOM      2  O   UNL     1       6.472   1.175   0.585  0.00  0.00    +0.000 OA
ATOM      3  O   UNL     1      -6.784   0.593  -0.292  0.00  0.00    +0.000 OA
ATOM      4  C   UNL     1       1.001  -0.745  -0.356  0.00  0.00    +0.000 C 
ATOM      5  C   UNL     1       1.872  -1.964  -0.232  0.00  0.00    +0.000 C 
ATOM      6  C   UNL     1       3.286  -1.463  -0.184  0.00  0.00    +0.000 C 
ATOM      7  C   UNL     1       1.807   0.452   0.234  0.00  0.00    +0.000 C 
ATOM      8  C   UNL     1      -0.440  -0.796   0.147  0.00  0.00    +0.000 C 
ATOM      9  C   UNL     1       3.271   0.074  -0.195  0.00  0.00    +0.000 C 
ATOM     10  C   UNL     1       2.748  -2.328   0.930  0.00  0.00    +0.000 C 
ATOM     11  C   UNL     1      -1.201  -1.975  -0.406  0.00  0.00    +0.000 C 
ATOM     12  C   UNL     1      -1.167   0.523  -0.288  0.00  0.00    +0.000 C 
ATOM     13  C   UNL     1      -2.693  -1.889  -0.587  0.00  0.00    +0.000 C 
ATOM     14  C   UNL     1       1.153   1.702  -0.393  0.00  0.00    +0.000 C 
ATOM     15  C   UNL     1      -2.122  -2.765   0.490  0.00  0.00    +0.000 C 
ATOM     16  C   UNL     1      -2.647   0.571   0.259  0.00  0.00    +0.000 C 
ATOM     17  C   UNL     1      -0.337   1.808  -0.004  0.00  0.00    +0.000 C 
ATOM     18  C   UNL     1       3.728   0.620  -1.543  0.00  0.00    +0.000 C 
ATOM     19  C   UNL     1      -3.437  -0.657  -0.240  0.00  0.00    +0.000 C 
ATOM     20  C   UNL     1       1.749   0.653   1.777  0.00  0.00    +0.000 C 
ATOM     21  C   UNL     1      -3.353   1.850  -0.271  0.00  0.00    +0.000 C 
ATOM     22  C   UNL     1       5.237   0.607  -1.419  0.00  0.00    +0.000 C 
ATOM     23  C   UNL     1      -2.680   0.592   1.808  0.00  0.00    +0.000 C 
ATOM     24  C   UNL     1       5.429   0.833   0.050  0.00  0.00    +0.000 C 
ATOM     25  C   UNL     1      -4.767  -0.597  -0.448  0.00  0.00    +0.000 C 
ATOM     26  C   UNL     1      -4.833   1.920   0.088  0.00  0.00    +0.000 C 
ATOM     27  C   UNL     1      -5.556   0.637  -0.229  0.00  0.00    +0.000 C 
ENDROOT
TORSDOF 0
