REMARK  Name = 441298
REMARK  23 active torsions:
REMARK  status: ('A' for Active; 'I' for Inactive)
REMARK    1  A    between atoms: O_2  and  C_15
REMARK    2  A    between atoms: C_5  and  C_11
REMARK    3  A    between atoms: C_5  and  C_12
REMARK    4  A    between atoms: C_6  and  C_16
REMARK    5  A    between atoms: C_7  and  C_14
REMARK    6  A    between atoms: C_8  and  C_17
REMARK    7  A    between atoms: C_11  and  C_19
REMARK    8  A    between atoms: C_14  and  C_22
REMARK    9  A    between atoms: C_16  and  C_20
REMARK   10  A    between atoms: C_17  and  C_23
REMARK   11  A    between atoms: C_18  and  C_21
REMARK   12  A    between atoms: C_19  and  C_24
REMARK   13  A    between atoms: C_20  and  C_25
REMARK   14  A    between atoms: C_20  and  C_26
REMARK   15  A    between atoms: C_21  and  C_29
REMARK   16  A    between atoms: C_27  and  C_31
REMARK   17  A    between atoms: C_27  and  C_32
REMARK   18  A    between atoms: C_28  and  C_34
REMARK   19  A    between atoms: C_28  and  C_35
REMARK   20  A    between atoms: C_30  and  C_36
REMARK   21  A    between atoms: C_30  and  C_37
REMARK   22  A    between atoms: C_33  and  C_38
REMARK   23  A    between atoms: C_33  and  C_39
REMARK                            x       y       z     vdW  Elec       q    Type
REMARK                         _______ _______ _______ _____ _____    ______ ____
ROOT
ATOM      1  O   UNL     1       2.005  -2.578  -0.564  0.00  0.00    +0.000 OA
ATOM      2  O   UNL     1      -1.308  -0.316  -2.550  0.00  0.00    +0.000 OA
ATOM      3  C   UNL     1      -0.784  -0.922   0.622  0.00  0.00    +0.000 C 
ATOM      4  C   UNL     1      -0.095  -1.379  -0.737  0.00  0.00    +0.000 C 
ATOM      5  C   UNL     1      -0.092   0.390   1.173  0.00  0.00    +0.000 C 
ATOM      6  C   UNL     1       2.084  -0.203  -0.096  0.00  0.00    +0.000 C 
ATOM      7  C   UNL     1       1.450   0.276   1.224  0.00  0.00    +0.000 C 
ATOM      8  C   UNL     1       1.404  -1.510  -0.467  0.00  0.00    +0.000 C 
ATOM      9  C   UNL     1      -0.692  -2.059   1.678  0.00  0.00    +0.000 C 
ATOM     10  C   UNL     1      -0.296  -0.326  -1.846  0.00  0.00    +0.000 C 
ATOM     11  C   UNL     1       1.824   0.776  -1.234  0.00  0.00    +0.000 C 
ATOM     12  C   UNL     1       0.759   0.726  -2.064  0.00  0.00    +0.000 C 
ENDROOT
BRANCH  11  13
ATOM     13  O   UNL     1       2.736   1.812  -1.374  0.00  0.00    +0.000 OA
ATOM     14  H   UNL     1       2.380   2.505  -1.949  0.00  0.00    +0.000 HD
ENDBRANCH  11  13
BRANCH   4  16
ATOM     15  O   UNL     1      -1.584  -3.248  -0.559  0.00  0.00    +0.000 OA
ATOM     16  C   UNL     1      -0.678  -2.707  -1.194  0.00  0.00    +0.000 C 
BRANCH  16  17
ATOM     17  C   UNL     1      -0.065  -3.337  -2.441  0.00  0.00    +0.000 C 
ATOM     18  C   UNL     1      -1.099  -3.461  -3.557  0.00  0.00    +0.000 C 
ATOM     19  C   UNL     1       0.528  -4.699  -2.098  0.00  0.00    +0.000 C 
ENDBRANCH  16  17
ENDBRANCH   4  16
BRANCH   3  20
ATOM     20  C   UNL     1      -2.294  -0.642   0.404  0.00  0.00    +0.000 C 
BRANCH  20  21
ATOM     21  C   UNL     1      -2.959  -0.278   1.719  0.00  0.00    +0.000 C 
BRANCH  21  22
ATOM     22  C   UNL     1      -4.418   0.008   1.500  0.00  0.00    +0.000 C 
ATOM     23  C   UNL     1      -5.436  -0.873   1.484  0.00  0.00    +0.000 C 
ATOM     24  C   UNL     1      -6.879  -0.520   1.259  0.00  0.00    +0.000 C 
ATOM     25  C   UNL     1      -5.178  -2.342   1.686  0.00  0.00    +0.000 C 
ENDBRANCH  21  22
ENDBRANCH  20  21
ENDBRANCH   3  20
BRANCH   5  26
ATOM     26  C   UNL     1      -0.593   0.860   2.548  0.00  0.00    +0.000 C 
BRANCH  26  27
ATOM     27  C   UNL     1       0.085   2.129   2.954  0.00  0.00    +0.000 C 
ATOM     28  C   UNL     1      -0.337   3.390   2.742  0.00  0.00    +0.000 C 
ATOM     29  C   UNL     1      -1.638   3.650   2.031  0.00  0.00    +0.000 C 
ATOM     30  C   UNL     1       0.392   4.630   3.177  0.00  0.00    +0.000 C 
ENDBRANCH  26  27
ENDBRANCH   5  26
BRANCH   6  31
ATOM     31  C   UNL     1       3.587  -0.472   0.121  0.00  0.00    +0.000 C 
BRANCH  31  32
ATOM     32  C   UNL     1       3.798  -1.342   1.317  0.00  0.00    +0.000 C 
ATOM     33  C   UNL     1       4.842  -1.331   2.167  0.00  0.00    +0.000 C 
ATOM     34  C   UNL     1       5.971  -0.353   1.975  0.00  0.00    +0.000 C 
ATOM     35  C   UNL     1       4.999  -2.234   3.357  0.00  0.00    +0.000 C 
ENDBRANCH  31  32
ENDBRANCH   6  31
BRANCH  12  36
ATOM     36  C   UNL     1       0.504   1.697  -3.179  0.00  0.00    +0.000 C 
BRANCH  36  37
ATOM     37  C   UNL     1      -0.406   2.806  -2.751  0.00  0.00    +0.000 C 
ATOM     38  C   UNL     1      -0.164   4.131  -2.784  0.00  0.00    +0.000 C 
ATOM     39  C   UNL     1      -1.123   5.198  -2.338  0.00  0.00    +0.000 C 
ATOM     40  C   UNL     1       1.148   4.653  -3.307  0.00  0.00    +0.000 C 
ENDBRANCH  36  37
ENDBRANCH  12  36
TORSDOF 12
