REMARK  Name = 246983
REMARK  13 active torsions:
REMARK  status: ('A' for Active; 'I' for Inactive)
REMARK    1  A    between atoms: O_1  and  C_20
REMARK    2  A    between atoms: C_2  and  C_18
REMARK    3  A    between atoms: C_3  and  C_19
REMARK    4  A    between atoms: C_4  and  C_17
REMARK    5  A    between atoms: C_5  and  C_22
REMARK    6  A    between atoms: C_13  and  C_23
REMARK    7  A    between atoms: C_13  and  C_24
REMARK    8  A    between atoms: C_17  and  C_25
REMARK    9  A    between atoms: C_17  and  C_26
REMARK   10  A    between atoms: C_25  and  C_27
REMARK   11  A    between atoms: C_27  and  C_28
REMARK   12  A    between atoms: C_29  and  C_30
REMARK   13  A    between atoms: C_29  and  C_31
REMARK                            x       y       z     vdW  Elec       q    Type
REMARK                         _______ _______ _______ _____ _____    ______ ____
ROOT
ATOM      1  C   UNL     1       1.112   0.620   0.437  0.00  0.00    +0.000 C 
ATOM      2  C   UNL     1       0.465  -0.750   0.035  0.00  0.00    +0.000 C 
ATOM      3  C   UNL     1       2.622   0.289   0.346  0.00  0.00    +0.000 C 
ATOM      4  C   UNL     1      -3.256   0.586  -0.094  0.00  0.00    +0.000 C 
ATOM      5  C   UNL     1      -1.051  -0.669   0.172  0.00  0.00    +0.000 C 
ATOM      6  C   UNL     1      -3.908  -0.841  -0.106  0.00  0.00    +0.000 C 
ATOM      7  C   UNL     1      -1.703   0.478  -0.154  0.00  0.00    +0.000 C 
ATOM      8  C   UNL     1       1.273  -1.708   0.936  0.00  0.00    +0.000 C 
ATOM      9  C   UNL     1       0.611   1.690  -0.533  0.00  0.00    +0.000 C 
ATOM     10  C   UNL     1       2.710  -1.141   0.931  0.00  0.00    +0.000 C 
ATOM     11  C   UNL     1      -0.931   1.754  -0.543  0.00  0.00    +0.000 C 
ATOM     12  C   UNL     1      -5.489  -0.881  -0.073  0.00  0.00    +0.000 C 
ATOM     13  C   UNL     1      -1.755  -1.927   0.616  0.00  0.00    +0.000 C 
ATOM     14  C   UNL     1      -3.239  -1.756   0.927  0.00  0.00    +0.000 C 
ATOM     15  C   UNL     1      -3.810   1.371  -1.323  0.00  0.00    +0.000 C 
ATOM     16  C   UNL     1       0.764   1.075   1.891  0.00  0.00    +0.000 C 
ATOM     17  C   UNL     1       0.711  -1.197  -1.440  0.00  0.00    +0.000 C 
ATOM     18  C   UNL     1      -6.105   0.334  -0.839  0.00  0.00    +0.000 C 
ATOM     19  C   UNL     1      -5.150   0.883  -1.891  0.00  0.00    +0.000 C 
ATOM     20  C   UNL     1      -3.552   1.366   1.211  0.00  0.00    +0.000 C 
ATOM     21  C   UNL     1      -5.931  -2.165  -0.834  0.00  0.00    +0.000 C 
ATOM     22  C   UNL     1      -6.074  -1.009   1.349  0.00  0.00    +0.000 C 
ENDROOT
BRANCH  18  23
ATOM     23  O   UNL     1      -6.476   1.414   0.013  0.00  0.00    +0.000 OA
ATOM     24  H   UNL     1      -6.886   2.101  -0.539  0.00  0.00    +0.000 HD
ENDBRANCH  18  23
BRANCH   3  25
ATOM     25  C   UNL     1       3.583   1.261   1.020  0.00  0.00    +0.000 C 
ATOM     26  C   UNL     1       3.387   2.668   0.443  0.00  0.00    +0.000 C 
BRANCH  25  27
ATOM     27  C   UNL     1       5.060   0.843   0.856  0.00  0.00    +0.000 C 
BRANCH  27  28
ATOM     28  C   UNL     1       5.570   0.790  -0.591  0.00  0.00    +0.000 C 
BRANCH  28  29
ATOM     29  C   UNL     1       7.028   0.435  -0.680  0.00  0.00    +0.000 C 
ATOM     30  C   UNL     1       7.592  -0.788  -0.688  0.00  0.00    +0.000 C 
ATOM     31  C   UNL     1       9.087  -0.934  -0.791  0.00  0.00    +0.000 C 
ATOM     32  C   UNL     1       6.851  -2.092  -0.600  0.00  0.00    +0.000 C 
ENDBRANCH  28  29
ENDBRANCH  27  28
ENDBRANCH  25  27
ENDBRANCH   3  25
TORSDOF 5
