REMARK  Name = 5288209
REMARK  12 active torsions:
REMARK  status: ('A' for Active; 'I' for Inactive)
REMARK    1  A    between atoms: O_2  and  C_29
REMARK    2  A    between atoms: N_3  and  C_24
REMARK    3  A    between atoms: C_4  and  C_10
REMARK    4  A    between atoms: C_4  and  C_11
REMARK    5  A    between atoms: C_7  and  C_12
REMARK    6  A    between atoms: C_9  and  C_13
REMARK    7  A    between atoms: C_14  and  C_15
REMARK    8  A    between atoms: C_15  and  C_16
REMARK    9  A    between atoms: C_17  and  C_18
REMARK   10  A    between atoms: C_19  and  C_20
REMARK   11  A    between atoms: C_20  and  C_22
REMARK   12  A    between atoms: C_21  and  C_23
REMARK                            x       y       z     vdW  Elec       q    Type
REMARK                         _______ _______ _______ _____ _____    ______ ____
ROOT
ATOM      1  C   UNL     1      -0.170  -0.338  -0.499  0.00  0.00    +0.000 C 
ATOM      2  C   UNL     1       0.853  -0.922   0.147  0.00  0.00    +0.000 C 
ENDROOT
BRANCH   1   5
ATOM      3  C   UNL     1      -2.657   0.048  -0.637  0.00  0.00    +0.000 C 
ATOM      4  C   UNL     1      -2.500   0.903  -1.874  0.00  0.00    +0.000 C 
ATOM      5  C   UNL     1      -1.549  -0.483  -0.076  0.00  0.00    +0.000 C 
BRANCH   3   7
ATOM      6  C   UNL     1      -5.143   0.345  -0.650  0.00  0.00    +0.000 C 
ATOM      7  C   UNL     1      -4.013  -0.161  -0.130  0.00  0.00    +0.000 C 
BRANCH   6  11
ATOM      8  C   UNL     1      -7.417   1.303  -0.048  0.00  0.00    +0.000 C 
ATOM      9  C   UNL     1      -8.872   0.874   0.285  0.00  0.00    +0.000 C 
ATOM     10  C   UNL     1      -8.928  -0.132   1.422  0.00  0.00    +0.000 C 
ATOM     11  C   UNL     1      -6.461   0.088  -0.091  0.00  0.00    +0.000 C 
ATOM     12  C   UNL     1      -8.157  -1.388   1.045  0.00  0.00    +0.000 C 
ATOM     13  C   UNL     1      -6.818  -1.132   0.383  0.00  0.00    +0.000 C 
ATOM     14  C   UNL     1      -6.931   2.305   1.024  0.00  0.00    +0.000 C 
ATOM     15  C   UNL     1      -7.490   2.036  -1.409  0.00  0.00    +0.000 C 
ATOM     16  C   UNL     1      -5.970  -2.382   0.333  0.00  0.00    +0.000 C 
ENDBRANCH   6  11
ENDBRANCH   3   7
ENDBRANCH   1   5
BRANCH   2  17
ATOM     17  C   UNL     1       2.254  -0.804  -0.233  0.00  0.00    +0.000 C 
ATOM     18  C   UNL     1       3.294  -1.379   0.401  0.00  0.00    +0.000 C 
ATOM     19  C   UNL     1       2.480   0.029  -1.466  0.00  0.00    +0.000 C 
BRANCH  18  22
ATOM     20  O   UNL     1       5.194  -2.069  -0.781  0.00  0.00    +0.000 OA
ATOM     21  N   UNL     1       5.372  -0.210   0.648  0.00  0.00    +0.000 N 
ATOM     22  C   UNL     1       4.726  -1.251   0.002  0.00  0.00    +0.000 C 
ATOM     23  H   UNL     1       4.826   0.351   1.300  0.00  0.00    +0.000 HD
BRANCH  21  24
ATOM     24  C   UNL     1       6.723   0.183   0.500  0.00  0.00    +0.000 A 
ATOM     25  C   UNL     1       7.201   1.256   1.233  0.00  0.00    +0.000 A 
ATOM     26  C   UNL     1       7.539  -0.515  -0.375  0.00  0.00    +0.000 A 
ATOM     27  C   UNL     1       8.533   1.643   1.087  0.00  0.00    +0.000 A 
ATOM     28  C   UNL     1       8.871  -0.128  -0.520  0.00  0.00    +0.000 A 
ATOM     29  C   UNL     1       9.368   0.951   0.210  0.00  0.00    +0.000 A 
BRANCH  29  30
ATOM     30  O   UNL     1      10.668   1.328   0.069  0.00  0.00    +0.000 OA
ATOM     31  H   UNL     1      10.841   2.090   0.649  0.00  0.00    +0.000 HD
ENDBRANCH  29  30
ENDBRANCH  21  24
ENDBRANCH  18  22
ENDBRANCH   2  17
TORSDOF 7
