REMARK  Name = 107985
REMARK  5 active torsions:
REMARK  status: ('A' for Active; 'I' for Inactive)
REMARK    1  A    between atoms: O_4  and  C_14
REMARK    2  A    between atoms: C_10  and  C_19
REMARK    3  A    between atoms: C_11  and  C_18
REMARK    4  A    between atoms: C_18  and  C_23
REMARK    5  A    between atoms: C_18  and  C_24
REMARK                            x       y       z     vdW  Elec       q    Type
REMARK                         _______ _______ _______ _____ _____    ______ ____
ROOT
ATOM      1  O   UNL     1       1.244  -1.323  -1.580  0.00  0.00    +0.000 OA
ATOM      2  O   UNL     1       0.878   1.990  -1.470  0.00  0.00    +0.000 OA
ATOM      3  O   UNL     1       2.656  -0.559   1.608  0.00  0.00    +0.000 OA
ATOM      4  O   UNL     1      -5.122   0.853   1.221  0.00  0.00    +0.000 OA
ATOM      5  O   UNL     1      -5.983  -1.135   0.440  0.00  0.00    +0.000 OA
ATOM      6  C   UNL     1       0.581  -0.411  -0.688  0.00  0.00    +0.000 C 
ATOM      7  C   UNL     1       1.283   0.975  -0.531  0.00  0.00    +0.000 C 
ATOM      8  C   UNL     1       1.341  -1.650  -0.189  0.00  0.00    +0.000 C 
ATOM      9  C   UNL     1      -0.965  -0.414  -0.778  0.00  0.00    +0.000 C 
ATOM     10  C   UNL     1       3.380  -0.117   0.459  0.00  0.00    +0.000 C 
ATOM     11  C   UNL     1       2.686  -1.450   0.472  0.00  0.00    +0.000 C 
ATOM     12  C   UNL     1       0.437   2.179  -0.127  0.00  0.00    +0.000 C 
ATOM     13  C   UNL     1       2.789   1.030  -0.301  0.00  0.00    +0.000 C 
ATOM     14  C   UNL     1      -1.489   0.611   0.310  0.00  0.00    +0.000 C 
ATOM     15  C   UNL     1      -1.050   2.060   0.025  0.00  0.00    +0.000 C 
ATOM     16  C   UNL     1      -1.598  -1.808  -0.454  0.00  0.00    +0.000 C 
ATOM     17  C   UNL     1      -1.389  -0.029  -2.221  0.00  0.00    +0.000 C 
ATOM     18  C   UNL     1      -2.971   0.482   0.534  0.00  0.00    +0.000 C 
ATOM     19  C   UNL     1      -3.138  -1.810  -0.471  0.00  0.00    +0.000 C 
ATOM     20  C   UNL     1      -3.673  -0.591   0.178  0.00  0.00    +0.000 C 
ATOM     21  C   UNL     1      -3.825   1.467   1.222  0.00  0.00    +0.000 C 
ATOM     22  C   UNL     1      -5.053  -0.365   0.604  0.00  0.00    +0.000 C 
ENDROOT
BRANCH  10  23
ATOM     23  C   UNL     1       4.850  -0.078   0.699  0.00  0.00    +0.000 C 
ATOM     24  C   UNL     1       5.189   0.451   2.106  0.00  0.00    +0.000 C 
ATOM     25  C   UNL     1       5.500  -1.462   0.509  0.00  0.00    +0.000 C 
ENDBRANCH  10  23
BRANCH  13  26
ATOM     26  O   UNL     1       3.441   1.102  -1.575  0.00  0.00    +0.000 OA
ATOM     27  H   UNL     1       3.229   0.287  -2.061  0.00  0.00    +0.000 HD
ENDBRANCH  13  26
TORSDOF 2
