REMARK  Name = 169870
REMARK  11 active torsions:
REMARK  status: ('A' for Active; 'I' for Inactive)
REMARK    1  A    between atoms: O_1  and  C_9
REMARK    2  A    between atoms: O_1  and  C_26
REMARK    3  A    between atoms: C_5  and  C_16
REMARK    4  A    between atoms: C_9  and  C_21
REMARK    5  A    between atoms: C_11  and  C_20
REMARK    6  A    between atoms: C_21  and  C_25
REMARK    7  A    between atoms: C_26  and  C_27
REMARK    8  A    between atoms: C_27  and  C_28
REMARK    9  A    between atoms: C_28  and  C_29
REMARK   10  A    between atoms: C_29  and  C_30
REMARK   11  A    between atoms: C_30  and  C_31
REMARK                            x       y       z     vdW  Elec       q    Type
REMARK                         _______ _______ _______ _____ _____    ______ ____
ROOT
ATOM      1  O   UNL     1       6.723   1.730  -1.014  0.00  0.00    +0.000 OA
ATOM      2  C   UNL     1      -0.990  -1.557   0.177  0.00  0.00    +0.000 C 
ATOM      3  C   UNL     1      -0.379  -0.344   0.916  0.00  0.00    +0.000 C 
ATOM      4  C   UNL     1       1.134  -0.469   1.132  0.00  0.00    +0.000 C 
ATOM      5  C   UNL     1       1.835  -0.602  -0.256  0.00  0.00    +0.000 C 
ATOM      6  C   UNL     1      -2.488  -1.157   0.217  0.00  0.00    +0.000 C 
ATOM      7  C   UNL     1      -0.337  -1.625  -1.213  0.00  0.00    +0.000 C 
ATOM      8  C   UNL     1       3.405  -0.698  -0.142  0.00  0.00    +0.000 C 
ATOM      9  C   UNL     1      -1.280  -0.181   2.138  0.00  0.00    +0.000 C 
ATOM     10  C   UNL     1       1.197  -1.723  -1.120  0.00  0.00    +0.000 C 
ATOM     11  C   UNL     1      -2.685  -0.566   1.631  0.00  0.00    +0.000 C 
ATOM     12  C   UNL     1       1.694   0.742   1.889  0.00  0.00    +0.000 C 
ATOM     13  C   UNL     1      -0.774  -2.904   0.920  0.00  0.00    +0.000 C 
ATOM     14  C   UNL     1       3.923   0.426   0.764  0.00  0.00    +0.000 C 
ATOM     15  C   UNL     1       3.201   0.626   2.076  0.00  0.00    +0.000 C 
ATOM     16  C   UNL     1       4.009  -0.550  -1.570  0.00  0.00    +0.000 C 
ATOM     17  C   UNL     1       3.860  -2.049   0.456  0.00  0.00    +0.000 C 
ATOM     18  C   UNL     1       5.500  -0.251  -1.574  0.00  0.00    +0.000 C 
ATOM     19  C   UNL     1       4.975   1.206   0.467  0.00  0.00    +0.000 C 
ATOM     20  C   UNL     1       5.791   0.973  -0.746  0.00  0.00    +0.000 C 
ENDROOT
BRANCH   6  22
ATOM     21  O   UNL     1      -4.261  -2.673   0.722  0.00  0.00    +0.000 OA
ATOM     22  C   UNL     1      -3.426  -2.285  -0.094  0.00  0.00    +0.000 C 
ATOM     23  C   UNL     1      -3.298  -2.916  -1.454  0.00  0.00    +0.000 C 
ENDBRANCH   6  22
BRANCH   6  24
ATOM     24  O   UNL     1      -2.776  -0.158  -0.756  0.00  0.00    +0.000 OA
BRANCH  24  26
ATOM     25  O   UNL     1      -4.951  -0.035   0.001  0.00  0.00    +0.000 OA
ATOM     26  C   UNL     1      -4.058   0.322  -0.755  0.00  0.00    +0.000 C 
BRANCH  26  27
ATOM     27  C   UNL     1      -4.190   1.392  -1.816  0.00  0.00    +0.000 C 
BRANCH  27  28
ATOM     28  C   UNL     1      -3.186   2.532  -1.650  0.00  0.00    +0.000 C 
BRANCH  28  29
ATOM     29  C   UNL     1      -3.329   3.247  -0.302  0.00  0.00    +0.000 C 
BRANCH  29  30
ATOM     30  C   UNL     1      -2.336   4.402  -0.180  0.00  0.00    +0.000 C 
ATOM     31  C   UNL     1      -2.503   5.145   1.136  0.00  0.00    +0.000 C 
ENDBRANCH  29  30
ENDBRANCH  28  29
ENDBRANCH  27  28
ENDBRANCH  26  27
ENDBRANCH  24  26
ENDBRANCH   6  24
TORSDOF 7
