REMARK  Name = 9849735
REMARK  14 active torsions:
REMARK  status: ('A' for Active; 'I' for Inactive)
REMARK    1  A    between atoms: O_1  and  C_16
REMARK    2  A    between atoms: O_1  and  C_29
REMARK    3  A    between atoms: O_5  and  C_25
REMARK    4  A    between atoms: O_6  and  C_27
REMARK    5  A    between atoms: O_6  and  C_32
REMARK    6  A    between atoms: N_9  and  C_30
REMARK    7  A    between atoms: N_9  and  C_33
REMARK    8  A    between atoms: N_9  and  C_34
REMARK    9  A    between atoms: C_10  and  C_20
REMARK   10  A    between atoms: C_15  and  C_24
REMARK   11  A    between atoms: C_21  and  C_27
REMARK   12  A    between atoms: C_29  and  C_31
REMARK   13  A    between atoms: C_33  and  C_35
REMARK   14  A    between atoms: C_34  and  C_36
REMARK                            x       y       z     vdW  Elec       q    Type
REMARK                         _______ _______ _______ _____ _____    ______ ____
ROOT
ATOM      1  O   UNL     1       1.047  -3.126   0.163  0.00  0.00    +0.000 OA
ATOM      2  O   UNL     1      -5.561   2.971   0.463  0.00  0.00    +0.000 OA
ATOM      3  O   UNL     1      -0.185   2.191  -2.506  0.00  0.00    +0.000 OA
ATOM      4  O   UNL     1       3.261  -3.406  -0.150  0.00  0.00    +0.000 OA
ATOM      5  C   UNL     1      -3.347   1.967   0.381  0.00  0.00    +0.000 C 
ATOM      6  C   UNL     1      -2.575   1.837  -0.953  0.00  0.00    +0.000 C 
ATOM      7  C   UNL     1      -3.763   0.561   0.768  0.00  0.00    +0.000 C 
ATOM      8  C   UNL     1      -1.281  -0.019   0.093  0.00  0.00    +0.000 C 
ATOM      9  C   UNL     1      -1.318   1.016  -0.782  0.00  0.00    +0.000 C 
ATOM     10  C   UNL     1       0.004  -0.854   0.342  0.00  0.00    +0.000 C 
ATOM     11  C   UNL     1      -2.525  -0.342   0.957  0.00  0.00    +0.000 C 
ATOM     12  C   UNL     1      -2.587   3.275  -1.490  0.00  0.00    +0.000 C 
ATOM     13  C   UNL     1      -4.461   2.892  -0.069  0.00  0.00    +0.000 C 
ATOM     14  C   UNL     1      -4.031   3.737  -1.249  0.00  0.00    +0.000 C 
ATOM     15  C   UNL     1      -2.601   2.685   1.521  0.00  0.00    +0.000 C 
ATOM     16  C   UNL     1      -0.173  -2.354  -0.033  0.00  0.00    +0.000 C 
ATOM     17  C   UNL     1       1.198  -0.385  -0.491  0.00  0.00    +0.000 C 
ATOM     18  C   UNL     1      -0.138   1.336  -1.626  0.00  0.00    +0.000 C 
ATOM     19  C   UNL     1       0.367  -0.718   1.849  0.00  0.00    +0.000 C 
ATOM     20  C   UNL     1       1.125   0.593  -1.414  0.00  0.00    +0.000 C 
ATOM     21  C   UNL     1       2.400  -1.183  -0.259  0.00  0.00    +0.000 C 
ATOM     22  C   UNL     1       2.292  -2.656  -0.102  0.00  0.00    +0.000 C 
ATOM     23  C   UNL     1       3.615  -0.652  -0.038  0.00  0.00    +0.000 C 
ENDROOT
BRANCH  20  24
ATOM     24  O   UNL     1       2.150   0.957  -2.265  0.00  0.00    +0.000 OA
ATOM     25  H   UNL     1       1.827   1.673  -2.838  0.00  0.00    +0.000 HD
ENDBRANCH  20  24
BRANCH  11  26
ATOM     26  O   UNL     1      -2.954  -1.683   0.738  0.00  0.00    +0.000 OA
BRANCH  26  28
ATOM     27  O   UNL     1      -3.678  -1.825   2.928  0.00  0.00    +0.000 OA
ATOM     28  C   UNL     1      -3.515  -2.308   1.815  0.00  0.00    +0.000 C 
ATOM     29  C   UNL     1      -3.916  -3.703   1.440  0.00  0.00    +0.000 C 
ENDBRANCH  26  28
ENDBRANCH  11  26
BRANCH  23  30
ATOM     30  N   UNL     1       3.953   0.656  -0.020  0.00  0.00    +0.000 N 
BRANCH  30  31
ATOM     31  C   UNL     1       3.347   1.598   0.923  0.00  0.00    +0.000 C 
BRANCH  31  32
ATOM     32  C   UNL     1       4.024   1.457   2.248  0.00  0.00    +0.000 C 
ATOM     33  C   UNL     1       4.678   2.449   2.862  0.00  0.00    +0.000 C 
ENDBRANCH  31  32
ENDBRANCH  30  31
BRANCH  30  34
ATOM     34  C   UNL     1       5.109   1.166  -0.759  0.00  0.00    +0.000 C 
BRANCH  34  35
ATOM     35  C   UNL     1       6.349   0.879   0.026  0.00  0.00    +0.000 C 
ATOM     36  C   UNL     1       7.189   1.823   0.468  0.00  0.00    +0.000 C 
ENDBRANCH  34  35
ENDBRANCH  30  34
ENDBRANCH  23  30
BRANCH  16  37
ATOM     37  C   UNL     1      -0.653  -2.627  -1.462  0.00  0.00    +0.000 C 
BRANCH  37  38
ATOM     38  O   UNL     1      -1.187  -3.935  -1.508  0.00  0.00    +0.000 OA
ATOM     39  C   UNL     1      -1.659  -4.269  -2.809  0.00  0.00    +0.000 C 
ENDBRANCH  37  38
ENDBRANCH  16  37
TORSDOF 10
