REMARK  Name = 11750009
REMARK  9 active torsions:
REMARK  status: ('A' for Active; 'I' for Inactive)
REMARK    1  A    between atoms: O_1  and  C_10
REMARK    2  A    between atoms: O_1  and  C_27
REMARK    3  A    between atoms: O_3  and  C_26
REMARK    4  A    between atoms: C_6  and  C_17
REMARK    5  A    between atoms: C_10  and  C_22
REMARK    6  A    between atoms: C_12  and  C_21
REMARK    7  A    between atoms: C_22  and  C_26
REMARK    8  A    between atoms: C_27  and  C_28
REMARK    9  A    between atoms: C_28  and  C_29
REMARK                            x       y       z     vdW  Elec       q    Type
REMARK                         _______ _______ _______ _____ _____    ______ ____
ROOT
ATOM      1  O   UNL     1       6.890  -1.454   1.101  0.00  0.00    +0.000 OA
ATOM      2  C   UNL     1      -1.145   0.849  -0.253  0.00  0.00    +0.000 C 
ATOM      3  C   UNL     1      -0.338  -0.200  -1.053  0.00  0.00    +0.000 C 
ATOM      4  C   UNL     1       1.151   0.148  -1.171  0.00  0.00    +0.000 C 
ATOM      5  C   UNL     1       1.763   0.251   0.260  0.00  0.00    +0.000 C 
ATOM      6  C   UNL     1      -2.569   0.255  -0.410  0.00  0.00    +0.000 C 
ATOM      7  C   UNL     1      -0.571   0.881   1.173  0.00  0.00    +0.000 C 
ATOM      8  C   UNL     1       3.308   0.569   0.244  0.00  0.00    +0.000 C 
ATOM      9  C   UNL     1      -1.152  -0.374  -2.332  0.00  0.00    +0.000 C 
ATOM     10  C   UNL     1       0.936   1.194   1.176  0.00  0.00    +0.000 C 
ATOM     11  C   UNL     1      -2.618  -0.230  -1.876  0.00  0.00    +0.000 C 
ATOM     12  C   UNL     1       1.908  -0.904  -1.992  0.00  0.00    +0.000 C 
ATOM     13  C   UNL     1      -1.087   2.274  -0.870  0.00  0.00    +0.000 C 
ATOM     14  C   UNL     1       4.018  -0.390  -0.721  0.00  0.00    +0.000 C 
ATOM     15  C   UNL     1       3.391  -0.568  -2.083  0.00  0.00    +0.000 C 
ATOM     16  C   UNL     1       3.862   0.378   1.687  0.00  0.00    +0.000 C 
ATOM     17  C   UNL     1       3.596   2.016  -0.214  0.00  0.00    +0.000 C 
ATOM     18  C   UNL     1       5.378   0.284   1.751  0.00  0.00    +0.000 C 
ATOM     19  C   UNL     1       5.155  -1.044  -0.429  0.00  0.00    +0.000 C 
ATOM     20  C   UNL     1       5.875  -0.810   0.844  0.00  0.00    +0.000 C 
ENDROOT
BRANCH   6  22
ATOM     21  O   UNL     1      -4.508   1.552  -0.895  0.00  0.00    +0.000 OA
ATOM     22  C   UNL     1      -3.669   1.213  -0.062  0.00  0.00    +0.000 C 
BRANCH  22  23
ATOM     23  C   UNL     1      -3.683   1.730   1.361  0.00  0.00    +0.000 C 
BRANCH  23  24
ATOM     24  O   UNL     1      -5.003   2.004   1.779  0.00  0.00    +0.000 OA
ATOM     25  H   UNL     1      -5.483   1.158   1.806  0.00  0.00    +0.000 HD
ENDBRANCH  23  24
ENDBRANCH  22  23
ENDBRANCH   6  22
BRANCH   6  26
ATOM     26  O   UNL     1      -2.758  -0.857   0.461  0.00  0.00    +0.000 OA
BRANCH  26  28
ATOM     27  O   UNL     1      -4.859  -1.207  -0.427  0.00  0.00    +0.000 OA
ATOM     28  C   UNL     1      -3.959  -1.504   0.347  0.00  0.00    +0.000 C 
BRANCH  28  29
ATOM     29  C   UNL     1      -3.999  -2.649   1.331  0.00  0.00    +0.000 C 
ATOM     30  C   UNL     1      -5.315  -3.405   1.275  0.00  0.00    +0.000 C 
ENDBRANCH  28  29
ENDBRANCH  26  28
ENDBRANCH   6  26
TORSDOF 6
