REMARK  Name = 71811910
REMARK  11 active torsions:
REMARK  status: ('A' for Active; 'I' for Inactive)
REMARK    1  A    between atoms: N_6  and  C_12
REMARK    2  A    between atoms: C_8  and  C_23
REMARK    3  A    between atoms: C_9  and  C_26
REMARK    4  A    between atoms: C_16  and  C_29
REMARK    5  A    between atoms: C_21  and  C_31
REMARK    6  A    between atoms: C_21  and  C_32
REMARK    7  A    between atoms: C_28  and  C_35
REMARK    8  A    between atoms: C_28  and  C_36
REMARK    9  A    between atoms: C_34  and  C_39
REMARK   10  A    between atoms: C_37  and  C_38
REMARK   11  A    between atoms: C_38  and  C_40
REMARK                            x       y       z     vdW  Elec       q    Type
REMARK                         _______ _______ _______ _____ _____    ______ ____
ROOT
ATOM      1  O   UNL     1       0.570  -2.166  -2.272  0.00  0.00    +0.000 OA
ATOM      2  O   UNL     1      -7.162  -0.130   0.804  0.00  0.00    +0.000 OA
ATOM      3  C   UNL     1       0.490   0.041   0.665  0.00  0.00    +0.000 C 
ATOM      4  C   UNL     1      -0.726   0.976   0.140  0.00  0.00    +0.000 C 
ATOM      5  C   UNL     1       1.204  -0.556  -0.584  0.00  0.00    +0.000 C 
ATOM      6  C   UNL     1       2.546  -1.309  -0.337  0.00  0.00    +0.000 C 
ATOM      7  C   UNL     1       3.530  -0.408   0.466  0.00  0.00    +0.000 C 
ATOM      8  C   UNL     1       1.530   0.842   1.503  0.00  0.00    +0.000 C 
ATOM      9  C   UNL     1       2.854   0.099   1.759  0.00  0.00    +0.000 C 
ATOM     10  C   UNL     1      -1.718   0.087  -0.664  0.00  0.00    +0.000 C 
ATOM     11  C   UNL     1      -3.237   0.480  -0.697  0.00  0.00    +0.000 C 
ATOM     12  C   UNL     1      -1.351   1.737   1.346  0.00  0.00    +0.000 C 
ATOM     13  C   UNL     1       2.400  -2.718   0.281  0.00  0.00    +0.000 C 
ATOM     14  C   UNL     1      -3.660   1.016   0.712  0.00  0.00    +0.000 C 
ATOM     15  C   UNL     1       4.845  -1.152   0.789  0.00  0.00    +0.000 C 
ATOM     16  C   UNL     1       3.742  -3.445   0.521  0.00  0.00    +0.000 C 
ATOM     17  C   UNL     1      -2.784   2.204   1.136  0.00  0.00    +0.000 C 
ATOM     18  C   UNL     1      -0.083  -1.098   1.580  0.00  0.00    +0.000 C 
ATOM     19  C   UNL     1       0.215  -1.309  -1.464  0.00  0.00    +0.000 C 
ATOM     20  C   UNL     1       4.656  -2.548   1.377  0.00  0.00    +0.000 C 
ATOM     21  C   UNL     1      -0.243   2.084  -0.850  0.00  0.00    +0.000 C 
ATOM     22  C   UNL     1      -1.229  -0.942  -1.395  0.00  0.00    +0.000 C 
ATOM     23  C   UNL     1      -5.190   1.263   0.922  0.00  0.00    +0.000 C 
ATOM     24  C   UNL     1      -3.425   1.477  -1.865  0.00  0.00    +0.000 C 
ATOM     25  C   UNL     1      -4.162  -0.694  -1.022  0.00  0.00    +0.000 C 
ATOM     26  C   UNL     1       4.418  -3.817  -0.812  0.00  0.00    +0.000 C 
ATOM     27  C   UNL     1       3.471  -4.753   1.291  0.00  0.00    +0.000 C 
ATOM     28  C   UNL     1      -5.996   0.048   0.444  0.00  0.00    +0.000 C 
ATOM     29  C   UNL     1      -5.384  -0.912  -0.514  0.00  0.00    +0.000 C 
ATOM     30  C   UNL     1      -5.488   1.415   2.438  0.00  0.00    +0.000 C 
ATOM     31  C   UNL     1      -5.746   2.510   0.217  0.00  0.00    +0.000 C 
ENDROOT
BRANCH   7  33
ATOM     32  O   UNL     1       5.323   1.748   1.202  0.00  0.00    +0.000 OA
ATOM     33  N   UNL     1       3.904   0.752  -0.344  0.00  0.00    +0.000 N 
ATOM     34  C   UNL     1       4.768   1.721   0.106  0.00  0.00    +0.000 C 
ATOM     35  H   UNL     1       3.549   0.823  -1.294  0.00  0.00    +0.000 HD
BRANCH  34  38
ATOM     36  F   UNL     1       4.868   2.343  -2.182  0.00  0.00    +0.000 F 
ATOM     37  F   UNL     1       6.217   3.352  -0.807  0.00  0.00    +0.000 F 
ATOM     38  C   UNL     1       4.967   2.822  -0.911  0.00  0.00    +0.000 C 
ATOM     39  C   UNL     1       3.958   3.939  -0.735  0.00  0.00    +0.000 C 
ENDBRANCH  34  38
ENDBRANCH   7  33
BRANCH  29  41
ATOM     40  N   UNL     1      -6.753  -2.961  -1.298  0.00  0.00    +0.000 NA
ATOM     41  C   UNL     1      -6.139  -2.042  -0.946  0.00  0.00    +0.000 C 
ENDBRANCH  29  41
TORSDOF 3
