REMARK  Name = 5284535
REMARK  7 active torsions:
REMARK  status: ('A' for Active; 'I' for Inactive)
REMARK    1  A    between atoms: O_2  and  C_11
REMARK    2  A    between atoms: O_3  and  C_14
REMARK    3  A    between atoms: O_5  and  C_24
REMARK    4  A    between atoms: C_7  and  C_17
REMARK    5  A    between atoms: C_11  and  C_19
REMARK    6  A    between atoms: C_16  and  C_22
REMARK    7  A    between atoms: C_19  and  C_24
REMARK                            x       y       z     vdW  Elec       q    Type
REMARK                         _______ _______ _______ _____ _____    ______ ____
ROOT
ATOM      1 CL   UNL     1      -3.560   3.353   0.069  0.00  0.00    +0.000 Cl
ATOM      2  O   UNL     1      -5.994  -1.081   1.535  0.00  0.00    +0.000 OA
ATOM      3  C   UNL     1       2.035  -0.008  -0.223  0.00  0.00    +0.000 C 
ATOM      4  C   UNL     1       1.010   1.099   0.137  0.00  0.00    +0.000 C 
ATOM      5  C   UNL     1      -0.333   0.920  -0.586  0.00  0.00    +0.000 C 
ATOM      6  C   UNL     1      -0.950  -0.439  -0.113  0.00  0.00    +0.000 C 
ATOM      7  C   UNL     1       3.252   0.497   0.603  0.00  0.00    +0.000 C 
ATOM      8  C   UNL     1       1.432  -1.369   0.190  0.00  0.00    +0.000 C 
ATOM      9  C   UNL     1       1.804   2.388  -0.064  0.00  0.00    +0.000 C 
ATOM     10  C   UNL     1       0.019  -1.623  -0.391  0.00  0.00    +0.000 C 
ATOM     11  C   UNL     1       3.229   2.031   0.408  0.00  0.00    +0.000 C 
ATOM     12  C   UNL     1      -2.438  -0.577  -0.604  0.00  0.00    +0.000 C 
ATOM     13  C   UNL     1       2.416  -0.029  -1.732  0.00  0.00    +0.000 C 
ATOM     14  C   UNL     1      -1.286   2.070  -0.369  0.00  0.00    +0.000 C 
ATOM     15  C   UNL     1      -3.215   0.596   0.038  0.00  0.00    +0.000 C 
ATOM     16  C   UNL     1      -2.590   1.918  -0.085  0.00  0.00    +0.000 C 
ATOM     17  C   UNL     1      -2.614  -0.484  -2.139  0.00  0.00    +0.000 C 
ATOM     18  C   UNL     1      -3.019  -1.922  -0.201  0.00  0.00    +0.000 C 
ATOM     19  C   UNL     1      -4.353   0.410   0.730  0.00  0.00    +0.000 C 
ATOM     20  C   UNL     1      -4.145  -2.098   0.495  0.00  0.00    +0.000 C 
ATOM     21  C   UNL     1      -4.922  -0.936   0.958  0.00  0.00    +0.000 C 
ENDROOT
BRANCH   7  22
ATOM     22  O   UNL     1       3.095   0.192   1.985  0.00  0.00    +0.000 OA
ATOM     23  H   UNL     1       3.742   0.713   2.491  0.00  0.00    +0.000 HD
ENDBRANCH   7  22
BRANCH  10  24
ATOM     24  O   UNL     1       0.127  -1.918  -1.774  0.00  0.00    +0.000 OA
ATOM     25  H   UNL     1       0.712  -2.689  -1.869  0.00  0.00    +0.000 HD
ENDBRANCH  10  24
BRANCH   7  27
ATOM     26  O   UNL     1       5.279   0.366  -0.641  0.00  0.00    +0.000 OA
ATOM     27  C   UNL     1       4.564  -0.124   0.232  0.00  0.00    +0.000 C 
BRANCH  27  28
ATOM     28  C   UNL     1       4.950  -1.378   0.987  0.00  0.00    +0.000 C 
BRANCH  28  29
ATOM     29  O   UNL     1       6.207  -1.854   0.554  0.00  0.00    +0.000 OA
ATOM     30  H   UNL     1       6.111  -2.132  -0.372  0.00  0.00    +0.000 HD
ENDBRANCH  28  29
ENDBRANCH  27  28
ENDBRANCH   7  27
TORSDOF 5
