REMARK  Name = 656804
REMARK  12 active torsions:
REMARK  status: ('A' for Active; 'I' for Inactive)
REMARK    1  A    between atoms: O_1  and  C_13
REMARK    2  A    between atoms: O_2  and  C_16
REMARK    3  A    between atoms: O_4  and  C_27
REMARK    4  A    between atoms: O_4  and  C_30
REMARK    5  A    between atoms: O_7  and  C_33
REMARK    6  A    between atoms: C_9  and  C_20
REMARK    7  A    between atoms: C_13  and  C_23
REMARK    8  A    between atoms: C_17  and  C_24
REMARK    9  A    between atoms: C_23  and  C_27
REMARK   10  A    between atoms: C_30  and  C_31
REMARK   11  A    between atoms: C_31  and  C_32
REMARK   12  A    between atoms: C_32  and  C_33
REMARK                            x       y       z     vdW  Elec       q    Type
REMARK                         _______ _______ _______ _____ _____    ______ ____
ROOT
ATOM      1  O   UNL     1       7.509  -2.361  -1.565  0.00  0.00    +0.000 OA
ATOM      2  C   UNL     1       0.222   1.012   0.220  0.00  0.00    +0.000 C 
ATOM      3  C   UNL     1       1.502   1.706  -0.296  0.00  0.00    +0.000 C 
ATOM      4  C   UNL     1       2.786   1.216   0.388  0.00  0.00    +0.000 C 
ATOM      5  C   UNL     1       2.943  -0.323   0.122  0.00  0.00    +0.000 C 
ATOM      6  C   UNL     1      -0.839   1.778  -0.617  0.00  0.00    +0.000 C 
ATOM      7  C   UNL     1       0.361  -0.495  -0.077  0.00  0.00    +0.000 C 
ATOM      8  C   UNL     1       1.150   3.190  -0.230  0.00  0.00    +0.000 C 
ATOM      9  C   UNL     1       1.652  -1.114   0.505  0.00  0.00    +0.000 C 
ATOM     10  C   UNL     1       4.300  -0.893   0.697  0.00  0.00    +0.000 C 
ATOM     11  C   UNL     1      -0.345   3.243  -0.605  0.00  0.00    +0.000 C 
ATOM     12  C   UNL     1       4.005   1.997  -0.135  0.00  0.00    +0.000 C 
ATOM     13  C   UNL     1      -0.038   1.252   1.734  0.00  0.00    +0.000 C 
ATOM     14  C   UNL     1       5.319   1.459   0.419  0.00  0.00    +0.000 C 
ATOM     15  C   UNL     1       5.432  -0.019   0.145  0.00  0.00    +0.000 C 
ATOM     16  C   UNL     1       4.388  -0.875   2.239  0.00  0.00    +0.000 C 
ATOM     17  C   UNL     1       4.474  -2.346   0.279  0.00  0.00    +0.000 C 
ATOM     18  C   UNL     1       6.456  -0.495  -0.582  0.00  0.00    +0.000 C 
ATOM     19  C   UNL     1       5.490  -2.825  -0.446  0.00  0.00    +0.000 C 
ATOM     20  C   UNL     1       6.562  -1.930  -0.915  0.00  0.00    +0.000 C 
ENDROOT
BRANCH   6  21
ATOM     21  O   UNL     1      -0.879   1.304  -1.959  0.00  0.00    +0.000 OA
ATOM     22  H   UNL     1      -1.371   1.946  -2.499  0.00  0.00    +0.000 HD
ENDBRANCH   6  21
BRANCH   9  23
ATOM     23  O   UNL     1       1.524  -1.241   1.915  0.00  0.00    +0.000 OA
ATOM     24  H   UNL     1       0.736  -1.782   2.094  0.00  0.00    +0.000 HD
ENDBRANCH   9  23
BRANCH   6  26
ATOM     25  O   UNL     1      -2.720   2.400   0.706  0.00  0.00    +0.000 OA
ATOM     26  C   UNL     1      -2.248   1.629  -0.128  0.00  0.00    +0.000 C 
BRANCH  26  27
ATOM     27  C   UNL     1      -3.044   0.483  -0.715  0.00  0.00    +0.000 C 
BRANCH  27  28
ATOM     28  O   UNL     1      -4.352   0.460  -0.184  0.00  0.00    +0.000 OA
BRANCH  28  30
ATOM     29  O   UNL     1      -4.861  -1.391  -1.461  0.00  0.00    +0.000 OA
ATOM     30  C   UNL     1      -5.177  -0.539  -0.643  0.00  0.00    +0.000 C 
BRANCH  30  31
ATOM     31  C   UNL     1      -6.532  -0.419   0.020  0.00  0.00    +0.000 C 
BRANCH  31  32
ATOM     32  C   UNL     1      -7.488  -1.542  -0.366  0.00  0.00    +0.000 C 
BRANCH  32  34
ATOM     33  O   UNL     1      -9.070  -0.508   1.140  0.00  0.00    +0.000 OA
ATOM     34  C   UNL     1      -8.805  -1.413   0.359  0.00  0.00    +0.000 C 
BRANCH  34  35
ATOM     35  O   UNL     1      -9.678  -2.398   0.036  0.00  0.00    +0.000 OA
ATOM     36  H   UNL     1     -10.534  -2.298   0.506  0.00  0.00    +0.000 HD
ENDBRANCH  34  35
ENDBRANCH  32  34
ENDBRANCH  31  32
ENDBRANCH  30  31
ENDBRANCH  28  30
ENDBRANCH  27  28
ENDBRANCH  26  27
ENDBRANCH   6  26
TORSDOF 10
