REMARK  Name = 91438
REMARK  8 active torsions:
REMARK  status: ('A' for Active; 'I' for Inactive)
REMARK    1  A    between atoms: O_1  and  C_11
REMARK    2  A    between atoms: O_4  and  C_25
REMARK    3  A    between atoms: O_4  and  C_28
REMARK    4  A    between atoms: C_7  and  C_18
REMARK    5  A    between atoms: C_11  and  C_21
REMARK    6  A    between atoms: C_15  and  C_22
REMARK    7  A    between atoms: C_21  and  C_25
REMARK    8  A    between atoms: C_28  and  C_29
REMARK                            x       y       z     vdW  Elec       q    Type
REMARK                         _______ _______ _______ _____ _____    ______ ____
ROOT
ATOM      1  O   UNL     1      -0.691  -2.103  -1.160  0.00  0.00    +0.000 OA
ATOM      2  O   UNL     1      -6.650  -1.433   1.526  0.00  0.00    +0.000 OA
ATOM      3  C   UNL     1       1.145   0.698  -0.238  0.00  0.00    +0.000 C 
ATOM      4  C   UNL     1       0.007   1.606   0.291  0.00  0.00    +0.000 C 
ATOM      5  C   UNL     1      -1.353   1.306  -0.358  0.00  0.00    +0.000 C 
ATOM      6  C   UNL     1      -1.745  -0.178  -0.057  0.00  0.00    +0.000 C 
ATOM      7  C   UNL     1       2.345   1.323   0.516  0.00  0.00    +0.000 C 
ATOM      8  C   UNL     1       0.583   3.014   0.154  0.00  0.00    +0.000 C 
ATOM      9  C   UNL     1       0.795  -0.749   0.126  0.00  0.00    +0.000 C 
ATOM     10  C   UNL     1       2.088   2.844   0.446  0.00  0.00    +0.000 C 
ATOM     11  C   UNL     1      -3.157  -0.561  -0.626  0.00  0.00    +0.000 C 
ATOM     12  C   UNL     1      -2.434   2.273   0.147  0.00  0.00    +0.000 C 
ATOM     13  C   UNL     1      -0.568  -1.102  -0.458  0.00  0.00    +0.000 C 
ATOM     14  C   UNL     1       1.353   0.800  -1.774  0.00  0.00    +0.000 C 
ATOM     15  C   UNL     1      -3.804   1.936  -0.430  0.00  0.00    +0.000 C 
ATOM     16  C   UNL     1      -4.156   0.498  -0.140  0.00  0.00    +0.000 C 
ATOM     17  C   UNL     1      -3.189  -0.591  -2.171  0.00  0.00    +0.000 C 
ATOM     18  C   UNL     1      -3.561  -1.950  -0.147  0.00  0.00    +0.000 C 
ATOM     19  C   UNL     1      -5.270   0.212   0.554  0.00  0.00    +0.000 C 
ATOM     20  C   UNL     1      -4.667  -2.239   0.546  0.00  0.00    +0.000 C 
ATOM     21  C   UNL     1      -5.615  -1.176   0.920  0.00  0.00    +0.000 C 
ENDROOT
BRANCH   7  22
ATOM     22  O   UNL     1       2.384   0.950   1.890  0.00  0.00    +0.000 OA
ATOM     23  H   UNL     1       3.060   1.488   2.338  0.00  0.00    +0.000 HD
ENDBRANCH   7  22
BRANCH   7  25
ATOM     24  O   UNL     1       4.471   1.820  -0.440  0.00  0.00    +0.000 OA
ATOM     25  C   UNL     1       3.701   0.961  -0.013  0.00  0.00    +0.000 C 
BRANCH  25  26
ATOM     26  C   UNL     1       4.058  -0.510   0.009  0.00  0.00    +0.000 C 
BRANCH  26  27
ATOM     27  O   UNL     1       5.449  -0.683   0.175  0.00  0.00    +0.000 OA
BRANCH  27  29
ATOM     28  O   UNL     1       5.200  -2.979   0.112  0.00  0.00    +0.000 OA
ATOM     29  C   UNL     1       5.898  -1.979   0.211  0.00  0.00    +0.000 C 
ATOM     30  C   UNL     1       7.385  -2.008   0.390  0.00  0.00    +0.000 C 
ENDBRANCH  27  29
ENDBRANCH  26  27
ENDBRANCH  25  26
ENDBRANCH   7  25
TORSDOF 5
