REMARK  Name = 63046
REMARK  12 active torsions:
REMARK  status: ('A' for Active; 'I' for Inactive)
REMARK    1  A    between atoms: S_1  and  O_9
REMARK    2  A    between atoms: S_1  and  C_38
REMARK    3  A    between atoms: O_3  and  C_16
REMARK    4  A    between atoms: O_4  and  C_20
REMARK    5  A    between atoms: O_6  and  C_31
REMARK    6  A    between atoms: O_6  and  C_34
REMARK    7  A    between atoms: C_12  and  C_23
REMARK    8  A    between atoms: C_16  and  C_26
REMARK    9  A    between atoms: C_19  and  C_27
REMARK   10  A    between atoms: C_21  and  C_28
REMARK   11  A    between atoms: C_26  and  C_31
REMARK   12  A    between atoms: C_34  and  C_35
REMARK                            x       y       z     vdW  Elec       q    Type
REMARK                         _______ _______ _______ _____ _____    ______ ____
ROOT
ATOM      1  F   UNL     1       4.635   0.119  -1.312  0.00  0.00    +0.000 F 
ATOM      2  O   UNL     1       9.483  -0.317  -1.618  0.00  0.00    +0.000 OA
ATOM      3  C   UNL     1       1.447   0.008   0.157  0.00  0.00    +0.000 C 
ATOM      4  C   UNL     1       2.485   1.149   0.219  0.00  0.00    +0.000 C 
ATOM      5  C   UNL     1       3.832   0.719   0.820  0.00  0.00    +0.000 C 
ATOM      6  C   UNL     1       4.441  -0.430  -0.054  0.00  0.00    +0.000 C 
ATOM      7  C   UNL     1       0.238   0.799  -0.426  0.00  0.00    +0.000 C 
ATOM      8  C   UNL     1       1.721   2.301   0.873  0.00  0.00    +0.000 C 
ATOM      9  C   UNL     1       2.031  -1.098  -0.747  0.00  0.00    +0.000 C 
ATOM     10  C   UNL     1       0.263   2.142   0.364  0.00  0.00    +0.000 C 
ATOM     11  C   UNL     1       3.424  -1.588  -0.289  0.00  0.00    +0.000 C 
ATOM     12  C   UNL     1       5.876  -0.859   0.447  0.00  0.00    +0.000 C 
ATOM     13  C   UNL     1       4.790   1.923   0.902  0.00  0.00    +0.000 C 
ATOM     14  C   UNL     1       1.082  -0.568   1.554  0.00  0.00    +0.000 C 
ATOM     15  C   UNL     1       6.179   1.523   1.385  0.00  0.00    +0.000 C 
ATOM     16  C   UNL     1       6.731   0.411   0.531  0.00  0.00    +0.000 C 
ATOM     17  C   UNL     1      -0.193   3.368  -0.421  0.00  0.00    +0.000 C 
ATOM     18  C   UNL     1       5.883  -1.532   1.838  0.00  0.00    +0.000 C 
ATOM     19  C   UNL     1       6.487  -1.870  -0.514  0.00  0.00    +0.000 C 
ATOM     20  C   UNL     1       7.884   0.580  -0.136  0.00  0.00    +0.000 C 
ATOM     21  C   UNL     1       7.633  -1.707  -1.181  0.00  0.00    +0.000 C 
ATOM     22  C   UNL     1       8.421  -0.471  -1.025  0.00  0.00    +0.000 C 
ENDROOT
BRANCH   7  23
ATOM     23  O   UNL     1       0.404   1.004  -1.825  0.00  0.00    +0.000 OA
ATOM     24  H   UNL     1       0.314   0.150  -2.280  0.00  0.00    +0.000 HD
ENDBRANCH   7  23
BRANCH  11  25
ATOM     25  O   UNL     1       3.291  -2.409   0.861  0.00  0.00    +0.000 OA
ATOM     26  H   UNL     1       3.358  -1.860   1.656  0.00  0.00    +0.000 HD
ENDBRANCH  11  25
BRANCH   7  28
ATOM     27  O   UNL     1      -1.133  -1.151  -0.360  0.00  0.00    +0.000 OA
ATOM     28  C   UNL     1      -1.072   0.076  -0.304  0.00  0.00    +0.000 C 
BRANCH  28  29
ATOM     29  C   UNL     1      -2.299   0.942  -0.111  0.00  0.00    +0.000 C 
BRANCH  29  30
ATOM     30  O   UNL     1      -3.459   0.144   0.002  0.00  0.00    +0.000 OA
BRANCH  30  32
ATOM     31  O   UNL     1      -4.740   2.030   0.246  0.00  0.00    +0.000 OA
ATOM     32  C   UNL     1      -4.651   0.808   0.182  0.00  0.00    +0.000 C 
BRANCH  32  33
ATOM     33  C   UNL     1      -5.776  -0.123   0.285  0.00  0.00    +0.000 A 
ATOM     34  C   UNL     1      -7.038   0.271  -0.146  0.00  0.00    +0.000 A 
ATOM     35  C   UNL     1      -5.572  -1.392   0.814  0.00  0.00    +0.000 A 
ATOM     36  C   UNL     1      -8.109  -0.616  -0.048  0.00  0.00    +0.000 A 
ATOM     37  C   UNL     1      -6.643  -2.280   0.912  0.00  0.00    +0.000 A 
ATOM     38  C   UNL     1      -7.912  -1.892   0.481  0.00  0.00    +0.000 A 
BRANCH  36  39
ATOM     39  S   UNL     1      -9.698  -0.132  -0.587  0.00  0.00    +0.000 S 
ATOM     40  O   UNL     1      -9.535   0.930  -1.569  0.00  0.00    +0.000 OA
ATOM     41  O   UNL     1     -10.421  -1.348  -0.923  0.00  0.00    +0.000 OA
BRANCH  39  42
ATOM     42  O   UNL     1     -10.411   0.537   0.724  0.00  0.00    +0.000 OA
ATOM     43  H   UNL     1      -9.964   1.338   1.085  0.00  0.00    +0.000 HD
ENDBRANCH  39  42
ENDBRANCH  36  39
ENDBRANCH  32  33
ENDBRANCH  30  32
ENDBRANCH  29  30
ENDBRANCH  28  29
ENDBRANCH   7  28
TORSDOF 9
