REMARK  Name = 3312
REMARK  15 active torsions:
REMARK  status: ('A' for Active; 'I' for Inactive)
REMARK    1  A    between atoms: O_1  and  C_8
REMARK    2  A    between atoms: O_1  and  C_16
REMARK    3  A    between atoms: O_2  and  C_24
REMARK    4  A    between atoms: O_2  and  C_25
REMARK    5  A    between atoms: C_4  and  C_10
REMARK    6  A    between atoms: C_5  and  C_11
REMARK    7  A    between atoms: C_6  and  C_12
REMARK    8  A    between atoms: C_7  and  C_13
REMARK    9  A    between atoms: C_14  and  C_15
REMARK   10  A    between atoms: C_15  and  C_17
REMARK   11  A    between atoms: C_18  and  C_19
REMARK   12  A    between atoms: C_20  and  C_21
REMARK   13  A    between atoms: C_21  and  C_22
REMARK   14  A    between atoms: C_23  and  C_24
REMARK   15  A    between atoms: C_25  and  C_26
REMARK                            x       y       z     vdW  Elec       q    Type
REMARK                         _______ _______ _______ _____ _____    ______ ____
ROOT
ATOM      1  C   UNL     1       2.597   1.035   0.463  0.00  0.00    +0.000 C 
ATOM      2  C   UNL     1       1.387   0.499   0.231  0.00  0.00    +0.000 C 
ENDROOT
BRANCH   1   4
ATOM      3  C   UNL     1       4.515   0.342  -0.937  0.00  0.00    +0.000 A 
ATOM      4  C   UNL     1       3.876   0.322   0.295  0.00  0.00    +0.000 A 
ATOM      5  C   UNL     1       5.725  -0.335  -1.093  0.00  0.00    +0.000 A 
ATOM      6  C   UNL     1       4.421  -0.361   1.373  0.00  0.00    +0.000 A 
ATOM      7  C   UNL     1       6.282  -1.025  -0.017  0.00  0.00    +0.000 A 
ATOM      8  C   UNL     1       5.631  -1.038   1.216  0.00  0.00    +0.000 A 
ATOM      9  C   UNL     1       3.928   1.078  -2.101  0.00  0.00    +0.000 C 
ATOM     10  C   UNL     1       6.432  -0.327  -2.411  0.00  0.00    +0.000 C 
ATOM     11  C   UNL     1       3.753  -0.402   2.710  0.00  0.00    +0.000 C 
BRANCH   7  12
ATOM     12  O   UNL     1       7.464  -1.692  -0.150  0.00  0.00    +0.000 OA
ATOM     13  C   UNL     1       8.655  -0.961   0.131  0.00  0.00    +0.000 C 
ENDBRANCH   7  12
ENDBRANCH   1   4
BRANCH   2  14
ATOM     14  C   UNL     1       0.092   1.171   0.380  0.00  0.00    +0.000 C 
ATOM     15  C   UNL     1       0.099   2.615   0.817  0.00  0.00    +0.000 C 
ATOM     16  C   UNL     1      -1.030   0.475   0.101  0.00  0.00    +0.000 C 
BRANCH  16  17
ATOM     17  C   UNL     1      -2.405   0.924   0.190  0.00  0.00    +0.000 C 
ATOM     18  C   UNL     1      -3.470   0.162  -0.108  0.00  0.00    +0.000 C 
BRANCH  18  19
ATOM     19  C   UNL     1      -4.880   0.559  -0.038  0.00  0.00    +0.000 C 
ATOM     20  C   UNL     1      -5.181   1.955   0.444  0.00  0.00    +0.000 C 
ATOM     21  C   UNL     1      -5.811  -0.354  -0.380  0.00  0.00    +0.000 C 
BRANCH  21  23
ATOM     22  O   UNL     1      -7.845   0.930  -0.545  0.00  0.00    +0.000 OA
ATOM     23  C   UNL     1      -7.278  -0.136  -0.372  0.00  0.00    +0.000 C 
BRANCH  23  24
ATOM     24  O   UNL     1      -7.865  -1.346  -0.160  0.00  0.00    +0.000 OA
BRANCH  24  25
ATOM     25  C   UNL     1      -9.297  -1.340  -0.143  0.00  0.00    +0.000 C 
ATOM     26  C   UNL     1      -9.793  -2.750   0.102  0.00  0.00    +0.000 C 
ENDBRANCH  24  25
ENDBRANCH  23  24
ENDBRANCH  21  23
ENDBRANCH  18  19
ENDBRANCH  16  17
ENDBRANCH   2  14
TORSDOF 8
