REMARK  Name = 5287502
REMARK  18 active torsions:
REMARK  status: ('A' for Active; 'I' for Inactive)
REMARK    1  A    between atoms: O_1  and  C_5
REMARK    2  A    between atoms: O_2  and  C_31
REMARK    3  A    between atoms: C_3  and  C_9
REMARK    4  A    between atoms: C_3  and  C_10
REMARK    5  A    between atoms: C_6  and  C_11
REMARK    6  A    between atoms: C_8  and  C_12
REMARK    7  A    between atoms: C_13  and  C_14
REMARK    8  A    between atoms: C_14  and  C_15
REMARK    9  A    between atoms: C_16  and  C_17
REMARK   10  A    between atoms: C_18  and  C_19
REMARK   11  A    between atoms: C_19  and  C_20
REMARK   12  A    between atoms: C_21  and  C_22
REMARK   13  A    between atoms: C_23  and  C_24
REMARK   14  A    between atoms: C_25  and  C_26
REMARK   15  A    between atoms: C_25  and  C_28
REMARK   16  A    between atoms: C_27  and  C_31
REMARK   17  A    between atoms: C_27  and  C_32
REMARK   18  A    between atoms: C_29  and  C_30
REMARK                            x       y       z     vdW  Elec       q    Type
REMARK                         _______ _______ _______ _____ _____    ______ ____
ROOT
ATOM      1  C   UNL     1      -1.015   2.168   0.242  0.00  0.00    +0.000 C 
ATOM      2  C   UNL     1       0.254   1.729   0.210  0.00  0.00    +0.000 C 
ENDROOT
BRANCH   1   5
ATOM      3  C   UNL     1      -3.469   1.583   0.223  0.00  0.00    +0.000 C 
ATOM      4  C   UNL     1      -3.864   3.039   0.309  0.00  0.00    +0.000 C 
ATOM      5  C   UNL     1      -2.155   1.272   0.197  0.00  0.00    +0.000 C 
BRANCH   3   7
ATOM      6  C   UNL     1      -5.865   0.854   0.194  0.00  0.00    +0.000 C 
ATOM      7  C   UNL     1      -4.547   0.594   0.172  0.00  0.00    +0.000 C 
BRANCH   6  11
ATOM      8  C   UNL     1      -8.104   0.125  -0.755  0.00  0.00    +0.000 C 
ATOM      9  C   UNL     1      -9.253  -0.891  -0.522  0.00  0.00    +0.000 C 
ATOM     10  C   UNL     1      -8.751  -2.325  -0.458  0.00  0.00    +0.000 C 
ATOM     11  C   UNL     1      -6.881  -0.184   0.140  0.00  0.00    +0.000 C 
ATOM     12  C   UNL     1      -7.765  -2.477   0.692  0.00  0.00    +0.000 C 
ATOM     13  C   UNL     1      -6.752  -1.357   0.810  0.00  0.00    +0.000 C 
ATOM     14  C   UNL     1      -7.685   0.074  -2.242  0.00  0.00    +0.000 C 
ATOM     15  C   UNL     1      -8.704   1.522  -0.460  0.00  0.00    +0.000 C 
ATOM     16  C   UNL     1      -5.621  -1.720   1.744  0.00  0.00    +0.000 C 
BRANCH  10  17
ATOM     17  O   UNL     1      -9.847  -3.207  -0.235  0.00  0.00    +0.000 OA
ATOM     18  H   UNL     1      -9.491  -4.111  -0.191  0.00  0.00    +0.000 HD
ENDBRANCH  10  17
ENDBRANCH   6  11
ENDBRANCH   3   7
ENDBRANCH   1   5
BRANCH   2  19
ATOM     19  C   UNL     1       1.433   2.588   0.233  0.00  0.00    +0.000 C 
ATOM     20  C   UNL     1       1.107   4.059   0.227  0.00  0.00    +0.000 C 
ATOM     21  C   UNL     1       2.678   2.073   0.198  0.00  0.00    +0.000 C 
BRANCH  21  22
ATOM     22  C   UNL     1       3.045   0.675   0.135  0.00  0.00    +0.000 C 
ATOM     23  C   UNL     1       4.279   0.146   0.099  0.00  0.00    +0.000 C 
BRANCH  23  24
ATOM     24  C   UNL     1       4.612  -1.265   0.035  0.00  0.00    +0.000 C 
ATOM     25  C   UNL     1       5.842  -1.821  -0.002  0.00  0.00    +0.000 C 
ATOM     26  C   UNL     1       6.110  -3.304  -0.075  0.00  0.00    +0.000 C 
BRANCH  25  27
ATOM     27  C   UNL     1       7.007  -0.929   0.023  0.00  0.00    +0.000 C 
ATOM     28  C   UNL     1       8.301  -1.292  -0.007  0.00  0.00    +0.000 C 
BRANCH  28  30
ATOM     29  C   UNL     1      10.706  -0.580   0.003  0.00  0.00    +0.000 C 
ATOM     30  C   UNL     1       9.382  -0.328   0.028  0.00  0.00    +0.000 C 
ATOM     31  C   UNL     1      11.339  -1.943  -0.098  0.00  0.00    +0.000 C 
BRANCH  29  32
ATOM     32  C   UNL     1      11.688   0.567   0.054  0.00  0.00    +0.000 C 
BRANCH  32  33
ATOM     33  O   UNL     1      12.495   0.555  -1.116  0.00  0.00    +0.000 OA
ATOM     34  H   UNL     1      13.127   1.290  -1.035  0.00  0.00    +0.000 HD
ENDBRANCH  32  33
ENDBRANCH  29  32
ENDBRANCH  28  30
ENDBRANCH  25  27
ENDBRANCH  23  24
ENDBRANCH  21  22
ENDBRANCH   2  19
TORSDOF 11
