REMARK  Name = 449547
REMARK  18 active torsions:
REMARK  status: ('A' for Active; 'I' for Inactive)
REMARK    1  A    between atoms: P_1  and  O_6
REMARK    2  A    between atoms: P_1  and  O_7
REMARK    3  A    between atoms: P_1  and  O_8
REMARK    4  A    between atoms: P_2  and  O_7
REMARK    5  A    between atoms: P_2  and  O_10
REMARK    6  A    between atoms: P_2  and  O_11
REMARK    7  A    between atoms: O_6  and  C_25
REMARK    8  A    between atoms: C_13  and  C_14
REMARK    9  A    between atoms: C_13  and  C_17
REMARK   10  A    between atoms: C_14  and  C_19
REMARK   11  A    between atoms: C_15  and  C_16
REMARK   12  A    between atoms: C_15  and  C_18
REMARK   13  A    between atoms: C_16  and  C_20
REMARK   14  A    between atoms: C_18  and  C_21
REMARK   15  A    between atoms: C_19  and  C_23
REMARK   16  A    between atoms: C_22  and  C_25
REMARK   17  A    between atoms: C_24  and  C_26
REMARK   18  A    between atoms: C_24  and  C_27
REMARK                            x       y       z     vdW  Elec       q    Type
REMARK                         _______ _______ _______ _____ _____    ______ ____
ROOT
ATOM      1  C   UNL     1       0.942  -2.478  -0.672  0.00  0.00    +0.000 C 
ATOM      2  C   UNL     1       0.080  -1.445  -0.739  0.00  0.00    +0.000 C 
ENDROOT
BRANCH   1   6
ATOM      3  F   UNL     1       1.631  -4.600   0.205  0.00  0.00    +0.000 F 
ATOM      4  F   UNL     1       0.704  -3.188   1.575  0.00  0.00    +0.000 F 
ATOM      5  F   UNL     1      -0.504  -4.209   0.075  0.00  0.00    +0.000 F 
ATOM      6  C   UNL     1       0.699  -3.615   0.285  0.00  0.00    +0.000 C 
ENDBRANCH   1   6
BRANCH   1   7
ATOM      7  C   UNL     1       2.169  -2.627  -1.549  0.00  0.00    +0.000 C 
BRANCH   7   8
ATOM      8  C   UNL     1       3.462  -2.099  -0.913  0.00  0.00    +0.000 C 
BRANCH   8  10
ATOM      9  C   UNL     1       3.578   0.070   0.452  0.00  0.00    +0.000 C 
ATOM     10  C   UNL     1       3.443  -0.611  -0.703  0.00  0.00    +0.000 C 
ATOM     11  C   UNL     1       3.784  -0.564   1.800  0.00  0.00    +0.000 C 
BRANCH   9  12
ATOM     12  C   UNL     1       3.481   1.585   0.454  0.00  0.00    +0.000 C 
BRANCH  12  13
ATOM     13  C   UNL     1       2.069   2.128   0.706  0.00  0.00    +0.000 C 
BRANCH  13  14
ATOM     14  C   UNL     1       2.014   3.631   0.732  0.00  0.00    +0.000 C 
ATOM     15  C   UNL     1       1.849   4.461  -0.315  0.00  0.00    +0.000 C 
ATOM     16  C   UNL     1       1.784   5.950  -0.107  0.00  0.00    +0.000 C 
ATOM     17  C   UNL     1       1.732   4.025  -1.748  0.00  0.00    +0.000 C 
ENDBRANCH  13  14
ENDBRANCH  12  13
ENDBRANCH   9  12
ENDBRANCH   8  10
ENDBRANCH   7   8
ENDBRANCH   1   7
BRANCH   2  18
ATOM     18  C   UNL     1      -1.150  -1.215   0.081  0.00  0.00    +0.000 C 
BRANCH  18  19
ATOM     19  O   UNL     1      -2.269  -1.143  -0.794  0.00  0.00    +0.000 OA
BRANCH  19  20
ATOM     20  P   UNL     1      -3.747  -0.900  -0.190  0.00  0.00    +0.000 P 
ATOM     21  O   UNL     1      -4.841  -0.844  -1.218  0.00  0.00    +0.000 OA
BRANCH  20  22
ATOM     22  O   UNL     1      -3.931  -2.066   0.916  0.00  0.00    +0.000 OA
ATOM     23  H   UNL     1      -4.176  -2.967   0.618  0.00  0.00    +0.000 HD
ENDBRANCH  20  22
BRANCH  20  24
ATOM     24  O   UNL     1      -3.608   0.440   0.703  0.00  0.00    +0.000 OA
BRANCH  24  25
ATOM     25  P   UNL     1      -3.300   1.969   0.281  0.00  0.00    +0.000 P 
ATOM     26  O   UNL     1      -1.988   2.173  -0.417  0.00  0.00    +0.000 OA
BRANCH  25  27
ATOM     27  O   UNL     1      -4.607   2.393  -0.570  0.00  0.00    +0.000 OA
ATOM     28  H   UNL     1      -4.624   3.269  -1.010  0.00  0.00    +0.000 HD
ENDBRANCH  25  27
BRANCH  25  29
ATOM     29  O   UNL     1      -3.475   2.776   1.670  0.00  0.00    +0.000 OA
ATOM     30  H   UNL     1      -3.252   3.731   1.696  0.00  0.00    +0.000 HD
ENDBRANCH  25  29
ENDBRANCH  24  25
ENDBRANCH  20  24
ENDBRANCH  19  20
ENDBRANCH  18  19
ENDBRANCH   2  18
TORSDOF 15
