REMARK  Name = 5288476
REMARK  14 active torsions:
REMARK  status: ('A' for Active; 'I' for Inactive)
REMARK    1  A    between atoms: S_1  and  P_2
REMARK    2  A    between atoms: S_1  and  C_17
REMARK    3  A    between atoms: P_2  and  O_4
REMARK    4  A    between atoms: P_2  and  O_5
REMARK    5  A    between atoms: P_3  and  O_4
REMARK    6  A    between atoms: P_3  and  O_7
REMARK    7  A    between atoms: P_3  and  O_8
REMARK    8  A    between atoms: C_10  and  C_11
REMARK    9  A    between atoms: C_10  and  C_12
REMARK   10  A    between atoms: C_11  and  C_13
REMARK   11  A    between atoms: C_12  and  C_15
REMARK   12  A    between atoms: C_14  and  C_17
REMARK   13  A    between atoms: C_16  and  C_18
REMARK   14  A    between atoms: C_16  and  C_19
REMARK                            x       y       z     vdW  Elec       q    Type
REMARK                         _______ _______ _______ _____ _____    ______ ____
ROOT
ATOM      1  S   UNL     1      -2.533   2.142  -1.512  0.00  0.00    +0.000 S 
ENDROOT
BRANCH   1   2
ATOM      2  P   UNL     1      -3.122   0.431  -0.460  0.00  0.00    +0.000 P 
ATOM      3  O   UNL     1      -3.625   0.778   0.915  0.00  0.00    +0.000 OA
BRANCH   2   4
ATOM      4  O   UNL     1      -4.226  -0.375  -1.335  0.00  0.00    +0.000 OA
ATOM      5  H   UNL     1      -4.687  -1.137  -0.925  0.00  0.00    +0.000 HD
ENDBRANCH   2   4
BRANCH   2   6
ATOM      6  O   UNL     1      -1.894  -0.627  -0.430  0.00  0.00    +0.000 OA
BRANCH   6   7
ATOM      7  P   UNL     1      -1.799  -2.132   0.147  0.00  0.00    +0.000 P 
ATOM      8  O   UNL     1      -2.748  -3.115  -0.473  0.00  0.00    +0.000 OA
BRANCH   7   9
ATOM      9  O   UNL     1      -0.232  -2.495  -0.008  0.00  0.00    +0.000 OA
ATOM     10  H   UNL     1       0.114  -2.741  -0.892  0.00  0.00    +0.000 HD
ENDBRANCH   7   9
BRANCH   7  11
ATOM     11  O   UNL     1      -1.976  -1.933   1.742  0.00  0.00    +0.000 OA
ATOM     12  H   UNL     1      -2.038  -2.726   2.316  0.00  0.00    +0.000 HD
ENDBRANCH   7  11
ENDBRANCH   6   7
ENDBRANCH   2   6
ENDBRANCH   1   2
BRANCH   1  13
ATOM     13  C   UNL     1      -1.214   2.879  -0.510  0.00  0.00    +0.000 C 
BRANCH  13  15
ATOM     14  C   UNL     1       0.393   1.355   0.767  0.00  0.00    +0.000 C 
ATOM     15  C   UNL     1      -0.083   1.909  -0.366  0.00  0.00    +0.000 C 
ATOM     16  C   UNL     1      -0.136   1.636   2.147  0.00  0.00    +0.000 C 
BRANCH  14  17
ATOM     17  C   UNL     1       1.536   0.359   0.700  0.00  0.00    +0.000 C 
BRANCH  17  18
ATOM     18  C   UNL     1       2.926   1.007   0.759  0.00  0.00    +0.000 C 
BRANCH  18  19
ATOM     19  C   UNL     1       4.036  -0.003   0.657  0.00  0.00    +0.000 C 
ATOM     20  C   UNL     1       4.659  -0.445  -0.452  0.00  0.00    +0.000 C 
ATOM     21  C   UNL     1       5.765  -1.461  -0.483  0.00  0.00    +0.000 C 
ATOM     22  C   UNL     1       4.271   0.089  -1.806  0.00  0.00    +0.000 C 
ENDBRANCH  18  19
ENDBRANCH  17  18
ENDBRANCH  14  17
ENDBRANCH  13  15
ENDBRANCH   1  13
TORSDOF 11
