REMARK  Name = 5280346
REMARK  13 active torsions:
REMARK  status: ('A' for Active; 'I' for Inactive)
REMARK    1  A    between atoms: O_1  and  C_14
REMARK    2  A    between atoms: O_1  and  C_22
REMARK    3  A    between atoms: O_2  and  C_16
REMARK    4  A    between atoms: O_2  and  C_23
REMARK    5  A    between atoms: C_5  and  C_6
REMARK    6  A    between atoms: C_5  and  C_9
REMARK    7  A    between atoms: C_7  and  C_8
REMARK    8  A    between atoms: C_7  and  C_11
REMARK    9  A    between atoms: C_8  and  C_15
REMARK   10  A    between atoms: C_10  and  C_18
REMARK   11  A    between atoms: C_11  and  C_17
REMARK   12  A    between atoms: C_19  and  C_20
REMARK   13  A    between atoms: C_19  and  C_21
REMARK                            x       y       z     vdW  Elec       q    Type
REMARK                         _______ _______ _______ _____ _____    ______ ____
ROOT
ATOM      1  O   UNL     1      -0.073  -0.141  -2.095  0.00  0.00    +0.000 OA
ATOM      2  O   UNL     1       3.133   1.467   1.834  0.00  0.00    +0.000 OA
ATOM      3  C   UNL     1       0.307   1.447  -0.364  0.00  0.00    +0.000 C 
ATOM      4  C   UNL     1       1.109   1.843   0.642  0.00  0.00    +0.000 C 
ATOM      5  C   UNL     1       0.657   0.250  -1.188  0.00  0.00    +0.000 C 
ATOM      6  C   UNL     1       2.377   1.108   0.934  0.00  0.00    +0.000 C 
ATOM      7  C   UNL     1       1.913  -0.470  -0.883  0.00  0.00    +0.000 C 
ATOM      8  C   UNL     1       2.715  -0.070   0.106  0.00  0.00    +0.000 C 
ATOM      9  C   UNL     1       0.837   3.001   1.563  0.00  0.00    +0.000 C 
ENDROOT
BRANCH   7  10
ATOM     10  O   UNL     1       2.232  -1.572  -1.653  0.00  0.00    +0.000 OA
ATOM     11  C   UNL     1       3.000  -1.191  -2.777  0.00  0.00    +0.000 C 
ENDBRANCH   7  10
BRANCH   8  12
ATOM     12  O   UNL     1       3.893  -0.720   0.412  0.00  0.00    +0.000 OA
ATOM     13  C   UNL     1       3.670  -1.738   1.369  0.00  0.00    +0.000 C 
ENDBRANCH   8  12
BRANCH   3  14
ATOM     14  C   UNL     1      -0.958   2.127  -0.774  0.00  0.00    +0.000 C 
BRANCH  14  16
ATOM     15  C   UNL     1      -3.250   1.004  -0.542  0.00  0.00    +0.000 C 
ATOM     16  C   UNL     1      -2.148   1.590  -0.032  0.00  0.00    +0.000 C 
ATOM     17  C   UNL     1      -3.385   0.826  -2.033  0.00  0.00    +0.000 C 
BRANCH  15  18
ATOM     18  C   UNL     1      -4.395   0.448   0.278  0.00  0.00    +0.000 C 
BRANCH  18  19
ATOM     19  C   UNL     1      -4.234  -1.032   0.650  0.00  0.00    +0.000 C 
BRANCH  19  20
ATOM     20  C   UNL     1      -3.004  -1.293   1.474  0.00  0.00    +0.000 C 
ATOM     21  C   UNL     1      -1.914  -2.008   1.138  0.00  0.00    +0.000 C 
ATOM     22  C   UNL     1      -0.763  -2.139   2.101  0.00  0.00    +0.000 C 
ATOM     23  C   UNL     1      -1.718  -2.736  -0.161  0.00  0.00    +0.000 C 
ENDBRANCH  19  20
ENDBRANCH  18  19
ENDBRANCH  15  18
ENDBRANCH  14  16
ENDBRANCH   3  14
TORSDOF 7
