REMARK  Name = 9863341
REMARK  11 active torsions:
REMARK  status: ('A' for Active; 'I' for Inactive)
REMARK    1  A    between atoms: O_1  and  C_26
REMARK    2  A    between atoms: C_3  and  C_6
REMARK    3  A    between atoms: C_3  and  C_7
REMARK    4  A    between atoms: C_4  and  C_11
REMARK    5  A    between atoms: C_8  and  C_18
REMARK    6  A    between atoms: C_8  and  C_19
REMARK    7  A    between atoms: C_10  and  C_20
REMARK    8  A    between atoms: C_10  and  C_21
REMARK    9  A    between atoms: C_22  and  C_23
REMARK   10  A    between atoms: C_23  and  C_24
REMARK   11  A    between atoms: C_25  and  C_26
REMARK                            x       y       z     vdW  Elec       q    Type
REMARK                         _______ _______ _______ _____ _____    ______ ____
ROOT
ATOM      1  C   UNL     1      -0.923   2.008  -0.121  0.00  0.00    +0.000 A 
ATOM      2  C   UNL     1      -1.535  -1.543  -1.449  0.00  0.00    +0.000 C 
ATOM      3  C   UNL     1      -1.621  -0.303  -0.549  0.00  0.00    +0.000 A 
ATOM      4  C   UNL     1      -3.289  -1.455   1.057  0.00  0.00    +0.000 C 
ATOM      5  C   UNL     1      -2.439  -0.260   0.607  0.00  0.00    +0.000 A 
ATOM      6  C   UNL     1      -0.889   0.853  -0.900  0.00  0.00    +0.000 A 
ATOM      7  C   UNL     1      -2.110  -2.795  -0.750  0.00  0.00    +0.000 C 
ATOM      8  C   UNL     1      -3.435  -2.506  -0.065  0.00  0.00    +0.000 C 
ATOM      9  C   UNL     1      -1.692   2.037   1.030  0.00  0.00    +0.000 A 
ATOM     10  C   UNL     1      -2.439   0.917   1.389  0.00  0.00    +0.000 A 
ATOM     11  C   UNL     1      -2.315  -1.263  -2.752  0.00  0.00    +0.000 C 
ATOM     12  C   UNL     1      -0.072  -1.884  -1.821  0.00  0.00    +0.000 C 
ATOM     13  C   UNL     1      -4.725  -1.028   1.445  0.00  0.00    +0.000 C 
ATOM     14  C   UNL     1      -2.623  -2.097   2.295  0.00  0.00    +0.000 C 
ENDROOT
BRANCH   1  15
ATOM     15  C   UNL     1      -0.132   3.205  -0.523  0.00  0.00    +0.000 C 
ATOM     16  C   UNL     1       1.339   3.285  -0.248  0.00  0.00    +0.000 C 
ATOM     17  C   UNL     1       0.378   4.117   0.551  0.00  0.00    +0.000 C 
ATOM     18  C   UNL     1      -0.617   3.846  -1.781  0.00  0.00    +0.000 C 
BRANCH  16  19
ATOM     19  C   UNL     1       2.038   2.200   0.423  0.00  0.00    +0.000 C 
ATOM     20  C   UNL     1       2.582   1.134  -0.189  0.00  0.00    +0.000 C 
BRANCH  20  21
ATOM     21  C   UNL     1       3.297   0.019   0.440  0.00  0.00    +0.000 C 
ATOM     22  C   UNL     1       3.428   0.044   1.941  0.00  0.00    +0.000 C 
ATOM     23  C   UNL     1       3.768  -0.958  -0.360  0.00  0.00    +0.000 C 
BRANCH  23  25
ATOM     24  O   UNL     1       5.228  -2.262   1.062  0.00  0.00    +0.000 OA
ATOM     25  C   UNL     1       4.512  -2.159   0.082  0.00  0.00    +0.000 C 
BRANCH  25  26
ATOM     26  O   UNL     1       4.288  -3.152  -0.812  0.00  0.00    +0.000 OA
ATOM     27  H   UNL     1       4.765  -3.975  -0.573  0.00  0.00    +0.000 HD
ENDBRANCH  25  26
ENDBRANCH  23  25
ENDBRANCH  20  21
ENDBRANCH  16  19
ENDBRANCH   1  15
TORSDOF 5
