REMARK  Name = 46184405
REMARK  21 active torsions:
REMARK  status: ('A' for Active; 'I' for Inactive)
REMARK    1  A    between atoms: O_1  and  C_4
REMARK    2  A    between atoms: C_4  and  C_5
REMARK    3  A    between atoms: C_4  and  C_6
REMARK    4  A    between atoms: C_4  and  C_8
REMARK    5  A    between atoms: C_5  and  C_7
REMARK    6  A    between atoms: C_6  and  C_9
REMARK    7  A    between atoms: C_7  and  C_10
REMARK    8  A    between atoms: C_9  and  C_11
REMARK    9  A    between atoms: C_12  and  C_19
REMARK   10  A    between atoms: C_14  and  C_18
REMARK   11  A    between atoms: C_14  and  C_21
REMARK   12  A    between atoms: C_15  and  C_22
REMARK   13  A    between atoms: C_17  and  C_23
REMARK   14  A    between atoms: C_18  and  C_20
REMARK   15  A    between atoms: C_20  and  C_24
REMARK   16  A    between atoms: C_25  and  C_26
REMARK   17  A    between atoms: C_25  and  C_28
REMARK   18  A    between atoms: C_26  and  C_27
REMARK   19  A    between atoms: C_27  and  C_29
REMARK   20  A    between atoms: C_30  and  C_31
REMARK   21  A    between atoms: C_30  and  C_32
REMARK                            x       y       z     vdW  Elec       q    Type
REMARK                         _______ _______ _______ _____ _____    ______ ____
ROOT
ATOM      1  C   UNL     1      -1.301  -3.501  -0.665  0.00  0.00    +0.000 C 
ATOM      2  C   UNL     1      -1.010  -3.974  -2.096  0.00  0.00    +0.000 C 
ENDROOT
BRANCH   1   3
ATOM      3  O   UNL     1      -2.126  -4.518  -0.079  0.00  0.00    +0.000 OA
ATOM      4  H   UNL     1      -2.954  -4.567  -0.587  0.00  0.00    +0.000 HD
ENDBRANCH   1   3
BRANCH   1   5
ATOM      5  C   UNL     1      -2.106  -2.183  -0.722  0.00  0.00    +0.000 C 
BRANCH   5   6
ATOM      6  C   UNL     1      -2.472  -1.597   0.644  0.00  0.00    +0.000 C 
BRANCH   6   9
ATOM      7  O   UNL     1      -1.208   0.831   0.395  0.00  0.00    +0.000 OA
ATOM      8  O   UNL     1      -6.515   1.121   0.380  0.00  0.00    +0.000 OA
ATOM      9  C   UNL     1      -3.261  -0.339   0.498  0.00  0.00    +0.000 C 
ATOM     10  C   UNL     1      -4.602  -0.268   0.468  0.00  0.00    +0.000 C 
ATOM     11  C   UNL     1      -2.436   0.899   0.401  0.00  0.00    +0.000 C 
ATOM     12  C   UNL     1      -3.120   2.220   0.298  0.00  0.00    +0.000 C 
ATOM     13  C   UNL     1      -5.287   1.053   0.369  0.00  0.00    +0.000 C 
ATOM     14  C   UNL     1      -4.461   2.291   0.268  0.00  0.00    +0.000 C 
ATOM     15  C   UNL     1      -5.532  -1.451   0.512  0.00  0.00    +0.000 C 
ATOM     16  C   UNL     1      -2.190   3.402   0.252  0.00  0.00    +0.000 C 
ATOM     17  C   UNL     1      -5.258   3.560   0.119  0.00  0.00    +0.000 C 
ENDBRANCH   6   9
ENDBRANCH   5   6
ENDBRANCH   1   5
BRANCH   1  18
ATOM     18  C   UNL     1       0.000  -3.424   0.167  0.00  0.00    +0.000 C 
BRANCH  18  19
ATOM     19  C   UNL     1       0.890  -2.209  -0.118  0.00  0.00    +0.000 C 
BRANCH  19  20
ATOM     20  C   UNL     1       2.154  -2.261   0.697  0.00  0.00    +0.000 C 
ATOM     21  C   UNL     1       3.425  -2.246   0.248  0.00  0.00    +0.000 C 
ATOM     22  C   UNL     1       3.701  -2.170  -1.231  0.00  0.00    +0.000 C 
BRANCH  21  23
ATOM     23  C   UNL     1       4.646  -2.357   1.136  0.00  0.00    +0.000 C 
BRANCH  23  24
ATOM     24  C   UNL     1       5.548  -1.116   1.129  0.00  0.00    +0.000 C 
BRANCH  24  25
ATOM     25  C   UNL     1       4.825   0.147   1.509  0.00  0.00    +0.000 C 
ATOM     26  C   UNL     1       5.023   1.386   1.019  0.00  0.00    +0.000 C 
ATOM     27  C   UNL     1       6.071   1.626  -0.036  0.00  0.00    +0.000 C 
BRANCH  26  28
ATOM     28  C   UNL     1       4.223   2.604   1.425  0.00  0.00    +0.000 C 
BRANCH  28  29
ATOM     29  C   UNL     1       3.532   3.272   0.229  0.00  0.00    +0.000 C 
BRANCH  29  30
ATOM     30  C   UNL     1       2.558   2.333  -0.430  0.00  0.00    +0.000 C 
ATOM     31  C   UNL     1       2.222   2.287  -1.733  0.00  0.00    +0.000 C 
ATOM     32  C   UNL     1       2.825   3.259  -2.712  0.00  0.00    +0.000 C 
ATOM     33  C   UNL     1       1.240   1.325  -2.340  0.00  0.00    +0.000 C 
ENDBRANCH  29  30
ENDBRANCH  28  29
ENDBRANCH  26  28
ENDBRANCH  24  25
ENDBRANCH  23  24
ENDBRANCH  21  23
ENDBRANCH  19  20
ENDBRANCH  18  19
ENDBRANCH   1  18
TORSDOF 13
