REMARK  Name = 24875259
REMARK  18 active torsions:
REMARK  status: ('A' for Active; 'I' for Inactive)
REMARK    1  A    between atoms: O_1  and  C_7
REMARK    2  A    between atoms: O_2  and  C_10
REMARK    3  A    between atoms: O_2  and  C_18
REMARK    4  A    between atoms: O_3  and  C_12
REMARK    5  A    between atoms: O_3  and  C_19
REMARK    6  A    between atoms: C_5  and  C_8
REMARK    7  A    between atoms: C_6  and  C_11
REMARK    8  A    between atoms: C_8  and  C_13
REMARK    9  A    between atoms: C_14  and  C_15
REMARK   10  A    between atoms: C_14  and  C_16
REMARK   11  A    between atoms: C_15  and  C_17
REMARK   12  A    between atoms: C_17  and  C_20
REMARK   13  A    between atoms: C_21  and  C_22
REMARK   14  A    between atoms: C_21  and  C_24
REMARK   15  A    between atoms: C_22  and  C_23
REMARK   16  A    between atoms: C_23  and  C_25
REMARK   17  A    between atoms: C_26  and  C_27
REMARK   18  A    between atoms: C_26  and  C_28
REMARK                            x       y       z     vdW  Elec       q    Type
REMARK                         _______ _______ _______ _____ _____    ______ ____
ROOT
ATOM      1  C   UNL     1      -1.823  -0.043   1.550  0.00  0.00    +0.000 C 
ENDROOT
BRANCH   1   3
ATOM      2  O   UNL     1      -2.446   0.182  -2.436  0.00  0.00    +0.000 OA
ATOM      3  C   UNL     1      -2.608  -1.209   0.922  0.00  0.00    +0.000 C 
ATOM      4  C   UNL     1      -2.284  -1.332  -0.579  0.00  0.00    +0.000 C 
ATOM      5  C   UNL     1      -4.128  -1.091   1.149  0.00  0.00    +0.000 C 
ATOM      6  C   UNL     1      -2.939  -0.216  -1.381  0.00  0.00    +0.000 C 
ATOM      7  C   UNL     1      -4.771  -0.072   0.248  0.00  0.00    +0.000 C 
ATOM      8  C   UNL     1      -2.707  -2.678  -1.166  0.00  0.00    +0.000 C 
ATOM      9  C   UNL     1      -4.231   0.355  -0.904  0.00  0.00    +0.000 C 
BRANCH   5  10
ATOM     10  O   UNL     1      -4.396  -0.766   2.512  0.00  0.00    +0.000 OA
ATOM     11  H   UNL     1      -4.011  -1.470   3.061  0.00  0.00    +0.000 HD
ENDBRANCH   5  10
BRANCH   7  12
ATOM     12  O   UNL     1      -5.995   0.426   0.663  0.00  0.00    +0.000 OA
ATOM     13  C   UNL     1      -7.051  -0.367   0.162  0.00  0.00    +0.000 C 
ENDBRANCH   7  12
BRANCH   9  14
ATOM     14  O   UNL     1      -4.828   1.300  -1.710  0.00  0.00    +0.000 OA
ATOM     15  C   UNL     1      -4.411   2.604  -1.351  0.00  0.00    +0.000 C 
ENDBRANCH   9  14
ENDBRANCH   1   3
BRANCH   1  16
ATOM     16  C   UNL     1      -0.343  -0.216   1.363  0.00  0.00    +0.000 C 
ATOM     17  C   UNL     1       0.500   0.611   0.716  0.00  0.00    +0.000 C 
ATOM     18  C   UNL     1      -0.012   1.875   0.077  0.00  0.00    +0.000 C 
BRANCH  17  19
ATOM     19  C   UNL     1       1.990   0.382   0.591  0.00  0.00    +0.000 C 
BRANCH  19  20
ATOM     20  C   UNL     1       2.795   1.489   1.277  0.00  0.00    +0.000 C 
BRANCH  20  21
ATOM     21  C   UNL     1       4.272   1.215   1.217  0.00  0.00    +0.000 C 
ATOM     22  C   UNL     1       5.138   1.658   0.285  0.00  0.00    +0.000 C 
ATOM     23  C   UNL     1       4.663   2.523  -0.851  0.00  0.00    +0.000 C 
BRANCH  22  24
ATOM     24  C   UNL     1       6.623   1.375   0.309  0.00  0.00    +0.000 C 
BRANCH  24  25
ATOM     25  C   UNL     1       6.990   0.129  -0.498  0.00  0.00    +0.000 C 
BRANCH  25  26
ATOM     26  C   UNL     1       6.358  -1.101   0.093  0.00  0.00    +0.000 C 
ATOM     27  C   UNL     1       5.547  -1.981  -0.524  0.00  0.00    +0.000 C 
ATOM     28  C   UNL     1       5.021  -3.183   0.214  0.00  0.00    +0.000 C 
ATOM     29  C   UNL     1       5.076  -1.869  -1.946  0.00  0.00    +0.000 C 
ENDBRANCH  25  26
ENDBRANCH  24  25
ENDBRANCH  22  24
ENDBRANCH  20  21
ENDBRANCH  19  20
ENDBRANCH  17  19
ENDBRANCH   1  16
TORSDOF 11
