REMARK  Name = 442343
REMARK  9 active torsions:
REMARK  status: ('A' for Active; 'I' for Inactive)
REMARK    1  A    between atoms: O_1  and  C_3
REMARK    2  A    between atoms: C_2  and  C_3
REMARK    3  A    between atoms: C_3  and  C_6
REMARK    4  A    between atoms: C_3  and  C_8
REMARK    5  A    between atoms: C_6  and  C_11
REMARK    6  A    between atoms: C_9  and  C_12
REMARK    7  A    between atoms: C_11  and  C_13
REMARK    8  A    between atoms: C_14  and  C_15
REMARK    9  A    between atoms: C_14  and  C_16
REMARK                            x       y       z     vdW  Elec       q    Type
REMARK                         _______ _______ _______ _____ _____    ______ ____
ROOT
ATOM      1  C   UNL     1       0.065  -1.396   0.282  0.00  0.00    +0.000 C 
ATOM      2  C   UNL     1      -0.185  -2.426  -0.821  0.00  0.00    +0.000 C 
ENDROOT
BRANCH   1   3
ATOM      3  C   UNL     1       1.169  -0.435  -0.154  0.00  0.00    +0.000 C 
ATOM      4  C   UNL     1       1.398   0.657   0.896  0.00  0.00    +0.000 C 
ATOM      5  C   UNL     1       2.477  -1.194  -0.426  0.00  0.00    +0.000 C 
ATOM      6  C   UNL     1       2.467   1.653   0.435  0.00  0.00    +0.000 C 
ATOM      7  C   UNL     1       3.670   1.002  -0.200  0.00  0.00    +0.000 C 
ATOM      8  C   UNL     1       3.666  -0.290  -0.571  0.00  0.00    +0.000 C 
ATOM      9  C   UNL     1       4.871   1.880  -0.395  0.00  0.00    +0.000 C 
ENDBRANCH   1   3
BRANCH   1  10
ATOM     10  O   UNL     1       0.530  -2.105   1.432  0.00  0.00    +0.000 OA
ATOM     11  H   UNL     1       0.485  -1.516   2.203  0.00  0.00    +0.000 HD
ENDBRANCH   1  10
BRANCH   1  12
ATOM     12  C   UNL     1      -1.208  -0.604   0.648  0.00  0.00    +0.000 C 
BRANCH  12  13
ATOM     13  C   UNL     1      -1.739   0.296  -0.474  0.00  0.00    +0.000 C 
BRANCH  13  14
ATOM     14  C   UNL     1      -2.931   1.089  -0.013  0.00  0.00    +0.000 C 
ATOM     15  C   UNL     1      -4.232   0.769  -0.145  0.00  0.00    +0.000 C 
ATOM     16  C   UNL     1      -5.380   1.609   0.340  0.00  0.00    +0.000 C 
ATOM     17  C   UNL     1      -4.638  -0.506  -0.834  0.00  0.00    +0.000 C 
ENDBRANCH  13  14
ENDBRANCH  12  13
ENDBRANCH   1  12
TORSDOF 5
