REMARK  Name = 5468522
REMARK  10 active torsions:
REMARK  status: ('A' for Active; 'I' for Inactive)
REMARK    1  A    between atoms: O_1  and  C_19
REMARK    2  A    between atoms: C_2  and  C_3
REMARK    3  A    between atoms: C_2  and  C_5
REMARK    4  A    between atoms: C_2  and  C_6
REMARK    5  A    between atoms: C_2  and  C_7
REMARK    6  A    between atoms: C_3  and  C_4
REMARK    7  A    between atoms: C_4  and  C_8
REMARK    8  A    between atoms: C_9  and  C_12
REMARK    9  A    between atoms: C_10  and  C_13
REMARK   10  A    between atoms: C_10  and  C_14
REMARK                            x       y       z     vdW  Elec       q    Type
REMARK                         _______ _______ _______ _____ _____    ______ ____
ROOT
ATOM      1  C   UNL     1      -1.389   1.854  -0.082  0.00  0.00    +0.000 C 
ATOM      2  C   UNL     1      -1.463   2.548  -1.462  0.00  0.00    +0.000 C 
ENDROOT
BRANCH   1   3
ATOM      3  C   UNL     1      -0.061   1.141   0.178  0.00  0.00    +0.000 C 
ATOM      4  C   UNL     1       0.975   1.015  -0.668  0.00  0.00    +0.000 C 
BRANCH   4   5
ATOM      5  C   UNL     1       2.230   0.312  -0.350  0.00  0.00    +0.000 A 
ATOM      6  C   UNL     1       2.250  -0.607   0.687  0.00  0.00    +0.000 A 
ATOM      7  C   UNL     1       3.367   0.583  -1.094  0.00  0.00    +0.000 A 
ATOM      8  C   UNL     1       3.439  -1.272   0.988  0.00  0.00    +0.000 A 
ATOM      9  C   UNL     1       4.555  -0.082  -0.794  0.00  0.00    +0.000 A 
ATOM     10  C   UNL     1       4.591  -1.010   0.247  0.00  0.00    +0.000 A 
BRANCH  10  11
ATOM     11  O   UNL     1       5.751  -1.660   0.540  0.00  0.00    +0.000 OA
ATOM     12  H   UNL     1       5.594  -2.263   1.287  0.00  0.00    +0.000 HD
ENDBRANCH  10  11
ENDBRANCH   4   5
ENDBRANCH   1   3
BRANCH   1  13
ATOM     13  C   UNL     1      -1.519   2.973   0.956  0.00  0.00    +0.000 C 
ATOM     14  C   UNL     1      -2.473   3.140   1.880  0.00  0.00    +0.000 C 
ENDBRANCH   1  13
BRANCH   1  15
ATOM     15  C   UNL     1      -2.539   0.801   0.023  0.00  0.00    +0.000 C 
BRANCH  15  16
ATOM     16  C   UNL     1      -2.506  -0.325  -1.023  0.00  0.00    +0.000 C 
BRANCH  16  17
ATOM     17  C   UNL     1      -3.694  -1.235  -0.870  0.00  0.00    +0.000 C 
ATOM     18  C   UNL     1      -3.810  -2.303  -0.057  0.00  0.00    +0.000 C 
ATOM     19  C   UNL     1      -5.029  -3.175   0.050  0.00  0.00    +0.000 C 
ATOM     20  C   UNL     1      -2.677  -2.699   0.851  0.00  0.00    +0.000 C 
ENDBRANCH  16  17
ENDBRANCH  15  16
ENDBRANCH   1  15
TORSDOF 7
