REMARK  Name = 
REMARK  26 active torsions:
REMARK  status: ('A' for Active; 'I' for Inactive)
REMARK    1  A    between atoms: C_1  and  C_2
REMARK    2  A    between atoms: C_2  and  C_3
REMARK    3  A    between atoms: C_4  and  C_5
REMARK    4  A    between atoms: C_5  and  C_6
REMARK    5  A    between atoms: C_6  and  C_7
REMARK    6  A    between atoms: C_7  and  C_8
REMARK    7  A    between atoms: C_9  and  C_10
REMARK    8  A    between atoms: C_11  and  C_12
REMARK    9  A    between atoms: C_12  and  C_13
REMARK   10  A    between atoms: C_14  and  C_15
REMARK   11  A    between atoms: C_16  and  C_17
REMARK   12  A    between atoms: C_17  and  C_18
REMARK   13  A    between atoms: C_19  and  C_20
REMARK   14  A    between atoms: C_21  and  C_22
REMARK   15  A    between atoms: C_23  and  C_24
REMARK   16  A    between atoms: C_23  and  C_25
REMARK   17  A    between atoms: C_26  and  C_27
REMARK   18  A    between atoms: C_28  and  C_29
REMARK   19  A    between atoms: C_28  and  C_30
REMARK   20  A    between atoms: C_31  and  C_32
REMARK   21  A    between atoms: C_33  and  C_34
REMARK   22  A    between atoms: C_33  and  C_35
REMARK   23  A    between atoms: C_35  and  C_36
REMARK   24  A    between atoms: C_36  and  C_37
REMARK   25  A    between atoms: C_38  and  C_39
REMARK   26  A    between atoms: C_38  and  C_40
REMARK                            x       y       z     vdW  Elec       q    Type
REMARK                         _______ _______ _______ _____ _____    ______ ____
ROOT
ATOM      1  C   UNL     1      -0.628  -1.692  -0.919  0.00  0.00    +0.000 C 
ATOM      2  C   UNL     1       0.374  -1.685  -0.041  0.00  0.00    +0.000 C 
ENDROOT
BRANCH   1   5
ATOM      3  C   UNL     1      -1.987   0.240  -0.694  0.00  0.00    +0.000 C 
ATOM      4  C   UNL     1      -1.718   0.666  -2.100  0.00  0.00    +0.000 C 
ATOM      5  C   UNL     1      -1.873  -1.068  -0.459  0.00  0.00    +0.000 C 
BRANCH   3   7
ATOM      6  C   UNL     1      -4.226   1.220  -0.503  0.00  0.00    +0.000 C 
ATOM      7  C   UNL     1      -3.067   0.919   0.032  0.00  0.00    +0.000 C 
BRANCH   6  10
ATOM      8  C   UNL     1      -5.702   0.161   1.143  0.00  0.00    +0.000 C 
ATOM      9  C   UNL     1      -4.557   0.097   2.104  0.00  0.00    +0.000 C 
ATOM     10  C   UNL     1      -5.518   0.944   0.086  0.00  0.00    +0.000 C 
BRANCH   8  12
ATOM     11  C   UNL     1      -7.134  -1.637   0.297  0.00  0.00    +0.000 C 
ATOM     12  C   UNL     1      -6.767  -0.812   1.251  0.00  0.00    +0.000 C 
BRANCH  11  15
ATOM     13  C   UNL     1      -9.288  -1.094  -0.665  0.00  0.00    +0.000 C 
ATOM     14  C   UNL     1      -8.608  -0.511  -1.862  0.00  0.00    +0.000 C 
ATOM     15  C   UNL     1      -8.558  -1.920   0.078  0.00  0.00    +0.000 C 
BRANCH  13  16
ATOM     16  C   UNL     1     -10.685  -0.713  -0.300  0.00  0.00    +0.000 C 
BRANCH  16  17
ATOM     17  C   UNL     1     -10.636   0.307   0.825  0.00  0.00    +0.000 C 
BRANCH  17  21
ATOM     18  C   UNL     1      -9.841   3.231   0.555  0.00  0.00    +0.000 C 
ATOM     19  C   UNL     1     -11.172   2.655   0.228  0.00  0.00    +0.000 C 
ATOM     20  C   UNL     1     -12.195   3.525  -0.439  0.00  0.00    +0.000 C 
ATOM     21  C   UNL     1     -11.552   1.436   0.555  0.00  0.00    +0.000 C 
ENDBRANCH  17  21
ENDBRANCH  16  17
ENDBRANCH  13  16
ENDBRANCH  11  15
ENDBRANCH   8  12
ENDBRANCH   6  10
ENDBRANCH   3   7
ENDBRANCH   1   5
BRANCH   2  22
ATOM     22  C   UNL     1       1.776  -1.702  -0.451  0.00  0.00    +0.000 C 
ATOM     23  C   UNL     1       2.522  -0.627  -0.556  0.00  0.00    +0.000 C 
ATOM     24  C   UNL     1       1.903   0.696  -0.295  0.00  0.00    +0.000 C 
BRANCH  23  25
ATOM     25  C   UNL     1       3.939  -0.765  -0.195  0.00  0.00    +0.000 C 
ATOM     26  C   UNL     1       4.289  -0.748   1.080  0.00  0.00    +0.000 C 
BRANCH  26  27
ATOM     27  C   UNL     1       5.609  -1.188   1.502  0.00  0.00    +0.000 C 
ATOM     28  C   UNL     1       6.155  -2.319   1.054  0.00  0.00    +0.000 C 
ATOM     29  C   UNL     1       5.442  -3.103   0.013  0.00  0.00    +0.000 C 
BRANCH  28  30
ATOM     30  C   UNL     1       7.582  -2.485   1.336  0.00  0.00    +0.000 C 
ATOM     31  C   UNL     1       8.480  -2.781   0.426  0.00  0.00    +0.000 C 
BRANCH  31  32
ATOM     32  C   UNL     1       9.705  -1.997   0.213  0.00  0.00    +0.000 C 
ATOM     33  C   UNL     1       9.739  -1.051  -0.725  0.00  0.00    +0.000 C 
ATOM     34  C   UNL     1       8.685  -1.158  -1.780  0.00  0.00    +0.000 C 
BRANCH  33  35
ATOM     35  C   UNL     1      10.266   0.323  -0.455  0.00  0.00    +0.000 C 
BRANCH  35  36
ATOM     36  C   UNL     1       9.169   1.190   0.140  0.00  0.00    +0.000 C 
BRANCH  36  37
ATOM     37  C   UNL     1       9.019   2.479  -0.566  0.00  0.00    +0.000 C 
ATOM     38  C   UNL     1       9.956   3.407  -0.341  0.00  0.00    +0.000 C 
ATOM     39  C   UNL     1      10.822   3.765  -1.494  0.00  0.00    +0.000 C 
ATOM     40  C   UNL     1      10.281   3.793   1.049  0.00  0.00    +0.000 C 
ENDBRANCH  36  37
ENDBRANCH  35  36
ENDBRANCH  33  35
ENDBRANCH  31  32
ENDBRANCH  28  30
ENDBRANCH  26  27
ENDBRANCH  23  25
ENDBRANCH   2  22
TORSDOF 16
