REMARK  Name = 5287705
REMARK  15 active torsions:
REMARK  status: ('A' for Active; 'I' for Inactive)
REMARK    1  A    between atoms: O_1  and  C_25
REMARK    2  A    between atoms: C_3  and  C_5
REMARK    3  A    between atoms: C_3  and  C_10
REMARK    4  A    between atoms: C_3  and  C_11
REMARK    5  A    between atoms: C_3  and  C_12
REMARK    6  A    between atoms: C_4  and  C_6
REMARK    7  A    between atoms: C_4  and  C_13
REMARK    8  A    between atoms: C_4  and  C_14
REMARK    9  A    between atoms: C_4  and  C_15
REMARK   10  A    between atoms: C_16  and  C_17
REMARK   11  A    between atoms: C_17  and  C_18
REMARK   12  A    between atoms: C_19  and  C_20
REMARK   13  A    between atoms: C_21  and  C_22
REMARK   14  A    between atoms: C_22  and  C_23
REMARK   15  A    between atoms: C_24  and  C_25
REMARK                            x       y       z     vdW  Elec       q    Type
REMARK                         _______ _______ _______ _____ _____    ______ ____
ROOT
ATOM      1  C   UNL     1       3.154   1.206   0.089  0.00  0.00    +0.000 A 
ATOM      2  C   UNL     1       3.133  -1.209   0.144  0.00  0.00    +0.000 A 
ATOM      3  C   UNL     1       3.788  -0.001   0.383  0.00  0.00    +0.000 A 
ATOM      4  C   UNL     1       1.864   1.205  -0.443  0.00  0.00    +0.000 A 
ATOM      5  C   UNL     1       1.844  -1.210  -0.388  0.00  0.00    +0.000 A 
ATOM      6  C   UNL     1       1.238  -0.003  -0.670  0.00  0.00    +0.000 A 
ENDROOT
BRANCH   1   7
ATOM      7  C   UNL     1       3.854   2.498   0.344  0.00  0.00    +0.000 C 
ATOM      8  C   UNL     1       5.295   2.373   0.941  0.00  0.00    +0.000 C 
ATOM      9  C   UNL     1       4.019   3.321  -0.971  0.00  0.00    +0.000 C 
ATOM     10  C   UNL     1       3.060   3.381   1.356  0.00  0.00    +0.000 C 
ENDBRANCH   1   7
BRANCH   2  11
ATOM     11  C   UNL     1       3.811  -2.500   0.458  0.00  0.00    +0.000 C 
ATOM     12  C   UNL     1       3.964  -3.384  -0.818  0.00  0.00    +0.000 C 
ATOM     13  C   UNL     1       3.002  -3.324   1.507  0.00  0.00    +0.000 C 
ATOM     14  C   UNL     1       5.254  -2.373   1.052  0.00  0.00    +0.000 C 
ENDBRANCH   2  11
BRANCH   6  15
ATOM     15  C   UNL     1      -0.135  -0.005  -1.237  0.00  0.00    +0.000 C 
ATOM     16  C   UNL     1      -0.221  -0.057  -2.740  0.00  0.00    +0.000 C 
ATOM     17  C   UNL     1      -1.191   0.023  -0.397  0.00  0.00    +0.000 C 
BRANCH  17  18
ATOM     18  C   UNL     1      -2.593  -0.010  -0.768  0.00  0.00    +0.000 C 
ATOM     19  C   UNL     1      -3.584   0.021   0.140  0.00  0.00    +0.000 C 
BRANCH  19  20
ATOM     20  C   UNL     1      -5.026  -0.017  -0.131  0.00  0.00    +0.000 C 
ATOM     21  C   UNL     1      -5.456  -0.074  -1.574  0.00  0.00    +0.000 C 
ATOM     22  C   UNL     1      -5.866   0.025   0.923  0.00  0.00    +0.000 C 
BRANCH  22  24
ATOM     23  O   UNL     1      -8.032  -0.529  -0.000  0.00  0.00    +0.000 OA
ATOM     24  C   UNL     1      -7.344  -0.003   0.857  0.00  0.00    +0.000 C 
BRANCH  24  25
ATOM     25  O   UNL     1      -7.832   0.646   1.941  0.00  0.00    +0.000 OA
ATOM     26  H   UNL     1      -8.813   0.652   1.955  0.00  0.00    +0.000 HD
ENDBRANCH  24  25
ENDBRANCH  22  24
ENDBRANCH  19  20
ENDBRANCH  17  18
ENDBRANCH   6  15
TORSDOF 7
