REMARK  Name = 
REMARK  26 active torsions:
REMARK  status: ('A' for Active; 'I' for Inactive)
REMARK    1  A    between atoms: C_1  and  C_2
REMARK    2  A    between atoms: C_2  and  C_3
REMARK    3  A    between atoms: C_4  and  C_5
REMARK    4  A    between atoms: C_5  and  C_6
REMARK    5  A    between atoms: C_6  and  C_7
REMARK    6  A    between atoms: C_7  and  C_8
REMARK    7  A    between atoms: C_9  and  C_10
REMARK    8  A    between atoms: C_11  and  C_12
REMARK    9  A    between atoms: C_12  and  C_13
REMARK   10  A    between atoms: C_14  and  C_15
REMARK   11  A    between atoms: C_16  and  C_17
REMARK   12  A    between atoms: C_17  and  C_18
REMARK   13  A    between atoms: C_19  and  C_20
REMARK   14  A    between atoms: C_21  and  C_22
REMARK   15  A    between atoms: C_23  and  C_24
REMARK   16  A    between atoms: C_23  and  C_25
REMARK   17  A    between atoms: C_26  and  C_27
REMARK   18  A    between atoms: C_28  and  C_29
REMARK   19  A    between atoms: C_28  and  C_30
REMARK   20  A    between atoms: C_31  and  C_32
REMARK   21  A    between atoms: C_33  and  C_34
REMARK   22  A    between atoms: C_33  and  C_35
REMARK   23  A    between atoms: C_35  and  C_36
REMARK   24  A    between atoms: C_36  and  C_37
REMARK   25  A    between atoms: C_38  and  C_39
REMARK   26  A    between atoms: C_38  and  C_40
REMARK                            x       y       z     vdW  Elec       q    Type
REMARK                         _______ _______ _______ _____ _____    ______ ____
ROOT
ATOM      1  C   UNL     1      -0.934  -0.538   1.096  0.00  0.00    +0.000 C 
ATOM      2  C   UNL     1       0.180   0.032   0.705  0.00  0.00    +0.000 C 
ENDROOT
BRANCH   1   5
ATOM      3  C   UNL     1      -1.611  -1.379  -1.103  0.00  0.00    +0.000 C 
ATOM      4  C   UNL     1      -0.194  -1.772  -1.365  0.00  0.00    +0.000 C 
ATOM      5  C   UNL     1      -1.906  -1.095   0.163  0.00  0.00    +0.000 C 
BRANCH   3   7
ATOM      6  C   UNL     1      -2.860   0.135  -2.558  0.00  0.00    +0.000 C 
ATOM      7  C   UNL     1      -2.546  -1.110  -2.201  0.00  0.00    +0.000 C 
BRANCH   6  10
ATOM      8  C   UNL     1      -5.031   0.864  -1.860  0.00  0.00    +0.000 C 
ATOM      9  C   UNL     1      -4.445   1.827  -0.892  0.00  0.00    +0.000 C 
ATOM     10  C   UNL     1      -4.244   0.506  -2.877  0.00  0.00    +0.000 C 
BRANCH   8  12
ATOM     11  C   UNL     1      -6.927  -0.656  -1.554  0.00  0.00    +0.000 C 
ATOM     12  C   UNL     1      -6.451   0.560  -1.813  0.00  0.00    +0.000 C 
BRANCH  11  15
ATOM     13  C   UNL     1      -9.279  -0.226  -2.057  0.00  0.00    +0.000 C 
ATOM     14  C   UNL     1      -8.871   0.118  -3.438  0.00  0.00    +0.000 C 
ATOM     15  C   UNL     1      -8.356  -0.804  -1.287  0.00  0.00    +0.000 C 
BRANCH  13  16
ATOM     16  C   UNL     1     -10.607   0.150  -1.482  0.00  0.00    +0.000 C 
BRANCH  16  17
ATOM     17  C   UNL     1     -10.344   1.195  -0.428  0.00  0.00    +0.000 C 
BRANCH  17  21
ATOM     18  C   UNL     1     -11.228  -0.832   2.661  0.00  0.00    +0.000 C 
ATOM     19  C   UNL     1     -11.322  -0.359   1.242  0.00  0.00    +0.000 C 
ATOM     20  C   UNL     1     -12.292  -1.029   0.348  0.00  0.00    +0.000 C 
ATOM     21  C   UNL     1     -10.648   0.733   0.942  0.00  0.00    +0.000 C 
ENDBRANCH  17  21
ENDBRANCH  16  17
ENDBRANCH  13  16
ENDBRANCH  11  15
ENDBRANCH   8  12
ENDBRANCH   6  10
ENDBRANCH   3   7
ENDBRANCH   1   5
BRANCH   2  22
ATOM     22  C   UNL     1       0.818   1.135   1.433  0.00  0.00    +0.000 C 
ATOM     23  C   UNL     1       1.611   2.007   0.854  0.00  0.00    +0.000 C 
ATOM     24  C   UNL     1       1.415   2.219  -0.614  0.00  0.00    +0.000 C 
BRANCH  23  25
ATOM     25  C   UNL     1       2.923   2.392   1.384  0.00  0.00    +0.000 C 
ATOM     26  C   UNL     1       3.475   1.844   2.440  0.00  0.00    +0.000 C 
BRANCH  26  27
ATOM     27  C   UNL     1       4.859   1.351   2.464  0.00  0.00    +0.000 C 
ATOM     28  C   UNL     1       5.069   0.050   2.268  0.00  0.00    +0.000 C 
ATOM     29  C   UNL     1       4.139  -0.877   2.986  0.00  0.00    +0.000 C 
BRANCH  28  30
ATOM     30  C   UNL     1       6.231  -0.453   1.533  0.00  0.00    +0.000 C 
ATOM     31  C   UNL     1       6.222  -0.530   0.206  0.00  0.00    +0.000 C 
BRANCH  31  32
ATOM     32  C   UNL     1       7.460  -0.654  -0.572  0.00  0.00    +0.000 C 
ATOM     33  C   UNL     1       8.458   0.184  -0.291  0.00  0.00    +0.000 C 
ATOM     34  C   UNL     1       8.476   0.736   1.100  0.00  0.00    +0.000 C 
BRANCH  33  35
ATOM     35  C   UNL     1       9.779   0.027  -0.973  0.00  0.00    +0.000 C 
BRANCH  35  36
ATOM     36  C   UNL     1      10.710  -0.677  -0.022  0.00  0.00    +0.000 C 
BRANCH  36  37
ATOM     37  C   UNL     1      11.154   0.191   1.100  0.00  0.00    +0.000 C 
ATOM     38  C   UNL     1      11.974   1.214   0.964  0.00  0.00    +0.000 C 
ATOM     39  C   UNL     1      11.958   1.982  -0.311  0.00  0.00    +0.000 C 
ATOM     40  C   UNL     1      13.186   1.292   1.808  0.00  0.00    +0.000 C 
ENDBRANCH  36  37
ENDBRANCH  35  36
ENDBRANCH  33  35
ENDBRANCH  31  32
ENDBRANCH  28  30
ENDBRANCH  26  27
ENDBRANCH  23  25
ENDBRANCH   2  22
TORSDOF 16
