REMARK  Name = 
REMARK  26 active torsions:
REMARK  status: ('A' for Active; 'I' for Inactive)
REMARK    1  A    between atoms: C_1  and  C_2
REMARK    2  A    between atoms: C_2  and  C_3
REMARK    3  A    between atoms: C_4  and  C_5
REMARK    4  A    between atoms: C_5  and  C_6
REMARK    5  A    between atoms: C_6  and  C_7
REMARK    6  A    between atoms: C_7  and  C_8
REMARK    7  A    between atoms: C_9  and  C_10
REMARK    8  A    between atoms: C_11  and  C_12
REMARK    9  A    between atoms: C_12  and  C_13
REMARK   10  A    between atoms: C_14  and  C_15
REMARK   11  A    between atoms: C_16  and  C_17
REMARK   12  A    between atoms: C_17  and  C_18
REMARK   13  A    between atoms: C_19  and  C_20
REMARK   14  A    between atoms: C_21  and  C_22
REMARK   15  A    between atoms: C_23  and  C_24
REMARK   16  A    between atoms: C_23  and  C_25
REMARK   17  A    between atoms: C_26  and  C_27
REMARK   18  A    between atoms: C_28  and  C_29
REMARK   19  A    between atoms: C_28  and  C_30
REMARK   20  A    between atoms: C_31  and  C_32
REMARK   21  A    between atoms: C_33  and  C_34
REMARK   22  A    between atoms: C_33  and  C_35
REMARK   23  A    between atoms: C_35  and  C_36
REMARK   24  A    between atoms: C_36  and  C_37
REMARK   25  A    between atoms: C_38  and  C_39
REMARK   26  A    between atoms: C_38  and  C_40
REMARK                            x       y       z     vdW  Elec       q    Type
REMARK                         _______ _______ _______ _____ _____    ______ ____
ROOT
ATOM      1  C   UNL     1      -1.769   1.505   0.828  0.00  0.00    +0.000 C 
ATOM      2  C   UNL     1      -0.759   1.496  -0.002  0.00  0.00    +0.000 C 
ENDROOT
BRANCH   1   5
ATOM      3  C   UNL     1      -3.036  -0.201  -0.304  0.00  0.00    +0.000 C 
ATOM      4  C   UNL     1      -2.971   0.559  -1.586  0.00  0.00    +0.000 C 
ATOM      5  C   UNL     1      -2.872   0.537   0.795  0.00  0.00    +0.000 C 
BRANCH   3   7
ATOM      6  C   UNL     1      -4.200  -2.179  -1.169  0.00  0.00    +0.000 C 
ATOM      7  C   UNL     1      -3.568  -1.552  -0.207  0.00  0.00    +0.000 C 
BRANCH   6  10
ATOM      8  C   UNL     1      -6.143  -2.912   0.134  0.00  0.00    +0.000 C 
ATOM      9  C   UNL     1      -5.259  -3.034   1.335  0.00  0.00    +0.000 C 
ATOM     10  C   UNL     1      -5.523  -2.788  -1.025  0.00  0.00    +0.000 C 
BRANCH   8  12
ATOM     11  C   UNL     1      -7.831  -1.615   1.235  0.00  0.00    +0.000 C 
ATOM     12  C   UNL     1      -7.549  -2.535   0.332  0.00  0.00    +0.000 C 
BRANCH  11  15
ATOM     13  C   UNL     1      -9.241  -0.154  -0.117  0.00  0.00    +0.000 C 
ATOM     14  C   UNL     1      -9.096  -1.081  -1.269  0.00  0.00    +0.000 C 
ATOM     15  C   UNL     1      -8.852  -0.599   1.078  0.00  0.00    +0.000 C 
BRANCH  13  16
ATOM     16  C   UNL     1      -9.689   1.244  -0.272  0.00  0.00    +0.000 C 
BRANCH  16  17
ATOM     17  C   UNL     1      -9.005   1.805  -1.498  0.00  0.00    +0.000 C 
BRANCH  17  21
ATOM     18  C   UNL     1     -10.823   4.466  -0.253  0.00  0.00    +0.000 C 
ATOM     19  C   UNL     1      -9.424   3.998  -0.455  0.00  0.00    +0.000 C 
ATOM     20  C   UNL     1      -8.322   4.494   0.426  0.00  0.00    +0.000 C 
ATOM     21  C   UNL     1      -9.113   3.280  -1.524  0.00  0.00    +0.000 C 
ENDBRANCH  17  21
ENDBRANCH  16  17
ENDBRANCH  13  16
ENDBRANCH  11  15
ENDBRANCH   8  12
ENDBRANCH   6  10
ENDBRANCH   3   7
ENDBRANCH   1   5
BRANCH   2  22
ATOM     22  C   UNL     1       0.650   1.524   0.409  0.00  0.00    +0.000 C 
ATOM     23  C   UNL     1       1.410   0.568  -0.129  0.00  0.00    +0.000 C 
ATOM     24  C   UNL     1       0.846  -0.415  -1.107  0.00  0.00    +0.000 C 
BRANCH  23  25
ATOM     25  C   UNL     1       2.812   0.416   0.273  0.00  0.00    +0.000 C 
ATOM     26  C   UNL     1       3.471  -0.715   0.171  0.00  0.00    +0.000 C 
BRANCH  26  27
ATOM     27  C   UNL     1       4.923  -0.792  -0.012  0.00  0.00    +0.000 C 
ATOM     28  C   UNL     1       5.451  -1.970  -0.294  0.00  0.00    +0.000 C 
ATOM     29  C   UNL     1       4.606  -2.938  -1.058  0.00  0.00    +0.000 C 
BRANCH  28  30
ATOM     30  C   UNL     1       6.898  -2.128  -0.430  0.00  0.00    +0.000 C 
ATOM     31  C   UNL     1       7.713  -2.316   0.583  0.00  0.00    +0.000 C 
BRANCH  31  32
ATOM     32  C   UNL     1       8.955  -1.569   0.779  0.00  0.00    +0.000 C 
ATOM     33  C   UNL     1       9.878  -1.560  -0.175  0.00  0.00    +0.000 C 
ATOM     34  C   UNL     1      10.071  -2.813  -0.936  0.00  0.00    +0.000 C 
BRANCH  33  35
ATOM     35  C   UNL     1      10.709  -0.367  -0.460  0.00  0.00    +0.000 C 
BRANCH  35  36
ATOM     36  C   UNL     1      11.515   0.036   0.753  0.00  0.00    +0.000 C 
BRANCH  36  37
ATOM     37  C   UNL     1      11.980   1.433   0.531  0.00  0.00    +0.000 C 
ATOM     38  C   UNL     1      11.254   2.497   0.850  0.00  0.00    +0.000 C 
ATOM     39  C   UNL     1       9.986   2.709   0.088  0.00  0.00    +0.000 C 
ATOM     40  C   UNL     1      11.921   3.668   1.504  0.00  0.00    +0.000 C 
ENDBRANCH  36  37
ENDBRANCH  35  36
ENDBRANCH  33  35
ENDBRANCH  31  32
ENDBRANCH  28  30
ENDBRANCH  26  27
ENDBRANCH  23  25
ENDBRANCH   2  22
TORSDOF 16
