REMARK  Name = 6438744
REMARK  14 active torsions:
REMARK  status: ('A' for Active; 'I' for Inactive)
REMARK    1  A    between atoms: O_1  and  C_30
REMARK    2  A    between atoms: O_2  and  C_31
REMARK    3  A    between atoms: C_5  and  C_11
REMARK    4  A    between atoms: C_5  and  C_12
REMARK    5  A    between atoms: C_8  and  C_13
REMARK    6  A    between atoms: C_10  and  C_14
REMARK    7  A    between atoms: C_15  and  C_16
REMARK    8  A    between atoms: C_16  and  C_17
REMARK    9  A    between atoms: C_18  and  C_19
REMARK   10  A    between atoms: C_20  and  C_21
REMARK   11  A    between atoms: C_20  and  C_22
REMARK   12  A    between atoms: C_22  and  C_25
REMARK   13  A    between atoms: C_26  and  C_30
REMARK   14  A    between atoms: C_27  and  C_31
REMARK                            x       y       z     vdW  Elec       q    Type
REMARK                         _______ _______ _______ _____ _____    ______ ____
ROOT
ATOM      1  C   UNL     1      -1.685   1.468   0.403  0.00  0.00    +0.000 C 
ATOM      2  C   UNL     1      -2.894   0.904   0.170  0.00  0.00    +0.000 C 
ENDROOT
BRANCH   2   3
ATOM      3  C   UNL     1      -3.004  -0.480  -0.350  0.00  0.00    +0.000 A 
ATOM      4  C   UNL     1      -3.074  -1.529   0.546  0.00  0.00    +0.000 A 
ATOM      5  C   UNL     1      -3.034  -0.681  -1.716  0.00  0.00    +0.000 A 
ATOM      6  C   UNL     1      -3.178  -2.831   0.057  0.00  0.00    +0.000 A 
ATOM      7  C   UNL     1      -3.138  -1.983  -2.206  0.00  0.00    +0.000 A 
ATOM      8  C   UNL     1      -3.210  -3.058  -1.319  0.00  0.00    +0.000 A 
BRANCH   6  10
ATOM      9  O   UNL     1      -3.348  -5.141   0.656  0.00  0.00    +0.000 OA
ATOM     10  C   UNL     1      -3.254  -3.952   0.980  0.00  0.00    +0.000 C 
BRANCH  10  11
ATOM     11  O   UNL     1      -3.208  -3.558   2.282  0.00  0.00    +0.000 OA
ATOM     12  H   UNL     1      -3.259  -4.322   2.896  0.00  0.00    +0.000 HD
ENDBRANCH  10  11
ENDBRANCH   6  10
ENDBRANCH   2   3
BRANCH   1  15
ATOM     13  C   UNL     1       0.833   1.429   0.397  0.00  0.00    +0.000 C 
ATOM     14  C   UNL     1       1.055   2.805   0.975  0.00  0.00    +0.000 C 
ATOM     15  C   UNL     1      -0.378   0.874   0.168  0.00  0.00    +0.000 C 
BRANCH  13  17
ATOM     16  C   UNL     1       3.306   1.022   0.223  0.00  0.00    +0.000 C 
ATOM     17  C   UNL     1       2.028   0.643   0.068  0.00  0.00    +0.000 C 
BRANCH  16  21
ATOM     18  C   UNL     1       5.618   0.189   0.863  0.00  0.00    +0.000 C 
ATOM     19  C   UNL     1       6.876  -0.498   0.263  0.00  0.00    +0.000 C 
ATOM     20  C   UNL     1       6.538  -1.799  -0.443  0.00  0.00    +0.000 C 
ATOM     21  C   UNL     1       4.434   0.177  -0.133  0.00  0.00    +0.000 C 
ATOM     22  C   UNL     1       5.573  -1.535  -1.589  0.00  0.00    +0.000 C 
ATOM     23  C   UNL     1       4.438  -0.588  -1.253  0.00  0.00    +0.000 C 
ATOM     24  C   UNL     1       6.054   1.627   1.234  0.00  0.00    +0.000 C 
ATOM     25  C   UNL     1       5.212  -0.551   2.159  0.00  0.00    +0.000 C 
ATOM     26  C   UNL     1       3.353  -0.620  -2.304  0.00  0.00    +0.000 C 
ENDBRANCH  16  21
ENDBRANCH  13  17
ENDBRANCH   1  15
BRANCH   2  27
ATOM     27  C   UNL     1      -4.120   1.679   0.440  0.00  0.00    +0.000 C 
ATOM     28  C   UNL     1      -5.232   0.884   1.071  0.00  0.00    +0.000 C 
ATOM     29  C   UNL     1      -4.168   2.988   0.128  0.00  0.00    +0.000 C 
BRANCH  29  31
ATOM     30  O   UNL     1      -2.218   3.335  -1.259  0.00  0.00    +0.000 OA
ATOM     31  C   UNL     1      -3.060   3.754  -0.484  0.00  0.00    +0.000 C 
BRANCH  31  32
ATOM     32  O   UNL     1      -3.117   5.027  -0.026  0.00  0.00    +0.000 OA
ATOM     33  H   UNL     1      -2.397   5.582  -0.395  0.00  0.00    +0.000 HD
ENDBRANCH  31  32
ENDBRANCH  29  31
ENDBRANCH   2  27
TORSDOF 9
