REMARK  Name = 
REMARK  27 active torsions:
REMARK  status: ('A' for Active; 'I' for Inactive)
REMARK    1  A    between atoms: C_1  and  S_2
REMARK    2  A    between atoms: S_2  and  C_3
REMARK    3  A    between atoms: C_3  and  C_4
REMARK    4  A    between atoms: C_4  and  C_5
REMARK    5  A    between atoms: C_5  and  N_6
REMARK    6  A    between atoms: C_5  and  C_33
REMARK    7  A    between atoms: C_7  and  C_9
REMARK    8  A    between atoms: C_9  and  C_10
REMARK    9  A    between atoms: C_9  and  N_20
REMARK   10  A    between atoms: C_10  and  C_11
REMARK   11  A    between atoms: C_21  and  C_23
REMARK   12  A    between atoms: C_23  and  C_24
REMARK   13  A    between atoms: C_24  and  N_25
REMARK   14  A    between atoms: C_26  and  O_28
REMARK   15  A    between atoms: O_28  and  C_29
REMARK   16  A    between atoms: C_29  and  C_30
REMARK   17  A    between atoms: C_29  and  C_31
REMARK   18  A    between atoms: C_29  and  C_32
REMARK   19  A    between atoms: N_35  and  C_36
REMARK   20  A    between atoms: C_36  and  C_37
REMARK   21  A    between atoms: C_36  and  C_41
REMARK   22  A    between atoms: C_37  and  C_38
REMARK   23  A    between atoms: C_38  and  O_40
REMARK   24  A    between atoms: N_43  and  C_44
REMARK   25  A    between atoms: C_44  and  C_45
REMARK   26  A    between atoms: C_44  and  C_52
REMARK   27  A    between atoms: C_45  and  C_46
REMARK                            x       y       z     vdW  Elec       q    Type
REMARK                         _______ _______ _______ _____ _____    ______ ____
ROOT
ATOM      1  C   UNL     1       0.511  -0.758  -1.008  0.00  0.00    +0.000 C 
ENDROOT
BRANCH   1   2
ATOM      2  N   UNL     1      -0.322  -1.419   0.179  0.00  0.00    +0.000 N 
ATOM      3  C   UNL     1      -1.529  -0.643   0.298  0.00  0.00    +0.000 C 
ATOM      4  O   UNL     1      -1.294   0.443   0.866  0.00  0.00    +0.000 OA
ATOM      5  H   UNL     1      -0.063  -2.200   0.721  0.00  0.00    +0.000 HD
BRANCH   3   6
ATOM      6  C   UNL     1      -2.592  -1.600   1.090  0.00  0.00    +0.000 C 
BRANCH   6   7
ATOM      7  N   UNL     1      -3.667  -0.444   1.295  0.00  0.00    +0.000 N 
ATOM      8  C   UNL     1      -3.875   0.444   0.249  0.00  0.00    +0.000 C 
ATOM      9  O   UNL     1      -3.575   0.059  -0.922  0.00  0.00    +0.000 OA
ATOM     10  H   UNL     1      -4.169  -0.361   2.138  0.00  0.00    +0.000 HD
BRANCH   8  11
ATOM     11  C   UNL     1      -5.090   1.323   0.318  0.00  0.00    +0.000 C 
BRANCH  11  12
ATOM     12  C   UNL     1      -6.181   0.430  -0.262  0.00  0.00    +0.000 C 
BRANCH  12  13
ATOM     13  N   UNL     1      -7.417   1.131  -0.471  0.00  0.00    +0.000 N 
ATOM     14  C   UNL     1      -7.508   2.536  -0.564  0.00  0.00    +0.000 C 
ATOM     15  O   UNL     1      -6.442   3.179  -0.720  0.00  0.00    +0.000 OA
ATOM     16  H   UNL     1      -8.244   0.603  -0.555  0.00  0.00    +0.000 HD
BRANCH  14  17
ATOM     17  O   UNL     1      -8.627   3.257  -0.182  0.00  0.00    +0.000 OA
BRANCH  17  18
ATOM     18  C   UNL     1      -8.555   4.475   0.545  0.00  0.00    +0.000 C 
ATOM     19  C   UNL     1      -8.746   4.177   2.023  0.00  0.00    +0.000 C 
ATOM     20  C   UNL     1      -9.578   5.483   0.075  0.00  0.00    +0.000 C 
ATOM     21  C   UNL     1      -7.170   5.025   0.379  0.00  0.00    +0.000 C 
ENDBRANCH  17  18
ENDBRANCH  14  17
ENDBRANCH  12  13
ENDBRANCH  11  12
ENDBRANCH   8  11
ENDBRANCH   6   7
BRANCH   6  22
ATOM     22  C   UNL     1      -3.277  -2.088  -0.346  0.00  0.00    +0.000 C 
BRANCH  22  23
ATOM     23  C   UNL     1      -3.785  -3.440  -0.098  0.00  0.00    +0.000 A 
ATOM     24  C   UNL     1      -4.880  -3.971  -0.770  0.00  0.00    +0.000 A 
ATOM     25  N   UNL     1      -4.957  -5.292  -0.479  0.00  0.00    +0.000 N 
ATOM     26  C   UNL     1      -3.912  -5.618   0.290  0.00  0.00    +0.000 A 
ATOM     27  C   UNL     1      -3.539  -6.706   1.072  0.00  0.00    +0.000 A 
ATOM     28  C   UNL     1      -2.370  -6.632   1.821  0.00  0.00    +0.000 A 
ATOM     29  C   UNL     1      -1.405  -5.670   1.548  0.00  0.00    +0.000 A 
ATOM     30  C   UNL     1      -1.718  -4.811   0.505  0.00  0.00    +0.000 A 
ATOM     31  C   UNL     1      -3.028  -4.551   0.235  0.00  0.00    +0.000 A 
ATOM     32  H   UNL     1      -5.662  -5.907  -0.782  0.00  0.00    +0.000 HD
ENDBRANCH  22  23
ENDBRANCH   6  22
ENDBRANCH   3   6
ENDBRANCH   1   2
BRANCH   1  33
ATOM     33  C   UNL     1       1.877  -1.526  -0.540  0.00  0.00    +0.000 C 
ATOM     34  O   UNL     1       2.163  -2.416  -1.398  0.00  0.00    +0.000 OA
ATOM     35  N   UNL     1       2.859  -0.826   0.037  0.00  0.00    +0.000 N 
ATOM     36  H   UNL     1       2.615  -0.061   0.607  0.00  0.00    +0.000 HD
BRANCH  35  37
ATOM     37  C   UNL     1       4.396  -1.165  -0.149  0.00  0.00    +0.000 C 
BRANCH  37  38
ATOM     38  C   UNL     1       4.774   0.391  -0.457  0.00  0.00    +0.000 C 
ATOM     39  O   UNL     1       4.111   0.976  -1.288  0.00  0.00    +0.000 OA
ATOM     40  N   UNL     1       5.403   1.159   0.498  0.00  0.00    +0.000 N 
ATOM     41  H   UNL     1       6.358   1.033   0.701  0.00  0.00    +0.000 HD
BRANCH  40  42
ATOM     42  C   UNL     1       4.538   2.259   1.267  0.00  0.00    +0.000 C 
BRANCH  42  43
ATOM     43  C   UNL     1       4.963   3.522   0.316  0.00  0.00    +0.000 C 
ATOM     44  N   UNL     1       4.942   4.764   1.060  0.00  0.00    +0.000 N 
ATOM     45  O   UNL     1       4.018   3.633  -0.534  0.00  0.00    +0.000 OA
ATOM     46  H   UNL     1       5.592   4.915   1.784  0.00  0.00    +0.000 HD
ATOM     47  H   UNL     1       4.279   5.457   0.842  0.00  0.00    +0.000 HD
ENDBRANCH  42  43
BRANCH  42  48
ATOM     48  C   UNL     1       5.762   2.581   2.346  0.00  0.00    +0.000 C 
BRANCH  48  49
ATOM     49  C   UNL     1       7.025   2.442   1.653  0.00  0.00    +0.000 A 
ATOM     50  C   UNL     1       7.620   3.274   0.749  0.00  0.00    +0.000 A 
ATOM     51  C   UNL     1       8.946   3.272   0.440  0.00  0.00    +0.000 A 
ATOM     52  C   UNL     1       9.743   2.400   1.171  0.00  0.00    +0.000 A 
ATOM     53  C   UNL     1       9.121   1.233   1.602  0.00  0.00    +0.000 A 
ATOM     54  C   UNL     1       7.810   1.352   2.018  0.00  0.00    +0.000 A 
ENDBRANCH  48  49
ENDBRANCH  42  48
ENDBRANCH  40  42
ENDBRANCH  37  38
BRANCH  37  55
ATOM     55  C   UNL     1       4.243  -1.539  -1.770  0.00  0.00    +0.000 C 
BRANCH  55  56
ATOM     56  C   UNL     1       5.336  -2.549  -1.948  0.00  0.00    +0.000 C 
ATOM     57  O   UNL     1       5.273  -3.693  -1.455  0.00  0.00    +0.000 OA
BRANCH  56  58
ATOM     58  O   UNL     1       6.325  -2.327  -2.897  0.00  0.00    +0.000 OA
ATOM     59  H   UNL     1       6.411  -1.483  -3.296  0.00  0.00    +0.000 HD
ENDBRANCH  56  58
ENDBRANCH  55  56
ENDBRANCH  37  55
ENDBRANCH  35  37
ENDBRANCH   1  33
BRANCH   1  60
ATOM     60  C   UNL     1       0.769   0.621  -0.106  0.00  0.00    +0.000 C 
BRANCH  60  61
ATOM     61  C   UNL     1       0.596   1.707  -1.164  0.00  0.00    +0.000 C 
BRANCH  61  63
ATOM     62  C   UNL     1       0.771   1.035  -3.645  0.00  0.00    +0.000 C 
ATOM     63  S   UNL     1       1.143   1.103  -2.771  0.00  0.00    +0.000 S 
ENDBRANCH  61  63
ENDBRANCH  60  61
ENDBRANCH   1  60
TORSDOF 23
