REMARK  Name = 
REMARK  37 active torsions:
REMARK  status: ('A' for Active; 'I' for Inactive)
REMARK    1  A    between atoms: C_5  and  O_76
REMARK    2  A    between atoms: C_6  and  C_7
REMARK    3  A    between atoms: C_7  and  C_8
REMARK    4  A    between atoms: C_7  and  O_11
REMARK    5  A    between atoms: C_15  and  N_58
REMARK    6  A    between atoms: C_16  and  O_20
REMARK    7  A    between atoms: C_17  and  N_18
REMARK    8  A    between atoms: N_18  and  C_55
REMARK    9  A    between atoms: C_26  and  O_54
REMARK   10  A    between atoms: C_29  and  C_30
REMARK   11  A    between atoms: C_30  and  C_31
REMARK   12  A    between atoms: C_30  and  O_34
REMARK   13  A    between atoms: C_31  and  C_35
REMARK   14  A    between atoms: C_35  and  N_36
REMARK   15  A    between atoms: C_39  and  C_40
REMARK   16  A    between atoms: C_40  and  C_44
REMARK   17  A    between atoms: C_40  and  O_47
REMARK   18  A    between atoms: C_44  and  C_45
REMARK   19  A    between atoms: C_44  and  O_46
REMARK   20  A    between atoms: C_51  and  O_53
REMARK   21  A    between atoms: C_55  and  C_56
REMARK   22  A    between atoms: C_56  and  N_57
REMARK   23  A    between atoms: C_59  and  C_60
REMARK   24  A    between atoms: C_60  and  C_64
REMARK   25  A    between atoms: C_62  and  C_64
REMARK   26  A    between atoms: C_62  and  C_68
REMARK   27  A    between atoms: C_63  and  C_65
REMARK   28  A    between atoms: C_63  and  C_69
REMARK   29  A    between atoms: C_66  and  C_68
REMARK   30  A    between atoms: C_66  and  C_72
REMARK   31  A    between atoms: C_67  and  C_69
REMARK   32  A    between atoms: C_67  and  C_73
REMARK   33  A    between atoms: C_69  and  C_74
REMARK   34  A    between atoms: C_70  and  C_71
REMARK   35  A    between atoms: C_70  and  C_72
REMARK   36  A    between atoms: C_71  and  C_73
REMARK   37  A    between atoms: C_73  and  C_75
REMARK                            x       y       z     vdW  Elec       q    Type
REMARK                         _______ _______ _______ _____ _____    ______ ____
ROOT
ATOM      1  C   UNL     1      -0.851  -1.689   0.000  0.00  0.00    +0.000 C 
ATOM      2  N   UNL     1      -0.366  -1.022   0.000  0.00  0.00    +0.000 N 
ATOM      3  C   UNL     1      -0.366  -2.357   0.000  0.00  0.00    +0.000 C 
ATOM      4  C   UNL     1       0.418  -1.277   0.000  0.00  0.00    +0.000 C 
ATOM      5  C   UNL     1       0.418  -2.102   0.000  0.00  0.00    +0.000 C 
ATOM      6  C   UNL     1      -0.366   0.407   0.000  0.00  0.00    +0.000 C 
ATOM      7  C   UNL     1      -0.779  -0.307   0.000  0.00  0.00    +0.000 C 
ATOM      8  O   UNL     1       0.459   1.836   0.000  0.00  0.00    +0.000 OA
ATOM      9  C   UNL     1      -0.366   1.836   0.000  0.00  0.00    +0.000 C 
ATOM     10  N   UNL     1      -0.779   1.122   0.000  0.00  0.00    +0.000 N 
ATOM     11  C   UNL     1      -0.366   3.265   0.000  0.00  0.00    +0.000 C 
ATOM     12  C   UNL     1      -0.779   2.551   0.000  0.00  0.00    +0.000 C 
ATOM     13  C   UNL     1      -0.779   3.980   0.000  0.00  0.00    +0.000 C 
ATOM     14  C   UNL     1      -1.602   3.981   0.000  0.00  0.00    +0.000 C 
ATOM     15  N   UNL     1      -2.016   3.267   0.000  0.00  0.00    +0.000 N 
ATOM     16  C   UNL     1      -2.841   3.268   0.000  0.00  0.00    +0.000 C 
ATOM     17  C   UNL     1      -3.254   2.554   0.000  0.00  0.00    +0.000 C 
ATOM     18  O   UNL     1      -3.252   3.983   0.000  0.00  0.00    +0.000 OA
ATOM     19  N   UNL     1      -3.252   1.724   0.000  0.00  0.00    +0.000 N 
ATOM     20  C   UNL     1      -4.524   2.141   0.000  0.00  0.00    +0.000 C 
ATOM     21  C   UNL     1      -4.039   2.809   0.000  0.00  0.00    +0.000 C 
ATOM     22  C   UNL     1      -4.039   1.474   0.000  0.00  0.00    +0.000 C 
ATOM     23  C   UNL     1      -2.840   1.010   0.000  0.00  0.00    +0.000 C 
ATOM     24  C   UNL     1      -3.252   0.295   0.000  0.00  0.00    +0.000 C 
ATOM     25  O   UNL     1      -2.015   1.010   0.000  0.00  0.00    +0.000 OA
ATOM     26  N   UNL     1      -2.840  -0.419   0.000  0.00  0.00    +0.000 N 
ATOM     27  C   UNL     1      -3.252  -1.134   0.000  0.00  0.00    +0.000 C 
ATOM     28  O   UNL     1      -4.077  -1.138   0.000  0.00  0.00    +0.000 OA
ATOM     29  C   UNL     1      -2.838  -1.847   0.000  0.00  0.00    +0.000 C 
ATOM     30  N   UNL     1      -2.222  -1.433   0.000  0.00  0.00    +0.000 N 
ATOM     31  C   UNL     1      -1.506  -1.843   0.000  0.00  0.00    +0.000 C 
ATOM     32  O   UNL     1      -1.503  -2.668   0.000  0.00  0.00    +0.000 OA
ATOM     33  O   UNL     1      -1.604  -0.307   0.000  0.00  0.00    +0.000 OA
ATOM     34  H   UNL     1      -1.763   1.122   0.000  0.00  0.00    +0.000 HD
ATOM     35  H   UNL     1      -1.524   2.414   0.000  0.00  0.00    +0.000 HD
ATOM     36  H   UNL     1      -1.855  -0.419   0.000  0.00  0.00    +0.000 HD
ATOM     37  H   UNL     1      -2.258  -0.449   0.000  0.00  0.00    +0.000 HD
ENDROOT
BRANCH  12  38
ATOM     38  N   UNL     1       0.018   2.758   0.000  0.00  0.00    +0.000 N 
ATOM     39  C   UNL     1       0.734   3.176   0.000  0.00  0.00    +0.000 C 
ATOM     40  O   UNL     1       0.730   4.001   0.000  0.00  0.00    +0.000 OA
ATOM     41  H   UNL     1       0.394   1.848   0.000  0.00  0.00    +0.000 HD
BRANCH  39  42
ATOM     42  C   UNL     1       1.450   2.766   0.000  0.00  0.00    +0.000 C 
BRANCH  42  43
ATOM     43  C   UNL     1       2.164   3.179   0.000  0.00  0.00    +0.000 C 
BRANCH  43  44
ATOM     44  C   UNL     1       2.879   2.766   0.000  0.00  0.00    +0.000 C 
BRANCH  44  45
ATOM     45  C   UNL     1       3.594   3.179   0.000  0.00  0.00    +0.000 C 
BRANCH  45  46
ATOM     46  C   UNL     1       4.308   2.766   0.000  0.00  0.00    +0.000 C 
BRANCH  46  47
ATOM     47  C   UNL     1       5.023   3.179   0.000  0.00  0.00    +0.000 C 
BRANCH  47  48
ATOM     48  C   UNL     1       5.737   2.766   0.000  0.00  0.00    +0.000 C 
BRANCH  48  49
ATOM     49  C   UNL     1       5.737   1.941   0.000  0.00  0.00    +0.000 C 
BRANCH  49  50
ATOM     50  C   UNL     1       5.023   1.529   0.000  0.00  0.00    +0.000 C 
ATOM     51  C   UNL     1       5.022   0.704   0.000  0.00  0.00    +0.000 C 
BRANCH  50  52
ATOM     52  C   UNL     1       4.308   1.941   0.000  0.00  0.00    +0.000 C 
BRANCH  52  53
ATOM     53  C   UNL     1       3.594   1.529   0.000  0.00  0.00    +0.000 C 
ATOM     54  C   UNL     1       3.593   0.704   0.000  0.00  0.00    +0.000 C 
BRANCH  53  55
ATOM     55  C   UNL     1       2.879   1.941   0.000  0.00  0.00    +0.000 C 
ATOM     56  C   UNL     1       2.164   1.529   0.000  0.00  0.00    +0.000 C 
ENDBRANCH  53  55
ENDBRANCH  52  53
ENDBRANCH  50  52
ENDBRANCH  49  50
ENDBRANCH  48  49
ENDBRANCH  47  48
ENDBRANCH  46  47
ENDBRANCH  45  46
ENDBRANCH  44  45
ENDBRANCH  43  44
ENDBRANCH  42  43
ENDBRANCH  39  42
ENDBRANCH  12  38
BRANCH   6  58
ATOM     57  C   UNL     1       0.871  -0.307   0.000  0.00  0.00    +0.000 C 
ATOM     58  C   UNL     1       0.459   0.407   0.000  0.00  0.00    +0.000 C 
BRANCH  58  59
ATOM     59  O   UNL     1       0.871   1.122   0.000  0.00  0.00    +0.000 OA
ATOM     60  H   UNL     1       1.841   1.122   0.000  0.00  0.00    +0.000 HD
ENDBRANCH  58  59
ENDBRANCH   6  58
BRANCH  14  61
ATOM     61  N   UNL     1      -2.014   4.696   0.000  0.00  0.00    +0.000 NA
ATOM     62  H   UNL     1      -1.503   5.579   0.000  0.00  0.00    +0.000 HD
BRANCH  61  63
ATOM     63  C   UNL     1      -2.835   4.696   0.000  0.00  0.00    +0.000 C 
BRANCH  63  64
ATOM     64  C   UNL     1      -3.247   5.411   0.000  0.00  0.00    +0.000 C 
BRANCH  64  65
ATOM     65  N   UNL     1      -4.067   5.412   0.000  0.00  0.00    +0.000 NA
ATOM     66  H   UNL     1      -4.576   6.296   0.000  0.00  0.00    +0.000 HD
ATOM     67  H   UNL     1      -4.578   4.529   0.000  0.00  0.00    +0.000 HD
ENDBRANCH  64  65
ENDBRANCH  63  64
ENDBRANCH  61  63
ENDBRANCH  14  61
BRANCH  13  68
ATOM     68  O   UNL     1      -0.366   4.694   0.000  0.00  0.00    +0.000 OA
ATOM     69  H   UNL     1       0.604   4.693   0.000  0.00  0.00    +0.000 HD
ENDBRANCH  13  68
BRANCH  21  70
ATOM     70  O   UNL     1      -4.293   3.594   0.000  0.00  0.00    +0.000 OA
ATOM     71  H   UNL     1      -3.644   4.314   0.000  0.00  0.00    +0.000 HD
ENDBRANCH  21  70
BRANCH   5  72
ATOM     72  O   UNL     1       1.086  -2.587   0.000  0.00  0.00    +0.000 OA
ATOM     73  H   UNL     1       0.984  -3.551   0.000  0.00  0.00    +0.000 HD
ENDBRANCH   5  72
BRANCH  24  74
ATOM     74  C   UNL     1      -4.077   0.295   0.000  0.00  0.00    +0.000 C 
BRANCH  74  75
ATOM     75  O   UNL     1      -4.490  -0.419   0.000  0.00  0.00    +0.000 OA
ATOM     76  H   UNL     1      -5.460  -0.419   0.000  0.00  0.00    +0.000 HD
ENDBRANCH  74  75
BRANCH  74  77
ATOM     77  C   UNL     1      -4.490   1.010   0.000  0.00  0.00    +0.000 C 
BRANCH  77  78
ATOM     78  C   UNL     1      -5.315   1.010   0.000  0.00  0.00    +0.000 C 
BRANCH  78  79
ATOM     79  N   UNL     1      -5.727   1.724   0.000  0.00  0.00    +0.000 NA
ATOM     80  H   UNL     1      -5.217   2.608   0.000  0.00  0.00    +0.000 HD
ATOM     81  H   UNL     1      -6.747   1.724   0.000  0.00  0.00    +0.000 HD
ENDBRANCH  78  79
ENDBRANCH  77  78
ENDBRANCH  74  77
ENDBRANCH  24  74
BRANCH  29  82
ATOM     82  C   UNL     1      -3.248  -2.562   0.000  0.00  0.00    +0.000 C 
BRANCH  82  83
ATOM     83  O   UNL     1      -2.836  -3.277   0.000  0.00  0.00    +0.000 OA
ATOM     84  H   UNL     1      -3.321  -4.117   0.000  0.00  0.00    +0.000 HD
ENDBRANCH  82  83
BRANCH  82  85
ATOM     85  C   UNL     1      -4.077  -2.560   0.000  0.00  0.00    +0.000 C 
BRANCH  85  86
ATOM     86  C   UNL     1      -4.492  -3.273   0.000  0.00  0.00    +0.000 A 
ATOM     87  C   UNL     1      -5.317  -3.270   0.000  0.00  0.00    +0.000 A 
ATOM     88  C   UNL     1      -4.082  -3.989   0.000  0.00  0.00    +0.000 A 
ATOM     89  C   UNL     1      -4.497  -4.702   0.000  0.00  0.00    +0.000 A 
ATOM     90  C   UNL     1      -5.322  -4.699   0.000  0.00  0.00    +0.000 A 
ATOM     91  C   UNL     1      -5.732  -3.983   0.000  0.00  0.00    +0.000 A 
BRANCH  90  92
ATOM     92  O   UNL     1      -5.737  -5.412   0.000  0.00  0.00    +0.000 OA
ATOM     93  H   UNL     1      -6.674  -5.409   0.000  0.00  0.00    +0.000 HD
ENDBRANCH  90  92
ENDBRANCH  85  86
BRANCH  85  94
ATOM     94  O   UNL     1      -4.487  -1.844   0.000  0.00  0.00    +0.000 OA
ATOM     95  H   UNL     1      -4.000  -1.005   0.000  0.00  0.00    +0.000 HD
ENDBRANCH  85  94
ENDBRANCH  82  85
ENDBRANCH  29  82
TORSDOF 33
