REMARK  Name = 5281058
REMARK  13 active torsions:
REMARK  status: ('A' for Active; 'I' for Inactive)
REMARK    1  A    between atoms: O_1  and  C_25
REMARK    2  A    between atoms: C_2  and  C_9
REMARK    3  A    between atoms: C_3  and  C_8
REMARK    4  A    between atoms: C_8  and  C_12
REMARK    5  A    between atoms: C_8  and  C_14
REMARK    6  A    between atoms: C_10  and  C_16
REMARK    7  A    between atoms: C_12  and  C_15
REMARK    8  A    between atoms: C_15  and  C_17
REMARK    9  A    between atoms: C_17  and  C_19
REMARK   10  A    between atoms: C_18  and  C_20
REMARK   11  A    between atoms: C_19  and  C_22
REMARK   12  A    between atoms: C_19  and  C_23
REMARK   13  A    between atoms: C_24  and  C_28
REMARK                            x       y       z     vdW  Elec       q    Type
REMARK                         _______ _______ _______ _____ _____    ______ ____
ROOT
ATOM      1  C   UNL     1       0.799   1.348  -0.481  0.00  0.00    +0.000 C 
ATOM      2  C   UNL     1       2.219   0.996   0.018  0.00  0.00    +0.000 C 
ATOM      3  C   UNL     1      -0.027   0.858   0.739  0.00  0.00    +0.000 C 
ATOM      4  C   UNL     1       2.200   1.433   1.502  0.00  0.00    +0.000 C 
ATOM      5  C   UNL     1       0.718   1.482   1.921  0.00  0.00    +0.000 C 
ATOM      6  C   UNL     1       0.317   0.551  -1.704  0.00  0.00    +0.000 C 
ATOM      7  C   UNL     1       0.665   2.868  -0.762  0.00  0.00    +0.000 C 
ATOM      8  C   UNL     1      -1.510   1.032   0.544  0.00  0.00    +0.000 C 
ATOM      9  C   UNL     1      -1.192   0.755  -1.947  0.00  0.00    +0.000 C 
ATOM     10  C   UNL     1      -2.022   0.959  -0.700  0.00  0.00    +0.000 C 
ENDROOT
BRANCH   2  11
ATOM     11  C   UNL     1       3.381   1.593  -0.762  0.00  0.00    +0.000 C 
ATOM     12  C   UNL     1       3.291   1.182  -2.237  0.00  0.00    +0.000 C 
BRANCH  11  13
ATOM     13  C   UNL     1       4.756   1.173  -0.201  0.00  0.00    +0.000 C 
BRANCH  13  14
ATOM     14  C   UNL     1       5.021  -0.337  -0.130  0.00  0.00    +0.000 C 
BRANCH  14  15
ATOM     15  C   UNL     1       6.370  -0.691   0.504  0.00  0.00    +0.000 C 
BRANCH  15  16
ATOM     16  C   UNL     1       6.667  -2.204   0.509  0.00  0.00    +0.000 C 
ATOM     17  C   UNL     1       6.635  -2.813  -0.893  0.00  0.00    +0.000 C 
ATOM     18  C   UNL     1       5.657  -2.925   1.406  0.00  0.00    +0.000 C 
ENDBRANCH  15  16
ENDBRANCH  14  15
ENDBRANCH  13  14
ENDBRANCH  11  13
ENDBRANCH   2  11
BRANCH   8  19
ATOM     19  C   UNL     1      -2.353   1.212   1.697  0.00  0.00    +0.000 C 
ATOM     20  C   UNL     1      -3.534   0.602   1.842  0.00  0.00    +0.000 C 
BRANCH  20  21
ATOM     21  C   UNL     1      -4.083  -0.303   0.855  0.00  0.00    +0.000 C 
ATOM     22  C   UNL     1      -5.575  -0.140   0.657  0.00  0.00    +0.000 C 
ATOM     23  C   UNL     1      -3.361  -1.215   0.165  0.00  0.00    +0.000 C 
ATOM     24  C   UNL     1      -6.236  -1.286  -0.111  0.00  0.00    +0.000 C 
ATOM     25  C   UNL     1      -3.998  -2.102  -0.888  0.00  0.00    +0.000 C 
ATOM     26  C   UNL     1      -5.395  -1.667  -1.319  0.00  0.00    +0.000 C 
ATOM     27  C   UNL     1      -1.886  -1.480   0.335  0.00  0.00    +0.000 C 
BRANCH  24  28
ATOM     28  O   UNL     1      -7.525  -0.883  -0.559  0.00  0.00    +0.000 OA
ATOM     29  H   UNL     1      -8.041  -0.631   0.225  0.00  0.00    +0.000 HD
ENDBRANCH  24  28
ENDBRANCH  20  21
ENDBRANCH   8  19
TORSDOF 8
