REMARK  Name = 
REMARK  42 active torsions:
REMARK  status: ('A' for Active; 'I' for Inactive)
REMARK    1  A    between atoms: C_2  and  C_45
REMARK    2  A    between atoms: C_3  and  C_4
REMARK    3  A    between atoms: C_3  and  N_7
REMARK    4  A    between atoms: C_3  and  C_46
REMARK    5  A    between atoms: C_17  and  C_31
REMARK    6  A    between atoms: C_19  and  C_40
REMARK    7  A    between atoms: C_20  and  C_44
REMARK    8  A    between atoms: C_21  and  C_29
REMARK    9  A    between atoms: N_22  and  C_29
REMARK   10  A    between atoms: N_23  and  C_27
REMARK   11  A    between atoms: C_24  and  C_50
REMARK   12  A    between atoms: C_25  and  C_52
REMARK   13  A    between atoms: C_26  and  C_51
REMARK   14  A    between atoms: N_28  and  C_31
REMARK   15  A    between atoms: C_29  and  C_53
REMARK   16  A    between atoms: C_31  and  C_54
REMARK   17  A    between atoms: C_32  and  C_64
REMARK   18  A    between atoms: C_40  and  C_55
REMARK   19  A    between atoms: C_44  and  C_63
REMARK   20  A    between atoms: C_45  and  O_61
REMARK   21  A    between atoms: C_45  and  C_70
REMARK   22  A    between atoms: C_46  and  O_62
REMARK   23  A    between atoms: C_46  and  C_71
REMARK   24  A    between atoms: C_50  and  C_67
REMARK   25  A    between atoms: C_51  and  C_65
REMARK   26  A    between atoms: C_52  and  C_66
REMARK   27  A    between atoms: C_53  and  C_69
REMARK   28  A    between atoms: C_54  and  C_68
REMARK   29  A    between atoms: N_56  and  C_65
REMARK   30  A    between atoms: N_57  and  C_68
REMARK   31  A    between atoms: N_58  and  C_69
REMARK   32  A    between atoms: N_59  and  C_67
REMARK   33  A    between atoms: N_60  and  C_66
REMARK   34  A    between atoms: C_63  and  C_78
REMARK   35  A    between atoms: C_63  and  C_79
REMARK   36  A    between atoms: C_64  and  C_75
REMARK   37  A    between atoms: C_74  and  C_76
REMARK   38  A    between atoms: C_74  and  C_77
REMARK   39  A    between atoms: C_74  and  C_81
REMARK   40  A    between atoms: C_75  and  C_80
REMARK   41  A    between atoms: C_76  and  C_82
REMARK   42  A    between atoms: C_77  and  C_80
REMARK                            x       y       z     vdW  Elec       q    Type
REMARK                         _______ _______ _______ _____ _____    ______ ____
ROOT
ATOM      1  N   UNL     1       6.804  -2.057   0.000  0.00  0.00    +0.000 N 
ATOM      2  C   UNL     1       6.090  -2.467   0.000  0.00  0.00    +0.000 C 
ATOM      3  N   UNL     1       6.795   1.227   0.000  0.00  0.00    +0.000 N 
ATOM      4  N   UNL     1       4.665   1.642   0.000  0.00  0.00    +0.000 N 
ATOM      5  N   UNL     1       8.214   0.412   0.000  0.00  0.00    +0.000 N 
ATOM      6  C   UNL     1       7.509  -2.467   0.000  0.00  0.00    +0.000 C 
ATOM      7  N   UNL     1       8.219  -1.232   0.000  0.00  0.00    +0.000 N 
ATOM      8  N   UNL     1       2.530   1.198   0.000  0.00  0.00    +0.000 N 
ATOM      9  C   UNL     1       6.090   1.642   0.000  0.00  0.00    +0.000 C 
ATOM     10  C   UNL     1       8.219   1.237   0.000  0.00  0.00    +0.000 C 
ATOM     11  C   UNL     1       3.945   1.222   0.000  0.00  0.00    +0.000 C 
ATOM     12  C   UNL     1       8.924  -0.817   0.000  0.00  0.00    +0.000 C 
ATOM     13  C   UNL     1       2.520   0.382   0.000  0.00  0.00    +0.000 C 
ATOM     14  C   UNL     1       5.274  -2.462   0.000  0.00  0.00    +0.000 C 
ATOM     15  C   UNL     1       5.380   1.222   0.000  0.00  0.00    +0.000 C 
ATOM     16  C   UNL     1       7.509   1.642   0.000  0.00  0.00    +0.000 C 
ATOM     17  C   UNL     1       8.219  -2.047   0.000  0.00  0.00    +0.000 C 
ATOM     18  C   UNL     1       3.240   1.627   0.000  0.00  0.00    +0.000 C 
ATOM     19  C   UNL     1       8.924   0.007   0.000  0.00  0.00    +0.000 C 
ATOM     20  C   UNL     1       1.800  -0.022   0.000  0.00  0.00    +0.000 C 
ATOM     21  N   UNL     1       4.854  -3.172   0.000  0.00  0.00    +0.000 N 
ATOM     22  O   UNL     1       7.509  -3.292   0.000  0.00  0.00    +0.000 OA
ATOM     23  O   UNL     1       8.934   1.642   0.000  0.00  0.00    +0.000 OA
ATOM     24  O   UNL     1       6.090   2.467   0.000  0.00  0.00    +0.000 OA
ATOM     25  O   UNL     1       3.960   0.397   0.000  0.00  0.00    +0.000 OA
ATOM     26  O   UNL     1       9.644  -1.232   0.000  0.00  0.00    +0.000 OA
ATOM     27  O   UNL     1       3.235  -0.037   0.000  0.00  0.00    +0.000 OA
ATOM     28  O   UNL     1       4.860  -1.742   0.000  0.00  0.00    +0.000 OA
ATOM     29  C   UNL     1       1.785  -0.847   0.000  0.00  0.00    +0.000 C 
ATOM     30  C   UNL     1       4.030  -3.172   0.000  0.00  0.00    +0.000 C 
ATOM     31  H   UNL     1       6.807  -1.073   0.000  0.00  0.00    +0.000 HD
ATOM     32  H   UNL     1       6.791   0.243   0.000  0.00  0.00    +0.000 HD
ATOM     33  H   UNL     1       4.666   2.627   0.000  0.00  0.00    +0.000 HD
ATOM     34  H   UNL     1       7.361  -0.079   0.000  0.00  0.00    +0.000 HD
ATOM     35  H   UNL     1       7.365  -0.744   0.000  0.00  0.00    +0.000 HD
ATOM     36  H   UNL     1       1.675   1.686   0.000  0.00  0.00    +0.000 HD
ATOM     37  H   UNL     1       5.342  -4.027   0.000  0.00  0.00    +0.000 HD
ENDROOT
BRANCH  20  39
ATOM     38  C   UNL     1       0.375   0.007   0.000  0.00  0.00    +0.000 C 
ATOM     39  N   UNL     1       1.095   0.397   0.000  0.00  0.00    +0.000 N 
ATOM     40  O   UNL     1       0.375  -0.827   0.000  0.00  0.00    +0.000 OA
ATOM     41  H   UNL     1       1.115   1.382   0.000  0.00  0.00    +0.000 HD
BRANCH  38  42
ATOM     42  C   UNL     1      -0.345   0.412   0.000  0.00  0.00    +0.000 C 
BRANCH  42  44
ATOM     43  C   UNL     1      -1.770   0.412   0.000  0.00  0.00    +0.000 C 
ATOM     44  N   UNL     1      -1.050   0.007   0.000  0.00  0.00    +0.000 N 
ATOM     45  O   UNL     1      -1.770   1.237   0.000  0.00  0.00    +0.000 OA
ATOM     46  H   UNL     1      -1.045  -0.977   0.000  0.00  0.00    +0.000 HD
BRANCH  43  47
ATOM     47  C   UNL     1      -2.490   0.007   0.000  0.00  0.00    +0.000 C 
BRANCH  47  48
ATOM     48  N   UNL     1      -3.200   0.412   0.000  0.00  0.00    +0.000 N 
ATOM     49  C   UNL     1      -3.915   0.007   0.000  0.00  0.00    +0.000 C 
ATOM     50  O   UNL     1      -3.915  -0.817   0.000  0.00  0.00    +0.000 OA
ATOM     51  H   UNL     1      -3.198   1.397   0.000  0.00  0.00    +0.000 HD
BRANCH  49  52
ATOM     52  C   UNL     1      -4.635   0.417   0.000  0.00  0.00    +0.000 C 
BRANCH  52  53
ATOM     53  N   UNL     1      -5.355   0.007   0.000  0.00  0.00    +0.000 N 
ATOM     54  C   UNL     1      -6.065   0.412   0.000  0.00  0.00    +0.000 C 
ATOM     55  O   UNL     1      -6.065   1.237   0.000  0.00  0.00    +0.000 OA
ATOM     56  H   UNL     1      -5.355  -0.977   0.000  0.00  0.00    +0.000 HD
BRANCH  54  57
ATOM     57  C   UNL     1      -6.779   0.007   0.000  0.00  0.00    +0.000 C 
BRANCH  57  58
ATOM     58  C   UNL     1      -7.489   0.412   0.000  0.00  0.00    +0.000 C 
BRANCH  58  59
ATOM     59  C   UNL     1      -8.204   0.007   0.000  0.00  0.00    +0.000 C 
BRANCH  59  60
ATOM     60  C   UNL     1      -8.924   0.412   0.000  0.00  0.00    +0.000 C 
BRANCH  60  61
ATOM     61  C   UNL     1      -9.644   0.007   0.000  0.00  0.00    +0.000 C 
ATOM     62  C   UNL     1      -9.644  -0.827   0.000  0.00  0.00    +0.000 C 
BRANCH  61  63
ATOM     63  C   UNL     1     -10.354   0.412   0.000  0.00  0.00    +0.000 C 
ATOM     64  C   UNL     1     -11.069  -0.002   0.000  0.00  0.00    +0.000 C 
ENDBRANCH  61  63
ENDBRANCH  60  61
ENDBRANCH  59  60
ENDBRANCH  58  59
ENDBRANCH  57  58
ENDBRANCH  54  57
ENDBRANCH  52  53
BRANCH  52  65
ATOM     65  C   UNL     1      -4.635   1.242   0.000  0.00  0.00    +0.000 C 
BRANCH  65  66
ATOM     66  C   UNL     1      -3.915   1.657   0.000  0.00  0.00    +0.000 C 
BRANCH  66  67
ATOM     67  N   UNL     1      -3.915   2.482   0.000  0.00  0.00    +0.000 NA
ATOM     68  H   UNL     1      -3.031   2.992   0.000  0.00  0.00    +0.000 HD
ATOM     69  H   UNL     1      -4.798   2.992   0.000  0.00  0.00    +0.000 HD
ENDBRANCH  66  67
ENDBRANCH  65  66
ENDBRANCH  52  65
ENDBRANCH  49  52
ENDBRANCH  47  48
BRANCH  47  70
ATOM     70  C   UNL     1      -2.490  -0.827   0.000  0.00  0.00    +0.000 C 
ATOM     71  C   UNL     1      -3.200  -1.237   0.000  0.00  0.00    +0.000 C 
BRANCH  70  72
ATOM     72  O   UNL     1      -1.770  -1.237   0.000  0.00  0.00    +0.000 OA
ATOM     73  H   UNL     1      -1.764  -2.207   0.000  0.00  0.00    +0.000 HD
ENDBRANCH  70  72
ENDBRANCH  47  70
ENDBRANCH  43  47
ENDBRANCH  42  44
BRANCH  42  74
ATOM     74  C   UNL     1      -0.345   1.237   0.000  0.00  0.00    +0.000 C 
BRANCH  74  75
ATOM     75  C   UNL     1       0.375   1.657   0.000  0.00  0.00    +0.000 C 
BRANCH  75  76
ATOM     76  N   UNL     1       0.375   2.482   0.000  0.00  0.00    +0.000 NA
ATOM     77  H   UNL     1       1.258   2.992   0.000  0.00  0.00    +0.000 HD
ATOM     78  H   UNL     1      -0.508   2.992   0.000  0.00  0.00    +0.000 HD
ENDBRANCH  75  76
ENDBRANCH  74  75
ENDBRANCH  42  74
ENDBRANCH  38  42
ENDBRANCH  20  39
BRANCH   2  79
ATOM     79  C   UNL     1       6.090  -3.292   0.000  0.00  0.00    +0.000 C 
ATOM     80  C   UNL     1       6.809  -3.712   0.000  0.00  0.00    +0.000 C 
BRANCH  79  81
ATOM     81  O   UNL     1       5.385  -3.712   0.000  0.00  0.00    +0.000 OA
ATOM     82  H   UNL     1       4.538  -3.239   0.000  0.00  0.00    +0.000 HD
ENDBRANCH  79  81
ENDBRANCH   2  79
BRANCH  15  83
ATOM     83  C   UNL     1       5.380   0.397   0.000  0.00  0.00    +0.000 C 
BRANCH  83  84
ATOM     84  C   UNL     1       6.090  -0.007   0.000  0.00  0.00    +0.000 A 
ATOM     85  C   UNL     1       6.090  -0.842   0.000  0.00  0.00    +0.000 A 
ATOM     86  C   UNL     1       6.804   0.403   0.000  0.00  0.00    +0.000 A 
ATOM     87  C   UNL     1       6.804  -1.247   0.000  0.00  0.00    +0.000 A 
ATOM     88  C   UNL     1       7.514  -0.002   0.000  0.00  0.00    +0.000 A 
ATOM     89  C   UNL     1       7.524  -0.832   0.000  0.00  0.00    +0.000 A 
ENDBRANCH  83  84
ENDBRANCH  15  83
BRANCH  16  90
ATOM     90  C   UNL     1       7.500   2.467   0.000  0.00  0.00    +0.000 C 
BRANCH  90  91
ATOM     91  C   UNL     1       8.219   2.887   0.000  0.00  0.00    +0.000 C 
ATOM     92  C   UNL     1       8.939   2.472   0.000  0.00  0.00    +0.000 C 
ATOM     93  C   UNL     1       8.219   3.712   0.000  0.00  0.00    +0.000 C 
ENDBRANCH  90  91
ENDBRANCH  16  90
BRANCH  17  94
ATOM     94  C   UNL     1       8.939  -2.467   0.000  0.00  0.00    +0.000 C 
BRANCH  94  95
ATOM     95  C   UNL     1       8.939  -3.292   0.000  0.00  0.00    +0.000 C 
BRANCH  95  96
ATOM     96  N   UNL     1       9.659  -3.697   0.000  0.00  0.00    +0.000 NA
ATOM     97  H   UNL     1       9.671  -4.717   0.000  0.00  0.00    +0.000 HD
ATOM     98  H   UNL     1      10.537  -3.177   0.000  0.00  0.00    +0.000 HD
ENDBRANCH  95  96
ENDBRANCH  94  95
ENDBRANCH  17  94
BRANCH  19  99
ATOM     99  C   UNL     1       9.644   0.412   0.000  0.00  0.00    +0.000 C 
BRANCH  99 100
ATOM    100  C   UNL     1      10.359   0.007   0.000  0.00  0.00    +0.000 C 
BRANCH 100 101
ATOM    101  N   UNL     1      11.069   0.412   0.000  0.00  0.00    +0.000 NA
ATOM    102  H   UNL     1      11.950  -0.102   0.000  0.00  0.00    +0.000 HD
ATOM    103  H   UNL     1      11.075   1.432   0.000  0.00  0.00    +0.000 HD
ENDBRANCH 100 101
ENDBRANCH  99 100
ENDBRANCH  19  99
BRANCH  18 104
ATOM    104  C   UNL     1       3.225   2.452   0.000  0.00  0.00    +0.000 C 
BRANCH 104 105
ATOM    105  C   UNL     1       2.505   2.857   0.000  0.00  0.00    +0.000 C 
BRANCH 105 106
ATOM    106  N   UNL     1       2.490   3.682   0.000  0.00  0.00    +0.000 NA
ATOM    107  H   UNL     1       3.364   4.208   0.000  0.00  0.00    +0.000 HD
ATOM    108  H   UNL     1       1.597   4.176   0.000  0.00  0.00    +0.000 HD
ENDBRANCH 105 106
ENDBRANCH 104 105
ENDBRANCH  18 104
TORSDOF 36
