REMARK  Name = 45266801
REMARK  17 active torsions:
REMARK  status: ('A' for Active; 'I' for Inactive)
REMARK    1  A    between atoms: O_2  and  C_18
REMARK    2  A    between atoms: O_6  and  C_28
REMARK    3  A    between atoms: N_9  and  C_15
REMARK    4  A    between atoms: N_10  and  C_20
REMARK    5  A    between atoms: N_11  and  C_26
REMARK    6  A    between atoms: C_12  and  C_16
REMARK    7  A    between atoms: C_12  and  C_17
REMARK    8  A    between atoms: C_13  and  C_18
REMARK    9  A    between atoms: C_14  and  C_15
REMARK   10  A    between atoms: C_15  and  C_19
REMARK   11  A    between atoms: C_20  and  C_22
REMARK   12  A    between atoms: C_21  and  C_24
REMARK   13  A    between atoms: C_22  and  C_23
REMARK   14  A    between atoms: C_23  and  C_25
REMARK   15  A    between atoms: C_24  and  C_27
REMARK   16  A    between atoms: C_25  and  C_26
REMARK   17  A    between atoms: C_26  and  C_28
REMARK                            x       y       z     vdW  Elec       q    Type
REMARK                         _______ _______ _______ _____ _____    ______ ____
ROOT
ATOM      1  C   UNK     1       1.277  -0.690   0.416  0.00  0.00    +0.000 C 
ENDROOT
BRANCH   1   6
ATOM      2  S   UNK     1       3.309  -2.350  -0.402  0.00  0.00    +0.000 S 
ATOM      3  N   UNK     1       3.620  -0.048   0.921  0.00  0.00    +0.000 NA
ATOM      4  C   UNK     1       4.779  -1.333  -0.793  0.00  0.00    +0.000 C 
ATOM      5  C   UNK     1       4.301   0.069  -0.371  0.00  0.00    +0.000 C 
ATOM      6  C   UNK     1       2.670  -1.161   0.824  0.00  0.00    +0.000 C 
ATOM      7  C   UNK     1       5.961  -1.878   0.020  0.00  0.00    +0.000 C 
ATOM      8  C   UNK     1       5.081  -1.406  -2.290  0.00  0.00    +0.000 C 
ATOM      9  H   UNK     1       4.309  -0.282   1.637  0.00  0.00    +0.000 HD
BRANCH   5  11
ATOM     10  O   UNK     1       6.062   1.199   0.834  0.00  0.00    +0.000 OA
ATOM     11  C   UNK     1       5.423   1.043  -0.196  0.00  0.00    +0.000 C 
BRANCH  11  12
ATOM     12  O   UNK     1       5.638   1.736  -1.341  0.00  0.00    +0.000 OA
ATOM     13  H   UNK     1       6.372   2.381  -1.246  0.00  0.00    +0.000 HD
ENDBRANCH  11  12
ENDBRANCH   5  11
ENDBRANCH   1   6
BRANCH   1  16
ATOM     14  O   UNK     1       0.066  -0.087   2.427  0.00  0.00    +0.000 OA
ATOM     15  N   UNK     1       0.959   1.609   1.117  0.00  0.00    +0.000 N 
ATOM     16  C   UNK     1       0.707   0.279   1.444  0.00  0.00    +0.000 C 
ATOM     17  H   UNK     1       1.498   1.823   0.283  0.00  0.00    +0.000 HD
BRANCH  15  18
ATOM     18  C   UNK     1       0.488   2.711   1.908  0.00  0.00    +0.000 C 
BRANCH  18  19
ATOM     19  C   UNK     1      -0.890   3.207   1.480  0.00  0.00    +0.000 C 
BRANCH  19  20
ATOM     20  C   UNK     1      -0.965   3.747   0.046  0.00  0.00    +0.000 C 
BRANCH  20  21
ATOM     21  C   UNK     1      -2.321   4.358  -0.325  0.00  0.00    +0.000 C 
BRANCH  21  22
ATOM     22  C   UNK     1      -3.467   3.341  -0.258  0.00  0.00    +0.000 C 
BRANCH  22  23
ATOM     23  N   UNK     1      -4.708   3.980  -0.705  0.00  0.00    +0.000 NA
ATOM     24  H   UNK     1      -4.908   4.787  -0.115  0.00  0.00    +0.000 HD
ATOM     25  H   UNK     1      -5.488   3.336  -0.578  0.00  0.00    +0.000 HD
ENDBRANCH  22  23
BRANCH  22  27
ATOM     26  O   UNK     1      -3.001   2.231  -2.377  0.00  0.00    +0.000 OA
ATOM     27  C   UNK     1      -3.214   2.156  -1.174  0.00  0.00    +0.000 C 
BRANCH  27  28
ATOM     28  O   UNK     1      -3.274   0.971  -0.512  0.00  0.00    +0.000 OA
ATOM     29  H   UNK     1      -3.117   0.211  -1.112  0.00  0.00    +0.000 HD
ENDBRANCH  27  28
ENDBRANCH  22  27
ENDBRANCH  21  22
ENDBRANCH  20  21
ENDBRANCH  19  20
ENDBRANCH  18  19
ENDBRANCH  15  18
ENDBRANCH   1  16
BRANCH   1  31
ATOM     30  O   UNK     1      -0.997  -0.863  -1.339  0.00  0.00    +0.000 OA
ATOM     31  N   UNK     1       0.365  -1.796   0.294  0.00  0.00    +0.000 N 
ATOM     32  C   UNK     1      -0.712  -1.790  -0.586  0.00  0.00    +0.000 C 
ATOM     33  H   UNK     1       0.482  -2.577   0.932  0.00  0.00    +0.000 HD
BRANCH  32  34
ATOM     34  C   UNK     1      -1.502  -3.082  -0.513  0.00  0.00    +0.000 C 
BRANCH  34  35
ATOM     35  C   UNK     1      -2.942  -2.880  -0.121  0.00  0.00    +0.000 A 
ATOM     36  C   UNK     1      -3.308  -2.904   1.224  0.00  0.00    +0.000 A 
ATOM     37  C   UNK     1      -3.909  -2.668  -1.103  0.00  0.00    +0.000 A 
ATOM     38  C   UNK     1      -4.642  -2.716   1.588  0.00  0.00    +0.000 A 
ATOM     39  C   UNK     1      -5.243  -2.480  -0.740  0.00  0.00    +0.000 A 
ATOM     40  C   UNK     1      -5.609  -2.505   0.606  0.00  0.00    +0.000 A 
ENDBRANCH  34  35
ENDBRANCH  32  34
ENDBRANCH   1  31
TORSDOF 15
