REMARK  Name = 
REMARK  24 active torsions:
REMARK  status: ('A' for Active; 'I' for Inactive)
REMARK    1  A    between atoms: C_7  and  C_8
REMARK    2  A    between atoms: C_8  and  C_9
REMARK    3  A    between atoms: C_9  and  O_10
REMARK    4  A    between atoms: C_9  and  C_11
REMARK    5  A    between atoms: C_9  and  C_30
REMARK    6  A    between atoms: C_11  and  N_12
REMARK    7  A    between atoms: N_12  and  C_13
REMARK    8  A    between atoms: C_13  and  C_14
REMARK    9  A    between atoms: N_16  and  C_17
REMARK   10  A    between atoms: C_19  and  C_20
REMARK   11  A    between atoms: C_20  and  O_21
REMARK   12  A    between atoms: O_21  and  P_22
REMARK   13  A    between atoms: P_22  and  O_24
REMARK   14  A    between atoms: P_22  and  O_25
REMARK   15  A    between atoms: C_26  and  O_27
REMARK   16  A    between atoms: C_28  and  O_29
REMARK   17  A    between atoms: C_33  and  C_34
REMARK   18  A    between atoms: N_36  and  CA_37
REMARK   19  A    between atoms: CA_37  and  CB_38
REMARK   20  A    between atoms: CA_37  and  C_43
REMARK   21  A    between atoms: CB_38  and  CG_39
REMARK   22  A    between atoms: CG_39  and  CD_40
REMARK   23  A    between atoms: CD_40  and  OE2_42
REMARK   24  A    between atoms: C_43  and  OXT_45
REMARK                            x       y       z     vdW  Elec       q    Type
REMARK                         _______ _______ _______ _____ _____    ______ ____
ROOT
ATOM      1  C   UNK A   0      -0.123  -1.108   0.092  0.00  0.00    +0.000 C 
ENDROOT
BRANCH   1   2
ATOM      2  C   UNK A   0      -0.887   0.189   0.099  0.00  0.00    +0.000 A 
ATOM      3  C   UNK A   0      -1.690   0.494   1.195  0.00  0.00    +0.000 A 
ATOM      4  C   UNK A   0      -2.817   1.304   1.076  0.00  0.00    +0.000 A 
ATOM      5  C   UNK A   0      -3.521   1.116  -0.107  0.00  0.00    +0.000 A 
ATOM      6  C   UNK A   0      -2.735   1.020  -1.248  0.00  0.00    +0.000 A 
ATOM      7  C   UNK A   0      -1.425   0.571  -1.125  0.00  0.00    +0.000 A 
BRANCH   5   8
ATOM      8  C   UNK A   0      -4.871   1.595  -0.283  0.00  0.00    +0.000 C 
ATOM      9  O   UNK A   0      -5.729   0.822  -0.746  0.00  0.00    +0.000 OA
ATOM     10  N   GLU A   1      -5.084   2.980  -0.192  0.00  0.00    +0.000 N 
ATOM     11  H   GLU A   1      -4.648   3.533   0.496  0.00  0.00    +0.000 HD
BRANCH  10  12
ATOM     12  CA  GLU A   1      -6.065   3.591  -1.260  0.00  0.00    +0.000 C 
BRANCH  12  13
ATOM     13  C   GLU A   1      -5.980   5.089  -0.671  0.00  0.00    +0.000 C 
ATOM     14  O   GLU A   1      -6.311   5.846  -1.641  0.00  0.00    +0.000 OA
BRANCH  13  15
ATOM     15  OXT GLU A   1      -4.806   5.494  -0.082  0.00  0.00    +0.000 OA
ATOM     16  HXT GLU A   1      -4.458   5.015   0.645  0.00  0.00    +0.000 HD
ENDBRANCH  13  15
ENDBRANCH  12  13
BRANCH  12  17
ATOM     17  CB  GLU A   1      -7.420   3.256  -0.400  0.00  0.00    +0.000 C 
BRANCH  17  18
ATOM     18  CG  GLU A   1      -7.114   3.036   1.010  0.00  0.00    +0.000 C 
BRANCH  18  19
ATOM     19  CD  GLU A   1      -7.647   4.028   1.954  0.00  0.00    +0.000 C 
ATOM     20  OE1 GLU A   1      -8.907   4.164   1.958  0.00  0.00    +0.000 OA
BRANCH  19  21
ATOM     21  OE2 GLU A   1      -6.971   4.245   3.147  0.00  0.00    +0.000 OA
ATOM     22  HE2 GLU A   1      -6.039   4.153   3.180  0.00  0.00    +0.000 HD
ENDBRANCH  19  21
ENDBRANCH  18  19
ENDBRANCH  17  18
ENDBRANCH  12  17
ENDBRANCH  10  12
ENDBRANCH   5   8
ENDBRANCH   1   2
BRANCH   1  23
ATOM     23  O   UNK A   0       0.860  -0.965   1.063  0.00  0.00    +0.000 OA
ATOM     24  H   UNK A   0       1.391  -1.776   1.107  0.00  0.00    +0.000 HD
ENDBRANCH   1  23
BRANCH   1  25
ATOM     25  C   UNK A   0      -1.031  -2.073   0.722  0.00  0.00    +0.000 C 
BRANCH  25  32
ATOM     26  N   UNK A   0       0.460  -7.929   2.085  0.00  0.00    +0.000 N 
ATOM     27  C   UNK A   0      -0.187  -7.430   1.049  0.00  0.00    +0.000 A 
ATOM     28  N   UNK A   0      -1.412  -6.891   1.266  0.00  0.00    +0.000 NA
ATOM     29  C   UNK A   0      -1.929  -5.925   0.464  0.00  0.00    +0.000 A 
ATOM     30  C   UNK A   0      -2.889  -5.027   0.925  0.00  0.00    +0.000 A 
ATOM     31  C   UNK A   0      -2.777  -3.672   0.620  0.00  0.00    +0.000 A 
ATOM     32  C   UNK A   0      -1.638  -3.148   0.002  0.00  0.00    +0.000 A 
ATOM     33  C   UNK A   0      -1.058  -4.082  -0.850  0.00  0.00    +0.000 A 
ATOM     34  C   UNK A   0      -1.184  -5.454  -0.618  0.00  0.00    +0.000 A 
ATOM     35  C   UNK A   0      -0.211  -6.356  -1.044  0.00  0.00    +0.000 A 
ATOM     36  O   UNK A   0       0.550  -5.927  -1.964  0.00  0.00    +0.000 OA
ATOM     37  N   UNK A   0       0.327  -7.266  -0.192  0.00  0.00    +0.000 N 
ATOM     38  H   UNK A   0       0.006  -8.013   2.955  0.00  0.00    +0.000 HD
ATOM     39  H   UNK A   0       1.396  -8.216   1.989  0.00  0.00    +0.000 HD
ATOM     40  H   UNK A   0       1.097  -7.809  -0.478  0.00  0.00    +0.000 HD
ENDBRANCH  25  32
ENDBRANCH   1  25
BRANCH   1  41
ATOM     41  C   UNK A   0       0.253  -1.586  -1.228  0.00  0.00    +0.000 C 
BRANCH  41  42
ATOM     42  N   UNK A   0       1.570  -1.459  -1.705  0.00  0.00    +0.000 NA
ATOM     43  H   UNK A   0       1.559  -0.862  -2.532  0.00  0.00    +0.000 HD
BRANCH  42  44
ATOM     44  C   UNK A   0       2.439  -0.908  -0.778  0.00  0.00    +0.000 C 
BRANCH  44  45
ATOM     45  C   UNK A   0       3.884  -1.195  -0.892  0.00  0.00    +0.000 C 
ATOM     46  O   UNK A   0       4.478  -1.476   0.197  0.00  0.00    +0.000 OA
ATOM     47  N   UNK A   0       4.676  -0.687  -1.884  0.00  0.00    +0.000 N 
ATOM     48  H   UNK A   0       4.358  -0.755  -2.813  0.00  0.00    +0.000 HD
BRANCH  47  49
ATOM     49  C   UNK A   0       6.067   0.000  -1.623  0.00  0.00    +0.000 C 
ATOM     50  O   UNK A   0       5.767   0.356  -0.198  0.00  0.00    +0.000 OA
ATOM     51  C   UNK A   0       6.854   1.331   0.078  0.00  0.00    +0.000 C 
ATOM     52  C   UNK A   0       6.791   2.242  -1.366  0.00  0.00    +0.000 C 
ATOM     53  C   UNK A   0       5.364   1.532  -1.931  0.00  0.00    +0.000 C 
BRANCH  52  54
ATOM     54  O   UNK A   0       7.770   1.322  -2.045  0.00  0.00    +0.000 OA
ATOM     55  H   UNK A   0       7.506   0.401  -1.894  0.00  0.00    +0.000 HD
ENDBRANCH  52  54
BRANCH  53  56
ATOM     56  O   UNK A   0       5.810   1.539  -3.358  0.00  0.00    +0.000 OA
ATOM     57  H   UNK A   0       6.731   1.238  -3.410  0.00  0.00    +0.000 HD
ENDBRANCH  53  56
BRANCH  51  58
ATOM     58  C   UNK A   0       5.772   2.352   0.788  0.00  0.00    +0.000 C 
BRANCH  58  59
ATOM     59  O   UNK A   0       6.212   3.626   0.557  0.00  0.00    +0.000 OA
BRANCH  59  60
ATOM     60  P   UNK A   0       6.926   4.208   1.964  0.00  0.00    +0.000 P 
ATOM     61  O   UNK A   0       6.843   3.175   3.068  0.00  0.00    +0.000 OA
BRANCH  60  62
ATOM     62  O   UNK A   0       8.564   4.415   1.604  0.00  0.00    +0.000 OA
ATOM     63  H   UNK A   0       8.945   3.566   1.330  0.00  0.00    +0.000 HD
ENDBRANCH  60  62
BRANCH  60  64
ATOM     64  O   UNK A   0       6.182   5.628   2.449  0.00  0.00    +0.000 OA
ATOM     65  H   UNK A   0       5.248   5.453   2.642  0.00  0.00    +0.000 HD
ENDBRANCH  60  64
ENDBRANCH  59  60
ENDBRANCH  58  59
ENDBRANCH  51  58
ENDBRANCH  47  49
ENDBRANCH  44  45
ENDBRANCH  42  44
ENDBRANCH  41  42
ENDBRANCH   1  41
TORSDOF 24
