REMARK  Name = 5287596
REMARK  10 active torsions:
REMARK  status: ('A' for Active; 'I' for Inactive)
REMARK    1  A    between atoms: O_2  and  C_14
REMARK    2  A    between atoms: N_7  and  C_18
REMARK    3  A    between atoms: N_9  and  C_23
REMARK    4  A    between atoms: C_12  and  C_16
REMARK    5  A    between atoms: C_17  and  C_20
REMARK    6  A    between atoms: C_18  and  C_19
REMARK    7  A    between atoms: C_18  and  C_22
REMARK    8  A    between atoms: C_19  and  C_21
REMARK    9  A    between atoms: C_21  and  C_23
REMARK   10  A    between atoms: C_22  and  C_24
REMARK                            x       y       z     vdW  Elec       q    Type
REMARK                         _______ _______ _______ _____ _____    ______ ____
ROOT
ATOM      1  C   UNL     1       0.349  -0.092  -0.224  0.00  0.00    +0.000 C 
ENDROOT
BRANCH   1   3
ATOM      2  O   UNL     1      -1.751   1.182   1.324  0.00  0.00    +0.000 OA
ATOM      3  N   UNL     1      -0.834   0.569  -0.726  0.00  0.00    +0.000 N 
ATOM      4  C   UNL     1      -1.784   1.150   0.096  0.00  0.00    +0.000 C 
ATOM      5  H   UNL     1      -0.971   0.595  -1.733  0.00  0.00    +0.000 HD
BRANCH   4   8
ATOM      6  O   UNL     1      -4.565  -0.502  -0.222  0.00  0.00    +0.000 OA
ATOM      7  N   UNL     1      -4.088   1.732   0.151  0.00  0.00    +0.000 N 
ATOM      8  C   UNL     1      -2.895   1.788  -0.682  0.00  0.00    +0.000 C 
ATOM      9  C   UNL     1      -2.652   3.273  -0.906  0.00  0.00    +0.000 C 
ATOM     10  C   UNL     1      -3.213   3.923   0.358  0.00  0.00    +0.000 C 
ATOM     11  C   UNL     1      -4.406   3.044   0.710  0.00  0.00    +0.000 C 
ATOM     12  C   UNL     1      -4.865   0.590   0.265  0.00  0.00    +0.000 C 
ATOM     13  C   UNL     1      -6.143   0.748   1.050  0.00  0.00    +0.000 C 
BRANCH  10  14
ATOM     14  O   UNL     1      -3.602   5.258   0.099  0.00  0.00    +0.000 OA
ATOM     15  H   UNL     1      -2.812   5.740  -0.197  0.00  0.00    +0.000 HD
ENDBRANCH  10  14
ENDBRANCH   4   8
ENDBRANCH   1   3
BRANCH   1  17
ATOM     16  O   UNL     1       1.229   0.170  -2.431  0.00  0.00    +0.000 OA
ATOM     17  C   UNL     1       1.487   0.141  -1.224  0.00  0.00    +0.000 C 
BRANCH  17  20
ATOM     18  S   UNL     1       4.151   0.618  -1.805  0.00  0.00    +0.000 S 
ATOM     19  N   UNL     1       3.155   0.352   0.559  0.00  0.00    +0.000 NA
ATOM     20  C   UNL     1       2.856   0.353  -0.719  0.00  0.00    +0.000 A 
ATOM     21  C   UNL     1       5.233   0.747  -0.468  0.00  0.00    +0.000 A 
ATOM     22  C   UNL     1       4.514   0.577   0.719  0.00  0.00    +0.000 A 
ATOM     23  C   UNL     1       6.617   0.983  -0.470  0.00  0.00    +0.000 A 
ATOM     24  C   UNL     1       5.208   0.645   1.947  0.00  0.00    +0.000 A 
ATOM     25  C   UNL     1       7.279   1.046   0.759  0.00  0.00    +0.000 A 
ATOM     26  C   UNL     1       6.586   0.880   1.952  0.00  0.00    +0.000 A 
ENDBRANCH  17  20
ENDBRANCH   1  17
BRANCH   1  27
ATOM     27  C   UNL     1       0.093  -1.579   0.055  0.00  0.00    +0.000 C 
BRANCH  27  28
ATOM     28  C   UNL     1      -0.236  -2.412  -1.194  0.00  0.00    +0.000 C 
BRANCH  28  29
ATOM     29  C   UNL     1      -0.418  -3.892  -0.870  0.00  0.00    +0.000 C 
BRANCH  29  30
ATOM     30  N   UNL     1      -1.524  -4.062   0.074  0.00  0.00    +0.000 NA
ATOM     31  N   UNL     1      -1.167  -6.437   0.053  0.00  0.00    +0.000 N 
ATOM     32  N   UNL     1      -2.820  -5.519   1.326  0.00  0.00    +0.000 N 
ATOM     33  C   UNL     1      -1.796  -5.275   0.442  0.00  0.00    +0.000 C 
ATOM     34  H   UNL     1      -1.468  -7.338   0.409  0.00  0.00    +0.000 HD
ATOM     35  H   UNL     1      -0.390  -6.440  -0.598  0.00  0.00    +0.000 HD
ATOM     36  H   UNL     1      -3.048  -6.461   1.627  0.00  0.00    +0.000 HD
ATOM     37  H   UNL     1      -3.377  -4.761   1.704  0.00  0.00    +0.000 HD
ENDBRANCH  29  30
ENDBRANCH  28  29
ENDBRANCH  27  28
ENDBRANCH   1  27
TORSDOF 9
