REMARK  Name = 
REMARK  19 active torsions:
REMARK  status: ('A' for Active; 'I' for Inactive)
REMARK    1  A    between atoms: SG_1  and  CB_19
REMARK    2  A    between atoms: SG_1  and  C_24
REMARK    3  A    between atoms: O_2  and  C_24
REMARK    4  A    between atoms: O_2  and  C_26
REMARK    5  A    between atoms: O_5  and  C_23
REMARK    6  A    between atoms: O_6  and  C_24
REMARK    7  A    between atoms: O_8  and  C_30
REMARK    8  A    between atoms: N_12  and  CA_16
REMARK    9  A    between atoms: N_13  and  CA_25
REMARK   10  A    between atoms: N_14  and  CA_20
REMARK   11  A    between atoms: N_15  and  C_33
REMARK   12  A    between atoms: CA_16  and  CB_19
REMARK   13  A    between atoms: CA_16  and  C_22
REMARK   14  A    between atoms: C_17  and  C_18
REMARK   15  A    between atoms: C_17  and  CA_20
REMARK   16  A    between atoms: C_18  and  C_21
REMARK   17  A    between atoms: CA_20  and  C_23
REMARK   18  A    between atoms: CA_25  and  C_30
REMARK   19  A    between atoms: C_26  and  C_27
REMARK                            x       y       z     vdW  Elec       q    Type
REMARK                         _______ _______ _______ _____ _____    ______ ____
ROOT
ATOM      1  CA  UNL     1       1.072  -1.650   0.000  0.00  0.00    +0.000 C 
ENDROOT
BRANCH   1   3
ATOM      2  O   UNL     1      -0.357  -2.475   0.000  0.00  0.00    +0.000 OA
ATOM      3  N   UNL     1       0.357  -1.238   0.000  0.00  0.00    +0.000 N 
ATOM      4  C   UNL     1      -0.357  -1.650   0.000  0.00  0.00    +0.000 C 
ATOM      5  H   UNL     1       0.357  -0.726   0.000  0.00  0.00    +0.000 HD
BRANCH   4   6
ATOM      6  C   UNL     1      -1.072  -1.238   0.000  0.00  0.00    +0.000 C 
BRANCH   6   7
ATOM      7  C   UNL     1      -1.786  -1.650   0.000  0.00  0.00    +0.000 C 
BRANCH   7   8
ATOM      8  CA  UNL     1      -2.501  -1.238   0.000  0.00  0.00    +0.000 C 
BRANCH   8   9
ATOM      9  N   UNL     1      -2.501  -0.412   0.000  0.00  0.00    +0.000 NA
ATOM     10  H1  UNL     1      -2.943  -0.157   0.000  0.00  0.00    +0.000 HD
ATOM     11  H2  UNL     1      -2.058  -0.157   0.000  0.00  0.00    +0.000 HD
ENDBRANCH   8   9
BRANCH   8  13
ATOM     12  OXT UNL     1      -3.215  -2.475   0.000  0.00  0.00    +0.000 OA
ATOM     13  C   UNL     1      -3.215  -1.650   0.000  0.00  0.00    +0.000 C 
BRANCH  13  14
ATOM     14  O   UNL     1      -3.929  -1.238   0.000  0.00  0.00    +0.000 OA
ATOM     15  H   UNL     1      -3.930  -0.301   0.000  0.00  0.00    +0.000 HD
ENDBRANCH  13  14
ENDBRANCH   8  13
ENDBRANCH   7   8
ENDBRANCH   6   7
ENDBRANCH   4   6
ENDBRANCH   1   3
BRANCH   1  18
ATOM     16  O   UNL     1       0.357  -2.888   0.000  0.00  0.00    +0.000 OA
ATOM     17  N   UNL     1       1.786  -2.888   0.000  0.00  0.00    +0.000 N 
ATOM     18  C   ACE A   1       1.072  -2.475   0.000  0.00  0.00    +0.000 C 
ATOM     19  H   UNL     1       2.229  -2.632   0.000  0.00  0.00    +0.000 HD
BRANCH  17  20
ATOM     20  CA  UNL     1       1.786  -3.712   0.000  0.00  0.00    +0.000 C 
BRANCH  20  22
ATOM     21  OXT UNL     1       3.215  -3.712   0.000  0.00  0.00    +0.000 OA
ATOM     22  C   UNL     1       2.501  -4.125   0.000  0.00  0.00    +0.000 C 
BRANCH  22  23
ATOM     23  O   UNL     1       2.501  -4.950   0.000  0.00  0.00    +0.000 OA
ATOM     24  H   UNL     1       1.689  -5.418   0.000  0.00  0.00    +0.000 HD
ENDBRANCH  22  23
ENDBRANCH  20  22
ENDBRANCH  17  20
ENDBRANCH   1  18
BRANCH   1  25
ATOM     25  CB  UNL     1       1.786  -1.238   0.000  0.00  0.00    +0.000 C 
BRANCH  25  26
ATOM     26  SG  UNL     1       1.786  -0.412   0.000  0.00  0.00    +0.000 S 
BRANCH  26  27
ATOM     27  C   UNL     1       2.501   0.000   0.000  0.00  0.00    +0.000 C 
BRANCH  27  28
ATOM     28  O   UNL     1       3.215  -0.412   0.000  0.00  0.00    +0.000 OA
ATOM     29  H   UNL     1       3.215  -1.382   0.000  0.00  0.00    +0.000 HD
ENDBRANCH  27  28
BRANCH  27  30
ATOM     30  O   UNL     1       2.501   0.825   0.000  0.00  0.00    +0.000 OA
BRANCH  30  31
ATOM     31  C   UNL     1       3.215   1.238   0.000  0.00  0.00    +0.000 C 
BRANCH  31  32
ATOM     32  C   UNL     1       3.215   2.062   0.000  0.00  0.00    +0.000 A 
ATOM     33  C   UNL     1       2.501   2.475   0.000  0.00  0.00    +0.000 A 
ATOM     34  C   UNL     1       3.929   2.475   0.000  0.00  0.00    +0.000 A 
ATOM     35  C   UNL     1       2.501   3.300   0.000  0.00  0.00    +0.000 A 
ATOM     36  C   UNL     1       3.929   3.300   0.000  0.00  0.00    +0.000 A 
ATOM     37  C   UNL     1       3.215   3.712   0.000  0.00  0.00    +0.000 A 
BRANCH  37  40
ATOM     38  O   UNL     1       3.929   4.950   0.000  0.00  0.00    +0.000 OA
ATOM     39  O   UNL     1       2.501   4.950   0.000  0.00  0.00    +0.000 OA
ATOM     40  N   UNL     1       3.215   4.537   0.000  0.00  0.00    +0.000 N 
ENDBRANCH  37  40
ENDBRANCH  31  32
ENDBRANCH  30  31
ENDBRANCH  27  30
ENDBRANCH  26  27
ENDBRANCH  25  26
ENDBRANCH   1  25
TORSDOF 19
