REMARK  Name = 
REMARK  29 active torsions:
REMARK  status: ('A' for Active; 'I' for Inactive)
REMARK    1  A    between atoms: S_1  and  C_53
REMARK    2  A    between atoms: P_2  and  O_13
REMARK    3  A    between atoms: P_2  and  O_14
REMARK    4  A    between atoms: P_2  and  C_44
REMARK    5  A    between atoms: P_3  and  O_18
REMARK    6  A    between atoms: P_3  and  O_19
REMARK    7  A    between atoms: P_3  and  C_56
REMARK    8  A    between atoms: O_12  and  C_48
REMARK    9  A    between atoms: N_21  and  C_26
REMARK   10  A    between atoms: N_22  and  C_30
REMARK   11  A    between atoms: N_23  and  C_34
REMARK   12  A    between atoms: N_24  and  C_47
REMARK   13  A    between atoms: C_26  and  C_27
REMARK   14  A    between atoms: C_26  and  C_31
REMARK   15  A    between atoms: C_27  and  C_33
REMARK   16  A    between atoms: C_28  and  C_29
REMARK   17  A    between atoms: C_28  and  C_30
REMARK   18  A    between atoms: C_29  and  C_32
REMARK   19  A    between atoms: C_32  and  C_36
REMARK   20  A    between atoms: C_34  and  C_35
REMARK   21  A    between atoms: C_34  and  C_37
REMARK   22  A    between atoms: C_36  and  C_43
REMARK   23  A    between atoms: C_37  and  C_48
REMARK   24  A    between atoms: C_40  and  C_44
REMARK   25  A    between atoms: C_45  and  C_46
REMARK   26  A    between atoms: C_46  and  C_49
REMARK   27  A    between atoms: C_47  and  C_53
REMARK   28  A    between atoms: C_47  and  C_57
REMARK   29  A    between atoms: C_50  and  C_56
REMARK                            x       y       z     vdW  Elec       q    Type
REMARK                         _______ _______ _______ _____ _____    ______ ____
ROOT
ATOM      1  C   UNL     1       3.079   1.650   0.000  0.00  0.00    +0.000 C 
ENDROOT
BRANCH   1   4
ATOM      2  O   UNL     1       2.365   2.888   0.000  0.00  0.00    +0.000 OA
ATOM      3  N   UNL     1       1.650   1.650   0.000  0.00  0.00    +0.000 N 
ATOM      4  C   UNL     1       2.365   2.062   0.000  0.00  0.00    +0.000 C 
ATOM      5  H   UNL     1       1.650   0.666   0.000  0.00  0.00    +0.000 HD
BRANCH   3   6
ATOM      6  C   UNL     1       0.936   2.062   0.000  0.00  0.00    +0.000 C 
BRANCH   6   7
ATOM      7  C   UNL     1       0.221   1.650   0.000  0.00  0.00    +0.000 C 
BRANCH   7   8
ATOM      8  C   UNL     1      -0.493   2.062   0.000  0.00  0.00    +0.000 C 
BRANCH   8   9
ATOM      9  C   UNL     1      -1.207   1.650   0.000  0.00  0.00    +0.000 C 
BRANCH   9  10
ATOM     10  C   UNL     1      -1.922   2.062   0.000  0.00  0.00    +0.000 C 
BRANCH  10  13
ATOM     11  O   UNL     1      -2.636   0.825   0.000  0.00  0.00    +0.000 OA
ATOM     12  N   UNL     1      -3.351   2.062   0.000  0.00  0.00    +0.000 N 
ATOM     13  C   UNL     1      -2.636   1.650   0.000  0.00  0.00    +0.000 C 
ATOM     14  H   UNL     1      -3.351   3.047   0.000  0.00  0.00    +0.000 HD
BRANCH  12  15
ATOM     15  C   UNL     1      -4.065   1.650   0.000  0.00  0.00    +0.000 C 
BRANCH  15  18
ATOM     16  O   UNL     1      -4.780   2.888   0.000  0.00  0.00    +0.000 OA
ATOM     17  N   UNL     1      -5.494   1.650   0.000  0.00  0.00    +0.000 N 
ATOM     18  C   UNL     1      -4.780   2.062   0.000  0.00  0.00    +0.000 C 
ATOM     19  H   UNL     1      -6.347   2.142   0.000  0.00  0.00    +0.000 HD
ATOM     20  H   UNL     1      -5.494   0.666   0.000  0.00  0.00    +0.000 HD
ENDBRANCH  15  18
BRANCH  15  21
ATOM     21  C   UNL     1      -4.065   0.825   0.000  0.00  0.00    +0.000 C 
BRANCH  21  22
ATOM     22  S   UNL     1      -4.780   0.412   0.000  0.00  0.00    +0.000 S 
ATOM     23  H   UNL     1      -5.958   1.092   0.000  0.00  0.00    +0.000 HD
ENDBRANCH  21  22
ENDBRANCH  15  21
ENDBRANCH  12  15
ENDBRANCH  10  13
ENDBRANCH   9  10
ENDBRANCH   8   9
ENDBRANCH   7   8
ENDBRANCH   6   7
ENDBRANCH   3   6
ENDBRANCH   1   4
BRANCH   1  25
ATOM     24  O   UNL     1       4.508   0.825   0.000  0.00  0.00    +0.000 OA
ATOM     25  N   UNL     1       3.079   0.825   0.000  0.00  0.00    +0.000 N 
ATOM     26  C   UNL     1       3.794   0.412   0.000  0.00  0.00    +0.000 C 
ATOM     27  H   UNL     1       2.227   0.333   0.000  0.00  0.00    +0.000 HD
BRANCH  26  28
ATOM     28  C   UNL     1       3.794  -0.412   0.000  0.00  0.00    +0.000 C 
BRANCH  28  30
ATOM     29  O   UNL     1       3.794  -2.062   0.000  0.00  0.00    +0.000 OA
ATOM     30  N   UNL     1       3.079  -0.825   0.000  0.00  0.00    +0.000 N 
ATOM     31  C   UNL     1       3.079  -1.650   0.000  0.00  0.00    +0.000 C 
ATOM     32  H   UNL     1       2.227  -0.333   0.000  0.00  0.00    +0.000 HD
BRANCH  31  33
ATOM     33  C   UNL     1       2.365  -2.062   0.000  0.00  0.00    +0.000 C 
BRANCH  33  34
ATOM     34  C   UNL     1       2.365  -2.888   0.000  0.00  0.00    +0.000 A 
ATOM     35  C   UNL     1       2.365  -4.537   0.000  0.00  0.00    +0.000 A 
ATOM     36  C   UNL     1       3.079  -3.300   0.000  0.00  0.00    +0.000 A 
ATOM     37  C   UNL     1       1.650  -3.300   0.000  0.00  0.00    +0.000 A 
ATOM     38  C   UNL     1       3.079  -4.125   0.000  0.00  0.00    +0.000 A 
ATOM     39  C   UNL     1       1.650  -4.125   0.000  0.00  0.00    +0.000 A 
BRANCH  35  42
ATOM     40  F   UNL     1       1.540  -5.363   0.000  0.00  0.00    +0.000 F 
ATOM     41  F   UNL     1       3.190  -5.363   0.000  0.00  0.00    +0.000 F 
ATOM     42  C   UNL     1       2.365  -5.363   0.000  0.00  0.00    +0.000 C 
BRANCH  42  43
ATOM     43  P   UNL     1       2.365  -6.188   0.000  0.00  0.00    +0.000 P 
ATOM     44  O   UNL     1       3.190  -6.188   0.000  0.00  0.00    +0.000 OA
BRANCH  43  45
ATOM     45  O   UNL     1       2.365  -7.013   0.000  0.00  0.00    +0.000 OA
ATOM     46  H   UNL     1       1.525  -7.498   0.000  0.00  0.00    +0.000 HD
ENDBRANCH  43  45
BRANCH  43  47
ATOM     47  O   UNL     1       1.540  -6.188   0.000  0.00  0.00    +0.000 OA
ATOM     48  H   UNL     1       1.055  -5.348   0.000  0.00  0.00    +0.000 HD
ENDBRANCH  43  47
ENDBRANCH  42  43
ENDBRANCH  35  42
ENDBRANCH  33  34
ENDBRANCH  31  33
ENDBRANCH  28  30
BRANCH  28  49
ATOM     49  C   UNL     1       4.508  -0.825   0.000  0.00  0.00    +0.000 C 
BRANCH  49  51
ATOM     50  O   UNL     1       5.223   0.412   0.000  0.00  0.00    +0.000 OA
ATOM     51  C   UNL     1       5.223  -0.412   0.000  0.00  0.00    +0.000 C 
BRANCH  51  52
ATOM     52  O   UNL     1       5.937  -0.825   0.000  0.00  0.00    +0.000 OA
ATOM     53  H   UNL     1       5.937  -1.762   0.000  0.00  0.00    +0.000 HD
ENDBRANCH  51  52
ENDBRANCH  49  51
ENDBRANCH  28  49
ENDBRANCH  26  28
ENDBRANCH   1  25
BRANCH   1  54
ATOM     54  C   UNL     1       3.794   2.062   0.000  0.00  0.00    +0.000 C 
BRANCH  54  55
ATOM     55  C   UNL     1       3.794   2.888   0.000  0.00  0.00    +0.000 A 
ATOM     56  C   UNL     1       3.079   3.300   0.000  0.00  0.00    +0.000 A 
ATOM     57  C   UNL     1       4.508   3.300   0.000  0.00  0.00    +0.000 A 
ATOM     58  C   UNL     1       3.794   4.537   0.000  0.00  0.00    +0.000 A 
ATOM     59  C   UNL     1       3.079   4.125   0.000  0.00  0.00    +0.000 A 
ATOM     60  C   UNL     1       4.508   4.125   0.000  0.00  0.00    +0.000 A 
BRANCH  58  63
ATOM     61  F   UNL     1       4.619   5.363   0.000  0.00  0.00    +0.000 F 
ATOM     62  F   UNL     1       2.969   5.363   0.000  0.00  0.00    +0.000 F 
ATOM     63  C   UNL     1       3.794   5.363   0.000  0.00  0.00    +0.000 C 
BRANCH  63  64
ATOM     64  P   UNL     1       3.794   6.188   0.000  0.00  0.00    +0.000 P 
ATOM     65  O   UNL     1       2.969   6.188   0.000  0.00  0.00    +0.000 OA
BRANCH  64  66
ATOM     66  O   UNL     1       3.794   7.013   0.000  0.00  0.00    +0.000 OA
ATOM     67  H   UNL     1       4.634   7.498   0.000  0.00  0.00    +0.000 HD
ENDBRANCH  64  66
BRANCH  64  68
ATOM     68  O   UNL     1       4.619   6.188   0.000  0.00  0.00    +0.000 OA
ATOM     69  H   UNL     1       5.104   5.348   0.000  0.00  0.00    +0.000 HD
ENDBRANCH  64  68
ENDBRANCH  63  64
ENDBRANCH  58  63
ENDBRANCH  54  55
ENDBRANCH   1  54
TORSDOF 29
