REMARK  Name = 5289258
REMARK  15 active torsions:
REMARK  status: ('A' for Active; 'I' for Inactive)
REMARK    1  A    between atoms: O_2  and  C_19
REMARK    2  A    between atoms: O_4  and  C_26
REMARK    3  A    between atoms: N_6  and  C_12
REMARK    4  A    between atoms: N_7  and  C_8
REMARK    5  A    between atoms: C_8  and  C_9
REMARK    6  A    between atoms: C_8  and  C_14
REMARK    7  A    between atoms: C_9  and  C_13
REMARK    8  A    between atoms: C_10  and  C_11
REMARK    9  A    between atoms: C_10  and  C_12
REMARK   10  A    between atoms: C_11  and  C_16
REMARK   11  A    between atoms: C_11  and  C_17
REMARK   12  A    between atoms: C_13  and  C_15
REMARK   13  A    between atoms: C_18  and  C_19
REMARK   14  A    between atoms: C_19  and  C_22
REMARK   15  A    between atoms: C_22  and  C_26
REMARK                            x       y       z     vdW  Elec       q    Type
REMARK                         _______ _______ _______ _____ _____    ______ ____
ROOT
ATOM      1  C   UNL     1      -0.214  -1.205   0.925  0.00  0.00    +0.000 C 
ENDROOT
BRANCH   1   4
ATOM      2  O   UNL     1       0.072  -2.634  -1.012  0.00  0.00    +0.000 OA
ATOM      3  N   UNL     1       1.824  -2.436   0.497  0.00  0.00    +0.000 N 
ATOM      4  C   UNL     1       0.554  -2.156   0.013  0.00  0.00    +0.000 C 
ATOM      5  H   UNL     1       2.094  -2.084   1.411  0.00  0.00    +0.000 HD
BRANCH   3   6
ATOM      6  C   UNL     1       2.733  -3.339  -0.170  0.00  0.00    +0.000 C 
BRANCH   6   7
ATOM      7  C   UNL     1       4.197  -2.967   0.056  0.00  0.00    +0.000 C 
BRANCH   7   8
ATOM      8  C   UNL     1       4.590  -1.553  -0.415  0.00  0.00    +0.000 C 
ATOM      9  C   UNL     1       4.336  -1.420  -1.919  0.00  0.00    +0.000 C 
ATOM     10  C   UNL     1       6.051  -1.220  -0.109  0.00  0.00    +0.000 C 
ENDBRANCH   7   8
ENDBRANCH   6   7
ENDBRANCH   3   6
ENDBRANCH   1   4
BRANCH   1  12
ATOM     11  O   UNL     1      -2.584  -0.861   2.525  0.00  0.00    +0.000 OA
ATOM     12  N   UNL     1      -1.569  -1.096   0.450  0.00  0.00    +0.000 N 
ATOM     13  C   UNL     1      -2.655  -0.932   1.300  0.00  0.00    +0.000 C 
ATOM     14  H   UNL     1      -1.729  -1.163  -0.551  0.00  0.00    +0.000 HD
BRANCH  13  15
ATOM     15  C   UNL     1      -3.980  -0.861   0.552  0.00  0.00    +0.000 C 
BRANCH  15  16
ATOM     16  O   UNL     1      -5.035  -0.799   1.502  0.00  0.00    +0.000 OA
ATOM     17  H   UNL     1      -5.872  -0.894   1.016  0.00  0.00    +0.000 HD
ENDBRANCH  15  16
BRANCH  15  18
ATOM     18  C   UNL     1      -4.037   0.359  -0.370  0.00  0.00    +0.000 C 
BRANCH  18  20
ATOM     19  O   UNL     1      -5.831  -0.750  -1.593  0.00  0.00    +0.000 OA
ATOM     20  C   UNL     1      -5.082   0.207  -1.455  0.00  0.00    +0.000 C 
BRANCH  20  21
ATOM     21  O   UNL     1      -5.102   1.288  -2.279  0.00  0.00    +0.000 OA
ATOM     22  H   UNL     1      -5.780   1.198  -2.982  0.00  0.00    +0.000 HD
ENDBRANCH  20  21
ENDBRANCH  18  20
ENDBRANCH  15  18
ENDBRANCH  13  15
ENDBRANCH   1  12
BRANCH   1  23
ATOM     23  C   UNL     1       0.459   0.167   1.056  0.00  0.00    +0.000 C 
BRANCH  23  24
ATOM     24  C   UNL     1       0.569   0.936  -0.268  0.00  0.00    +0.000 C 
BRANCH  24  25
ATOM     25  C   UNL     1       1.200   2.292  -0.067  0.00  0.00    +0.000 A 
ATOM     26  C   UNL     1       0.400   3.399   0.215  0.00  0.00    +0.000 A 
ATOM     27  C   UNL     1       2.584   2.438  -0.163  0.00  0.00    +0.000 A 
ATOM     28  C   UNL     1       0.983   4.652   0.401  0.00  0.00    +0.000 A 
ATOM     29  C   UNL     1       3.167   3.692   0.023  0.00  0.00    +0.000 A 
ATOM     30  C   UNL     1       2.367   4.799   0.305  0.00  0.00    +0.000 A 
ENDBRANCH  24  25
ENDBRANCH  23  24
ENDBRANCH   1  23
TORSDOF 13
