REMARK  Name = 
REMARK  20 active torsions:
REMARK  status: ('A' for Active; 'I' for Inactive)
REMARK    1  A    between atoms: N_1  and  C_2
REMARK    2  A    between atoms: C_2  and  C_3
REMARK    3  A    between atoms: C_2  and  C_32
REMARK    4  A    between atoms: C_3  and  C_4
REMARK    5  A    between atoms: C_4  and  C_5
REMARK    6  A    between atoms: N_7  and  C_8
REMARK    7  A    between atoms: C_8  and  C_9
REMARK    8  A    between atoms: C_8  and  C_25
REMARK    9  A    between atoms: C_9  and  S_10
REMARK   10  A    between atoms: S_10  and  C_11
REMARK   11  A    between atoms: C_11  and  C_12
REMARK   12  A    between atoms: C_11  and  C_14
REMARK   13  A    between atoms: C_12  and  O_13
REMARK   14  A    between atoms: C_14  and  O_15
REMARK   15  A    between atoms: O_15  and  C_16
REMARK   16  A    between atoms: C_19  and  N_20
REMARK   17  A    between atoms: N_27  and  CA_28
REMARK   18  A    between atoms: CA_28  and  C_29
REMARK   19  A    between atoms: C_29  and  OXT_31
REMARK   20  A    between atoms: C_32  and  O_34
REMARK                            x       y       z     vdW  Elec       q    Type
REMARK                         _______ _______ _______ _____ _____    ______ ____
ROOT
ATOM      1  C   UNK A   1      -1.835  -0.476  -1.442  0.00  0.00    +0.000 C 
ENDROOT
BRANCH   1   4
ATOM      2  C   UNK A   1      -3.432   1.337  -0.682  0.00  0.00    +0.000 C 
ATOM      3  O   UNK A   1      -3.597   0.775   0.445  0.00  0.00    +0.000 OA
ATOM      4  N   UNK A   1      -2.107   1.072  -1.114  0.00  0.00    +0.000 N 
ATOM      5  H   UNK A   1      -1.419   1.770  -1.204  0.00  0.00    +0.000 HD
BRANCH   2   6
ATOM      6  C   UNK A   1      -4.140   2.605  -1.043  0.00  0.00    +0.000 C 
BRANCH   6   7
ATOM      7  C   UNK A   1      -5.155   2.858   0.064  0.00  0.00    +0.000 C 
BRANCH   7   8
ATOM      8  C   UNK A   1      -4.139   3.300   1.321  0.00  0.00    +0.000 C 
BRANCH   8   9
ATOM      9  N   UNK A   1      -5.324   3.156   2.397  0.00  0.00    +0.000 NA
ATOM     10  H   UNK A   1      -5.369   2.191   2.725  0.00  0.00    +0.000 HD
ATOM     11  H   UNK A   1      -6.211   3.408   1.961  0.00  0.00    +0.000 HD
ENDBRANCH   8   9
BRANCH   8  12
ATOM     12  C   UNK A   1      -4.435   4.900   1.099  0.00  0.00    +0.000 C 
ATOM     13  O   UNK A   1      -3.561   5.314   0.277  0.00  0.00    +0.000 OA
BRANCH  12  14
ATOM     14  O   UNK A   1      -5.739   5.257   0.956  0.00  0.00    +0.000 OA
ATOM     15  H   UNK A   1      -6.379   4.948   1.566  0.00  0.00    +0.000 HD
ENDBRANCH  12  14
ENDBRANCH   8  12
ENDBRANCH   7   8
ENDBRANCH   6   7
ENDBRANCH   2   6
ENDBRANCH   1   4
BRANCH   1  16
ATOM     16  C   UNK A   1      -2.525  -1.018  -0.050  0.00  0.00    +0.000 C 
ATOM     17  O   UNK A   1      -1.769  -1.490   0.801  0.00  0.00    +0.000 OA
ATOM     18  N   GLY A   2      -3.480  -2.014  -0.482  0.00  0.00    +0.000 N 
ATOM     19  H   GLY A   2      -3.636  -2.154  -1.444  0.00  0.00    +0.000 HD
BRANCH  18  20
ATOM     20  CA  GLY A   2      -4.214  -2.810   0.492  0.00  0.00    +0.000 C 
BRANCH  20  21
ATOM     21  C   GLY A   2      -4.714  -4.046  -0.189  0.00  0.00    +0.000 C 
ATOM     22  O   GLY A   2      -4.615  -5.152   0.412  0.00  0.00    +0.000 OA
BRANCH  21  23
ATOM     23  OXT GLY A   2      -5.066  -3.978  -1.534  0.00  0.00    +0.000 OA
ATOM     24  HXT GLY A   2      -5.133  -3.145  -1.959  0.00  0.00    +0.000 HD
ENDBRANCH  21  23
ENDBRANCH  20  21
ENDBRANCH  18  20
ENDBRANCH   1  16
BRANCH   1  25
ATOM     25  C   UNK A   1      -0.288  -0.340  -0.806  0.00  0.00    +0.000 C 
BRANCH  25  26
ATOM     26  S   UNK A   1       0.195  -2.099  -0.766  0.00  0.00    +0.000 S 
BRANCH  26  27
ATOM     27  C   UNK A   1       2.003  -1.946  -0.163  0.00  0.00    +0.000 C 
BRANCH  27  28
ATOM     28  C   UNK A   1       2.441  -3.408  -0.618  0.00  0.00    +0.000 C 
BRANCH  28  29
ATOM     29  O   UNK A   1       1.941  -3.653  -1.876  0.00  0.00    +0.000 OA
ATOM     30  H   UNK A   1       0.973  -3.588  -1.857  0.00  0.00    +0.000 HD
ENDBRANCH  28  29
ENDBRANCH  27  28
BRANCH  27  31
ATOM     31  C   UNK A   1       2.513  -1.228  -1.492  0.00  0.00    +0.000 C 
BRANCH  31  32
ATOM     32  O   UNK A   1       3.910  -1.387  -1.567  0.00  0.00    +0.000 OA
BRANCH  32  33
ATOM     33  C   UNK A   1       4.808  -0.737  -0.754  0.00  0.00    +0.000 A 
ATOM     34  C   UNK A   1       5.944  -0.190  -1.336  0.00  0.00    +0.000 A 
ATOM     35  C   UNK A   1       6.863   0.501  -0.566  0.00  0.00    +0.000 A 
ATOM     36  C   UNK A   1       6.747   0.494   0.818  0.00  0.00    +0.000 A 
ATOM     37  C   UNK A   1       5.876  -0.429   1.361  0.00  0.00    +0.000 A 
ATOM     38  C   UNK A   1       4.905  -1.028   0.590  0.00  0.00    +0.000 A 
BRANCH  36  39
ATOM     39  N   UNK A   1       7.243   1.607   1.544  0.00  0.00    +0.000 N 
ATOM     40  O   UNK A   1       7.657   2.640   0.991  0.00  0.00    +0.000 OA
ATOM     41  O   UNK A   1       7.088   1.612   2.914  0.00  0.00    +0.000 OA
ENDBRANCH  36  39
ENDBRANCH  32  33
ENDBRANCH  31  32
ENDBRANCH  27  31
ENDBRANCH  26  27
ENDBRANCH  25  26
ENDBRANCH   1  25
TORSDOF 20
