REMARK  Name = 
REMARK  19 active torsions:
REMARK  status: ('A' for Active; 'I' for Inactive)
REMARK    1  A    between atoms: C_1  and  C_2
REMARK    2  A    between atoms: C_2  and  C_3
REMARK    3  A    between atoms: C_3  and  C_4
REMARK    4  A    between atoms: C_4  and  C_5
REMARK    5  A    between atoms: C_5  and  C_6
REMARK    6  A    between atoms: C_6  and  S_7
REMARK    7  A    between atoms: S_7  and  C_8
REMARK    8  A    between atoms: C_8  and  C_9
REMARK    9  A    between atoms: C_9  and  N_10
REMARK   10  A    between atoms: C_9  and  C_20
REMARK   11  A    between atoms: C_11  and  C_13
REMARK   12  A    between atoms: C_13  and  C_14
REMARK   13  A    between atoms: C_14  and  C_15
REMARK   14  A    between atoms: C_15  and  N_16
REMARK   15  A    between atoms: C_15  and  C_17
REMARK   16  A    between atoms: C_17  and  O_19
REMARK   17  A    between atoms: N_22  and  CA_23
REMARK   18  A    between atoms: CA_23  and  C_24
REMARK   19  A    between atoms: C_24  and  OXT_26
REMARK                            x       y       z     vdW  Elec       q    Type
REMARK                         _______ _______ _______ _____ _____    ______ ____
ROOT
ATOM      1  C   UNK A   1      -0.011  -1.228  -0.433  0.00  0.00    +0.000 C 
ENDROOT
BRANCH   1   2
ATOM      2  N   UNK A   1      -0.517   0.021   0.421  0.00  0.00    +0.000 N 
ATOM      3  C   UNK A   1      -1.620  -0.234   1.254  0.00  0.00    +0.000 C 
ATOM      4  O   UNK A   1      -1.939  -1.369   1.655  0.00  0.00    +0.000 OA
ATOM      5  H   UNK A   1      -0.089   0.906   0.368  0.00  0.00    +0.000 HD
BRANCH   3   6
ATOM      6  C   UNK A   1      -2.651   0.832   1.466  0.00  0.00    +0.000 C 
BRANCH   6   7
ATOM      7  C   UNK A   1      -3.558   0.784   0.253  0.00  0.00    +0.000 C 
BRANCH   7   8
ATOM      8  C   UNK A   1      -4.635  -0.428   0.640  0.00  0.00    +0.000 C 
BRANCH   8   9
ATOM      9  N   UNK A   1      -4.230  -1.260  -0.662  0.00  0.00    +0.000 NA
ATOM     10  H   UNK A   1      -4.211  -0.638  -1.470  0.00  0.00    +0.000 HD
ATOM     11  H   UNK A   1      -4.914  -2.000  -0.819  0.00  0.00    +0.000 HD
ENDBRANCH   8   9
BRANCH   8  12
ATOM     12  C   UNK A   1      -5.876   0.310  -0.123  0.00  0.00    +0.000 C 
ATOM     13  O   UNK A   1      -6.755   0.712   0.694  0.00  0.00    +0.000 OA
BRANCH  12  14
ATOM     14  O   UNK A   1      -5.627   0.828  -1.349  0.00  0.00    +0.000 OA
ATOM     15  H   UNK A   1      -4.952   0.460  -1.884  0.00  0.00    +0.000 HD
ENDBRANCH  12  14
ENDBRANCH   8  12
ENDBRANCH   7   8
ENDBRANCH   6   7
ENDBRANCH   3   6
ENDBRANCH   1   2
BRANCH   1  16
ATOM     16  C   UNK A   1       1.014  -1.703   0.753  0.00  0.00    +0.000 C 
ATOM     17  O   UNK A   1       0.483  -2.764   1.222  0.00  0.00    +0.000 OA
ATOM     18  N   GLY A   2       2.334  -1.990   0.336  0.00  0.00    +0.000 N 
ATOM     19  H   GLY A   2       2.742  -1.381  -0.322  0.00  0.00    +0.000 HD
BRANCH  18  20
ATOM     20  CA  GLY A   2       3.134  -3.098   0.791  0.00  0.00    +0.000 C 
BRANCH  20  21
ATOM     21  C   GLY A   2       3.019  -4.145  -0.273  0.00  0.00    +0.000 C 
ATOM     22  O   GLY A   2       3.172  -5.353  -0.012  0.00  0.00    +0.000 OA
BRANCH  21  23
ATOM     23  OXT GLY A   2       2.841  -3.781  -1.610  0.00  0.00    +0.000 OA
ATOM     24  HXT GLY A   2       2.723  -2.880  -1.838  0.00  0.00    +0.000 HD
ENDBRANCH  21  23
ENDBRANCH  20  21
ENDBRANCH  18  20
ENDBRANCH   1  16
BRANCH   1  25
ATOM     25  C   UNK A   1       1.117  -0.280  -1.216  0.00  0.00    +0.000 C 
BRANCH  25  26
ATOM     26  S   UNK A   1       1.981   0.634   0.053  0.00  0.00    +0.000 S 
BRANCH  26  27
ATOM     27  C   UNK A   1       1.123   2.140   0.557  0.00  0.00    +0.000 C 
BRANCH  27  28
ATOM     28  C   UNK A   1       1.510   3.224  -0.403  0.00  0.00    +0.000 C 
BRANCH  28  29
ATOM     29  C   UNK A   1       2.553   4.162   0.128  0.00  0.00    +0.000 C 
BRANCH  29  30
ATOM     30  C   UNK A   1       3.929   3.530   0.211  0.00  0.00    +0.000 C 
BRANCH  30  32
ATOM     31  C   UNK A   1       4.302   5.792   0.460  0.00  0.00    +0.000 C 
ATOM     32  C   UNK A   1       4.909   4.665   0.474  0.00  0.00    +0.000 C 
ENDBRANCH  30  32
ENDBRANCH  29  30
ENDBRANCH  28  29
ENDBRANCH  27  28
ENDBRANCH  26  27
ENDBRANCH  25  26
ENDBRANCH   1  25
TORSDOF 18
