REMARK  Name = 
REMARK  21 active torsions:
REMARK  status: ('A' for Active; 'I' for Inactive)
REMARK    1  A    between atoms: C_1  and  N_2
REMARK    2  A    between atoms: C_3  and  C_5
REMARK    3  A    between atoms: C_5  and  N_6
REMARK    4  A    between atoms: C_5  and  C_44
REMARK    5  A    between atoms: C_7  and  C_9
REMARK    6  A    between atoms: C_9  and  O_10
REMARK    7  A    between atoms: C_9  and  C_18
REMARK    8  A    between atoms: O_10  and  C_11
REMARK    9  A    between atoms: C_11  and  C_12
REMARK   10  A    between atoms: C_18  and  O_19
REMARK   11  A    between atoms: C_18  and  C_20
REMARK   12  A    between atoms: C_20  and  O_21
REMARK   13  A    between atoms: C_20  and  C_22
REMARK   14  A    between atoms: C_22  and  O_23
REMARK   15  A    between atoms: C_22  and  C_31
REMARK   16  A    between atoms: O_23  and  C_24
REMARK   17  A    between atoms: C_24  and  C_25
REMARK   18  A    between atoms: N_33  and  C_34
REMARK   19  A    between atoms: C_42  and  O_43
REMARK   20  A    between atoms: C_44  and  C_45
REMARK   21  A    between atoms: C_44  and  C_46
REMARK                            x       y       z     vdW  Elec       q    Type
REMARK                         _______ _______ _______ _____ _____    ______ ____
ROOT
ATOM      1  C   UNL     1      -0.562  -1.602   0.249  0.00  0.00    +0.000 C 
ENDROOT
BRANCH   1   2
ATOM      2  O   UNL     1       0.043  -2.120  -1.018  0.00  0.00    +0.000 OA
ATOM      3  H   UNL     1       0.740  -1.513  -1.315  0.00  0.00    +0.000 HD
ENDBRANCH   1   2
BRANCH   1   4
ATOM      4  C   UNL     1      -0.785   0.005  -0.273  0.00  0.00    +0.000 C 
BRANCH   4   5
ATOM      5  O   UNL     1      -1.452  -0.435  -1.535  0.00  0.00    +0.000 OA
ATOM      6  H   UNL     1      -2.097  -1.132  -1.334  0.00  0.00    +0.000 HD
ENDBRANCH   4   5
BRANCH   4   7
ATOM      7  C   UNL     1      -2.281   0.067   0.572  0.00  0.00    +0.000 C 
BRANCH   7   9
ATOM      8  N   UNL     1      -4.153   0.466  -1.014  0.00  0.00    +0.000 N 
ATOM      9  C   UNL     1      -3.006   1.036  -0.481  0.00  0.00    +0.000 C 
ATOM     10  O   UNL     1      -2.484   2.048  -0.877  0.00  0.00    +0.000 OA
ATOM     11  H   UNL     1      -4.412  -0.456  -0.787  0.00  0.00    +0.000 HD
BRANCH   8  12
ATOM     12  C   UNL     1      -5.028   1.334  -1.992  0.00  0.00    +0.000 C 
BRANCH  12  15
ATOM     13  C   UNL     1      -3.354   2.987  -4.736  0.00  0.00    +0.000 C 
ATOM     14  N   UNL     1      -4.125   2.655  -4.003  0.00  0.00    +0.000 N 
ATOM     15  C   UNL     1      -3.770   1.823  -2.882  0.00  0.00    +0.000 C 
ATOM     16  O   UNL     1      -3.167   0.797  -3.343  0.00  0.00    +0.000 OA
ATOM     17  H   UNL     1      -5.062   2.933  -4.124  0.00  0.00    +0.000 HD
ENDBRANCH  12  15
BRANCH  12  18
ATOM     18  C   UNL     1      -4.995   2.638  -0.992  0.00  0.00    +0.000 C 
ATOM     19  C   UNL     1      -6.444   2.619  -0.512  0.00  0.00    +0.000 C 
ATOM     20  C   UNL     1      -4.830   3.854  -1.819  0.00  0.00    +0.000 C 
ENDBRANCH  12  18
ENDBRANCH   8  12
ENDBRANCH   7   9
BRANCH   7  21
ATOM     21  O   UNL     1      -1.800   1.225   1.422  0.00  0.00    +0.000 OA
BRANCH  21  22
ATOM     22  C   UNL     1      -2.926   1.460   2.230  0.00  0.00    +0.000 C 
BRANCH  22  23
ATOM     23  C   UNL     1      -2.984   0.507   3.365  0.00  0.00    +0.000 A 
ATOM     24  C   UNL     1      -3.224  -0.836   3.104  0.00  0.00    +0.000 A 
ATOM     25  C   UNL     1      -3.292  -1.749   4.148  0.00  0.00    +0.000 A 
ATOM     26  C   UNL     1      -3.339  -1.285   5.442  0.00  0.00    +0.000 A 
ATOM     27  C   UNL     1      -3.293   0.062   5.691  0.00  0.00    +0.000 A 
ATOM     28  C   UNL     1      -2.904   0.936   4.684  0.00  0.00    +0.000 A 
ENDBRANCH  22  23
ENDBRANCH  21  22
ENDBRANCH   7  21
ENDBRANCH   4   7
ENDBRANCH   1   4
BRANCH   1  29
ATOM     29  C   UNL     1       0.916  -1.276   1.077  0.00  0.00    +0.000 C 
BRANCH  29  30
ATOM     30  C   UNL     1       1.663  -0.470  -0.081  0.00  0.00    +0.000 C 
ATOM     31  O   UNL     1       1.498  -0.459  -1.241  0.00  0.00    +0.000 OA
ATOM     32  N   UNL     1       2.693   0.374   0.461  0.00  0.00    +0.000 N 
ATOM     33  H   UNL     1       2.533   1.006   1.200  0.00  0.00    +0.000 HD
BRANCH  32  34
ATOM     34  C   UNL     1       4.089   0.203  -0.224  0.00  0.00    +0.000 C 
ATOM     35  C   UNL     1       4.474   1.748  -0.093  0.00  0.00    +0.000 A 
ATOM     36  C   UNL     1       3.974   2.801  -0.792  0.00  0.00    +0.000 A 
ATOM     37  C   UNL     1       4.560   4.043  -0.583  0.00  0.00    +0.000 A 
ATOM     38  C   UNL     1       5.764   4.141   0.062  0.00  0.00    +0.000 A 
ATOM     39  C   UNL     1       6.388   3.003   0.489  0.00  0.00    +0.000 A 
ATOM     40  C   UNL     1       5.790   1.766   0.269  0.00  0.00    +0.000 A 
ATOM     41  C   UNL     1       6.251   0.464   0.765  0.00  0.00    +0.000 C 
ATOM     42  C   UNL     1       4.848  -0.210   1.264  0.00  0.00    +0.000 C 
BRANCH  42  43
ATOM     43  O   UNL     1       4.420   1.026   2.015  0.00  0.00    +0.000 OA
ATOM     44  H   UNL     1       4.571   1.809   1.462  0.00  0.00    +0.000 HD
ENDBRANCH  42  43
ENDBRANCH  32  34
ENDBRANCH  29  30
BRANCH  29  45
ATOM     45  O   UNL     1       1.462  -2.650   0.755  0.00  0.00    +0.000 OA
BRANCH  45  46
ATOM     46  C   UNL     1       2.385  -2.608  -0.205  0.00  0.00    +0.000 C 
BRANCH  46  47
ATOM     47  C   UNL     1       2.530  -3.916  -0.843  0.00  0.00    +0.000 A 
ATOM     48  C   UNL     1       2.877  -4.099  -2.179  0.00  0.00    +0.000 A 
ATOM     49  C   UNL     1       2.167  -5.024  -2.936  0.00  0.00    +0.000 A 
ATOM     50  C   UNL     1       1.525  -6.078  -2.295  0.00  0.00    +0.000 A 
ATOM     51  C   UNL     1       1.729  -6.186  -0.924  0.00  0.00    +0.000 A 
ATOM     52  C   UNL     1       2.151  -5.083  -0.190  0.00  0.00    +0.000 A 
ENDBRANCH  46  47
ENDBRANCH  45  46
ENDBRANCH  29  45
ENDBRANCH   1  29
TORSDOF 18
