REMARK  Name = 
REMARK  21 active torsions:
REMARK  status: ('A' for Active; 'I' for Inactive)
REMARK    1  A    between atoms: C_1  and  C_2
REMARK    2  A    between atoms: C_2  and  C_3
REMARK    3  A    between atoms: C_2  and  C_4
REMARK    4  A    between atoms: C_4  and  C_5
REMARK    5  A    between atoms: C_5  and  N_6
REMARK    6  A    between atoms: C_5  and  C_17
REMARK    7  A    between atoms: C_7  and  O_9
REMARK    8  A    between atoms: O_9  and  C_10
REMARK    9  A    between atoms: C_10  and  C_11
REMARK   10  A    between atoms: N_19  and  C_20
REMARK   11  A    between atoms: C_20  and  C_21
REMARK   12  A    between atoms: C_20  and  C_25
REMARK   13  A    between atoms: C_21  and  C_22
REMARK   14  A    between atoms: C_22  and  C_23
REMARK   15  A    between atoms: C_22  and  C_24
REMARK   16  A    between atoms: N_27  and  C_28
REMARK   17  A    between atoms: C_28  and  C_29
REMARK   18  A    between atoms: C_28  and  C_37
REMARK   19  A    between atoms: C_29  and  C_30
REMARK   20  A    between atoms: C_33  and  O_34
REMARK   21  A    between atoms: C_37  and  C_39
REMARK                            x       y       z     vdW  Elec       q    Type
REMARK                         _______ _______ _______ _____ _____    ______ ____
ROOT
ATOM      1  C   UNL     1      -1.353   0.336   0.418  0.00  0.00    +0.000 C 
ENDROOT
BRANCH   1   4
ATOM      2  C   UNL     1       0.897   1.004  -0.653  0.00  0.00    +0.000 C 
ATOM      3  O   UNL     1       1.005   1.955   0.133  0.00  0.00    +0.000 OA
ATOM      4  N   UNL     1      -0.486   0.760  -0.822  0.00  0.00    +0.000 N 
ATOM      5  H   UNL     1      -0.901   0.856  -1.710  0.00  0.00    +0.000 HD
BRANCH   2   6
ATOM      6  C   UNL     1       1.915  -0.244  -0.569  0.00  0.00    +0.000 C 
BRANCH   6   7
ATOM      7  N   UNL     1       2.916   0.273  -1.679  0.00  0.00    +0.000 N 
ATOM      8  C   UNL     1       4.254  -0.114  -1.482  0.00  0.00    +0.000 C 
ATOM      9  O   UNL     1       4.714   0.178  -0.335  0.00  0.00    +0.000 OA
ATOM     10  H   UNL     1       2.626   0.819  -2.445  0.00  0.00    +0.000 HD
BRANCH   8  11
ATOM     11  O   UNL     1       5.132  -0.803  -2.258  0.00  0.00    +0.000 OA
BRANCH  11  12
ATOM     12  C   UNL     1       6.079  -1.735  -1.857  0.00  0.00    +0.000 C 
BRANCH  12  13
ATOM     13  C   UNL     1       7.372  -1.269  -1.407  0.00  0.00    +0.000 A 
ATOM     14  C   UNL     1       8.354  -2.248  -1.262  0.00  0.00    +0.000 A 
ATOM     15  C   UNL     1       9.514  -2.029  -0.547  0.00  0.00    +0.000 A 
ATOM     16  C   UNL     1       9.959  -0.715  -0.475  0.00  0.00    +0.000 A 
ATOM     17  C   UNL     1       8.965   0.238  -0.362  0.00  0.00    +0.000 A 
ATOM     18  C   UNL     1       7.684  -0.083  -0.796  0.00  0.00    +0.000 A 
ENDBRANCH  12  13
ENDBRANCH  11  12
ENDBRANCH   8  11
ENDBRANCH   6   7
BRANCH   6  19
ATOM     19  C   UNL     1       2.823   0.413   0.639  0.00  0.00    +0.000 C 
BRANCH  19  21
ATOM     20  C   UNL     1       3.113  -0.148   2.785  0.00  0.00    +0.000 C 
ATOM     21  C   UNL     1       2.698  -0.472   1.823  0.00  0.00    +0.000 C 
ATOM     22  C   UNL     1       1.930  -1.713   1.554  0.00  0.00    +0.000 C 
ENDBRANCH  19  21
ENDBRANCH   6  19
ENDBRANCH   2   6
ENDBRANCH   1   4
BRANCH   1  23
ATOM     23  C   UNL     1      -2.591   1.352   0.138  0.00  0.00    +0.000 C 
ATOM     24  O   UNL     1      -3.188   1.363   1.265  0.00  0.00    +0.000 OA
ATOM     25  N   UNL     1      -3.354   1.130  -0.960  0.00  0.00    +0.000 N 
ATOM     26  H   UNL     1      -2.884   0.930  -1.801  0.00  0.00    +0.000 HD
BRANCH  25  27
ATOM     27  C   UNL     1      -4.921   1.164  -1.007  0.00  0.00    +0.000 C 
BRANCH  27  28
ATOM     28  C   UNL     1      -5.011   2.766  -0.847  0.00  0.00    +0.000 C 
ATOM     29  O   UNL     1      -4.480   3.353   0.009  0.00  0.00    +0.000 OA
BRANCH  28  30
ATOM     30  C   UNL     1      -6.269   3.382  -1.343  0.00  0.00    +0.000 C 
ATOM     31  F   UNL     1      -7.079   3.804  -0.311  0.00  0.00    +0.000 F 
ENDBRANCH  28  30
ENDBRANCH  27  28
BRANCH  27  32
ATOM     32  C   UNL     1      -5.150   0.882   0.600  0.00  0.00    +0.000 C 
BRANCH  32  33
ATOM     33  C   UNL     1      -5.748  -0.492   0.617  0.00  0.00    +0.000 A 
ATOM     34  C   UNL     1      -6.955  -0.746  -0.016  0.00  0.00    +0.000 A 
ATOM     35  C   UNL     1      -7.271  -2.074  -0.273  0.00  0.00    +0.000 A 
ATOM     36  C   UNL     1      -6.295  -3.053  -0.125  0.00  0.00    +0.000 A 
ATOM     37  C   UNL     1      -5.140  -2.791   0.601  0.00  0.00    +0.000 A 
ATOM     38  C   UNL     1      -5.137  -1.565   1.255  0.00  0.00    +0.000 A 
BRANCH  36  39
ATOM     39  O   UNL     1      -6.427  -4.248  -0.798  0.00  0.00    +0.000 OA
ATOM     40  H   UNL     1      -7.206  -4.426  -1.288  0.00  0.00    +0.000 HD
ENDBRANCH  36  39
ENDBRANCH  32  33
ENDBRANCH  27  32
ENDBRANCH  25  27
ENDBRANCH   1  23
BRANCH   1  41
ATOM     41  C   UNL     1      -0.660   1.403   1.464  0.00  0.00    +0.000 C 
BRANCH  41  42
ATOM     42  C   UNL     1      -0.967   0.656   2.759  0.00  0.00    +0.000 C 
ATOM     43  C   UNL     1      -0.918  -0.851   2.575  0.00  0.00    +0.000 C 
ATOM     44  C   UNL     1       0.077   0.982   3.811  0.00  0.00    +0.000 C 
ENDBRANCH  41  42
ENDBRANCH   1  41
TORSDOF 17
