REMARK  Name = 
REMARK  20 active torsions:
REMARK  status: ('A' for Active; 'I' for Inactive)
REMARK    1  A    between atoms: C_2  and  C_4
REMARK    2  A    between atoms: C_4  and  C_5
REMARK    3  A    between atoms: C_4  and  N_13
REMARK    4  A    between atoms: C_5  and  C_6
REMARK    5  A    between atoms: C_6  and  C_7
REMARK    6  A    between atoms: C_7  and  C_8
REMARK    7  A    between atoms: C_8  and  N_9
REMARK    8  A    between atoms: C_14  and  C_16
REMARK    9  A    between atoms: C_16  and  C_17
REMARK   10  A    between atoms: C_16  and  N_25
REMARK   11  A    between atoms: C_17  and  C_18
REMARK   12  A    between atoms: C_21  and  O_22
REMARK   13  A    between atoms: C_26  and  C_28
REMARK   14  A    between atoms: C_32  and  C_34
REMARK   15  A    between atoms: C_34  and  C_35
REMARK   16  A    between atoms: C_34  and  N_42
REMARK   17  A    between atoms: C_35  and  C_36
REMARK   18  A    between atoms: C_43  and  C_45
REMARK   19  A    between atoms: C_48  and  C_51
REMARK   20  A    between atoms: C_51  and  N_52
REMARK                            x       y       z     vdW  Elec       q    Type
REMARK                         _______ _______ _______ _____ _____    ______ ____
ROOT
ATOM      1  N   UNL     1      -2.786  -6.329   0.000  0.00  0.00    +0.000 N 
ATOM      2  C   UNL     1      -2.071  -5.916   0.000  0.00  0.00    +0.000 C 
ATOM      3  O   UNL     1      -2.071  -5.091   0.000  0.00  0.00    +0.000 OA
ATOM      4  H   UNL     1      -2.786  -7.313   0.000  0.00  0.00    +0.000 HD
ENDROOT
BRANCH   2   5
ATOM      5  C   UNL     1      -1.357  -6.329   0.000  0.00  0.00    +0.000 C 
ATOM      6  C   UNL     1      -1.143  -7.126   0.000  0.00  0.00    +0.000 C 
ATOM      7  C   UNL     1      -0.347  -6.912   0.000  0.00  0.00    +0.000 C 
ATOM      8  N   UNL     1      -0.560  -6.115   0.000  0.00  0.00    +0.000 N 
ATOM      9  C   UNL     1      -0.148  -5.401   0.000  0.00  0.00    +0.000 C 
ATOM     10  O   UNL     1      -0.560  -4.686   0.000  0.00  0.00    +0.000 OA
BRANCH   9  11
ATOM     11  C   UNL     1       0.677  -5.401   0.000  0.00  0.00    +0.000 C 
BRANCH  11  12
ATOM     12  N   UNL     1       1.090  -6.115   0.000  0.00  0.00    +0.000 N 
ATOM     13  C   UNL     1       1.915  -6.115   0.000  0.00  0.00    +0.000 C 
ATOM     14  O   UNL     1       2.327  -6.830   0.000  0.00  0.00    +0.000 OA
ATOM     15  H   UNL     1       0.598  -6.968   0.000  0.00  0.00    +0.000 HD
BRANCH  13  16
ATOM     16  C   UNL     1       2.327  -5.401   0.000  0.00  0.00    +0.000 C 
ATOM     17  C   UNL     1       1.915  -4.686   0.000  0.00  0.00    +0.000 C 
ATOM     18  C   UNL     1       2.327  -3.972   0.000  0.00  0.00    +0.000 C 
ATOM     19  C   UNL     1       3.152  -3.972   0.000  0.00  0.00    +0.000 C 
ATOM     20  C   UNL     1       3.565  -4.686   0.000  0.00  0.00    +0.000 C 
ATOM     21  C   UNL     1       3.152  -5.401   0.000  0.00  0.00    +0.000 C 
BRANCH  19  22
ATOM     22  C   UNL     1       3.565  -3.257   0.000  0.00  0.00    +0.000 C 
BRANCH  22  23
ATOM     23  N   UNL     1       4.390  -3.257   0.000  0.00  0.00    +0.000 NA
ATOM     24  C   UNL     1       4.802  -2.543   0.000  0.00  0.00    +0.000 C 
ATOM     25  N   UNL     1       4.390  -1.828   0.000  0.00  0.00    +0.000 N 
ATOM     26  N   UNL     1       5.627  -2.543   0.000  0.00  0.00    +0.000 N 
ATOM     27  H   UNL     1       4.882  -0.976   0.000  0.00  0.00    +0.000 HD
ATOM     28  H   UNL     1       3.405  -1.828   0.000  0.00  0.00    +0.000 HD
ATOM     29  H   UNL     1       6.120  -3.396   0.000  0.00  0.00    +0.000 HD
ATOM     30  H   UNL     1       6.120  -1.690   0.000  0.00  0.00    +0.000 HD
ENDBRANCH  22  23
ENDBRANCH  19  22
ENDBRANCH  13  16
ENDBRANCH  11  12
BRANCH  11  31
ATOM     31  C   UNL     1       1.090  -4.686   0.000  0.00  0.00    +0.000 C 
BRANCH  31  32
ATOM     32  C   UNL     1       0.677  -3.972   0.000  0.00  0.00    +0.000 C 
ATOM     33  C   UNL     1      -0.148  -3.972   0.000  0.00  0.00    +0.000 C 
ATOM     34  C   UNL     1      -0.560  -3.257   0.000  0.00  0.00    +0.000 C 
ATOM     35  C   UNL     1      -0.148  -2.543   0.000  0.00  0.00    +0.000 C 
ATOM     36  C   UNL     1       0.677  -2.543   0.000  0.00  0.00    +0.000 C 
ATOM     37  C   UNL     1       1.090  -3.257   0.000  0.00  0.00    +0.000 C 
ENDBRANCH  31  32
ENDBRANCH  11  31
ENDBRANCH   9  11
ENDBRANCH   2   5
BRANCH   1  38
ATOM     38  C   UNL     1      -3.501  -5.916   0.000  0.00  0.00    +0.000 C 
BRANCH  38  40
ATOM     39  N   UNL     1      -4.929  -5.916   0.000  0.00  0.00    +0.000 N 
ATOM     40  C   UNL     1      -4.215  -6.329   0.000  0.00  0.00    +0.000 C 
ATOM     41  O   UNL     1      -4.215  -7.154   0.000  0.00  0.00    +0.000 OA
ATOM     42  H   UNL     1      -4.929  -4.932   0.000  0.00  0.00    +0.000 HD
BRANCH  39  43
ATOM     43  C   UNL     1      -5.644  -6.329   0.000  0.00  0.00    +0.000 C 
BRANCH  43  45
ATOM     44  N   UNL     1      -4.929  -7.566   0.000  0.00  0.00    +0.000 N 
ATOM     45  C   UNL     1      -5.644  -7.154   0.000  0.00  0.00    +0.000 C 
ATOM     46  O   UNL     1      -6.358  -7.566   0.000  0.00  0.00    +0.000 OA
ATOM     47  H   UNL     1      -4.929  -8.551   0.000  0.00  0.00    +0.000 HD
ATOM     48  H   UNL     1      -4.077  -7.074   0.000  0.00  0.00    +0.000 HD
ENDBRANCH  43  45
BRANCH  43  49
ATOM     49  C   UNL     1      -6.358  -5.916   0.000  0.00  0.00    +0.000 C 
BRANCH  49  50
ATOM     50  C   UNL     1      -7.073  -6.329   0.000  0.00  0.00    +0.000 C 
BRANCH  50  51
ATOM     51  C   UNL     1      -7.787  -5.916   0.000  0.00  0.00    +0.000 C 
BRANCH  51  52
ATOM     52  C   UNL     1      -8.502  -6.329   0.000  0.00  0.00    +0.000 C 
BRANCH  52  53
ATOM     53  N   UNL     1      -8.502  -7.154   0.000  0.00  0.00    +0.000 NA
ATOM     54  C   UNL     1      -9.216  -7.566   0.000  0.00  0.00    +0.000 C 
ATOM     55  N   UNL     1      -9.931  -7.154   0.000  0.00  0.00    +0.000 N 
ATOM     56  N   UNL     1      -9.216  -8.391   0.000  0.00  0.00    +0.000 N 
ATOM     57  H   UNL     1      -9.931  -6.169   0.000  0.00  0.00    +0.000 HD
ATOM     58  H   UNL     1     -10.783  -7.646   0.000  0.00  0.00    +0.000 HD
ATOM     59  H   UNL     1     -10.069  -8.883   0.000  0.00  0.00    +0.000 HD
ATOM     60  H   UNL     1      -8.364  -8.883   0.000  0.00  0.00    +0.000 HD
ENDBRANCH  52  53
ENDBRANCH  51  52
ENDBRANCH  50  51
ENDBRANCH  49  50
ENDBRANCH  43  49
ENDBRANCH  39  43
ENDBRANCH  38  40
BRANCH  38  61
ATOM     61  C   UNL     1      -3.501  -5.091   0.000  0.00  0.00    +0.000 C 
BRANCH  61  62
ATOM     62  C   UNL     1      -4.215  -4.679   0.000  0.00  0.00    +0.000 A 
ATOM     63  C   UNL     1      -4.929  -5.091   0.000  0.00  0.00    +0.000 A 
ATOM     64  C   UNL     1      -5.644  -4.679   0.000  0.00  0.00    +0.000 A 
ATOM     65  C   UNL     1      -5.644  -3.854   0.000  0.00  0.00    +0.000 A 
ATOM     66  C   UNL     1      -4.929  -3.441   0.000  0.00  0.00    +0.000 A 
ATOM     67  C   UNL     1      -4.215  -3.854   0.000  0.00  0.00    +0.000 A 
BRANCH  65  68
ATOM     68  O   UNL     1      -6.358  -3.441   0.000  0.00  0.00    +0.000 OA
ATOM     69  H   UNL     1      -6.358  -2.504   0.000  0.00  0.00    +0.000 HD
ENDBRANCH  65  68
ENDBRANCH  61  62
ENDBRANCH  38  61
ENDBRANCH   1  38
TORSDOF 20
