REMARK  Name = 
REMARK  18 active torsions:
REMARK  status: ('A' for Active; 'I' for Inactive)
REMARK    1  A    between atoms: C_1  and  C_2
REMARK    2  A    between atoms: C_2  and  C_3
REMARK    3  A    between atoms: C_3  and  S_4
REMARK    4  A    between atoms: S_4  and  N_7
REMARK    5  A    between atoms: N_7  and  C_8
REMARK    6  A    between atoms: C_8  and  C_9
REMARK    7  A    between atoms: C_8  and  C_30
REMARK    8  A    between atoms: N_11  and  C_12
REMARK    9  A    between atoms: C_12  and  C_13
REMARK   10  A    between atoms: C_12  and  C_17
REMARK   11  A    between atoms: C_13  and  C_14
REMARK   12  A    between atoms: C_14  and  S_15
REMARK   13  A    between atoms: S_15  and  C_16
REMARK   14  A    between atoms: N_19  and  C_20
REMARK   15  A    between atoms: C_20  and  C_21
REMARK   16  A    between atoms: C_24  and  C_25
REMARK   17  A    between atoms: C_30  and  C_31
REMARK   18  A    between atoms: C_30  and  O_32
REMARK                            x       y       z     vdW  Elec       q    Type
REMARK                         _______ _______ _______ _____ _____    ______ ____
ROOT
ATOM      1  C   UNL     1       0.261   0.271   0.104  0.00  0.00    +0.000 C 
ENDROOT
BRANCH   1   4
ATOM      2  C   UNL     1       2.434  -0.608   0.626  0.00  0.00    +0.000 C 
ATOM      3  O   UNL     1       2.036  -1.658   1.227  0.00  0.00    +0.000 OA
ATOM      4  N   UNL     1       1.597   0.455   0.983  0.00  0.00    +0.000 N 
ATOM      5  H   UNL     1       1.786   1.168   1.636  0.00  0.00    +0.000 HD
BRANCH   2   6
ATOM      6  C   UNL     1       4.042  -0.479   0.673  0.00  0.00    +0.000 C 
BRANCH   6   7
ATOM      7  N   UNL     1       4.069   0.974   0.044  0.00  0.00    +0.000 NA
ATOM      8  H   UNL     1       3.397   1.036  -0.721  0.00  0.00    +0.000 HD
BRANCH   7   9
ATOM      9  S   UNL     1       5.651   1.236  -0.544  0.00  0.00    +0.000 S 
ATOM     10  O   UNL     1       6.040   0.363  -1.688  0.00  0.00    +0.000 OA
ATOM     11  O   UNL     1       5.624   2.639  -1.106  0.00  0.00    +0.000 OA
BRANCH   9  12
ATOM     12  C   UNL     1       6.900   1.196   0.700  0.00  0.00    +0.000 C 
BRANCH  12  14
ATOM     13  C   UNL     1       8.534  -0.095   0.103  0.00  0.00    +0.000 C 
ATOM     14  C   UNL     1       8.184   0.713   0.032  0.00  0.00    +0.000 C 
ENDBRANCH  12  14
ENDBRANCH   9  12
ENDBRANCH   7   9
ENDBRANCH   6   7
BRANCH   6  15
ATOM     15  C   UNL     1       4.292  -1.259  -0.886  0.00  0.00    +0.000 C 
ATOM     16  C   UNL     1       3.064  -0.433  -1.640  0.00  0.00    +0.000 C 
BRANCH  15  17
ATOM     17  O   UNL     1       3.379  -2.439  -0.553  0.00  0.00    +0.000 OA
ATOM     18  H   UNL     1       2.549  -2.109  -0.176  0.00  0.00    +0.000 HD
ENDBRANCH  15  17
ENDBRANCH   6  15
ENDBRANCH   2   6
ENDBRANCH   1   4
BRANCH   1  19
ATOM     19  C   UNL     1      -0.722   0.899   1.254  0.00  0.00    +0.000 C 
ATOM     20  O   UNL     1      -0.562   0.478   2.394  0.00  0.00    +0.000 OA
ATOM     21  N   UNL     1      -2.056   1.110   0.786  0.00  0.00    +0.000 N 
ATOM     22  H   UNL     1      -2.166   1.585  -0.069  0.00  0.00    +0.000 HD
BRANCH  21  23
ATOM     23  C   UNL     1      -3.254   0.682   1.467  0.00  0.00    +0.000 C 
BRANCH  23  24
ATOM     24  C   UNL     1      -4.240   0.244   0.428  0.00  0.00    +0.000 A 
ATOM     25  C   UNL     1      -4.927   1.153  -0.367  0.00  0.00    +0.000 A 
ATOM     26  C   UNL     1      -6.277   0.997  -0.666  0.00  0.00    +0.000 A 
ATOM     27  C   UNL     1      -6.945  -0.156  -0.264  0.00  0.00    +0.000 A 
ATOM     28  C   UNL     1      -6.112  -1.230   0.034  0.00  0.00    +0.000 A 
ATOM     29  C   UNL     1      -4.780  -1.035   0.394  0.00  0.00    +0.000 A 
BRANCH  27  30
ATOM     30  C   UNL     1      -8.342  -0.107   0.196  0.00  0.00    +0.000 C 
ATOM     31  N   UNL     1      -9.343  -0.032  -0.595  0.00  0.00    +0.000 NA
ATOM     32  N   UNL     1      -8.570   0.039   1.604  0.00  0.00    +0.000 N 
ATOM     33  H   UNL     1      -9.212  -0.128  -1.566  0.00  0.00    +0.000 HD
ATOM     34  H   UNL     1      -7.815  -0.015   2.233  0.00  0.00    +0.000 HD
ATOM     35  H   UNL     1      -9.482   0.192   1.941  0.00  0.00    +0.000 HD
ENDBRANCH  27  30
ENDBRANCH  23  24
ENDBRANCH  21  23
ENDBRANCH   1  19
BRANCH   1  36
ATOM     36  C   UNL     1       0.003  -1.296   0.635  0.00  0.00    +0.000 C 
BRANCH  36  37
ATOM     37  C   UNL     1      -0.517  -1.924  -0.628  0.00  0.00    +0.000 C 
BRANCH  37  38
ATOM     38  S   UNL     1       0.484  -1.464  -2.079  0.00  0.00    +0.000 S 
ATOM     39  C   UNL     1       0.054   0.191  -2.666  0.00  0.00    +0.000 C 
ENDBRANCH  37  38
ENDBRANCH  36  37
ENDBRANCH   1  36
TORSDOF 15
