REMARK  Name = 9574101
REMARK  13 active torsions:
REMARK  status: ('A' for Active; 'I' for Inactive)
REMARK    1  A    between atoms: O_3  and  C_24
REMARK    2  A    between atoms: O_3  and  C_29
REMARK    3  A    between atoms: O_5  and  N_10
REMARK    4  A    between atoms: N_7  and  C_12
REMARK    5  A    between atoms: N_7  and  C_23
REMARK    6  A    between atoms: N_8  and  C_25
REMARK    7  A    between atoms: C_11  and  C_12
REMARK    8  A    between atoms: C_12  and  C_21
REMARK    9  A    between atoms: C_17  and  C_22
REMARK   10  A    between atoms: C_23  and  C_24
REMARK   11  A    between atoms: C_25  and  C_26
REMARK   12  A    between atoms: C_29  and  C_33
REMARK   13  A    between atoms: C_32  and  C_34
REMARK                            x       y       z     vdW  Elec       q    Type
REMARK                         _______ _______ _______ _____ _____    ______ ____
ROOT
ATOM      1  O   UNL     1      -1.602   0.841  -1.445  0.00  0.00    +0.000 OA
ATOM      2  N   UNL     1      -2.253   1.724   0.572  0.00  0.00    +0.000 N 
ATOM      3  C   UNL     1      -1.864   3.119   0.582  0.00  0.00    +0.000 C 
ATOM      4  C   UNL     1      -2.821   1.737   1.905  0.00  0.00    +0.000 C 
ATOM      5  C   UNL     1      -2.765   3.266   1.814  0.00  0.00    +0.000 C 
ATOM      6  C   UNL     1      -2.110   0.709  -0.333  0.00  0.00    +0.000 C 
ENDROOT
BRANCH   3   9
ATOM      7  O   UNL     1       0.199   3.333   1.868  0.00  0.00    +0.000 OA
ATOM      8  N   UNL     1       0.313   3.584  -0.429  0.00  0.00    +0.000 N 
ATOM      9  C   UNL     1      -0.355   3.355   0.764  0.00  0.00    +0.000 C 
ATOM     10  H   UNL     1      -0.211   3.565  -1.300  0.00  0.00    +0.000 HD
BRANCH   8  11
ATOM     11  C   UNL     1       1.737   3.822  -0.507  0.00  0.00    +0.000 C 
BRANCH  11  12
ATOM     12  C   UNL     1       2.511   2.547  -0.675  0.00  0.00    +0.000 A 
ATOM     13  C   UNL     1       2.787   2.063  -1.954  0.00  0.00    +0.000 A 
ATOM     14  C   UNL     1       2.953   1.845   0.446  0.00  0.00    +0.000 A 
ATOM     15  C   UNL     1       3.506   0.878  -2.111  0.00  0.00    +0.000 A 
ATOM     16  C   UNL     1       3.672   0.660   0.289  0.00  0.00    +0.000 A 
ATOM     17  C   UNL     1       3.948   0.177  -0.990  0.00  0.00    +0.000 A 
BRANCH  17  20
ATOM     18  N   UNL     1       5.644  -1.429  -0.191  0.00  0.00    +0.000 N 
ATOM     19  N   UNL     1       4.455  -1.806  -2.221  0.00  0.00    +0.000 NA
ATOM     20  C   UNL     1       4.697  -1.059  -1.154  0.00  0.00    +0.000 C 
ATOM     21  H   UNL     1       6.168  -2.292  -0.292  0.00  0.00    +0.000 HD
ATOM     22  H   UNL     1       5.873  -0.841   0.603  0.00  0.00    +0.000 HD
BRANCH  19  23
ATOM     23  O   UNL     1       5.244  -2.961  -2.248  0.00  0.00    +0.000 OA
ATOM     24  H   UNL     1       4.946  -3.381  -3.072  0.00  0.00    +0.000 HD
ENDBRANCH  19  23
ENDBRANCH  17  20
ENDBRANCH  11  12
ENDBRANCH   8  11
ENDBRANCH   3   9
BRANCH   6  25
ATOM     25  C   UNL     1      -2.629  -0.622   0.140  0.00  0.00    +0.000 C 
BRANCH  25  26
ATOM     26  C   UNL     1      -3.721  -1.126  -0.801  0.00  0.00    +0.000 C 
ATOM     27  C   UNL     1      -4.231  -2.503  -0.353  0.00  0.00    +0.000 C 
ATOM     28  C   UNL     1      -4.875  -0.117  -0.883  0.00  0.00    +0.000 C 
ATOM     29  C   UNL     1      -5.361  -3.005  -1.248  0.00  0.00    +0.000 C 
ATOM     30  C   UNL     1      -6.004  -0.623  -1.777  0.00  0.00    +0.000 C 
ATOM     31  C   UNL     1      -6.502  -1.995  -1.334  0.00  0.00    +0.000 C 
ENDBRANCH  25  26
BRANCH  25  32
ATOM     32  N   UNL     1      -1.508  -1.548   0.160  0.00  0.00    +0.000 NA
ATOM     33  H   UNL     1      -0.939  -1.447  -0.680  0.00  0.00    +0.000 HD
BRANCH  32  34
ATOM     34  C   UNL     1      -0.703  -1.370   1.361  0.00  0.00    +0.000 C 
BRANCH  34  36
ATOM     35  O   UNL     1       0.645  -3.189   0.466  0.00  0.00    +0.000 OA
ATOM     36  C   UNL     1       0.435  -2.360   1.341  0.00  0.00    +0.000 C 
BRANCH  36  37
ATOM     37  O   UNL     1       1.192  -2.178   2.465  0.00  0.00    +0.000 OA
BRANCH  37  38
ATOM     38  C   UNL     1       2.320  -3.049   2.597  0.00  0.00    +0.000 C 
ATOM     39  C   UNL     1       3.048  -2.722   3.883  0.00  0.00    +0.000 C 
ENDBRANCH  37  38
ENDBRANCH  36  37
ENDBRANCH  34  36
ENDBRANCH  32  34
ENDBRANCH  25  32
ENDBRANCH   6  25
TORSDOF 12
