REMARK  Name = 
REMARK  59 active torsions:
REMARK  status: ('A' for Active; 'I' for Inactive)
REMARK    1  A    between atoms: O_12  and  C_99
REMARK    2  A    between atoms: O_13  and  C_103
REMARK    3  A    between atoms: O_17  and  C_113
REMARK    4  A    between atoms: O_18  and  C_116
REMARK    5  A    between atoms: N_21  and  C_49
REMARK    6  A    between atoms: N_22  and  C_47
REMARK    7  A    between atoms: N_24  and  C_57
REMARK    8  A    between atoms: N_25  and  C_58
REMARK    9  A    between atoms: N_26  and  C_59
REMARK   10  A    between atoms: N_27  and  C_63
REMARK   11  A    between atoms: N_29  and  C_70
REMARK   12  A    between atoms: N_30  and  C_75
REMARK   13  A    between atoms: N_31  and  C_77
REMARK   14  A    between atoms: N_32  and  C_73
REMARK   15  A    between atoms: N_33  and  C_78
REMARK   16  A    between atoms: N_35  and  C_92
REMARK   17  A    between atoms: N_37  and  C_100
REMARK   18  A    between atoms: N_40  and  C_110
REMARK   19  A    between atoms: C_41  and  C_46
REMARK   20  A    between atoms: C_45  and  C_47
REMARK   21  A    between atoms: C_47  and  C_48
REMARK   22  A    between atoms: C_48  and  C_50
REMARK   23  A    between atoms: C_49  and  C_51
REMARK   24  A    between atoms: C_49  and  C_53
REMARK   25  A    between atoms: C_50  and  C_52
REMARK   26  A    between atoms: C_51  and  C_54
REMARK   27  A    between atoms: C_51  and  C_55
REMARK   28  A    between atoms: C_52  and  C_57
REMARK   29  A    between atoms: C_56  and  C_58
REMARK   30  A    between atoms: C_59  and  C_60
REMARK   31  A    between atoms: C_59  and  C_61
REMARK   32  A    between atoms: C_61  and  C_62
REMARK   33  A    between atoms: C_63  and  C_64
REMARK   34  A    between atoms: C_63  and  C_65
REMARK   35  A    between atoms: C_65  and  C_69
REMARK   36  A    between atoms: C_69  and  C_73
REMARK   37  A    between atoms: C_70  and  C_71
REMARK   38  A    between atoms: C_70  and  C_74
REMARK   39  A    between atoms: C_74  and  C_86
REMARK   40  A    between atoms: C_75  and  C_79
REMARK   41  A    between atoms: C_75  and  C_82
REMARK   42  A    between atoms: C_77  and  C_84
REMARK   43  A    between atoms: C_77  and  C_85
REMARK   44  A    between atoms: C_78  and  C_81
REMARK   45  A    between atoms: C_78  and  C_87
REMARK   46  A    between atoms: C_81  and  C_88
REMARK   47  A    between atoms: C_82  and  C_89
REMARK   48  A    between atoms: C_84  and  C_90
REMARK   49  A    between atoms: C_88  and  C_91
REMARK   50  A    between atoms: C_90  and  C_103
REMARK   51  A    between atoms: C_91  and  C_97
REMARK   52  A    between atoms: C_92  and  C_93
REMARK   53  A    between atoms: C_92  and  C_99
REMARK   54  A    between atoms: C_100  and  C_104
REMARK   55  A    between atoms: C_100  and  C_105
REMARK   56  A    between atoms: C_105  and  C_108
REMARK   57  A    between atoms: C_109  and  C_110
REMARK   58  A    between atoms: C_110  and  C_113
REMARK   59  A    between atoms: C_117  and  C_118
REMARK                            x       y       z     vdW  Elec       q    Type
REMARK                         _______ _______ _______ _____ _____    ______ ____
ROOT
ATOM      1  C   UNK A   1       6.408   0.594   0.000  0.00  0.00    +0.000 C 
ENDROOT
BRANCH   1   4
ATOM      2  O   UNK A   1       5.829   1.900   0.000  0.00  0.00    +0.000 OA
ATOM      3  N   UNK A   1       4.987   0.745   0.000  0.00  0.00    +0.000 N 
ATOM      4  C   UNK A   1       5.742   1.079   0.000  0.00  0.00    +0.000 C 
ATOM      5  H   UNK A   1       4.883  -0.234   0.000  0.00  0.00    +0.000 HD
BRANCH   3   6
ATOM      6  C   UNK A   1       4.321   1.231   0.000  0.00  0.00    +0.000 C 
BRANCH   6   9
ATOM      7  O   UNK A   1       3.479   0.077   0.000  0.00  0.00    +0.000 OA
ATOM      8  N   UNK A   1       2.900   1.383   0.000  0.00  0.00    +0.000 N 
ATOM      9  C   UNK A   1       3.567   0.897   0.000  0.00  0.00    +0.000 C 
ATOM     10  H   UNK A   1       3.005   2.362   0.000  0.00  0.00    +0.000 HD
BRANCH   8  11
ATOM     11  C   UNK A   1       2.146   1.049   0.000  0.00  0.00    +0.000 C 
BRANCH  11  14
ATOM     12  O   UNK A   1       2.725  -0.257   0.000  0.00  0.00    +0.000 OA
ATOM     13  N   UNK A   1       1.304  -0.106   0.000  0.00  0.00    +0.000 N 
ATOM     14  C   UNK A   1       2.058   0.229   0.000  0.00  0.00    +0.000 C 
ATOM     15  H   UNK A   1       0.508   0.474   0.000  0.00  0.00    +0.000 HD
BRANCH  13  16
ATOM     16  C   UNK A   1       1.216  -0.926   0.000  0.00  0.00    +0.000 C 
BRANCH  16  19
ATOM     17  O   UNK A   1      -0.205  -0.774   0.000  0.00  0.00    +0.000 OA
ATOM     18  N   UNK A   1       0.374  -2.080   0.000  0.00  0.00    +0.000 N 
ATOM     19  C   UNK A   1       0.462  -1.260   0.000  0.00  0.00    +0.000 C 
ATOM     20  H   UNK A   1       1.170  -2.661   0.000  0.00  0.00    +0.000 HD
BRANCH  18  21
ATOM     21  C   UNK A   1      -0.380  -2.415   0.000  0.00  0.00    +0.000 C 
BRANCH  21  28
ATOM     22  O   UNK A   1       0.199  -3.721   0.000  0.00  0.00    +0.000 OA
ATOM     23  N   UNK A   1      -1.222  -3.569   0.000  0.00  0.00    +0.000 N 
ATOM     24  C   UNK A   1      -1.395  -4.376   0.000  0.00  0.00    +0.000 C 
ATOM     25  C   UNK A   1      -2.215  -4.461   0.000  0.00  0.00    +0.000 C 
ATOM     26  C   UNK A   1      -2.550  -3.707   0.000  0.00  0.00    +0.000 C 
ATOM     27  C   UNK A   1      -1.936  -3.156   0.000  0.00  0.00    +0.000 C 
ATOM     28  C   UNK A   1      -0.468  -3.235   0.000  0.00  0.00    +0.000 C 
BRANCH  24  31
ATOM     29  O   UNK A   1      -0.037  -4.820   0.000  0.00  0.00    +0.000 OA
ATOM     30  N   UNK A   1      -1.100  -5.774   0.000  0.00  0.00    +0.000 N 
ATOM     31  C   UNK A   1      -0.844  -4.990   0.000  0.00  0.00    +0.000 C 
ATOM     32  H   UNK A   1      -2.063  -5.977   0.000  0.00  0.00    +0.000 HD
BRANCH  30  33
ATOM     33  C   UNK A   1      -0.549  -6.388   0.000  0.00  0.00    +0.000 C 
BRANCH  33  36
ATOM     34  O   UNK A   1      -1.613  -7.343   0.000  0.00  0.00    +0.000 OA
ATOM     35  N   UNK A   1      -0.255  -7.787   0.000  0.00  0.00    +0.000 N 
ATOM     36  C   UNK A   1      -0.805  -7.172   0.000  0.00  0.00    +0.000 C 
ATOM     37  H   UNK A   1      -0.560  -8.722   0.000  0.00  0.00    +0.000 HD
ATOM     38  H   UNK A   1       0.709  -7.583   0.000  0.00  0.00    +0.000 HD
ENDBRANCH  33  36
BRANCH  33  39
ATOM     39  C   UNK A   1       0.258  -6.218   0.000  0.00  0.00    +0.000 C 
ATOM     40  C   UNK A   1       0.514  -5.434   0.000  0.00  0.00    +0.000 C 
ATOM     41  C   UNK A   1       0.809  -6.832   0.000  0.00  0.00    +0.000 C 
ENDBRANCH  33  39
ENDBRANCH  30  33
ENDBRANCH  24  31
ENDBRANCH  21  28
BRANCH  21  42
ATOM     42  C   UNK A   1      -1.047  -1.929   0.000  0.00  0.00    +0.000 C 
BRANCH  42  43
ATOM     43  C   UNK A   1      -1.801  -2.263   0.000  0.00  0.00    +0.000 C 
BRANCH  43  44
ATOM     44  C   UNK A   1      -2.467  -1.777   0.000  0.00  0.00    +0.000 C 
BRANCH  44  45
ATOM     45  C   UNK A   1      -3.222  -2.111   0.000  0.00  0.00    +0.000 C 
BRANCH  45  46
ATOM     46  N   UNK A   1      -3.309  -2.931   0.000  0.00  0.00    +0.000 NA
ATOM     47  H   UNK A   1      -4.242  -3.344   0.000  0.00  0.00    +0.000 HD
ATOM     48  H   UNK A   1      -2.485  -3.533   0.000  0.00  0.00    +0.000 HD
ENDBRANCH  45  46
ENDBRANCH  44  45
ENDBRANCH  43  44
ENDBRANCH  42  43
ENDBRANCH  21  42
ENDBRANCH  18  21
ENDBRANCH  16  19
ENDBRANCH  13  16
ENDBRANCH  11  14
BRANCH  11  49
ATOM     49  C   UNK A   1       1.479   1.535   0.000  0.00  0.00    +0.000 C 
BRANCH  49  51
ATOM     50  N   UNK A   1      -0.640   1.347   0.000  0.00  0.00    +0.000 N 
ATOM     51  C   UNK A   1       0.659   1.623   0.000  0.00  0.00    +0.000 A 
ATOM     52  C   UNK A   1       0.251   2.334   0.000  0.00  0.00    +0.000 A 
ATOM     53  C   UNK A   1       0.109   1.014   0.000  0.00  0.00    +0.000 A 
ATOM     54  C   UNK A   1      -0.556   2.163   0.000  0.00  0.00    +0.000 A 
ATOM     55  C   UNK A   1       0.505   3.119   0.000  0.00  0.00    +0.000 A 
ATOM     56  C   UNK A   1      -1.108   2.776   0.000  0.00  0.00    +0.000 A 
ATOM     57  C   UNK A   1      -0.046   3.732   0.000  0.00  0.00    +0.000 A 
ATOM     58  C   UNK A   1      -0.854   3.560   0.000  0.00  0.00    +0.000 A 
ATOM     59  H   UNK A   1      -1.492   0.853   0.000  0.00  0.00    +0.000 HD
ENDBRANCH  49  51
ENDBRANCH  11  49
ENDBRANCH   8  11
ENDBRANCH   6   9
BRANCH   6  60
ATOM     60  C   UNK A   1       4.409   2.052   0.000  0.00  0.00    +0.000 C 
BRANCH  60  61
ATOM     61  C   UNK A   1       3.742   2.538   0.000  0.00  0.00    +0.000 C 
BRANCH  61  62
ATOM     62  C   UNK A   1       3.829   3.358   0.000  0.00  0.00    +0.000 C 
BRANCH  62  63
ATOM     63  N   UNK A   1       3.163   3.844   0.000  0.00  0.00    +0.000 N 
ATOM     64  N   UNK A   1       4.005   4.999   0.000  0.00  0.00    +0.000 N 
ATOM     65  N   UNK A   1       2.584   5.151   0.000  0.00  0.00    +0.000 NA
ATOM     66  C   UNK A   1       3.251   4.665   0.000  0.00  0.00    +0.000 C 
ATOM     67  H   UNK A   1       2.263   3.445   0.000  0.00  0.00    +0.000 HD
ATOM     68  H   UNK A   1       4.800   4.419   0.000  0.00  0.00    +0.000 HD
ATOM     69  H   UNK A   1       4.109   5.978   0.000  0.00  0.00    +0.000 HD
ATOM     70  H   UNK A   1       2.689   6.130   0.000  0.00  0.00    +0.000 HD
ENDBRANCH  62  63
ENDBRANCH  61  62
ENDBRANCH  60  61
ENDBRANCH   6  60
ENDBRANCH   3   6
ENDBRANCH   1   4
BRANCH   1  72
ATOM     71  O   UNK A   1       6.584   2.234   0.000  0.00  0.00    +0.000 OA
ATOM     72  N   UNK A   1       7.162   0.928   0.000  0.00  0.00    +0.000 N 
ATOM     73  C   UNK A   1       7.250   1.748   0.000  0.00  0.00    +0.000 C 
ATOM     74  H   UNK A   1       7.958   0.348   0.000  0.00  0.00    +0.000 HD
BRANCH  73  75
ATOM     75  C   UNK A   1       8.005   2.082   0.000  0.00  0.00    +0.000 C 
BRANCH  75  77
ATOM     76  O   UNK A   1       9.513   2.751   0.000  0.00  0.00    +0.000 OA
ATOM     77  N   UNK A   1       8.671   1.596   0.000  0.00  0.00    +0.000 N 
ATOM     78  C   UNK A   1       9.425   1.931   0.000  0.00  0.00    +0.000 C 
ATOM     79  H   UNK A   1       8.566   0.617   0.000  0.00  0.00    +0.000 HD
BRANCH  78  80
ATOM     80  C   UNK A   1      10.092   1.444   0.000  0.00  0.00    +0.000 C 
BRANCH  80  82
ATOM     81  O   UNK A   1      11.425   0.472   0.000  0.00  0.00    +0.000 OA
ATOM     82  N   UNK A   1      10.846   1.779   0.000  0.00  0.00    +0.000 N 
ATOM     83  C   UNK A   1      11.513   1.293   0.000  0.00  0.00    +0.000 C 
ATOM     84  H   UNK A   1      10.951   2.758   0.000  0.00  0.00    +0.000 HD
BRANCH  83  85
ATOM     85  C   UNK A   1      12.267   1.627   0.000  0.00  0.00    +0.000 C 
BRANCH  85  87
ATOM     86  O   UNK A   1      13.776   2.295   0.000  0.00  0.00    +0.000 OA
ATOM     87  N   UNK A   1      12.934   1.141   0.000  0.00  0.00    +0.000 N 
ATOM     88  C   UNK A   1      13.688   1.475   0.000  0.00  0.00    +0.000 C 
ATOM     89  H   UNK A   1      12.829   0.162   0.000  0.00  0.00    +0.000 HD
BRANCH  88  90
ATOM     90  C   UNK A   1      14.355   0.989   0.000  0.00  0.00    +0.000 C 
BRANCH  90  92
ATOM     91  O   UNK A   1      15.688   0.017   0.000  0.00  0.00    +0.000 OA
ATOM     92  N   UNK A   1      15.109   1.323   0.000  0.00  0.00    +0.000 N 
ATOM     93  C   UNK A   1      15.775   0.837   0.000  0.00  0.00    +0.000 C 
ATOM     94  H   UNK A   1      15.213   2.302   0.000  0.00  0.00    +0.000 HD
BRANCH  93  95
ATOM     95  C   UNK A   1      16.530   1.171   0.000  0.00  0.00    +0.000 C 
BRANCH  95  97
ATOM     96  O   UNK A   1      16.354  -0.469   0.000  0.00  0.00    +0.000 OA
ATOM     97  N   UNK A   1      17.196   0.685   0.000  0.00  0.00    +0.000 N 
ATOM     98  C   UNK A   1      17.109  -0.135   0.000  0.00  0.00    +0.000 C 
ATOM     99  H   UNK A   1      18.096   1.084   0.000  0.00  0.00    +0.000 HD
BRANCH  98 100
ATOM    100  C   UNK A   1      17.775  -0.621   0.000  0.00  0.00    +0.000 C 
BRANCH 100 102
ATOM    101  O   UNK A   0      19.108  -1.593   0.000  0.00  0.00    +0.000 OA
ATOM    102  N   UNK A   1      17.688  -1.441   0.000  0.00  0.00    +0.000 N 
ATOM    103  C   UNK A   0      18.354  -1.927   0.000  0.00  0.00    +0.000 C 
ATOM    104  C   UNK A   0      18.267  -2.748   0.000  0.00  0.00    +0.000 C 
ATOM    105  H   UNK A   1      16.788  -1.840   0.000  0.00  0.00    +0.000 HD
ENDBRANCH 100 102
BRANCH 100 106
ATOM    106  C   UNK A   1      18.529  -0.287   0.000  0.00  0.00    +0.000 C 
BRANCH 106 107
ATOM    107  O   UNK A   1      19.196  -0.773   0.000  0.00  0.00    +0.000 OA
ATOM    108  H   UNK A   1      19.093  -1.737   0.000  0.00  0.00    +0.000 HD
ENDBRANCH 106 107
ENDBRANCH 100 106
ENDBRANCH  98 100
ENDBRANCH  95  97
BRANCH  95 109
ATOM    109  C   UNK A   1      16.617   1.992   0.000  0.00  0.00    +0.000 C 
BRANCH 109 110
ATOM    110  C   UNK A   1      17.372   2.326   0.000  0.00  0.00    +0.000 A 
ATOM    111  C   UNK A   1      18.038   1.840   0.000  0.00  0.00    +0.000 A 
ATOM    112  C   UNK A   1      17.459   3.146   0.000  0.00  0.00    +0.000 A 
ATOM    113  C   UNK A   1      18.792   2.174   0.000  0.00  0.00    +0.000 A 
ATOM    114  C   UNK A   1      18.213   3.481   0.000  0.00  0.00    +0.000 A 
ATOM    115  C   UNK A   1      18.880   2.994   0.000  0.00  0.00    +0.000 A 
BRANCH 115 116
ATOM    116  O   UNK A   1      19.634   3.329   0.000  0.00  0.00    +0.000 OA
ATOM    117  H   UNK A   1      20.391   2.777   0.000  0.00  0.00    +0.000 HD
ENDBRANCH 115 116
ENDBRANCH 109 110
ENDBRANCH  95 109
ENDBRANCH  93  95
ENDBRANCH  90  92
BRANCH  90 118
ATOM    118  C   UNK A   1      14.267   0.169   0.000  0.00  0.00    +0.000 C 
BRANCH 118 119
ATOM    119  O   UNK A   1      14.933  -0.317   0.000  0.00  0.00    +0.000 OA
ATOM    120  H   UNK A   1      14.830  -1.282   0.000  0.00  0.00    +0.000 HD
ENDBRANCH 118 119
ENDBRANCH  90 118
ENDBRANCH  88  90
ENDBRANCH  85  87
BRANCH  85 121
ATOM    121  C   UNK A   1      12.355   2.447   0.000  0.00  0.00    +0.000 C 
BRANCH 121 122
ATOM    122  C   UNK A   1      13.109   2.781   0.000  0.00  0.00    +0.000 C 
BRANCH 122 123
ATOM    123  C   UNK A   1      13.197   3.602   0.000  0.00  0.00    +0.000 C 
ATOM    124  C   UNK A   1      13.951   3.936   0.000  0.00  0.00    +0.000 C 
ENDBRANCH 122 123
ENDBRANCH 121 122
ENDBRANCH  85 121
ENDBRANCH  83  85
ENDBRANCH  80  82
BRANCH  80 125
ATOM    125  C   UNK A   1      10.004   0.624   0.000  0.00  0.00    +0.000 C 
BRANCH 125 126
ATOM    126  C   UNK A   1      10.671   0.138   0.000  0.00  0.00    +0.000 C 
BRANCH 126 128
ATOM    127  O   UNK A   1       9.829  -1.016   0.000  0.00  0.00    +0.000 OA
ATOM    128  C   UNK A   1      10.583  -0.682   0.000  0.00  0.00    +0.000 C 
BRANCH 128 129
ATOM    129  O   UNK A   1      11.250  -1.168   0.000  0.00  0.00    +0.000 OA
ATOM    130  H   UNK A   1      11.150  -2.100   0.000  0.00  0.00    +0.000 HD
ENDBRANCH 128 129
ENDBRANCH 126 128
ENDBRANCH 125 126
ENDBRANCH  80 125
ENDBRANCH  78  80
ENDBRANCH  75  77
BRANCH  75 131
ATOM    131  C   UNK A   1       8.092   2.903   0.000  0.00  0.00    +0.000 C 
BRANCH 131 134
ATOM    132  N   UNK A   1       7.427   4.214   0.000  0.00  0.00    +0.000 N 
ATOM    133  N   UNK A   1       6.157   3.803   0.000  0.00  0.00    +0.000 NA
ATOM    134  C   UNK A   1       7.426   3.389   0.000  0.00  0.00    +0.000 A 
ATOM    135  C   UNK A   1       6.641   3.135   0.000  0.00  0.00    +0.000 A 
ATOM    136  C   UNK A   1       6.643   4.470   0.000  0.00  0.00    +0.000 A 
ATOM    137  H   UNK A   1       8.224   4.791   0.000  0.00  0.00    +0.000 HD
ENDBRANCH 131 134
ENDBRANCH  75 131
ENDBRANCH  73  75
ENDBRANCH   1  72
BRANCH   1 138
ATOM    138  C   UNK A   1       6.321  -0.227   0.000  0.00  0.00    +0.000 C 
BRANCH 138 139
ATOM    139  C   UNK A   1       6.987  -0.713   0.000  0.00  0.00    +0.000 A 
ATOM    140  C   UNK A   1       7.742  -0.379   0.000  0.00  0.00    +0.000 A 
ATOM    141  C   UNK A   1       6.900  -1.533   0.000  0.00  0.00    +0.000 A 
ATOM    142  C   UNK A   1       8.408  -0.865   0.000  0.00  0.00    +0.000 A 
ATOM    143  C   UNK A   1       7.566  -2.019   0.000  0.00  0.00    +0.000 A 
ATOM    144  C   UNK A   1       8.320  -1.685   0.000  0.00  0.00    +0.000 A 
ENDBRANCH 138 139
ENDBRANCH   1 138
TORSDOF 55
