REMARK  Name = 23647358
REMARK  15 active torsions:
REMARK  status: ('A' for Active; 'I' for Inactive)
REMARK    1  A    between atoms: O_3  and  C_18
REMARK    2  A    between atoms: O_3  and  C_21
REMARK    3  A    between atoms: O_6  and  C_23
REMARK    4  A    between atoms: N_8  and  CA_12
REMARK    5  A    between atoms: N_9  and  CA_20
REMARK    6  A    between atoms: C_10  and  C_14
REMARK    7  A    between atoms: C_11  and  C_18
REMARK    8  A    between atoms: CA_12  and  CB_13
REMARK    9  A    between atoms: CA_12  and  C_17
REMARK   10  A    between atoms: CB_13  and  CG1_15
REMARK   11  A    between atoms: CB_13  and  CG2_16
REMARK   12  A    between atoms: CG1_15  and  CD1_19
REMARK   13  A    between atoms: CA_20  and  CB_22
REMARK   14  A    between atoms: CA_20  and  C_23
REMARK   15  A    between atoms: C_21  and  C_24
REMARK                            x       y       z     vdW  Elec       q    Type
REMARK                         _______ _______ _______ _____ _____    ______ ____
ROOT
ATOM      1  CA  UNL     1       0.932   0.377  -1.003  0.00  0.00    +0.000 C 
ENDROOT
BRANCH   1   3
ATOM      2  O   UNL     1      -0.558  -1.859  -2.101  0.00  0.00    +0.000 OA
ATOM      3  N   UNL     1      -0.471   0.094  -0.837  0.00  0.00    +0.000 N 
ATOM      4  C   ACE A   0      -1.098  -1.005  -1.403  0.00  0.00    +0.000 C 
ATOM      5  H   UNL     1      -1.018   0.702  -0.235  0.00  0.00    +0.000 HD
BRANCH   4   7
ATOM      6  O   UNL     1      -2.917  -2.351  -0.541  0.00  0.00    +0.000 OA
ATOM      7  C   UNL     1      -2.560  -1.075  -1.050  0.00  0.00    +0.000 C 
ATOM      8  C   UNL     1      -2.942  -1.246   0.372  0.00  0.00    +0.000 C 
BRANCH   8  10
ATOM      9  O   UNL     1      -5.092  -1.704   1.205  0.00  0.00    +0.000 OA
ATOM     10  C   UNL     1      -4.298  -0.873   0.788  0.00  0.00    +0.000 C 
BRANCH  10  11
ATOM     11  O   UNL     1      -4.514   0.463   0.644  0.00  0.00    +0.000 OA
BRANCH  11  12
ATOM     12  C   UNL     1      -5.815   0.920   1.027  0.00  0.00    +0.000 C 
ATOM     13  C   UNL     1      -5.896   2.416   0.809  0.00  0.00    +0.000 C 
ENDBRANCH  11  12
ENDBRANCH  10  11
ENDBRANCH   8  10
ENDBRANCH   4   7
ENDBRANCH   1   3
BRANCH   1  16
ATOM     14  O   UNL     1       1.154  -1.064   0.936  0.00  0.00    +0.000 OA
ATOM     15  N   UNL     1       3.078  -0.340  -0.143  0.00  0.00    +0.000 N 
ATOM     16  C   UNL     1       1.706  -0.416   0.049  0.00  0.00    +0.000 C 
ATOM     17  H   UNL     1       3.439   0.176  -0.939  0.00  0.00    +0.000 HD
BRANCH  15  18
ATOM     18  CA  UNL     1       4.035  -1.027   0.695  0.00  0.00    +0.000 C 
ATOM     19  CB  UNL     1       4.327  -2.415   0.146  0.00  0.00    +0.000 C 
BRANCH  18  21
ATOM     20  OXT UNL     1       6.249  -0.594   1.563  0.00  0.00    +0.000 OA
ATOM     21  C   UNL     1       5.324  -0.235   0.843  0.00  0.00    +0.000 C 
BRANCH  21  22
ATOM     22  O   UNL     1       5.370   0.911   0.122  0.00  0.00    +0.000 OA
ATOM     23  H   UNL     1       6.215   1.392   0.252  0.00  0.00    +0.000 HD
ENDBRANCH  21  22
ENDBRANCH  18  21
ENDBRANCH  15  18
ENDBRANCH   1  16
BRANCH   1  24
ATOM     24  CB  UNL     1       1.253   1.891  -0.958  0.00  0.00    +0.000 C 
ATOM     25  CG2 UNL     1       0.517   2.621  -2.089  0.00  0.00    +0.000 C 
BRANCH  24  26
ATOM     26  CG1 UNL     1       0.940   2.514   0.420  0.00  0.00    +0.000 C 
ATOM     27  CD1 UNL     1       1.276   3.997   0.507  0.00  0.00    +0.000 C 
ENDBRANCH  24  26
ENDBRANCH   1  24
TORSDOF 11
