REMARK  Name = 
REMARK  17 active torsions:
REMARK  status: ('A' for Active; 'I' for Inactive)
REMARK    1  A    between atoms: C_1  and  C_2
REMARK    2  A    between atoms: C_2  and  C_3
REMARK    3  A    between atoms: C_2  and  C_4
REMARK    4  A    between atoms: C_4  and  N_5
REMARK    5  A    between atoms: C_4  and  C_16
REMARK    6  A    between atoms: C_6  and  O_8
REMARK    7  A    between atoms: O_8  and  C_9
REMARK    8  A    between atoms: C_9  and  C_10
REMARK    9  A    between atoms: N_18  and  C_19
REMARK   10  A    between atoms: C_19  and  C_20
REMARK   11  A    between atoms: C_19  and  C_21
REMARK   12  A    between atoms: N_23  and  C_24
REMARK   13  A    between atoms: C_24  and  C_25
REMARK   14  A    between atoms: C_24  and  C_29
REMARK   15  A    between atoms: C_25  and  C_26
REMARK   16  A    between atoms: C_26  and  O_28
REMARK   17  A    between atoms: C_29  and  C_31
REMARK                            x       y       z     vdW  Elec       q    Type
REMARK                         _______ _______ _______ _____ _____    ______ ____
ROOT
ATOM      1  C   UNL     1       0.203  -0.350  -0.949  0.00  0.00    +0.000 C 
ATOM      2  O   UNL     1       0.120  -0.218  -2.188  0.00  0.00    +0.000 OA
ATOM      3  N   UNL     1      -0.967  -0.343  -0.124  0.00  0.00    +0.000 N 
ATOM      4  H   UNL     1      -0.924  -0.153   0.841  0.00  0.00    +0.000 HD
ENDROOT
BRANCH   3   5
ATOM      5  C   UNL     1      -2.329  -0.657  -0.856  0.00  0.00    +0.000 C 
ATOM      6  C   UNL     1      -2.528  -2.070  -0.028  0.00  0.00    +0.000 C 
BRANCH   5   7
ATOM      7  C   UNL     1      -3.208   0.187   0.200  0.00  0.00    +0.000 C 
ATOM      8  O   UNL     1      -2.974   0.057   1.396  0.00  0.00    +0.000 OA
ATOM      9  N   UNL     1      -4.521   0.540  -0.210  0.00  0.00    +0.000 N 
ATOM     10  H   UNL     1      -4.711   0.986  -1.066  0.00  0.00    +0.000 HD
BRANCH   9  11
ATOM     11  C   UNL     1      -5.649   0.157   0.828  0.00  0.00    +0.000 C 
BRANCH  11  12
ATOM     12  C   UNL     1      -6.655  -0.346  -0.331  0.00  0.00    +0.000 C 
ATOM     13  O   UNL     1      -6.862   0.364  -1.259  0.00  0.00    +0.000 OA
BRANCH  12  14
ATOM     14  C   UNL     1      -6.480  -1.806  -0.622  0.00  0.00    +0.000 C 
ATOM     15  F   UNL     1      -6.079  -2.016  -1.917  0.00  0.00    +0.000 F 
ENDBRANCH  12  14
ENDBRANCH  11  12
BRANCH  11  16
ATOM     16  C   UNL     1      -6.284   1.677   0.855  0.00  0.00    +0.000 C 
BRANCH  16  17
ATOM     17  C   UNL     1      -7.004   1.673   2.171  0.00  0.00    +0.000 C 
ATOM     18  O   UNL     1      -6.309   1.776   3.227  0.00  0.00    +0.000 OA
BRANCH  17  19
ATOM     19  O   UNL     1      -8.139   0.866   2.305  0.00  0.00    +0.000 OA
ATOM     20  H   UNL     1      -8.710   0.735   1.573  0.00  0.00    +0.000 HD
ENDBRANCH  17  19
ENDBRANCH  16  17
ENDBRANCH  11  16
ENDBRANCH   9  11
ENDBRANCH   5   7
ENDBRANCH   3   5
BRANCH   1  21
ATOM     21  C   UNL     1       1.357  -1.368  -0.440  0.00  0.00    +0.000 C 
BRANCH  21  22
ATOM     22  N   UNL     1       2.498  -0.624  -1.238  0.00  0.00    +0.000 N 
ATOM     23  C   UNL     1       3.600  -0.149  -0.542  0.00  0.00    +0.000 C 
ATOM     24  O   UNL     1       3.226   0.716   0.309  0.00  0.00    +0.000 OA
ATOM     25  H   UNL     1       2.428  -0.499  -2.212  0.00  0.00    +0.000 HD
BRANCH  23  26
ATOM     26  O   UNL     1       4.940  -0.309  -0.824  0.00  0.00    +0.000 OA
BRANCH  26  27
ATOM     27  C   UNL     1       5.798   0.061   0.259  0.00  0.00    +0.000 C 
BRANCH  27  28
ATOM     28  C   UNL     1       7.217  -0.155  -0.042  0.00  0.00    +0.000 A 
ATOM     29  C   UNL     1       7.592  -0.745  -1.234  0.00  0.00    +0.000 A 
ATOM     30  C   UNL     1       8.706  -0.370  -1.946  0.00  0.00    +0.000 A 
ATOM     31  C   UNL     1       9.647   0.390  -1.298  0.00  0.00    +0.000 A 
ATOM     32  C   UNL     1       9.286   1.075  -0.149  0.00  0.00    +0.000 A 
ATOM     33  C   UNL     1       8.173   0.643   0.566  0.00  0.00    +0.000 A 
ENDBRANCH  27  28
ENDBRANCH  26  27
ENDBRANCH  23  26
ENDBRANCH  21  22
BRANCH  21  35
ATOM     34  C   UNL     1       1.511  -0.721   1.176  0.00  0.00    +0.000 C 
ATOM     35  C   UNL     1       1.558  -0.519   0.952  0.00  0.00    +0.000 C 
ATOM     36  C   UNL     1       0.556  -1.021   1.953  0.00  0.00    +0.000 C 
ENDBRANCH  21  35
ENDBRANCH   1  21
TORSDOF 14
