REMARK  Name = 
REMARK  31 active torsions:
REMARK  status: ('A' for Active; 'I' for Inactive)
REMARK    1  A    between atoms: C_1  and  C_2
REMARK    2  A    between atoms: C_2  and  C_3
REMARK    3  A    between atoms: C_3  and  C_4
REMARK    4  A    between atoms: C_4  and  C_5
REMARK    5  A    between atoms: C_5  and  C_6
REMARK    6  A    between atoms: C_7  and  C_8
REMARK    7  A    between atoms: C_8  and  C_9
REMARK    8  A    between atoms: C_10  and  C_11
REMARK    9  A    between atoms: C_12  and  C_13
REMARK   10  A    between atoms: C_14  and  C_15
REMARK   11  A    between atoms: C_15  and  S_16
REMARK   12  A    between atoms: C_15  and  C_36
REMARK   13  A    between atoms: S_16  and  C_17
REMARK   14  A    between atoms: C_17  and  C_18
REMARK   15  A    between atoms: C_18  and  N_19
REMARK   16  A    between atoms: C_18  and  C_29
REMARK   17  A    between atoms: C_20  and  C_22
REMARK   18  A    between atoms: C_22  and  C_23
REMARK   19  A    between atoms: C_23  and  C_24
REMARK   20  A    between atoms: C_24  and  N_25
REMARK   21  A    between atoms: C_24  and  C_26
REMARK   22  A    between atoms: C_26  and  O_28
REMARK   23  A    between atoms: N_31  and  CA_32
REMARK   24  A    between atoms: CA_32  and  C_33
REMARK   25  A    between atoms: C_33  and  OXT_35
REMARK   26  A    between atoms: C_36  and  O_37
REMARK   27  A    between atoms: C_36  and  C_38
REMARK   28  A    between atoms: C_38  and  C_39
REMARK   29  A    between atoms: C_39  and  C_40
REMARK   30  A    between atoms: C_40  and  C_41
REMARK   31  A    between atoms: C_41  and  O_43
REMARK                            x       y       z     vdW  Elec       q    Type
REMARK                         _______ _______ _______ _____ _____    ______ ____
ROOT
ATOM      1  S   UNK A   1      -0.792   0.635   0.097  0.00  0.00    +0.000 S 
ENDROOT
BRANCH   1   2
ATOM      2  C   UNK A   1      -0.140   1.456  -1.471  0.00  0.00    +0.000 C 
BRANCH   2   4
ATOM      3  C   UNK A   1       1.832   0.174  -0.751  0.00  0.00    +0.000 C 
ATOM      4  C   UNK A   1       1.007   0.450  -1.726  0.00  0.00    +0.000 C 
BRANCH   3   6
ATOM      5  C   UNK A   1       3.719  -0.727   0.309  0.00  0.00    +0.000 C 
ATOM      6  C   UNK A   1       2.972  -0.721  -0.798  0.00  0.00    +0.000 C 
BRANCH   5   8
ATOM      7  C   UNK A   1       5.378  -2.303  -0.327  0.00  0.00    +0.000 C 
ATOM      8  C   UNK A   1       4.625  -1.802   0.654  0.00  0.00    +0.000 C 
BRANCH   7   9
ATOM      9  C   UNK A   1       5.822  -1.309  -1.352  0.00  0.00    +0.000 C 
BRANCH   9  11
ATOM     10  C   UNK A   1       7.417  -2.458  -2.739  0.00  0.00    +0.000 C 
ATOM     11  C   UNK A   1       6.175  -1.996  -2.608  0.00  0.00    +0.000 C 
BRANCH  10  12
ATOM     12  C   UNK A   1       8.015  -3.159  -1.584  0.00  0.00    +0.000 C 
BRANCH  12  13
ATOM     13  C   UNK A   1       8.736  -2.206  -0.654  0.00  0.00    +0.000 C 
BRANCH  13  14
ATOM     14  C   UNK A   1       9.126  -2.997   0.579  0.00  0.00    +0.000 C 
BRANCH  14  16
ATOM     15  C   UNK A   1       8.259  -2.711   2.854  0.00  0.00    +0.000 C 
ATOM     16  C   UNK A   1       9.180  -2.134   1.819  0.00  0.00    +0.000 C 
ENDBRANCH  14  16
ENDBRANCH  13  14
ENDBRANCH  12  13
ENDBRANCH  10  12
ENDBRANCH   9  11
ENDBRANCH   7   9
ENDBRANCH   5   8
ENDBRANCH   3   6
ENDBRANCH   2   4
BRANCH   2  17
ATOM     17  C   UNK A   1       0.883   2.648  -0.800  0.00  0.00    +0.000 C 
BRANCH  17  18
ATOM     18  O   UNK A   1       0.320   3.711  -1.767  0.00  0.00    +0.000 OA
ATOM     19  H   UNK A   1      -0.649   3.657  -1.777  0.00  0.00    +0.000 HD
ENDBRANCH  17  18
BRANCH  17  20
ATOM     20  C   UNK A   1      -0.229   3.088   0.376  0.00  0.00    +0.000 C 
BRANCH  20  21
ATOM     21  C   UNK A   1       0.744   3.079   1.554  0.00  0.00    +0.000 C 
BRANCH  21  22
ATOM     22  C   UNK A   1       1.824   4.087   1.177  0.00  0.00    +0.000 C 
BRANCH  22  23
ATOM     23  C   UNK A   1       1.498   5.333   1.939  0.00  0.00    +0.000 C 
ATOM     24  O   UNK A   1       2.156   5.586   2.995  0.00  0.00    +0.000 OA
BRANCH  23  25
ATOM     25  O   UNK A   1       0.140   5.673   1.992  0.00  0.00    +0.000 OA
ATOM     26  H   UNK A   1      -0.412   5.516   1.250  0.00  0.00    +0.000 HD
ENDBRANCH  23  25
ENDBRANCH  22  23
ENDBRANCH  21  22
ENDBRANCH  20  21
ENDBRANCH  17  20
ENDBRANCH   2  17
ENDBRANCH   1   2
BRANCH   1  27
ATOM     27  C   UNK A   1      -2.525   0.251  -0.327  0.00  0.00    +0.000 C 
BRANCH  27  28
ATOM     28  C   UNK A   1      -3.335   1.703  -0.073  0.00  0.00    +0.000 C 
BRANCH  28  29
ATOM     29  N   UNK A   1      -4.638   1.046   0.593  0.00  0.00    +0.000 N 
ATOM     30  C   UNK A   1      -4.566  -0.263   1.045  0.00  0.00    +0.000 C 
ATOM     31  O   UNK A   1      -4.110  -1.040   0.147  0.00  0.00    +0.000 OA
ATOM     32  H   UNK A   1      -5.471   1.563   0.680  0.00  0.00    +0.000 HD
BRANCH  30  33
ATOM     33  C   UNK A   1      -5.585  -0.742   2.020  0.00  0.00    +0.000 C 
BRANCH  33  34
ATOM     34  C   UNK A   1      -6.056  -2.115   1.561  0.00  0.00    +0.000 C 
BRANCH  34  35
ATOM     35  C   UNK A   1      -5.265  -3.154   2.613  0.00  0.00    +0.000 C 
BRANCH  35  36
ATOM     36  N   UNK A   1      -6.271  -4.354   2.255  0.00  0.00    +0.000 NA
ATOM     37  H   UNK A   1      -7.232  -4.010   2.275  0.00  0.00    +0.000 HD
ATOM     38  H   UNK A   1      -6.164  -5.103   2.938  0.00  0.00    +0.000 HD
ENDBRANCH  35  36
BRANCH  35  39
ATOM     39  C   UNK A   1      -6.173  -2.677   3.897  0.00  0.00    +0.000 C 
ATOM     40  O   UNK A   1      -7.390  -2.609   3.689  0.00  0.00    +0.000 OA
BRANCH  39  41
ATOM     41  O   UNK A   1      -5.463  -1.733   4.620  0.00  0.00    +0.000 OA
ATOM     42  H   UNK A   1      -4.540  -1.836   4.745  0.00  0.00    +0.000 HD
ENDBRANCH  39  41
ENDBRANCH  35  39
ENDBRANCH  34  35
ENDBRANCH  33  34
ENDBRANCH  30  33
ENDBRANCH  28  29
BRANCH  28  43
ATOM     43  C   UNK A   1      -4.055   1.690  -1.552  0.00  0.00    +0.000 C 
ATOM     44  O   UNK A   1      -4.494   2.871  -1.736  0.00  0.00    +0.000 OA
ATOM     45  N   GLY A   2      -3.262   1.244  -2.631  0.00  0.00    +0.000 N 
ATOM     46  H   GLY A   2      -2.292   1.092  -2.564  0.00  0.00    +0.000 HD
BRANCH  45  47
ATOM     47  CA  GLY A   2      -4.032   1.031  -3.861  0.00  0.00    +0.000 C 
BRANCH  47  48
ATOM     48  C   GLY A   2      -3.922  -0.437  -4.137  0.00  0.00    +0.000 C 
ATOM     49  O   GLY A   2      -2.759  -0.820  -4.472  0.00  0.00    +0.000 OA
BRANCH  48  50
ATOM     50  OXT GLY A   2      -4.766  -1.290  -3.418  0.00  0.00    +0.000 OA
ATOM     51  HXT GLY A   2      -5.624  -1.003  -3.173  0.00  0.00    +0.000 HD
ENDBRANCH  48  50
ENDBRANCH  47  48
ENDBRANCH  45  47
ENDBRANCH  28  43
ENDBRANCH  27  28
ENDBRANCH   1  27
TORSDOF 30
