REMARK  Name = 104787
REMARK  14 active torsions:
REMARK  status: ('A' for Active; 'I' for Inactive)
REMARK    1  A    between atoms: O_4  and  C_26
REMARK    2  A    between atoms: OH_9  and  CZ_44
REMARK    3  A    between atoms: N_10  and  C_17
REMARK    4  A    between atoms: N_14  and  CA_28
REMARK    5  A    between atoms: C_15  and  C_19
REMARK    6  A    between atoms: C_15  and  C_20
REMARK    7  A    between atoms: C_16  and  C_21
REMARK    8  A    between atoms: C_16  and  C_22
REMARK    9  A    between atoms: C_18  and  C_26
REMARK   10  A    between atoms: CA_24  and  CB_29
REMARK   11  A    between atoms: C_27  and  CA_28
REMARK   12  A    between atoms: CA_28  and  CB_31
REMARK   13  A    between atoms: CB_29  and  CG_33
REMARK   14  A    between atoms: CB_31  and  CG_34
REMARK                            x       y       z     vdW  Elec       q    Type
REMARK                         _______ _______ _______ _____ _____    ______ ____
ROOT
ATOM      1  S   UNK A   2      -0.516   1.328   0.336  0.00  0.00    +0.000 S 
ATOM      2  S   UNK A   5      -0.009   3.299   0.048  0.00  0.00    +0.000 S 
ATOM      3  O   UNK A   2      -1.569  -0.872   3.891  0.00  0.00    +0.000 OA
ATOM      4  O   PHE A   4       4.947   0.969   0.879  0.00  0.00    +0.000 OA
ATOM      5  O   GLY A   3       2.634  -3.343   1.965  0.00  0.00    +0.000 OA
ATOM      6  N   UNK A   5       2.735   1.401   0.338  0.00  0.00    +0.000 N 
ATOM      7  N   GLY A   3      -0.428  -1.573   2.006  0.00  0.00    +0.000 N 
ATOM      8  N   PHE A   4       2.220  -1.139   1.377  0.00  0.00    +0.000 N 
ATOM      9  C   UNK A   2      -2.012   1.307   1.451  0.00  0.00    +0.000 C 
ATOM     10  C   UNK A   5       1.617   3.581   0.924  0.00  0.00    +0.000 C 
ATOM     11  C   UNK A   2      -2.432  -0.169   1.753  0.00  0.00    +0.000 C 
ATOM     12  C   UNK A   5       2.818   2.850   0.262  0.00  0.00    +0.000 C 
ATOM     13  C   UNK A   2      -1.740   2.055   2.767  0.00  0.00    +0.000 C 
ATOM     14  C   UNK A   2      -3.168   2.028   0.723  0.00  0.00    +0.000 C 
ATOM     15  C   UNK A   5       1.851   5.106   0.848  0.00  0.00    +0.000 C 
ATOM     16  C   UNK A   5       1.522   3.201   2.411  0.00  0.00    +0.000 C 
ATOM     17  C   UNK A   2      -1.465  -0.936   2.666  0.00  0.00    +0.000 C 
ATOM     18  CA  PHE A   4       3.465  -0.906   0.657  0.00  0.00    +0.000 C 
ATOM     19  C   PHE A   4       3.796   0.581   0.681  0.00  0.00    +0.000 C 
ATOM     20  CA  GLY A   3       0.580  -2.354   2.694  0.00  0.00    +0.000 C 
ATOM     21  C   GLY A   3       1.891  -2.364   1.935  0.00  0.00    +0.000 C 
ATOM     22  H   UNK A   5       1.859   0.975   0.053  0.00  0.00    +0.000 HD
ATOM     23  H   GLY A   3      -0.413  -1.561   0.990  0.00  0.00    +0.000 HD
ATOM     24  H   PHE A   4       1.557  -0.376   1.469  0.00  0.00    +0.000 HD
ENDROOT
BRANCH  11  26
ATOM     25  O   TYR A   1      -4.279  -2.342   1.495  0.00  0.00    +0.000 OA
ATOM     26  N   UNK A   2      -2.658  -0.967   0.568  0.00  0.00    +0.000 N 
ATOM     27  C   TYR A   1      -3.579  -2.003   0.542  0.00  0.00    +0.000 C 
ATOM     28  H   UNK A   2      -2.087  -0.776  -0.251  0.00  0.00    +0.000 HD
BRANCH  27  29
ATOM     29  CA  TYR A   1      -3.660  -2.679  -0.823  0.00  0.00    +0.000 C 
BRANCH  29  30
ATOM     30  N   TYR A   1      -3.269  -4.075  -0.627  0.00  0.00    +0.000 NA
ATOM     31  H1  TYR A   1      -3.326  -4.574  -1.514  0.00  0.00    +0.000 HD
ATOM     32  H2  TYR A   1      -2.292  -4.119  -0.340  0.00  0.00    +0.000 HD
ENDBRANCH  29  30
BRANCH  29  33
ATOM     33  CB  TYR A   1      -5.090  -2.610  -1.380  0.00  0.00    +0.000 C 
BRANCH  33  34
ATOM     34  CG  TYR A   1      -5.557  -1.194  -1.620  0.00  0.00    +0.000 A 
ATOM     35  CD1 TYR A   1      -6.211  -0.493  -0.607  0.00  0.00    +0.000 A 
ATOM     36  CD2 TYR A   1      -5.337  -0.587  -2.857  0.00  0.00    +0.000 A 
ATOM     37  CE1 TYR A   1      -6.644   0.814  -0.829  0.00  0.00    +0.000 A 
ATOM     38  CE2 TYR A   1      -5.770   0.720  -3.080  0.00  0.00    +0.000 A 
ATOM     39  CZ  TYR A   1      -6.423   1.420  -2.066  0.00  0.00    +0.000 A 
BRANCH  39  40
ATOM     40  OH  TYR A   1      -6.845   2.696  -2.283  0.00  0.00    +0.000 OA
ATOM     41  HH  TYR A   1      -6.609   2.956  -3.190  0.00  0.00    +0.000 HD
ENDBRANCH  39  40
ENDBRANCH  33  34
ENDBRANCH  29  33
ENDBRANCH  27  29
ENDBRANCH  11  26
BRANCH  12  43
ATOM     42  O   UNK A   5       2.464   2.510  -2.107  0.00  0.00    +0.000 OA
ATOM     43  C   UNK A   5       2.986   3.142  -1.201  0.00  0.00    +0.000 C 
BRANCH  43  44
ATOM     44  O   UNK A   5       3.804   4.208  -1.385  0.00  0.00    +0.000 OA
ATOM     45  H   UNK A   5       3.926   4.415  -2.336  0.00  0.00    +0.000 HD
ENDBRANCH  43  44
ENDBRANCH  12  43
BRANCH  18  46
ATOM     46  CB  PHE A   4       3.371  -1.408  -0.779  0.00  0.00    +0.000 C 
BRANCH  46  47
ATOM     47  CG  PHE A   4       4.731  -1.646  -1.376  0.00  0.00    +0.000 A 
ATOM     48  CD1 PHE A   4       5.386  -0.617  -2.052  0.00  0.00    +0.000 A 
ATOM     49  CD2 PHE A   4       5.338  -2.896  -1.252  0.00  0.00    +0.000 A 
ATOM     50  CE1 PHE A   4       6.648  -0.837  -2.605  0.00  0.00    +0.000 A 
ATOM     51  CE2 PHE A   4       6.600  -3.117  -1.806  0.00  0.00    +0.000 A 
ATOM     52  CZ  PHE A   4       7.254  -2.087  -2.482  0.00  0.00    +0.000 A 
ENDBRANCH  46  47
ENDBRANCH  18  46
TORSDOF 10
