REMARK  Name = KN1
REMARK  6 active torsions:
REMARK  status: ('A' for Active; 'I' for Inactive)
REMARK    1  A    between atoms: C_2  and  C_3
REMARK    2  A    between atoms: C_3  and  N_4
REMARK    3  A    between atoms: C_7  and  C_8
REMARK    4  A    between atoms: C_16  and  C_17
REMARK    5  A    between atoms: C_20  and  O_21
REMARK    6  A    between atoms: C_23  and  O_24
REMARK                            x       y       z     vdW  Elec       q    Type
REMARK                         _______ _______ _______ _____ _____    ______ ____
ROOT
ATOM      1  N   UNL     1      -0.563   0.961   0.000  0.00  0.00    +0.000 N 
ATOM      2  N   UNL     1      -1.048   0.294   0.000  0.00  0.00    +0.000 NA
ATOM      3  C   UNL     1       0.221   0.707   0.000  0.00  0.00    +0.000 A 
ATOM      4  C   UNL     1       0.936   1.119   0.000  0.00  0.00    +0.000 A 
ATOM      5  C   UNL     1       1.650   0.707   0.000  0.00  0.00    +0.000 A 
ATOM      6  C   UNL     1       1.650  -0.118   0.000  0.00  0.00    +0.000 A 
ATOM      7  C   UNL     1       0.936  -0.531   0.000  0.00  0.00    +0.000 A 
ATOM      8  C   UNL     1       0.221  -0.118   0.000  0.00  0.00    +0.000 A 
ATOM      9  C   UNL     1      -0.563  -0.373   0.000  0.00  0.00    +0.000 A 
ENDROOT
BRANCH   9  10
ATOM     10  C   UNL     1      -0.818  -1.158   0.000  0.00  0.00    +0.000 A 
ATOM     11  C   UNL     1      -1.625  -1.330   0.000  0.00  0.00    +0.000 A 
ATOM     12  C   UNL     1      -1.880  -2.114   0.000  0.00  0.00    +0.000 A 
ATOM     13  C   UNL     1      -1.328  -2.727   0.000  0.00  0.00    +0.000 A 
ATOM     14  C   UNL     1      -0.521  -2.556   0.000  0.00  0.00    +0.000 A 
ATOM     15  C   UNL     1      -0.266  -1.771   0.000  0.00  0.00    +0.000 A 
BRANCH  13  16
ATOM     16  O   UNL     1      -1.583  -3.512   0.000  0.00  0.00    +0.000 OA
ATOM     17  H   UNL     1      -2.500  -3.707   0.000  0.00  0.00    +0.000 HD
ENDBRANCH  13  16
BRANCH  15  18
ATOM     18  O   UNL     1       0.541  -1.600   0.000  0.00  0.00    +0.000 OA
ATOM     19  H   UNL     1       1.168  -2.296   0.000  0.00  0.00    +0.000 HD
ENDBRANCH  15  18
ENDBRANCH   9  10
BRANCH   4  20
ATOM     20  C   UNL     1       0.936   1.944   0.000  0.00  0.00    +0.000 C 
ATOM     21  F   UNL     1       1.761   1.944   0.000  0.00  0.00    +0.000 F 
ATOM     22  F   UNL     1       0.111   1.944   0.000  0.00  0.00    +0.000 F 
ATOM     23  F   UNL     1       0.936   2.769   0.000  0.00  0.00    +0.000 F 
ENDBRANCH   4  20
BRANCH   1  24
ATOM     24  C   UNL     1      -0.818   1.746   0.000  0.00  0.00    +0.000 C 
BRANCH  24  26
ATOM     25  C   UNL     1      -0.521   3.144   0.000  0.00  0.00    +0.000 C 
ATOM     26  C   UNL     1      -0.266   2.359   0.000  0.00  0.00    +0.000 C 
ENDBRANCH  24  26
ENDBRANCH   1  24
TORSDOF 6
