REMARK  Name = 40466903
REMARK  13 active torsions:
REMARK  status: ('A' for Active; 'I' for Inactive)
REMARK    1  A    between atoms: O_2  and  C_19
REMARK    2  A    between atoms: O_2  and  C_25
REMARK    3  A    between atoms: N_7  and  CA_10
REMARK    4  A    between atoms: N_7  and  C_11
REMARK    5  A    between atoms: N_9  and  C_21
REMARK    6  A    between atoms: CA_10  and  C_14
REMARK    7  A    between atoms: CA_10  and  CB_17
REMARK    8  A    between atoms: C_11  and  C_13
REMARK    9  A    between atoms: C_11  and  C_19
REMARK   10  A    between atoms: C_12  and  C_20
REMARK   11  A    between atoms: C_13  and  C_18
REMARK   12  A    between atoms: C_18  and  C_22
REMARK   13  A    between atoms: C_25  and  C_29
REMARK                            x       y       z     vdW  Elec       q    Type
REMARK                         _______ _______ _______ _____ _____    ______ ____
ROOT
ATOM      1  N   ALA A   1      -0.347   0.242  -1.230  0.00  0.00    +0.000 N 
ATOM      2  H1  ALA A   1      -0.551   1.242  -1.087  0.00  0.00    +0.000 HD
ATOM      3  H2  ALA A   1      -0.820   0.001  -2.113  0.00  0.00    +0.000 HD
ENDROOT
BRANCH   1   4
ATOM      4  CA  ALA A   1       1.116   0.066  -1.376  0.00  0.00    +0.000 C 
ATOM      5  CB  ALA A   1       1.526   0.433  -2.784  0.00  0.00    +0.000 C 
BRANCH   4  11
ATOM      6  O   ALA A   1       1.329   2.035  -0.056  0.00  0.00    +0.000 OA
ATOM      7  O   UNK A   2       3.388  -1.654  -0.953  0.00  0.00    +0.000 OA
ATOM      8  N   UNK A   2       3.012   0.439   0.146  0.00  0.00    +0.000 N 
ATOM      9  N   UNK A   2       4.794  -0.858   0.752  0.00  0.00    +0.000 N 
ATOM     10  C   UNK A   2       3.787   1.217   1.106  0.00  0.00    +0.000 C 
ATOM     11  C   ALA A   1       1.811   0.947  -0.372  0.00  0.00    +0.000 C 
ATOM     12  C   UNK A   2       4.799   0.244   1.687  0.00  0.00    +0.000 C 
ATOM     13  C   UNK A   2       3.693  -0.804  -0.126  0.00  0.00    +0.000 C 
ATOM     14  C   UNK A   2       5.723  -1.960   0.868  0.00  0.00    +0.000 C 
BRANCH  10  17
ATOM     15  O   UNK A   2       5.361   1.960  -0.477  0.00  0.00    +0.000 OA
ATOM     16  O   UNK A   2       4.324   3.490   0.870  0.00  0.00    +0.000 OA
ATOM     17  C   UNK A   2       4.569   2.331   0.432  0.00  0.00    +0.000 C 
ENDBRANCH  10  17
ENDBRANCH   4  11
ENDBRANCH   1   4
BRANCH   1  18
ATOM     18  C   UNK A   0      -0.960  -0.567  -0.139  0.00  0.00    +0.000 C 
BRANCH  18  20
ATOM     19  O   UNK A   0      -0.877  -2.424  -1.702  0.00  0.00    +0.000 OA
ATOM     20  C   UNK A   0      -1.109  -2.009  -0.573  0.00  0.00    +0.000 C 
BRANCH  20  21
ATOM     21  O   UNK A   0      -1.497  -2.774   0.489  0.00  0.00    +0.000 OA
BRANCH  21  22
ATOM     22  C   UNK A   0      -1.634  -4.174   0.225  0.00  0.00    +0.000 C 
ATOM     23  C   UNK A   0      -2.066  -4.875   1.496  0.00  0.00    +0.000 C 
ENDBRANCH  21  22
ENDBRANCH  20  21
ENDBRANCH  18  20
BRANCH  18  24
ATOM     24  C   UNK A   0      -2.260   0.097   0.337  0.00  0.00    +0.000 C 
BRANCH  24  25
ATOM     25  C   UNK A   0      -3.422   0.165  -0.668  0.00  0.00    +0.000 C 
BRANCH  25  26
ATOM     26  C   UNK A   0      -4.679   0.809  -0.144  0.00  0.00    +0.000 A 
ATOM     27  C   UNK A   0      -5.654   0.031   0.480  0.00  0.00    +0.000 A 
ATOM     28  C   UNK A   0      -4.868   2.184  -0.282  0.00  0.00    +0.000 A 
ATOM     29  C   UNK A   0      -6.818   0.627   0.965  0.00  0.00    +0.000 A 
ATOM     30  C   UNK A   0      -6.032   2.781   0.203  0.00  0.00    +0.000 A 
ATOM     31  C   UNK A   0      -7.007   2.002   0.827  0.00  0.00    +0.000 A 
ENDBRANCH  25  26
ENDBRANCH  24  25
ENDBRANCH  18  24
ENDBRANCH   1  18
TORSDOF 10
