REMARK  Name = 
REMARK  52 active torsions:
REMARK  status: ('A' for Active; 'I' for Inactive)
REMARK    1  A    between atoms: C_1  and  C_2
REMARK    2  A    between atoms: C_2  and  C_3
REMARK    3  A    between atoms: C_3  and  C_4
REMARK    4  A    between atoms: C_4  and  C_5
REMARK    5  A    between atoms: C_5  and  C_6
REMARK    6  A    between atoms: C_6  and  C_7
REMARK    7  A    between atoms: C_7  and  C_8
REMARK    8  A    between atoms: C_8  and  C_9
REMARK    9  A    between atoms: C_9  and  C_10
REMARK   10  A    between atoms: C_10  and  C_11
REMARK   11  A    between atoms: C_11  and  C_12
REMARK   12  A    between atoms: C_12  and  C_13
REMARK   13  A    between atoms: C_13  and  C_14
REMARK   14  A    between atoms: C_14  and  C_15
REMARK   15  A    between atoms: C_15  and  C_16
REMARK   16  A    between atoms: N_18  and  CA_19
REMARK   17  A    between atoms: CA_19  and  C_20
REMARK   18  A    between atoms: CA_19  and  CB_73
REMARK   19  A    between atoms: N_21  and  CA_22
REMARK   20  A    between atoms: CA_22  and  C_23
REMARK   21  A    between atoms: CA_22  and  CB_67
REMARK   22  A    between atoms: N_24  and  C_25
REMARK   23  A    between atoms: C_25  and  C_26
REMARK   24  A    between atoms: C_25  and  C_64
REMARK   25  A    between atoms: N_27  and  C_28
REMARK   26  A    between atoms: C_28  and  C_29
REMARK   27  A    between atoms: C_28  and  C_56
REMARK   28  A    between atoms: N_30  and  C_31
REMARK   29  A    between atoms: C_31  and  C_32
REMARK   30  A    between atoms: C_31  and  C_54
REMARK   31  A    between atoms: N_33  and  C_34
REMARK   32  A    between atoms: C_34  and  C_35
REMARK   33  A    between atoms: C_34  and  C_49
REMARK   34  A    between atoms: N_36  and  C_37
REMARK   35  A    between atoms: C_37  and  C_38
REMARK   36  A    between atoms: C_37  and  C_41
REMARK   37  A    between atoms: C_41  and  C_42
REMARK   38  A    between atoms: C_49  and  C_50
REMARK   39  A    between atoms: C_50  and  C_51
REMARK   40  A    between atoms: C_50  and  C_52
REMARK   41  A    between atoms: C_56  and  C_57
REMARK   42  A    between atoms: C_57  and  C_58
REMARK   43  A    between atoms: C_58  and  N_59
REMARK   44  A    between atoms: C_64  and  O_65
REMARK   45  A    between atoms: CB_67  and  CG_68
REMARK   46  A    between atoms: CG_68  and  CD_69
REMARK   47  A    between atoms: CD_69  and  CE_70
REMARK   48  A    between atoms: CE_70  and  NZ_71
REMARK   49  A    between atoms: CB_73  and  CG_74
REMARK   50  A    between atoms: CG_74  and  CD_75
REMARK   51  A    between atoms: CD_75  and  CE_76
REMARK   52  A    between atoms: CE_76  and  NZ_77
REMARK                            x       y       z     vdW  Elec       q    Type
REMARK                         _______ _______ _______ _____ _____    ______ ____
ROOT
ATOM      1  C   UNK A   3       3.543   0.000   0.000  0.00  0.00    +0.000 C 
ATOM      2  N   UNK A   3       4.258  -0.412   0.000  0.00  0.00    +0.000 N 
ATOM      3  O   UNK A   3       3.543   0.825   0.000  0.00  0.00    +0.000 OA
ATOM      4  H   UNK A   3       4.258  -1.397   0.000  0.00  0.00    +0.000 HD
ENDROOT
BRANCH   2   5
ATOM      5  C   UNK A   3       4.972   0.000   0.000  0.00  0.00    +0.000 C 
BRANCH   5   6
ATOM      6  C   UNK A   3       5.687  -0.412   0.000  0.00  0.00    +0.000 C 
ATOM      7  N   UNK A   3       6.401   0.000   0.000  0.00  0.00    +0.000 N 
ATOM      8  O   UNK A   3       5.687  -1.237   0.000  0.00  0.00    +0.000 OA
ATOM      9  H   UNK A   3       6.401   0.984   0.000  0.00  0.00    +0.000 HD
BRANCH   7  10
ATOM     10  C   UNK A   3       7.116  -0.412   0.000  0.00  0.00    +0.000 C 
ATOM     11  C   UNK A   3       7.116  -1.237   0.000  0.00  0.00    +0.000 C 
BRANCH  10  12
ATOM     12  C   UNK A   3       7.830   0.000   0.000  0.00  0.00    +0.000 C 
ATOM     13  N   UNK A   3       8.545  -0.412   0.000  0.00  0.00    +0.000 N 
ATOM     14  O   UNK A   3       7.830   0.825   0.000  0.00  0.00    +0.000 OA
ATOM     15  H   UNK A   3       8.545  -1.397   0.000  0.00  0.00    +0.000 HD
BRANCH  13  16
ATOM     16  C   UNK A   3       9.260   0.000   0.000  0.00  0.00    +0.000 C 
BRANCH  16  17
ATOM     17  C   UNK A   3       9.974  -0.412   0.000  0.00  0.00    +0.000 C 
ATOM     18  N   UNK A   3      10.689   0.000   0.000  0.00  0.00    +0.000 N 
ATOM     19  O   UNK A   3       9.974  -1.237   0.000  0.00  0.00    +0.000 OA
ATOM     20  H   UNK A   3      10.689   0.984   0.000  0.00  0.00    +0.000 HD
BRANCH  18  21
ATOM     21  C   UNK A   3      11.404  -0.412   0.000  0.00  0.00    +0.000 C 
BRANCH  21  22
ATOM     22  C   UNK A   3      12.118   0.000   0.000  0.00  0.00    +0.000 C 
ATOM     23  O   UNK A   3      12.118   0.825   0.000  0.00  0.00    +0.000 OA
ATOM     24  N   UNK A   3      12.833  -0.412   0.000  0.00  0.00    +0.000 N 
ATOM     25  H   UNK A   3      12.833  -1.397   0.000  0.00  0.00    +0.000 HD
ATOM     26  H   UNK A   3      13.685   0.080   0.000  0.00  0.00    +0.000 HD
ENDBRANCH  21  22
BRANCH  21  27
ATOM     27  C   UNK A   3      11.404  -1.237   0.000  0.00  0.00    +0.000 C 
BRANCH  27  28
ATOM     28  C   UNK A   3      12.118  -1.649   0.000  0.00  0.00    +0.000 A 
ATOM     29  C   UNK A   3      12.833  -1.237   0.000  0.00  0.00    +0.000 A 
ATOM     30  C   UNK A   3      13.547  -1.649   0.000  0.00  0.00    +0.000 A 
ATOM     31  C   UNK A   3      13.547  -2.474   0.000  0.00  0.00    +0.000 A 
ATOM     32  C   UNK A   3      12.833  -2.886   0.000  0.00  0.00    +0.000 A 
ATOM     33  C   UNK A   3      12.118  -2.474   0.000  0.00  0.00    +0.000 A 
ENDBRANCH  27  28
ENDBRANCH  21  27
ENDBRANCH  18  21
ENDBRANCH  16  17
BRANCH  16  34
ATOM     34  C   UNK A   3       9.260   0.825   0.000  0.00  0.00    +0.000 C 
BRANCH  34  35
ATOM     35  C   UNK A   3       9.974   1.237   0.000  0.00  0.00    +0.000 C 
ATOM     36  C   UNK A   3      10.689   0.825   0.000  0.00  0.00    +0.000 C 
ATOM     37  C   UNK A   3       9.974   2.061   0.000  0.00  0.00    +0.000 C 
ENDBRANCH  34  35
ENDBRANCH  16  34
ENDBRANCH  13  16
ENDBRANCH  10  12
ENDBRANCH   7  10
ENDBRANCH   5   6
BRANCH   5  38
ATOM     38  C   UNK A   3       4.972   0.825   0.000  0.00  0.00    +0.000 C 
BRANCH  38  39
ATOM     39  C   UNK A   3       5.687   1.237   0.000  0.00  0.00    +0.000 C 
BRANCH  39  40
ATOM     40  C   UNK A   3       5.687   2.061   0.000  0.00  0.00    +0.000 C 
BRANCH  40  41
ATOM     41  N   UNK A   3       6.401   2.474   0.000  0.00  0.00    +0.000 N 
ATOM     42  C   UNK A   3       6.401   3.298   0.000  0.00  0.00    +0.000 C 
ATOM     43  N   UNK A   3       5.687   3.711   0.000  0.00  0.00    +0.000 NA
ATOM     44  N   UNK A   3       7.116   3.711   0.000  0.00  0.00    +0.000 N 
ATOM     45  H   UNK A   3       7.254   1.981   0.000  0.00  0.00    +0.000 HD
ATOM     46  H   UNK A   3       5.686   4.695   0.000  0.00  0.00    +0.000 HD
ATOM     47  H   UNK A   3       7.968   3.218   0.000  0.00  0.00    +0.000 HD
ATOM     48  H   UNK A   3       7.116   4.695   0.000  0.00  0.00    +0.000 HD
ENDBRANCH  40  41
ENDBRANCH  39  40
ENDBRANCH  38  39
ENDBRANCH   5  38
ENDBRANCH   2   5
BRANCH   1  49
ATOM     49  C   UNK A   3       2.828  -0.412   0.000  0.00  0.00    +0.000 C 
BRANCH  49  51
ATOM     50  C   LYS A   2       1.399  -0.412   0.000  0.00  0.00    +0.000 C 
ATOM     51  N   UNK A   3       2.114   0.000   0.000  0.00  0.00    +0.000 N 
ATOM     52  O   LYS A   2       1.399  -1.237   0.000  0.00  0.00    +0.000 OA
ATOM     53  H   UNK A   3       2.114   0.984   0.000  0.00  0.00    +0.000 HD
BRANCH  50  54
ATOM     54  CA  LYS A   2       0.684   0.000   0.000  0.00  0.00    +0.000 C 
BRANCH  54  56
ATOM     55  C   LYS A   1      -0.745   0.000   0.000  0.00  0.00    +0.000 C 
ATOM     56  N   LYS A   2      -0.030  -0.412   0.000  0.00  0.00    +0.000 N 
ATOM     57  O   LYS A   1      -0.745   0.825   0.000  0.00  0.00    +0.000 OA
ATOM     58  H   LYS A   2      -0.030  -1.397   0.000  0.00  0.00    +0.000 HD
BRANCH  55  59
ATOM     59  CA  LYS A   1      -1.459  -0.412   0.000  0.00  0.00    +0.000 C 
BRANCH  59  62
ATOM     60  C   UNK A   0      -2.889  -0.412   0.000  0.00  0.00    +0.000 C 
ATOM     61  O   UNK A   0      -2.889  -1.237   0.000  0.00  0.00    +0.000 OA
ATOM     62  N   LYS A   1      -2.174   0.000   0.000  0.00  0.00    +0.000 N 
ATOM     63  H   LYS A   1      -2.174   0.984   0.000  0.00  0.00    +0.000 HD
BRANCH  60  64
ATOM     64  C   UNK A   0      -3.603   0.000   0.000  0.00  0.00    +0.000 C 
BRANCH  64  65
ATOM     65  C   UNK A   0      -4.318  -0.412   0.000  0.00  0.00    +0.000 C 
BRANCH  65  66
ATOM     66  C   UNK A   0      -5.005   0.000   0.000  0.00  0.00    +0.000 C 
BRANCH  66  67
ATOM     67  C   UNK A   0      -5.720  -0.412   0.000  0.00  0.00    +0.000 C 
BRANCH  67  68
ATOM     68  C   UNK A   0      -6.434   0.000   0.000  0.00  0.00    +0.000 C 
BRANCH  68  69
ATOM     69  C   UNK A   0      -7.149  -0.412   0.000  0.00  0.00    +0.000 C 
BRANCH  69  70
ATOM     70  C   UNK A   0      -7.830   0.000   0.000  0.00  0.00    +0.000 C 
BRANCH  70  71
ATOM     71  C   UNK A   0      -8.545  -0.412   0.000  0.00  0.00    +0.000 C 
BRANCH  71  72
ATOM     72  C   UNK A   0      -9.260   0.000   0.000  0.00  0.00    +0.000 C 
BRANCH  72  73
ATOM     73  C   UNK A   0      -9.974  -0.412   0.000  0.00  0.00    +0.000 C 
BRANCH  73  74
ATOM     74  C   UNK A   0     -10.689   0.000   0.000  0.00  0.00    +0.000 C 
BRANCH  74  75
ATOM     75  C   UNK A   0     -11.404  -0.412   0.000  0.00  0.00    +0.000 C 
BRANCH  75  76
ATOM     76  C   UNK A   0     -12.118   0.000   0.000  0.00  0.00    +0.000 C 
BRANCH  76  77
ATOM     77  C   UNK A   0     -12.833  -0.412   0.000  0.00  0.00    +0.000 C 
ATOM     78  C   UNK A   0     -13.547   0.000   0.000  0.00  0.00    +0.000 C 
ENDBRANCH  76  77
ENDBRANCH  75  76
ENDBRANCH  74  75
ENDBRANCH  73  74
ENDBRANCH  72  73
ENDBRANCH  71  72
ENDBRANCH  70  71
ENDBRANCH  69  70
ENDBRANCH  68  69
ENDBRANCH  67  68
ENDBRANCH  66  67
ENDBRANCH  65  66
ENDBRANCH  64  65
ENDBRANCH  60  64
ENDBRANCH  59  62
BRANCH  59  79
ATOM     79  CB  LYS A   1      -1.459  -1.237   0.000  0.00  0.00    +0.000 C 
BRANCH  79  80
ATOM     80  CG  LYS A   1      -2.174  -1.649   0.000  0.00  0.00    +0.000 C 
BRANCH  80  81
ATOM     81  CD  LYS A   1      -2.174  -2.474   0.000  0.00  0.00    +0.000 C 
BRANCH  81  82
ATOM     82  CE  LYS A   1      -2.889  -2.886   0.000  0.00  0.00    +0.000 C 
BRANCH  82  83
ATOM     83  NZ  LYS A   1      -2.889  -3.711   0.000  0.00  0.00    +0.000 NA
ATOM     84  HZ1 LYS A   1      -3.772  -4.221   0.000  0.00  0.00    +0.000 HD
ATOM     85  HZ2 LYS A   1      -2.005  -4.221   0.000  0.00  0.00    +0.000 HD
ENDBRANCH  82  83
ENDBRANCH  81  82
ENDBRANCH  80  81
ENDBRANCH  79  80
ENDBRANCH  59  79
ENDBRANCH  55  59
ENDBRANCH  54  56
BRANCH  54  86
ATOM     86  CB  LYS A   2       0.684   0.825   0.000  0.00  0.00    +0.000 C 
BRANCH  86  87
ATOM     87  CG  LYS A   2       1.399   1.237   0.000  0.00  0.00    +0.000 C 
BRANCH  87  88
ATOM     88  CD  LYS A   2       1.399   2.061   0.000  0.00  0.00    +0.000 C 
BRANCH  88  89
ATOM     89  CE  LYS A   2       2.114   2.474   0.000  0.00  0.00    +0.000 C 
BRANCH  89  90
ATOM     90  NZ  LYS A   2       2.114   3.298   0.000  0.00  0.00    +0.000 NA
ATOM     91  HZ1 LYS A   2       2.997   3.808   0.000  0.00  0.00    +0.000 HD
ATOM     92  HZ2 LYS A   2       1.230   3.808   0.000  0.00  0.00    +0.000 HD
ENDBRANCH  89  90
ENDBRANCH  88  89
ENDBRANCH  87  88
ENDBRANCH  86  87
ENDBRANCH  54  86
ENDBRANCH  50  54
ENDBRANCH  49  51
BRANCH  49  93
ATOM     93  C   UNK A   3       2.828  -1.237   0.000  0.00  0.00    +0.000 C 
BRANCH  93  94
ATOM     94  O   UNK A   3       3.543  -1.649   0.000  0.00  0.00    +0.000 OA
ATOM     95  H   UNK A   3       3.543  -2.619   0.000  0.00  0.00    +0.000 HD
ENDBRANCH  93  94
ENDBRANCH  49  93
ENDBRANCH   1  49
TORSDOF 48
