REMARK  Name = 
REMARK  37 active torsions:
REMARK  status: ('A' for Active; 'I' for Inactive)
REMARK    1  A    between atoms: CD1_1  and  CG1_2
REMARK    2  A    between atoms: CG1_2  and  CB_3
REMARK    3  A    between atoms: CB_3  and  CG2_4
REMARK    4  A    between atoms: CB_3  and  CA_5
REMARK    5  A    between atoms: CA_5  and  N_6
REMARK    6  A    between atoms: CA_5  and  C_45
REMARK    7  A    between atoms: C_7  and  CA_9
REMARK    8  A    between atoms: CA_9  and  CB_10
REMARK    9  A    between atoms: CA_9  and  N_18
REMARK   10  A    between atoms: CB_10  and  CG_11
REMARK   11  A    between atoms: CZ_14  and  OH_15
REMARK   12  A    between atoms: C_19  and  CA_21
REMARK   13  A    between atoms: CA_21  and  N_22
REMARK   14  A    between atoms: CA_21  and  CB_42
REMARK   15  A    between atoms: C_23  and  CA_25
REMARK   16  A    between atoms: CA_25  and  CB_26
REMARK   17  A    between atoms: CA_25  and  N_33
REMARK   18  A    between atoms: CB_26  and  CG_27
REMARK   19  A    between atoms: CG_27  and  CD_28
REMARK   20  A    between atoms: CD_28  and  NE_29
REMARK   21  A    between atoms: C_34  and  CA_36
REMARK   22  A    between atoms: CA_36  and  N_37
REMARK   23  A    between atoms: CA_36  and  CB_38
REMARK   24  A    between atoms: CB_38  and  CG_39
REMARK   25  A    between atoms: CG_39  and  OD2_41
REMARK   26  A    between atoms: CB_42  and  CG1_43
REMARK   27  A    between atoms: CB_42  and  CG2_44
REMARK   28  A    between atoms: N_47  and  CA_48
REMARK   29  A    between atoms: CA_48  and  CB_49
REMARK   30  A    between atoms: CA_48  and  C_55
REMARK   31  A    between atoms: CB_49  and  CG_50
REMARK   32  A    between atoms: CA_61  and  C_62
REMARK   33  A    between atoms: N_64  and  CA_65
REMARK   34  A    between atoms: CA_65  and  CB_66
REMARK   35  A    between atoms: CA_65  and  C_73
REMARK   36  A    between atoms: CB_66  and  CG_67
REMARK   37  A    between atoms: C_73  and  OXT_75
REMARK                            x       y       z     vdW  Elec       q    Type
REMARK                         _______ _______ _______ _____ _____    ______ ____
ROOT
ATOM      1  CA  TYR A   4      -2.473  -1.851   0.494  0.00  0.00    +0.000 C 
ENDROOT
BRANCH   1   3
ATOM      2  N   ILE A   5      -0.051  -1.602   0.776  0.00  0.00    +0.000 N 
ATOM      3  C   TYR A   4      -1.270  -1.610   1.532  0.00  0.00    +0.000 C 
ATOM      4  O   TYR A   4      -1.303  -0.783   2.402  0.00  0.00    +0.000 OA
ATOM      5  H   ILE A   5       0.063  -1.244  -0.134  0.00  0.00    +0.000 HD
BRANCH   2   6
ATOM      6  CA  ILE A   5       1.064  -2.263   1.652  0.00  0.00    +0.000 C 
BRANCH   6   7
ATOM      7  C   ILE A   5       2.253  -1.526   0.856  0.00  0.00    +0.000 C 
ATOM      8  O   ILE A   5       2.057  -0.277   0.695  0.00  0.00    +0.000 OA
ATOM      9  N   HIS A   6       3.507  -1.804   1.445  0.00  0.00    +0.000 N 
ATOM     10  H   HIS A   6       3.663  -2.639   1.943  0.00  0.00    +0.000 HD
BRANCH   9  11
ATOM     11  CA  HIS A   6       4.648  -0.726   1.275  0.00  0.00    +0.000 C 
BRANCH  11  12
ATOM     12  C   HIS A   6       4.968  -1.179  -0.235  0.00  0.00    +0.000 C 
ATOM     13  O   HIS A   6       4.362  -0.328  -0.965  0.00  0.00    +0.000 OA
ATOM     14  N   PRO A   7       6.196  -1.589  -0.647  0.00  0.00    +0.000 N 
ATOM     15  CD  PRO A   7       6.538  -1.844  -2.021  0.00  0.00    +0.000 C 
ATOM     16  CG  PRO A   7       7.442  -2.988  -1.761  0.00  0.00    +0.000 C 
ATOM     17  CB  PRO A   7       8.413  -2.430  -0.820  0.00  0.00    +0.000 C 
ATOM     18  CA  PRO A   7       7.580  -1.306   0.041  0.00  0.00    +0.000 C 
BRANCH  18  19
ATOM     19  C   PRO A   7       7.925  -0.117  -1.007  0.00  0.00    +0.000 C 
ATOM     20  O   PRO A   7       7.216   0.892  -0.714  0.00  0.00    +0.000 OA
ATOM     21  N   PHE A   8       9.260   0.062  -1.176  0.00  0.00    +0.000 N 
ATOM     22  H   PHE A   8       9.832  -0.739  -1.211  0.00  0.00    +0.000 HD
BRANCH  21  23
ATOM     23  CA  PHE A   8       9.949   1.464  -1.321  0.00  0.00    +0.000 C 
BRANCH  23  24
ATOM     24  C   PHE A   8      10.789   1.250   0.044  0.00  0.00    +0.000 C 
ATOM     25  O   PHE A   8      10.151   0.927   1.059  0.00  0.00    +0.000 OA
BRANCH  24  26
ATOM     26  OXT PHE A   8      11.869   0.408  -0.257  0.00  0.00    +0.000 OA
ATOM     27  HXT PHE A   8      12.403   0.582  -1.008  0.00  0.00    +0.000 HD
ENDBRANCH  24  26
ENDBRANCH  23  24
BRANCH  23  28
ATOM     28  CB  PHE A   8       8.767   2.337  -0.573  0.00  0.00    +0.000 C 
BRANCH  28  29
ATOM     29  CG  PHE A   8       9.475   3.572  -0.172  0.00  0.00    +0.000 A 
ATOM     30  CD1 PHE A   8       9.031   4.239   0.939  0.00  0.00    +0.000 A 
ATOM     31  CE1 PHE A   8       9.720   5.329   1.396  0.00  0.00    +0.000 A 
ATOM     32  CZ  PHE A   8      10.978   5.552   0.898  0.00  0.00    +0.000 A 
ATOM     33  CE2 PHE A   8      11.285   5.099  -0.376  0.00  0.00    +0.000 A 
ATOM     34  CD2 PHE A   8      10.530   4.063  -0.905  0.00  0.00    +0.000 A 
ENDBRANCH  28  29
ENDBRANCH  23  28
ENDBRANCH  21  23
ENDBRANCH  18  19
ENDBRANCH  11  12
BRANCH  11  35
ATOM     35  CB  HIS A   6       5.812  -1.651   1.968  0.00  0.00    +0.000 C 
BRANCH  35  36
ATOM     36  CG  HIS A   6       5.471  -3.043   1.965  0.00  0.00    +0.000 A 
ATOM     37  CD2 HIS A   6       5.113  -3.676   3.155  0.00  0.00    +0.000 A 
ATOM     38  NE2 HIS A   6       4.481  -4.825   2.920  0.00  0.00    +0.000 NA
ATOM     39  CE1 HIS A   6       4.276  -4.880   1.606  0.00  0.00    +0.000 A 
ATOM     40  ND1 HIS A   6       4.954  -3.881   1.031  0.00  0.00    +0.000 N 
ATOM     41  HD1 HIS A   6       5.063  -3.769   0.059  0.00  0.00    +0.000 HD
ENDBRANCH  35  36
ENDBRANCH  11  35
ENDBRANCH   9  11
ENDBRANCH   6   7
BRANCH   6  42
ATOM     42  CB  ILE A   5       0.915  -3.677   0.694  0.00  0.00    +0.000 C 
ATOM     43  CG2 ILE A   5       1.838  -3.252  -0.562  0.00  0.00    +0.000 C 
BRANCH  42  45
ATOM     44  CD1 ILE A   5       2.507  -5.256   0.616  0.00  0.00    +0.000 C 
ATOM     45  CG1 ILE A   5       2.098  -4.444   1.486  0.00  0.00    +0.000 C 
ENDBRANCH  42  45
ENDBRANCH   6  42
ENDBRANCH   2   6
ENDBRANCH   1   3
BRANCH   1  46
ATOM     46  N   TYR A   4      -3.600  -1.125   1.333  0.00  0.00    +0.000 N 
ATOM     47  C   VAL A   3      -4.501  -0.642   0.326  0.00  0.00    +0.000 C 
ATOM     48  O   VAL A   3      -4.052   0.405  -0.169  0.00  0.00    +0.000 OA
ATOM     49  H   TYR A   4      -3.667  -1.028   2.311  0.00  0.00    +0.000 HD
BRANCH  47  50
ATOM     50  CA  VAL A   3      -6.076  -0.812   0.565  0.00  0.00    +0.000 C 
BRANCH  50  51
ATOM     51  N   VAL A   3      -6.428   0.318  -0.484  0.00  0.00    +0.000 N 
ATOM     52  C   ARG A   2      -7.415   1.090   0.108  0.00  0.00    +0.000 C 
ATOM     53  O   ARG A   2      -8.515   0.656  -0.009  0.00  0.00    +0.000 OA
ATOM     54  H   VAL A   3      -6.029   0.447  -1.375  0.00  0.00    +0.000 HD
BRANCH  52  55
ATOM     55  CA  ARG A   2      -7.082   2.560   0.653  0.00  0.00    +0.000 C 
BRANCH  55  56
ATOM     56  N   ARG A   2      -8.101   3.236  -0.344  0.00  0.00    +0.000 N 
ATOM     57  C   ASP A   1      -8.046   4.606  -0.258  0.00  0.00    +0.000 C 
ATOM     58  O   ASP A   1      -6.996   5.180   0.176  0.00  0.00    +0.000 OA
ATOM     59  H   ARG A   2      -8.698   2.740  -0.950  0.00  0.00    +0.000 HD
BRANCH  57  60
ATOM     60  CA  ASP A   1      -8.576   5.561  -1.443  0.00  0.00    +0.000 C 
BRANCH  60  61
ATOM     61  N   ASP A   1      -8.794   4.405  -2.496  0.00  0.00    +0.000 NA
ATOM     62  H1  ASP A   1      -9.296   3.634  -2.056  0.00  0.00    +0.000 HD
ATOM     63  H2  ASP A   1      -7.889   4.075  -2.831  0.00  0.00    +0.000 HD
ENDBRANCH  60  61
BRANCH  60  64
ATOM     64  CB  ASP A   1     -10.139   5.510  -0.930  0.00  0.00    +0.000 C 
BRANCH  64  65
ATOM     65  CG  ASP A   1     -10.521   4.114  -0.737  0.00  0.00    +0.000 C 
ATOM     66  OD1 ASP A   1     -11.150   3.875   0.344  0.00  0.00    +0.000 OA
BRANCH  65  67
ATOM     67  OD2 ASP A   1     -10.812   3.215  -1.741  0.00  0.00    +0.000 OA
ATOM     68  HD2 ASP A   1     -10.403   3.300  -2.580  0.00  0.00    +0.000 HD
ENDBRANCH  65  67
ENDBRANCH  64  65
ENDBRANCH  60  64
ENDBRANCH  57  60
ENDBRANCH  55  56
BRANCH  55  69
ATOM     69  CB  ARG A   2      -8.195   2.514   1.863  0.00  0.00    +0.000 C 
BRANCH  69  70
ATOM     70  CG  ARG A   2      -8.255   1.169   2.438  0.00  0.00    +0.000 C 
BRANCH  70  71
ATOM     71  CD  ARG A   2      -9.622   0.756   2.881  0.00  0.00    +0.000 C 
BRANCH  71  72
ATOM     72  NE  ARG A   2     -10.695   1.599   2.351  0.00  0.00    +0.000 N 
ATOM     73  CZ  ARG A   2     -11.180   1.316   1.029  0.00  0.00    +0.000 C 
ATOM     74  NH1 ARG A   2     -11.184   0.093   0.586  0.00  0.00    +0.000 NA
ATOM     75  NH2 ARG A   2     -11.213   2.315   0.000  0.00  0.00    +0.000 N 
ATOM     76  HE  ARG A   2     -11.071   2.337   2.884  0.00  0.00    +0.000 HD
ATOM     77  HH1 ARG A   2     -11.163  -0.660   1.219  0.00  0.00    +0.000 HD
ATOM     78 HH21 ARG A   2     -11.213   3.270   0.241  0.00  0.00    +0.000 HD
ATOM     79 HH22 ARG A   2     -11.236   2.046  -0.947  0.00  0.00    +0.000 HD
ENDBRANCH  71  72
ENDBRANCH  70  71
ENDBRANCH  69  70
ENDBRANCH  55  69
ENDBRANCH  52  55
ENDBRANCH  50  51
BRANCH  50  80
ATOM     80  CB  VAL A   3      -6.225  -1.992  -0.577  0.00  0.00    +0.000 C 
ATOM     81  CG1 VAL A   3      -7.685  -2.320  -0.641  0.00  0.00    +0.000 C 
ATOM     82  CG2 VAL A   3      -5.554  -3.154   0.149  0.00  0.00    +0.000 C 
ENDBRANCH  50  80
ENDBRANCH  47  50
ENDBRANCH   1  46
BRANCH   1  83
ATOM     83  CB  TYR A   4      -2.099  -0.494  -0.373  0.00  0.00    +0.000 C 
BRANCH  83  84
ATOM     84  CG  TYR A   4      -1.710  -1.129  -1.671  0.00  0.00    +0.000 A 
ATOM     85  CD1 TYR A   4      -0.517  -0.791  -2.300  0.00  0.00    +0.000 A 
ATOM     86  CE1 TYR A   4       0.200  -1.748  -3.008  0.00  0.00    +0.000 A 
ATOM     87  CZ  TYR A   4      -0.257  -3.060  -3.059  0.00  0.00    +0.000 A 
ATOM     88  CE2 TYR A   4      -1.638  -3.181  -2.976  0.00  0.00    +0.000 A 
ATOM     89  CD2 TYR A   4      -2.318  -2.281  -2.154  0.00  0.00    +0.000 A 
BRANCH  87  90
ATOM     90  OH  TYR A   4       0.608  -4.150  -2.915  0.00  0.00    +0.000 OA
ATOM     91  HH  TYR A   4       1.534  -4.024  -2.979  0.00  0.00    +0.000 HD
ENDBRANCH  87  90
ENDBRANCH  83  84
ENDBRANCH   1  83
TORSDOF 33
