REMARK  Name = 
REMARK  20 active torsions:
REMARK  status: ('A' for Active; 'I' for Inactive)
REMARK    1  A    between atoms: C_1  and  C_2
REMARK    2  A    between atoms: C_2  and  C_3
REMARK    3  A    between atoms: C_2  and  C_4
REMARK    4  A    between atoms: C_4  and  N_5
REMARK    5  A    between atoms: N_5  and  C_6
REMARK    6  A    between atoms: C_6  and  C_7
REMARK    7  A    between atoms: C_7  and  C_8
REMARK    8  A    between atoms: C_7  and  O_37
REMARK    9  A    between atoms: C_8  and  C_9
REMARK   10  A    between atoms: C_8  and  N_16
REMARK   11  A    between atoms: C_9  and  C_10
REMARK   12  A    between atoms: C_17  and  C_19
REMARK   13  A    between atoms: C_19  and  C_20
REMARK   14  A    between atoms: C_19  and  N_24
REMARK   15  A    between atoms: C_20  and  C_21
REMARK   16  A    between atoms: C_25  and  C_27
REMARK   17  A    between atoms: N_40  and  C_41
REMARK   18  A    between atoms: C_41  and  C_42
REMARK   19  A    between atoms: C_41  and  C_43
REMARK   20  A    between atoms: C_41  and  C_44
REMARK                            x       y       z     vdW  Elec       q    Type
REMARK                         _______ _______ _______ _____ _____    ______ ____
ROOT
ATOM      1  C   UNL     1      12.406  -3.968   0.000  0.00  0.00    +0.000 C 
ENDROOT
BRANCH   1   2
ATOM      2  N   UNL     1      13.030  -3.428   0.000  0.00  0.00    +0.000 N 
ATOM      3  C   UNL     1      13.809  -3.698   0.000  0.00  0.00    +0.000 C 
ATOM      4  O   UNL     1      13.965  -4.508   0.000  0.00  0.00    +0.000 OA
ATOM      5  H   UNL     1      12.844  -2.461   0.000  0.00  0.00    +0.000 HD
BRANCH   3   6
ATOM      6  C   UNL     1      14.433  -3.158   0.000  0.00  0.00    +0.000 C 
BRANCH   6   7
ATOM      7  N   UNL     1      15.213  -3.428   0.000  0.00  0.00    +0.000 N 
ATOM      8  C   UNL     1      15.836  -2.888   0.000  0.00  0.00    +0.000 C 
ATOM      9  O   UNL     1      15.680  -2.077   0.000  0.00  0.00    +0.000 OA
ATOM     10  H   UNL     1      15.399  -4.394   0.000  0.00  0.00    +0.000 HD
BRANCH   8  11
ATOM     11  C   UNL     1      16.616  -3.158   0.000  0.00  0.00    +0.000 A 
ATOM     12  C   UNL     1      17.240  -2.618   0.000  0.00  0.00    +0.000 A 
ATOM     13  C   UNL     1      18.019  -2.888   0.000  0.00  0.00    +0.000 A 
ATOM     14  C   UNL     1      18.175  -3.698   0.000  0.00  0.00    +0.000 A 
ATOM     15  C   UNL     1      18.955  -3.968   0.000  0.00  0.00    +0.000 A 
ATOM     16  C   UNL     1      19.110  -4.778   0.000  0.00  0.00    +0.000 A 
ATOM     17  C   UNL     1      18.487  -5.318   0.000  0.00  0.00    +0.000 A 
ATOM     18  C   UNL     1      17.707  -5.048   0.000  0.00  0.00    +0.000 A 
ATOM     19  C   UNL     1      17.551  -4.238   0.000  0.00  0.00    +0.000 A 
ATOM     20  N   UNL     1      16.772  -3.968   0.000  0.00  0.00    +0.000 NA
ENDBRANCH   8  11
ENDBRANCH   6   7
BRANCH   6  21
ATOM     21  C   UNL     1      14.277  -2.347   0.000  0.00  0.00    +0.000 C 
BRANCH  21  22
ATOM     22  C   UNL     1      13.498  -2.077   0.000  0.00  0.00    +0.000 C 
ATOM     23  O   UNL     1      12.874  -2.618   0.000  0.00  0.00    +0.000 OA
ATOM     24  N   UNL     1      13.342  -1.267   0.000  0.00  0.00    +0.000 N 
ATOM     25  H   UNL     1      14.086  -0.623   0.000  0.00  0.00    +0.000 HD
ATOM     26  H   UNL     1      12.412  -0.945   0.000  0.00  0.00    +0.000 HD
ENDBRANCH  21  22
ENDBRANCH   6  21
ENDBRANCH   3   6
ENDBRANCH   1   2
BRANCH   1  27
ATOM     27  C   UNL     1      11.627  -3.698   0.000  0.00  0.00    +0.000 C 
BRANCH  27  28
ATOM     28  O   UNL     1      11.471  -2.888   0.000  0.00  0.00    +0.000 OA
ATOM     29  H   UNL     1      12.204  -2.252   0.000  0.00  0.00    +0.000 HD
ENDBRANCH  27  28
BRANCH  27  30
ATOM     30  C   UNL     1      11.003  -4.238   0.000  0.00  0.00    +0.000 C 
BRANCH  30  31
ATOM     31  N   UNL     1      10.224  -3.968   0.000  0.00  0.00    +0.000 N 
ATOM     32  C   UNL     1       9.600  -4.508   0.000  0.00  0.00    +0.000 C 
ATOM     33  O   UNL     1       8.820  -4.238   0.000  0.00  0.00    +0.000 OA
ATOM     34  N   UNL     1       9.756  -5.318   0.000  0.00  0.00    +0.000 N 
ATOM     35  H   UNL     1      10.686  -5.640   0.000  0.00  0.00    +0.000 HD
BRANCH  34  36
ATOM     36  C   UNL     1       9.132  -5.858   0.000  0.00  0.00    +0.000 C 
ATOM     37  C   UNL     1       8.509  -6.398   0.000  0.00  0.00    +0.000 C 
ATOM     38  C   UNL     1       8.592  -5.234   0.000  0.00  0.00    +0.000 C 
ATOM     39  C   UNL     1       9.672  -6.482   0.000  0.00  0.00    +0.000 C 
ENDBRANCH  34  36
BRANCH  31  40
ATOM     40  C   UNL     1      10.068  -3.158   0.000  0.00  0.00    +0.000 C 
BRANCH  40  42
ATOM     41  C   UNL     1       8.665  -3.428   0.000  0.00  0.00    +0.000 C 
ATOM     42  C   UNL     1       9.288  -2.888   0.000  0.00  0.00    +0.000 C 
ATOM     43  C   UNL     1       9.132  -2.077   0.000  0.00  0.00    +0.000 C 
ENDBRANCH  40  42
ENDBRANCH  31  40
ENDBRANCH  30  31
ENDBRANCH  27  30
ENDBRANCH   1  27
BRANCH   1  44
ATOM     44  C   UNL     1      12.562  -4.778   0.000  0.00  0.00    +0.000 C 
BRANCH  44  45
ATOM     45  C   UNL     1      11.939  -5.318   0.000  0.00  0.00    +0.000 A 
ATOM     46  C   UNL     1      12.095  -6.128   0.000  0.00  0.00    +0.000 A 
ATOM     47  C   UNL     1      11.471  -6.668   0.000  0.00  0.00    +0.000 A 
ATOM     48  C   UNL     1      10.691  -6.398   0.000  0.00  0.00    +0.000 A 
ATOM     49  C   UNL     1      10.535  -5.588   0.000  0.00  0.00    +0.000 A 
ATOM     50  C   UNL     1      11.159  -5.048   0.000  0.00  0.00    +0.000 A 
ENDBRANCH  44  45
ENDBRANCH   1  44
TORSDOF 15
