REMARK  Name = 71481120
REMARK  16 active torsions:
REMARK  status: ('A' for Active; 'I' for Inactive)
REMARK    1  A    between atoms: S_1  and  O_4
REMARK    2  A    between atoms: S_1  and  C_18
REMARK    3  A    between atoms: O_2  and  C_18
REMARK    4  A    between atoms: O_8  and  C_26
REMARK    5  A    between atoms: O_8  and  C_27
REMARK    6  A    between atoms: N_10  and  C_15
REMARK    7  A    between atoms: N_12  and  C_20
REMARK    8  A    between atoms: C_13  and  C_14
REMARK    9  A    between atoms: C_14  and  C_15
REMARK   10  A    between atoms: C_15  and  C_18
REMARK   11  A    between atoms: C_20  and  C_21
REMARK   12  A    between atoms: C_20  and  C_22
REMARK   13  A    between atoms: C_22  and  C_23
REMARK   14  A    between atoms: C_23  and  C_24
REMARK   15  A    between atoms: C_23  and  C_25
REMARK   16  A    between atoms: C_27  and  C_28
REMARK                            x       y       z     vdW  Elec       q    Type
REMARK                         _______ _______ _______ _____ _____    ______ ____
ROOT
ATOM      1  O   UNL     1       0.489   0.842   1.472  0.00  0.00    +0.000 OA
ATOM      2  N   UNL     1       1.831   0.919  -0.422  0.00  0.00    +0.000 N 
ATOM      3  C   UNL     1       0.678   1.181   0.306  0.00  0.00    +0.000 C 
ATOM      4  H   UNL     1       1.917   1.302  -1.359  0.00  0.00    +0.000 HD
ENDROOT
BRANCH   2   5
ATOM      5  C   UNL     1       2.964   0.204   0.119  0.00  0.00    +0.000 C 
BRANCH   5   6
ATOM      6  C   UNL     1       3.668  -0.598  -0.989  0.00  0.00    +0.000 C 
BRANCH   6   9
ATOM      7  O   UNL     1       3.345  -2.956   0.772  0.00  0.00    +0.000 OA
ATOM      8  N   UNL     1       3.217  -4.172  -1.224  0.00  0.00    +0.000 N 
ATOM      9  C   UNL     1       2.915  -1.857  -1.369  0.00  0.00    +0.000 C 
ATOM     10  C   UNL     1       3.324  -2.419  -2.734  0.00  0.00    +0.000 C 
ATOM     11  C   UNL     1       2.992  -3.894  -2.616  0.00  0.00    +0.000 C 
ATOM     12  C   UNL     1       3.201  -3.022  -0.439  0.00  0.00    +0.000 C 
ATOM     13  H   UNL     1       3.345  -5.105  -0.847  0.00  0.00    +0.000 HD
ENDBRANCH   6   9
ENDBRANCH   5   6
BRANCH   5  14
ATOM     14  C   UNL     1       3.946   1.162   0.820  0.00  0.00    +0.000 C 
BRANCH  14  15
ATOM     15  S   UNL     1       4.877   0.352   2.125  0.00  0.00    +0.000 S 
ATOM     16  O   UNL     1       5.968  -0.398   1.539  0.00  0.00    +0.000 OA
ATOM     17  O   UNL     1       3.945  -0.253   3.055  0.00  0.00    +0.000 OA
BRANCH  15  18
ATOM     18  O   UNL     1       5.483   1.703   2.807  0.00  0.00    +0.000 OA
ATOM     19  H   UNL     1       4.837   2.252   3.311  0.00  0.00    +0.000 HD
ENDBRANCH  15  18
ENDBRANCH  14  15
BRANCH  14  20
ATOM     20  O   UNL     1       4.788   1.812  -0.127  0.00  0.00    +0.000 OA
ATOM     21  H   UNL     1       4.211   2.277  -0.757  0.00  0.00    +0.000 HD
ENDBRANCH  14  20
ENDBRANCH   5  14
ENDBRANCH   2   5
BRANCH   3  22
ATOM     22  C   UNL     1      -0.375   1.901  -0.530  0.00  0.00    +0.000 C 
BRANCH  22  24
ATOM     23  O   UNL     1      -1.740  -0.455  -1.546  0.00  0.00    +0.000 OA
ATOM     24  N   UNL     1      -1.659   1.384  -0.132  0.00  0.00    +0.000 N 
ATOM     25  C   UNL     1      -2.234   0.250  -0.672  0.00  0.00    +0.000 C 
ATOM     26  H   UNL     1      -2.153   1.846   0.626  0.00  0.00    +0.000 HD
BRANCH  25  27
ATOM     27  O   UNL     1      -3.448   0.022  -0.086  0.00  0.00    +0.000 OA
BRANCH  27  28
ATOM     28  C   UNL     1      -4.160  -1.129  -0.554  0.00  0.00    +0.000 C 
BRANCH  28  29
ATOM     29  C   UNL     1      -5.462  -1.234   0.185  0.00  0.00    +0.000 A 
ATOM     30  C   UNL     1      -5.532  -1.957   1.376  0.00  0.00    +0.000 A 
ATOM     31  C   UNL     1      -6.602  -0.607  -0.318  0.00  0.00    +0.000 A 
ATOM     32  C   UNL     1      -6.742  -2.054   2.063  0.00  0.00    +0.000 A 
ATOM     33  C   UNL     1      -7.812  -0.704   0.369  0.00  0.00    +0.000 A 
ATOM     34  C   UNL     1      -7.882  -1.428   1.559  0.00  0.00    +0.000 A 
ENDBRANCH  28  29
ENDBRANCH  27  28
ENDBRANCH  25  27
ENDBRANCH  22  24
BRANCH  22  35
ATOM     35  C   UNL     1      -0.271   3.417  -0.325  0.00  0.00    +0.000 C 
BRANCH  35  36
ATOM     36  C   UNL     1      -1.323   4.247  -1.089  0.00  0.00    +0.000 C 
ATOM     37  C   UNL     1      -1.204   5.744  -0.802  0.00  0.00    +0.000 C 
ATOM     38  C   UNL     1      -1.185   3.998  -2.593  0.00  0.00    +0.000 C 
ENDBRANCH  35  36
ENDBRANCH  22  35
ENDBRANCH   3  22
TORSDOF 14
