REMARK  Name = 54752934
REMARK  13 active torsions:
REMARK  status: ('A' for Active; 'I' for Inactive)
REMARK    1  A    between atoms: O_4  and  C_22
REMARK    2  A    between atoms: O_4  and  C_23
REMARK    3  A    between atoms: N_7  and  C_12
REMARK    4  A    between atoms: N_8  and  C_15
REMARK    5  A    between atoms: C_9  and  C_10
REMARK    6  A    between atoms: C_10  and  C_12
REMARK    7  A    between atoms: C_12  and  C_19
REMARK    8  A    between atoms: C_15  and  C_16
REMARK    9  A    between atoms: C_15  and  C_18
REMARK   10  A    between atoms: C_16  and  C_17
REMARK   11  A    between atoms: C_17  and  C_20
REMARK   12  A    between atoms: C_17  and  C_21
REMARK   13  A    between atoms: C_23  and  C_24
REMARK                            x       y       z     vdW  Elec       q    Type
REMARK                         _______ _______ _______ _____ _____    ______ ____
ROOT
ATOM      1  C   UNK A   1       0.640  -2.029   0.057  0.00  0.00    +0.000 C 
ENDROOT
BRANCH   1   4
ATOM      2  O   UNK A   1       1.296  -0.669  -1.841  0.00  0.00    +0.000 OA
ATOM      3  N   UNK A   1       2.798  -0.950  -0.093  0.00  0.00    +0.000 N 
ATOM      4  C   UNK A   1       1.595  -1.157  -0.753  0.00  0.00    +0.000 C 
ATOM      5  H   UNK A   1       2.968  -1.428   0.788  0.00  0.00    +0.000 HD
BRANCH   3   6
ATOM      6  C   UNK A   1       3.858  -0.120  -0.619  0.00  0.00    +0.000 C 
BRANCH   6   8
ATOM      7  O   UNK A   1       6.190  -0.675  -0.928  0.00  0.00    +0.000 OA
ATOM      8  C   UNK A   1       5.021  -1.050  -0.890  0.00  0.00    +0.000 C 
ENDBRANCH   6   8
BRANCH   6   9
ATOM      9  C   UNK A   1       4.248   1.005   0.337  0.00  0.00    +0.000 C 
BRANCH   9  12
ATOM     10  O   UNK A   1       2.982   2.805  -1.644  0.00  0.00    +0.000 OA
ATOM     11  N   UNK A   1       2.488   4.154   0.204  0.00  0.00    +0.000 N 
ATOM     12  C   UNK A   1       3.091   1.937   0.640  0.00  0.00    +0.000 C 
ATOM     13  C   UNK A   1       3.315   2.796   1.887  0.00  0.00    +0.000 C 
ATOM     14  C   UNK A   1       2.445   4.011   1.633  0.00  0.00    +0.000 C 
ATOM     15  C   UNK A   1       2.875   2.982  -0.440  0.00  0.00    +0.000 C 
ATOM     16  H   UNK A   1       2.236   5.006  -0.287  0.00  0.00    +0.000 HD
ENDBRANCH   9  12
ENDBRANCH   6   9
ENDBRANCH   3   6
ENDBRANCH   1   4
BRANCH   1  18
ATOM     17  O   UNK A   0      -0.701   0.105   1.502  0.00  0.00    +0.000 OA
ATOM     18  N   UNK A   1      -0.688  -1.516  -0.158  0.00  0.00    +0.000 N 
ATOM     19  C   UNK A   0      -1.248  -0.493   0.582  0.00  0.00    +0.000 C 
ATOM     20  H   UNK A   1      -1.232  -1.890  -0.930  0.00  0.00    +0.000 HD
BRANCH  19  21
ATOM     21  O   UNK A   0      -2.514  -0.238   0.136  0.00  0.00    +0.000 OA
BRANCH  21  22
ATOM     22  C   UNK A   0      -3.217   0.807   0.817  0.00  0.00    +0.000 C 
BRANCH  22  23
ATOM     23  C   UNK A   0      -4.581   0.958   0.209  0.00  0.00    +0.000 A 
ATOM     24  C   UNK A   0      -4.776   1.835  -0.858  0.00  0.00    +0.000 A 
ATOM     25  C   UNK A   0      -5.653   0.221   0.711  0.00  0.00    +0.000 A 
ATOM     26  C   UNK A   0      -6.044   1.975  -1.423  0.00  0.00    +0.000 A 
ATOM     27  C   UNK A   0      -6.921   0.361   0.147  0.00  0.00    +0.000 A 
ATOM     28  C   UNK A   0      -7.117   1.238  -0.920  0.00  0.00    +0.000 A 
ENDBRANCH  22  23
ENDBRANCH  21  22
ENDBRANCH  19  21
ENDBRANCH   1  18
BRANCH   1  29
ATOM     29  C   UNK A   1       0.772  -3.497  -0.367  0.00  0.00    +0.000 C 
BRANCH  29  30
ATOM     30  C   UNK A   1      -0.184  -4.467   0.355  0.00  0.00    +0.000 C 
ATOM     31  C   UNK A   1      -0.045  -5.905  -0.148  0.00  0.00    +0.000 C 
ATOM     32  C   UNK A   1       0.078  -4.423   1.863  0.00  0.00    +0.000 C 
ENDBRANCH  29  30
ENDBRANCH   1  29
TORSDOF 11
