REMARK  Name = 
REMARK  42 active torsions:
REMARK  status: ('A' for Active; 'I' for Inactive)
REMARK    1  A    between atoms: CE_1  and  SD_2
REMARK    2  A    between atoms: SD_2  and  CG_3
REMARK    3  A    between atoms: CG_3  and  CB_4
REMARK    4  A    between atoms: CB_4  and  CA_5
REMARK    5  A    between atoms: CA_5  and  N_6
REMARK    6  A    between atoms: CA_5  and  C_25
REMARK    7  A    between atoms: C_7  and  CA_9
REMARK    8  A    between atoms: C_14  and  CA_16
REMARK    9  A    between atoms: CA_16  and  CB_17
REMARK   10  A    between atoms: CA_16  and  N_19
REMARK   11  A    between atoms: CB_17  and  OG_18
REMARK   12  A    between atoms: C_20  and  CA_22
REMARK   13  A    between atoms: CA_22  and  CB_23
REMARK   14  A    between atoms: CA_22  and  N_24
REMARK   15  A    between atoms: N_27  and  CA_28
REMARK   16  A    between atoms: CA_28  and  CB_29
REMARK   17  A    between atoms: CA_28  and  C_33
REMARK   18  A    between atoms: CB_29  and  CG_30
REMARK   19  A    between atoms: CG_30  and  CD1_31
REMARK   20  A    between atoms: CG_30  and  CD2_32
REMARK   21  A    between atoms: N_35  and  CA_36
REMARK   22  A    between atoms: CA_36  and  CB_37
REMARK   23  A    between atoms: CA_36  and  C_40
REMARK   24  A    between atoms: CB_37  and  CG1_38
REMARK   25  A    between atoms: CB_37  and  CG2_39
REMARK   26  A    between atoms: N_42  and  CA_43
REMARK   27  A    between atoms: CA_43  and  CB_44
REMARK   28  A    between atoms: CA_43  and  C_45
REMARK   29  A    between atoms: N_47  and  CA_48
REMARK   30  A    between atoms: CA_48  and  CB_49
REMARK   31  A    between atoms: CA_48  and  C_57
REMARK   32  A    between atoms: CB_49  and  CG_50
REMARK   33  A    between atoms: CZ_53  and  OH_54
REMARK   34  A    between atoms: N_59  and  CA_60
REMARK   35  A    between atoms: CA_60  and  CB_61
REMARK   36  A    between atoms: CA_60  and  C_65
REMARK   37  A    between atoms: CB_61  and  CG_62
REMARK   38  A    between atoms: CG_62  and  OD1_63
REMARK   39  A    between atoms: N_67  and  CA_68
REMARK   40  A    between atoms: CA_68  and  CB_69
REMARK   41  A    between atoms: CA_68  and  C_70
REMARK   42  A    between atoms: C_70  and  O_71
REMARK                            x       y       z     vdW  Elec       q    Type
REMARK                         _______ _______ _______ _____ _____    ______ ____
ROOT
ATOM      1  CA  VAL A   6      -0.389  -8.775   0.000  0.00  0.00    +0.000 C 
ENDROOT
BRANCH   1   2
ATOM      2  C   VAL A   6       0.391  -9.045   0.000  0.00  0.00    +0.000 C 
ATOM      3  O   VAL A   6       0.546  -9.855   0.000  0.00  0.00    +0.000 OA
ATOM      4  N   ALA A   7       1.014  -8.505   0.000  0.00  0.00    +0.000 N 
ATOM      5  H   ALA A   7       0.828  -7.538   0.000  0.00  0.00    +0.000 HD
BRANCH   4   6
ATOM      6  CA  ALA A   7       1.794  -8.775   0.000  0.00  0.00    +0.000 C 
ATOM      7  CB  ALA A   7       1.950  -9.585   0.000  0.00  0.00    +0.000 C 
BRANCH   6   8
ATOM      8  C   ALA A   7       2.417  -8.235   0.000  0.00  0.00    +0.000 C 
ATOM      9  O   ALA A   7       2.261  -7.425   0.000  0.00  0.00    +0.000 OA
ATOM     10  N   TYR A   8       3.197  -8.505   0.000  0.00  0.00    +0.000 N 
ATOM     11  H   TYR A   8       3.383  -9.472   0.000  0.00  0.00    +0.000 HD
BRANCH  10  12
ATOM     12  CA  TYR A   8       3.821  -7.965   0.000  0.00  0.00    +0.000 C 
BRANCH  12  13
ATOM     13  C   TYR A   8       4.600  -8.235   0.000  0.00  0.00    +0.000 C 
ATOM     14  O   TYR A   8       4.756  -9.045   0.000  0.00  0.00    +0.000 OA
ATOM     15  N   ASP A   9       5.224  -7.695   0.000  0.00  0.00    +0.000 N 
ATOM     16  H   ASP A   9       5.038  -6.728   0.000  0.00  0.00    +0.000 HD
BRANCH  15  17
ATOM     17  CA  ASP A   9       6.003  -7.965   0.000  0.00  0.00    +0.000 C 
BRANCH  17  18
ATOM     18  C   ASP A   9       6.627  -7.425   0.000  0.00  0.00    +0.000 C 
ATOM     19  O   ASP A   9       6.471  -6.615   0.000  0.00  0.00    +0.000 OA
ATOM     20  N   ALA A  10       7.407  -7.695   0.000  0.00  0.00    +0.000 N 
ATOM     21  H   ALA A  10       7.593  -8.662   0.000  0.00  0.00    +0.000 HD
BRANCH  20  22
ATOM     22  CA  ALA A  10       8.030  -7.155   0.000  0.00  0.00    +0.000 C 
ATOM     23  CB  ALA A  10       7.874  -6.345   0.000  0.00  0.00    +0.000 C 
BRANCH  22  24
ATOM     24  C   ALA A  10       8.810  -7.425   0.000  0.00  0.00    +0.000 C 
ATOM     25  OXT ALA A  10       8.966  -8.235   0.000  0.00  0.00    +0.000 OA
BRANCH  24  26
ATOM     26  O   ALA A  10       9.433  -6.885   0.000  0.00  0.00    +0.000 OA
ATOM     27  H   ALA A  10      10.319  -7.192   0.000  0.00  0.00    +0.000 HD
ENDBRANCH  24  26
ENDBRANCH  22  24
ENDBRANCH  20  22
ENDBRANCH  17  18
BRANCH  17  28
ATOM     28  CB  ASP A   9       6.159  -8.775   0.000  0.00  0.00    +0.000 C 
BRANCH  28  29
ATOM     29  CG  ASP A   9       6.939  -9.045   0.000  0.00  0.00    +0.000 C 
ATOM     30  OD2 ASP A   9       7.095  -9.855   0.000  0.00  0.00    +0.000 OA
BRANCH  29  31
ATOM     31  OD1 ASP A   9       7.562  -8.505   0.000  0.00  0.00    +0.000 OA
ATOM     32  HD1 ASP A   9       8.448  -8.812   0.000  0.00  0.00    +0.000 HD
ENDBRANCH  29  31
ENDBRANCH  28  29
ENDBRANCH  17  28
ENDBRANCH  15  17
ENDBRANCH  12  13
BRANCH  12  33
ATOM     33  CB  TYR A   8       3.665  -7.155   0.000  0.00  0.00    +0.000 C 
BRANCH  33  34
ATOM     34  CG  TYR A   8       4.288  -6.615   0.000  0.00  0.00    +0.000 A 
ATOM     35  CD1 TYR A   8       4.132  -5.805   0.000  0.00  0.00    +0.000 A 
ATOM     36  CE1 TYR A   8       4.756  -5.265   0.000  0.00  0.00    +0.000 A 
ATOM     37  CZ  TYR A   8       5.535  -5.535   0.000  0.00  0.00    +0.000 A 
ATOM     38  CE2 TYR A   8       5.691  -6.345   0.000  0.00  0.00    +0.000 A 
ATOM     39  CD2 TYR A   8       5.068  -6.885   0.000  0.00  0.00    +0.000 A 
BRANCH  37  40
ATOM     40  OH  TYR A   8       6.159  -4.995   0.000  0.00  0.00    +0.000 OA
ATOM     41  HH  TYR A   8       7.045  -5.301   0.000  0.00  0.00    +0.000 HD
ENDBRANCH  37  40
ENDBRANCH  33  34
ENDBRANCH  12  33
ENDBRANCH  10  12
ENDBRANCH   6   8
ENDBRANCH   4   6
ENDBRANCH   1   2
BRANCH   1  44
ATOM     42  C   LEU A   5      -1.792  -9.045   0.000  0.00  0.00    +0.000 C 
ATOM     43  O   LEU A   5      -1.948  -8.235   0.000  0.00  0.00    +0.000 OA
ATOM     44  N   VAL A   6      -1.013  -9.315   0.000  0.00  0.00    +0.000 N 
ATOM     45  H   VAL A   6      -0.827 -10.282   0.000  0.00  0.00    +0.000 HD
BRANCH  42  46
ATOM     46  CA  LEU A   5      -2.416  -9.585   0.000  0.00  0.00    +0.000 C 
BRANCH  46  49
ATOM     47  C   MET A   4      -3.819  -9.855   0.000  0.00  0.00    +0.000 C 
ATOM     48  O   MET A   4      -3.663 -10.665   0.000  0.00  0.00    +0.000 OA
ATOM     49  N   LEU A   5      -3.196  -9.315   0.000  0.00  0.00    +0.000 N 
ATOM     50  H   LEU A   5      -3.382  -8.349   0.000  0.00  0.00    +0.000 HD
BRANCH  47  51
ATOM     51  CA  MET A   4      -4.599  -9.585   0.000  0.00  0.00    +0.000 C 
BRANCH  51  52
ATOM     52  N   MET A   4      -5.222 -10.125   0.000  0.00  0.00    +0.000 N 
ATOM     53  C   PRO A   3      -6.002  -9.855   0.000  0.00  0.00    +0.000 C 
ATOM     54  O   PRO A   3      -6.158  -9.045   0.000  0.00  0.00    +0.000 OA
ATOM     55  H   MET A   4      -5.036 -11.092   0.000  0.00  0.00    +0.000 HD
BRANCH  53  56
ATOM     56  CA  PRO A   3      -6.625 -10.396   0.000  0.00  0.00    +0.000 C 
ATOM     57  CB  PRO A   3      -6.555 -11.217   0.000  0.00  0.00    +0.000 C 
ATOM     58  CG  PRO A   3      -7.315 -11.538   0.000  0.00  0.00    +0.000 C 
ATOM     59  CD  PRO A   3      -7.855 -10.915   0.000  0.00  0.00    +0.000 C 
ATOM     60  N   PRO A   3      -7.429 -10.208   0.000  0.00  0.00    +0.000 N 
ATOM     61  C   SER A   2      -7.750  -9.448   0.000  0.00  0.00    +0.000 C 
ATOM     62  O   SER A   2      -7.252  -8.790   0.000  0.00  0.00    +0.000 OA
BRANCH  61  63
ATOM     63  CA  SER A   2      -8.569  -9.346   0.000  0.00  0.00    +0.000 C 
BRANCH  63  64
ATOM     64  N   SER A   2      -8.889  -8.586   0.000  0.00  0.00    +0.000 N 
ATOM     65  C   ALA A   1      -9.708  -8.484   0.000  0.00  0.00    +0.000 C 
ATOM     66  O   ALA A   1     -10.206  -9.142   0.000  0.00  0.00    +0.000 OA
ATOM     67  H   SER A   2      -8.296  -7.801   0.000  0.00  0.00    +0.000 HD
BRANCH  65  68
ATOM     68  CA  ALA A   1     -10.029  -7.724   0.000  0.00  0.00    +0.000 C 
ATOM     69  CB  ALA A   1     -10.848  -7.622   0.000  0.00  0.00    +0.000 C 
BRANCH  68  70
ATOM     70  N   ALA A   1      -9.531  -7.066   0.000  0.00  0.00    +0.000 NA
ATOM     71  H1  ALA A   1      -8.519  -7.193   0.000  0.00  0.00    +0.000 HD
ATOM     72  H2  ALA A   1      -9.928  -6.127   0.000  0.00  0.00    +0.000 HD
ENDBRANCH  68  70
ENDBRANCH  65  68
ENDBRANCH  63  64
BRANCH  63  73
ATOM     73  CB  SER A   2      -9.066 -10.004   0.000  0.00  0.00    +0.000 C 
BRANCH  73  74
ATOM     74  OG  SER A   2      -9.885  -9.902   0.000  0.00  0.00    +0.000 OA
ATOM     75  H   SER A   2     -10.262  -9.009   0.000  0.00  0.00    +0.000 HD
ENDBRANCH  73  74
ENDBRANCH  63  73
ENDBRANCH  61  63
ENDBRANCH  53  56
ENDBRANCH  51  52
BRANCH  51  76
ATOM     76  CB  MET A   4      -4.755  -8.775   0.000  0.00  0.00    +0.000 C 
BRANCH  76  77
ATOM     77  CG  MET A   4      -4.131  -8.235   0.000  0.00  0.00    +0.000 C 
BRANCH  77  79
ATOM     78  CE  MET A   4      -3.663  -6.885   0.000  0.00  0.00    +0.000 C 
ATOM     79  SD  MET A   4      -4.287  -7.425   0.000  0.00  0.00    +0.000 S 
ENDBRANCH  77  79
ENDBRANCH  76  77
ENDBRANCH  51  76
ENDBRANCH  47  51
ENDBRANCH  46  49
BRANCH  46  80
ATOM     80  CB  LEU A   5      -2.260 -10.396   0.000  0.00  0.00    +0.000 C 
BRANCH  80  81
ATOM     81  CG  LEU A   5      -1.480 -10.665   0.000  0.00  0.00    +0.000 C 
ATOM     82  CD1 LEU A   5      -0.857 -10.125   0.000  0.00  0.00    +0.000 C 
ATOM     83  CD2 LEU A   5      -1.325 -11.476   0.000  0.00  0.00    +0.000 C 
ENDBRANCH  80  81
ENDBRANCH  46  80
ENDBRANCH  42  46
ENDBRANCH   1  44
BRANCH   1  84
ATOM     84  CB  VAL A   6      -0.545  -7.965   0.000  0.00  0.00    +0.000 C 
ATOM     85  CG1 VAL A   6       0.079  -7.425   0.000  0.00  0.00    +0.000 C 
ATOM     86  CG2 VAL A   6      -1.325  -7.695   0.000  0.00  0.00    +0.000 C 
ENDBRANCH   1  84
TORSDOF 34
