REMARK  Name = 6479523
REMARK  8 active torsions:
REMARK  status: ('A' for Active; 'I' for Inactive)
REMARK    1  A    between atoms: O_3  and  C_20
REMARK    2  A    between atoms: N_9  and  CA_16
REMARK    3  A    between atoms: N_10  and  CA_22
REMARK    4  A    between atoms: C_14  and  C_18
REMARK    5  A    between atoms: C_14  and  C_19
REMARK    6  A    between atoms: CA_15  and  C_20
REMARK    7  A    between atoms: C_21  and  CA_22
REMARK    8  A    between atoms: CA_22  and  C_23
REMARK                            x       y       z     vdW  Elec       q    Type
REMARK                         _______ _______ _______ _____ _____    ______ ____
ROOT
ATOM      1  O   UNL     1       0.666   1.111  -1.437  0.00  0.00    +0.000 OA
ATOM      2  N   UNL     1      -0.608   1.143   0.502  0.00  0.00    +0.000 N 
ATOM      3  C   UNL     1       0.515   0.804  -0.256  0.00  0.00    +0.000 C 
ATOM      4  H   UNL     1      -0.638   0.831   1.470  0.00  0.00    +0.000 HD
ENDROOT
BRANCH   2  11
ATOM      5  S   UNL     1      -2.523  -0.621  -1.144  0.00  0.00    +0.000 S 
ATOM      6  O   UNL     1      -3.135   2.359   2.043  0.00  0.00    +0.000 OA
ATOM      7  N   UNL     1      -3.738   1.374  -0.015  0.00  0.00    +0.000 N 
ATOM      8  C   UNL     1      -2.680   1.198  -1.015  0.00  0.00    +0.000 C 
ATOM      9  C   UNL     1      -4.333  -0.842  -0.763  0.00  0.00    +0.000 C 
ATOM     10  CA  UNL     1      -4.627   0.266   0.271  0.00  0.00    +0.000 C 
ATOM     11  CA  UNL     1      -1.730   1.906  -0.039  0.00  0.00    +0.000 C 
ATOM     12  C   UNL     1      -2.947   2.006   0.901  0.00  0.00    +0.000 C 
ATOM     13  C   UNL     1      -5.112  -0.708  -2.079  0.00  0.00    +0.000 C 
ATOM     14  C   UNL     1      -4.549  -2.234  -0.166  0.00  0.00    +0.000 C 
BRANCH  10  16
ATOM     15  OXT UNL     1      -6.421   1.697  -0.478  0.00  0.00    +0.000 OA
ATOM     16  C   UNL     1      -6.022   0.804   0.254  0.00  0.00    +0.000 C 
BRANCH  16  17
ATOM     17  O   UNL     1      -6.793   0.164   1.167  0.00  0.00    +0.000 OA
ATOM     18  H   UNL     1      -7.713   0.503   1.171  0.00  0.00    +0.000 HD
ENDBRANCH  16  17
ENDBRANCH  10  16
ENDBRANCH   2  11
BRANCH   3  19
ATOM     19  CA  UNL     1       1.521  -0.035   0.522  0.00  0.00    +0.000 C 
BRANCH  19  22
ATOM     20  O   UNL     1       3.878   0.022   2.118  0.00  0.00    +0.000 OA
ATOM     21  O   UNL     1       4.619   1.125  -1.999  0.00  0.00    +0.000 OA
ATOM     22  N   UNL     1       2.847   0.320   0.072  0.00  0.00    +0.000 N 
ATOM     23  N   UNL     1       5.155   0.694   0.291  0.00  0.00    +0.000 N 
ATOM     24  N   UNL     1       6.787   1.366  -1.158  0.00  0.00    +0.000 N 
ATOM     25  C   UNL     1       3.946   0.321   0.923  0.00  0.00    +0.000 C 
ATOM     26  C   UNL     1       6.408   0.658   1.029  0.00  0.00    +0.000 C 
ATOM     27  C   UNL     1       7.430   1.314   0.124  0.00  0.00    +0.000 C 
ATOM     28  C   UNL     1       5.417   1.069  -1.072  0.00  0.00    +0.000 C 
ATOM     29  H   UNL     1       2.979   0.559  -0.905  0.00  0.00    +0.000 HD
ATOM     30  H   UNL     1       7.240   1.674  -2.012  0.00  0.00    +0.000 HD
ENDBRANCH  19  22
BRANCH  19  31
ATOM     31  C   UNL     1       1.253  -1.514   0.372  0.00  0.00    +0.000 A 
ATOM     32  C   UNL     1       0.408  -2.164   1.272  0.00  0.00    +0.000 A 
ATOM     33  C   UNL     1       1.850  -2.231  -0.665  0.00  0.00    +0.000 A 
ATOM     34  C   UNL     1       0.160  -3.530   1.134  0.00  0.00    +0.000 A 
ATOM     35  C   UNL     1       1.602  -3.596  -0.803  0.00  0.00    +0.000 A 
ATOM     36  C   UNL     1       0.757  -4.246   0.096  0.00  0.00    +0.000 A 
ENDBRANCH  19  31
ENDBRANCH   3  19
TORSDOF 6
