REMARK  Name = 688267
REMARK  6 active torsions:
REMARK  status: ('A' for Active; 'I' for Inactive)
REMARK    1  A    between atoms: S_1  and  C_13
REMARK    2  A    between atoms: O_3  and  C_12
REMARK    3  A    between atoms: C_6  and  C_12
REMARK    4  A    between atoms: C_10  and  C_11
REMARK    5  A    between atoms: C_11  and  C_13
REMARK    6  A    between atoms: C_11  and  C_14
REMARK                            x       y       z     vdW  Elec       q    Type
REMARK                         _______ _______ _______ _____ _____    ______ ____
ROOT
ATOM      1  O   UNL     1       1.005  -1.014   1.259  0.00  0.00    +0.000 OA
ATOM      2  N   UNL     1      -0.257   0.530   0.085  0.00  0.00    +0.000 N 
ATOM      3  C   UNL     1      -1.548   0.150   0.644  0.00  0.00    +0.000 C 
ATOM      4  C   UNL     1      -2.482   1.297   0.277  0.00  0.00    +0.000 C 
ATOM      5  C   UNL     1      -1.886   1.839  -1.020  0.00  0.00    +0.000 C 
ATOM      6  C   UNL     1      -0.388   1.675  -0.812  0.00  0.00    +0.000 C 
ATOM      7  C   UNL     1       0.933  -0.046   0.500  0.00  0.00    +0.000 C 
ENDROOT
BRANCH   3   9
ATOM      8  O   UNL     1      -1.645  -1.468  -1.150  0.00  0.00    +0.000 OA
ATOM      9  C   UNL     1      -1.956  -1.133  -0.017  0.00  0.00    +0.000 C 
BRANCH   9  10
ATOM     10  O   UNL     1      -2.724  -1.877   0.815  0.00  0.00    +0.000 OA
ATOM     11  H   UNL     1      -3.002  -2.721   0.400  0.00  0.00    +0.000 HD
ENDBRANCH   9  10
ENDBRANCH   3   9
BRANCH   7  12
ATOM     12  C   UNL     1       2.187   0.585  -0.050  0.00  0.00    +0.000 C 
ATOM     13  C   UNL     1       2.575   1.725   0.884  0.00  0.00    +0.000 C 
BRANCH  12  14
ATOM     14  C   UNL     1       3.312  -0.443  -0.154  0.00  0.00    +0.000 C 
BRANCH  14  15
ATOM     15  S   UNL     1       2.874  -1.819  -1.262  0.00  0.00    +0.000 S 
ATOM     16  H   UNL     1       1.919  -2.353  -0.488  0.00  0.00    +0.000 HD
ENDBRANCH  14  15
ENDBRANCH  12  14
ENDBRANCH   7  12
TORSDOF 5
