REMARK  Name = 
REMARK  19 active torsions:
REMARK  status: ('A' for Active; 'I' for Inactive)
REMARK    1  A    between atoms: C_1  and  C_2
REMARK    2  A    between atoms: C_2  and  N_3
REMARK    3  A    between atoms: N_7  and  C_8
REMARK    4  A    between atoms: C_8  and  C_9
REMARK    5  A    between atoms: C_8  and  C_10
REMARK    6  A    between atoms: C_12  and  S_13
REMARK    7  A    between atoms: S_13  and  C_14
REMARK    8  A    between atoms: C_14  and  C_15
REMARK    9  A    between atoms: C_15  and  N_16
REMARK   10  A    between atoms: C_15  and  C_26
REMARK   11  A    between atoms: C_17  and  C_19
REMARK   12  A    between atoms: C_19  and  C_20
REMARK   13  A    between atoms: C_20  and  C_21
REMARK   14  A    between atoms: C_21  and  N_22
REMARK   15  A    between atoms: C_21  and  C_23
REMARK   16  A    between atoms: C_23  and  O_25
REMARK   17  A    between atoms: N_28  and  CA_29
REMARK   18  A    between atoms: CA_29  and  C_30
REMARK   19  A    between atoms: C_30  and  OXT_32
REMARK                            x       y       z     vdW  Elec       q    Type
REMARK                         _______ _______ _______ _____ _____    ______ ____
ROOT
ATOM      1  C   UNK A   1       1.036   1.004  -1.406  0.00  0.00    +0.000 C 
ENDROOT
BRANCH   1   2
ATOM      2  N   UNK A   1       2.192   0.215  -0.628  0.00  0.00    +0.000 N 
ATOM      3  C   UNK A   1       2.506   0.632   0.653  0.00  0.00    +0.000 C 
ATOM      4  O   UNK A   1       2.474   1.883   0.867  0.00  0.00    +0.000 OA
ATOM      5  H   UNK A   1       2.663  -0.541  -1.047  0.00  0.00    +0.000 HD
BRANCH   3   6
ATOM      6  C   UNK A   1       3.403  -0.154   1.517  0.00  0.00    +0.000 C 
BRANCH   6   7
ATOM      7  C   UNK A   1       3.601  -1.573   1.049  0.00  0.00    +0.000 C 
BRANCH   7   8
ATOM      8  C   UNK A   1       5.092  -1.900   1.743  0.00  0.00    +0.000 C 
BRANCH   8   9
ATOM      9  N   UNK A   1       5.758  -0.679   0.939  0.00  0.00    +0.000 NA
ATOM     10  H   UNK A   1       5.457  -0.709  -0.035  0.00  0.00    +0.000 HD
ATOM     11  H   UNK A   1       6.774  -0.758   0.983  0.00  0.00    +0.000 HD
ENDBRANCH   8   9
BRANCH   8  12
ATOM     12  C   UNK A   1       5.436  -3.024   0.596  0.00  0.00    +0.000 C 
ATOM     13  O   UNK A   1       5.483  -4.133   1.222  0.00  0.00    +0.000 OA
BRANCH  12  14
ATOM     14  O   UNK A   1       6.510  -2.787  -0.208  0.00  0.00    +0.000 OA
ATOM     15  H   UNK A   1       6.557  -1.994  -0.706  0.00  0.00    +0.000 HD
ENDBRANCH  12  14
ENDBRANCH   8  12
ENDBRANCH   7   8
ENDBRANCH   6   7
ENDBRANCH   3   6
ENDBRANCH   1   2
BRANCH   1  16
ATOM     16  C   UNK A   1       1.663   2.479  -1.022  0.00  0.00    +0.000 C 
ATOM     17  O   UNK A   1       0.727   3.337  -0.917  0.00  0.00    +0.000 OA
ATOM     18  N   GLY A   2       2.570   2.820  -2.089  0.00  0.00    +0.000 N 
ATOM     19  H   GLY A   2       3.124   2.113  -2.492  0.00  0.00    +0.000 HD
BRANCH  18  20
ATOM     20  CA  GLY A   2       2.689   4.192  -2.589  0.00  0.00    +0.000 C 
BRANCH  20  21
ATOM     21  C   GLY A   2       1.376   4.752  -2.954  0.00  0.00    +0.000 C 
ATOM     22  O   GLY A   2       1.026   4.647  -4.165  0.00  0.00    +0.000 OA
BRANCH  21  23
ATOM     23  OXT GLY A   2       0.936   5.898  -2.295  0.00  0.00    +0.000 OA
ATOM     24  HXT GLY A   2       1.162   6.036  -1.396  0.00  0.00    +0.000 HD
ENDBRANCH  21  23
ENDBRANCH  20  21
ENDBRANCH  18  20
ENDBRANCH   1  16
BRANCH   1  25
ATOM     25  C   UNK A   1       0.010   1.001  -0.078  0.00  0.00    +0.000 C 
BRANCH  25  26
ATOM     26  S   UNK A   1      -0.566  -0.732  -0.147  0.00  0.00    +0.000 S 
BRANCH  26  33
ATOM     27  N   UNK A   1      -3.682  -2.335   3.398  0.00  0.00    +0.000 N 
ATOM     28  C   UNK A   1      -3.509  -1.327   2.394  0.00  0.00    +0.000 A 
ATOM     29  N   UNK A   1      -4.588  -0.915   1.693  0.00  0.00    +0.000 NA
ATOM     30  C   UNK A   1      -4.483  -0.438   0.441  0.00  0.00    +0.000 A 
ATOM     31  N   UNK A   1      -5.606  -0.006  -0.307  0.00  0.00    +0.000 N 
ATOM     32  N   UNK A   1      -3.262  -0.165  -0.034  0.00  0.00    +0.000 NA
ATOM     33  C   UNK A   1      -2.212  -0.762   0.550  0.00  0.00    +0.000 A 
ATOM     34  N   UNK A   1      -2.291  -1.037   1.875  0.00  0.00    +0.000 NA
ATOM     35  H   UNK A   1      -4.190  -2.116   4.212  0.00  0.00    +0.000 HD
ATOM     36  H   UNK A   1      -5.927   0.921  -0.221  0.00  0.00    +0.000 HD
BRANCH  31  37
ATOM     37  C   UNK A   1      -6.286  -0.929  -1.203  0.00  0.00    +0.000 C 
ATOM     38  C   UNK A   1      -6.605  -0.228  -2.505  0.00  0.00    +0.000 C 
ATOM     39  C   UNK A   1      -5.481  -2.179  -1.426  0.00  0.00    +0.000 C 
ENDBRANCH  31  37
BRANCH  27  41
ATOM     40  C   UNK A   1      -2.790  -3.886   1.787  0.00  0.00    +0.000 C 
ATOM     41  C   UNK A   1      -3.128  -3.671   3.250  0.00  0.00    +0.000 C 
ENDBRANCH  27  41
ENDBRANCH  26  33
ENDBRANCH  25  26
ENDBRANCH   1  25
TORSDOF 16
