REMARK  Name = 46936357
REMARK  15 active torsions:
REMARK  status: ('A' for Active; 'I' for Inactive)
REMARK    1  A    between atoms: N_13  and  C_24
REMARK    2  A    between atoms: N_14  and  C_21
REMARK    3  A    between atoms: C_16  and  C_22
REMARK    4  A    between atoms: C_20  and  C_21
REMARK    5  A    between atoms: C_21  and  C_23
REMARK    6  A    between atoms: C_23  and  C_26
REMARK    7  A    between atoms: C_23  and  C_27
REMARK    8  A    between atoms: C_24  and  C_25
REMARK    9  A    between atoms: C_24  and  C_28
REMARK   10  A    between atoms: C_25  and  C_29
REMARK   11  A    between atoms: C_25  and  C_30
REMARK   12  A    between atoms: C_28  and  C_32
REMARK   13  A    between atoms: C_31  and  C_33
REMARK   14  A    between atoms: C_32  and  C_34
REMARK   15  A    between atoms: C_39  and  C_42
REMARK                            x       y       z     vdW  Elec       q    Type
REMARK                         _______ _______ _______ _____ _____    ______ ____
ROOT
ATOM      1  O   UNL     1      -0.169   0.609   0.451  0.00  0.00    +0.000 OA
ATOM      2  N   UNL     1      -1.448   2.187  -0.659  0.00  0.00    +0.000 N 
ATOM      3  C   UNL     1      -2.377   1.247  -1.272  0.00  0.00    +0.000 C 
ATOM      4  C   UNL     1      -3.089   2.054  -2.352  0.00  0.00    +0.000 C 
ATOM      5  C   UNL     1      -3.062   3.479  -1.805  0.00  0.00    +0.000 C 
ATOM      6  C   UNL     1      -1.720   3.555  -1.093  0.00  0.00    +0.000 C 
ATOM      7  C   UNL     1      -0.366   1.775   0.103  0.00  0.00    +0.000 C 
ENDROOT
BRANCH   3  10
ATOM      8  O   UNL     1      -3.623   1.524   0.746  0.00  0.00    +0.000 OA
ATOM      9  N   UNL     1      -3.772  -0.499  -0.398  0.00  0.00    +0.000 N 
ATOM     10  C   UNL     1      -3.323   0.798  -0.198  0.00  0.00    +0.000 C 
ATOM     11  H   UNL     1      -3.447  -1.010  -1.214  0.00  0.00    +0.000 HD
BRANCH   9  12
ATOM     12  C   UNL     1      -4.672  -1.172   0.503  0.00  0.00    +0.000 C 
BRANCH  12  13
ATOM     13  C   UNL     1      -3.956  -1.968   1.611  0.00  0.00    +0.000 C 
ATOM     14  C   UNL     1      -2.790  -2.778   1.035  0.00  0.00    +0.000 C 
ATOM     15  C   UNL     1      -3.455  -1.093   2.765  0.00  0.00    +0.000 C 
ENDBRANCH  12  13
BRANCH  12  17
ATOM     16  O   UNL     1      -5.188  -2.653  -1.339  0.00  0.00    +0.000 OA
ATOM     17  C   UNL     1      -5.587  -2.058  -0.336  0.00  0.00    +0.000 C 
BRANCH  17  20
ATOM     18  F   UNL     1      -7.539  -3.409  -0.196  0.00  0.00    +0.000 F 
ATOM     19  F   UNL     1      -7.120  -2.066   1.462  0.00  0.00    +0.000 F 
ATOM     20  C   UNL     1      -7.028  -2.187   0.110  0.00  0.00    +0.000 C 
BRANCH  20  24
ATOM     21  F   UNL     1      -7.877  -1.209  -1.871  0.00  0.00    +0.000 F 
ATOM     22  F   UNL     1      -7.480   0.113  -0.180  0.00  0.00    +0.000 F 
ATOM     23  F   UNL     1      -9.176  -1.256  -0.121  0.00  0.00    +0.000 F 
ATOM     24  C   UNL     1      -7.893  -1.126  -0.524  0.00  0.00    +0.000 C 
ENDBRANCH  20  24
ENDBRANCH  17  20
ENDBRANCH  12  17
ENDBRANCH   9  12
ENDBRANCH   3  10
BRANCH   7  25
ATOM     25  C   UNL     1       0.591   2.865   0.516  0.00  0.00    +0.000 C 
BRANCH  25  27
ATOM     26  O   UNL     1       2.778   3.417  -1.259  0.00  0.00    +0.000 OA
ATOM     27  N   UNL     1       1.858   2.191   0.482  0.00  0.00    +0.000 N 
ATOM     28  C   UNL     1       2.865   2.527  -0.417  0.00  0.00    +0.000 C 
ATOM     29  H   UNL     1       1.968   1.370   1.069  0.00  0.00    +0.000 HD
BRANCH  28  30
ATOM     30  C   UNL     1       4.107   1.717  -0.342  0.00  0.00    +0.000 A 
ATOM     31  C   UNL     1       4.473   1.110   0.860  0.00  0.00    +0.000 A 
ATOM     32  C   UNL     1       4.908   1.562  -1.473  0.00  0.00    +0.000 A 
ATOM     33  C   UNL     1       6.441   0.194  -0.201  0.00  0.00    +0.000 A 
ATOM     34  C   UNL     1       5.639   0.349   0.930  0.00  0.00    +0.000 A 
ATOM     35  C   UNL     1       6.075   0.800  -1.403  0.00  0.00    +0.000 A 
BRANCH  33  41
ATOM     36  O   UNL     1       7.388  -4.770  -0.127  0.00  0.00    +0.000 OA
ATOM     37  O   UNL     1       8.697  -0.005   0.174  0.00  0.00    +0.000 OA
ATOM     38  N   UNL     1       7.581  -1.973  -0.409  0.00  0.00    +0.000 N 
ATOM     39  C   UNL     1       8.782  -2.805  -0.354  0.00  0.00    +0.000 C 
ATOM     40  C   UNL     1       6.371  -2.684  -0.841  0.00  0.00    +0.000 C 
ATOM     41  C   UNL     1       7.669  -0.609  -0.128  0.00  0.00    +0.000 C 
ATOM     42  C   UNL     1       6.204  -3.973  -0.045  0.00  0.00    +0.000 C 
ATOM     43  C   UNL     1       8.510  -4.080   0.430  0.00  0.00    +0.000 C 
ENDBRANCH  33  41
ENDBRANCH  28  30
ENDBRANCH  25  27
BRANCH  25  44
ATOM     44  C   UNL     1       0.253   3.424   1.902  0.00  0.00    +0.000 C 
ATOM     45  C   UNL     1       1.222   4.546   2.290  0.00  0.00    +0.000 C 
ATOM     46  C   UNL     1       0.299   2.327   2.971  0.00  0.00    +0.000 C 
ENDBRANCH  25  44
ENDBRANCH   7  25
TORSDOF 11
