REMARK  Name = 4369343
REMARK  12 active torsions:
REMARK  status: ('A' for Active; 'I' for Inactive)
REMARK    1  A    between atoms: N_5  and  C_15
REMARK    2  A    between atoms: N_6  and  C_12
REMARK    3  A    between atoms: N_7  and  C_28
REMARK    4  A    between atoms: N_7  and  C_32
REMARK    5  A    between atoms: C_8  and  C_16
REMARK    6  A    between atoms: C_12  and  C_13
REMARK    7  A    between atoms: C_12  and  C_14
REMARK    8  A    between atoms: C_13  and  C_20
REMARK    9  A    between atoms: C_13  and  C_21
REMARK   10  A    between atoms: C_13  and  C_22
REMARK   11  A    between atoms: C_26  and  C_28
REMARK   12  A    between atoms: C_28  and  C_31
REMARK                            x       y       z     vdW  Elec       q    Type
REMARK                         _______ _______ _______ _____ _____    ______ ____
ROOT
ATOM      1  O   UNL     1       0.849  -1.145  -0.352  0.00  0.00    +0.000 OA
ATOM      2  N   UNL     1       0.956   1.133   0.048  0.00  0.00    +0.000 N 
ATOM      3  C   UNL     1      -0.324   1.242   0.734  0.00  0.00    +0.000 C 
ATOM      4  C   UNL     1      -0.284   2.606   1.413  0.00  0.00    +0.000 C 
ATOM      5  C   UNL     1       1.657   2.414   0.033  0.00  0.00    +0.000 C 
ATOM      6  C   UNL     1       0.627   3.428   0.505  0.00  0.00    +0.000 C 
ATOM      7  C   UNL     1       1.471  -0.082  -0.379  0.00  0.00    +0.000 C 
ENDROOT
BRANCH   3  10
ATOM      8  O   UNL     1      -1.207   1.575  -1.459  0.00  0.00    +0.000 OA
ATOM      9  N   UNL     1      -2.572   0.640   0.178  0.00  0.00    +0.000 N 
ATOM     10  C   UNL     1      -1.395   1.173  -0.314  0.00  0.00    +0.000 C 
ATOM     11  H   UNL     1      -2.626   0.389   1.161  0.00  0.00    +0.000 HD
BRANCH   9  12
ATOM     12  C   UNL     1      -3.766   0.487  -0.626  0.00  0.00    +0.000 C 
ATOM     13  C   UNL     1      -4.571   1.791  -0.643  0.00  0.00    +0.000 C 
ATOM     14  C   UNL     1      -4.577  -0.699  -0.149  0.00  0.00    +0.000 A 
ATOM     15  C   UNL     1      -5.353   1.971   0.654  0.00  0.00    +0.000 C 
ATOM     16  C   UNL     1      -6.358   0.836   0.834  0.00  0.00    +0.000 C 
ATOM     17  C   UNL     1      -5.775  -0.530   0.571  0.00  0.00    +0.000 A 
ATOM     18  C   UNL     1      -4.106  -1.998  -0.401  0.00  0.00    +0.000 A 
ATOM     19  C   UNL     1      -6.484  -1.662   1.004  0.00  0.00    +0.000 A 
ATOM     20  C   UNL     1      -4.815  -3.113   0.043  0.00  0.00    +0.000 A 
ATOM     21  C   UNL     1      -6.004  -2.945   0.745  0.00  0.00    +0.000 A 
ENDBRANCH   9  12
ENDBRANCH   3  10
BRANCH   7  22
ATOM     22  C   UNL     1       2.882  -0.038  -0.910  0.00  0.00    +0.000 C 
BRANCH  22  24
ATOM     23  O   UNL     1       4.905   0.960   0.878  0.00  0.00    +0.000 OA
ATOM     24  N   UNL     1       3.640  -0.799   0.045  0.00  0.00    +0.000 N 
ATOM     25  C   UNL     1       4.604  -0.232   0.875  0.00  0.00    +0.000 C 
ATOM     26  H   UNL     1       3.407  -1.778   0.178  0.00  0.00    +0.000 HD
BRANCH  25  27
ATOM     27  C   UNL     1       5.267  -1.263   1.780  0.00  0.00    +0.000 C 
ATOM     28  C   UNL     1       4.520  -1.361   3.104  0.00  0.00    +0.000 C 
BRANCH  27  29
ATOM     29  N   UNL     1       6.650  -0.853   2.008  0.00  0.00    +0.000 NA
ATOM     30  C   UNL     1       7.377  -0.763   0.750  0.00  0.00    +0.000 C 
ATOM     31  H   UNL     1       7.107  -1.535   2.613  0.00  0.00    +0.000 HD
ENDBRANCH  27  29
ENDBRANCH  25  27
ENDBRANCH  22  24
BRANCH  22  32
ATOM     32  C   UNL     1       3.006  -0.545  -2.366  0.00  0.00    +0.000 C 
ATOM     33  C   UNL     1       4.476  -0.466  -2.826  0.00  0.00    +0.000 C 
ATOM     34  C   UNL     1       2.567  -2.023  -2.429  0.00  0.00    +0.000 C 
ATOM     35  C   UNL     1       2.138   0.262  -3.351  0.00  0.00    +0.000 C 
ENDBRANCH  22  32
ENDBRANCH   7  22
TORSDOF 7
