REMARK  Name = 9820073
REMARK  8 active torsions:
REMARK  status: ('A' for Active; 'I' for Inactive)
REMARK    1  A    between atoms: S_1  and  N_6
REMARK    2  A    between atoms: S_1  and  C_15
REMARK    3  A    between atoms: O_2  and  C_23
REMARK    4  A    between atoms: O_2  and  C_24
REMARK    5  A    between atoms: N_5  and  C_8
REMARK    6  A    between atoms: C_7  and  C_12
REMARK    7  A    between atoms: C_9  and  C_16
REMARK    8  A    between atoms: C_24  and  C_25
REMARK                            x       y       z     vdW  Elec       q    Type
REMARK                         _______ _______ _______ _____ _____    ______ ____
ROOT
ATOM      1  N   UNL     1       0.132  -2.312   0.049  0.00  0.00    +0.000 N 
ATOM      2  C   UNL     1       1.462  -1.977  -0.008  0.00  0.00    +0.000 A 
ATOM      3  C   UNL     1       1.265  -4.221   0.117  0.00  0.00    +0.000 A 
ATOM      4  C   UNL     1       0.001  -3.674   0.125  0.00  0.00    +0.000 A 
ATOM      5  C   UNL     1       2.188  -3.151   0.033  0.00  0.00    +0.000 A 
ATOM      6  C   UNL     1       1.595  -5.658   0.183  0.00  0.00    +0.000 C 
ENDROOT
BRANCH   1   7
ATOM      7  C   UNL     1      -0.944  -1.421   0.034  0.00  0.00    +0.000 A 
ATOM      8  C   UNL     1      -1.435  -0.922   1.232  0.00  0.00    +0.000 A 
ATOM      9  C   UNL     1      -1.506  -1.050  -1.179  0.00  0.00    +0.000 A 
ATOM     10  C   UNL     1      -3.081   0.349   0.003  0.00  0.00    +0.000 A 
ATOM     11  C   UNL     1      -2.509  -0.032   1.217  0.00  0.00    +0.000 A 
ATOM     12  C   UNL     1      -2.580  -0.160  -1.195  0.00  0.00    +0.000 A 
BRANCH  10  13
ATOM     13  S   UNL     1      -4.426   1.462  -0.016  0.00  0.00    +0.000 S 
ATOM     14  O   UNL     1      -5.178   1.252  -1.245  0.00  0.00    +0.000 OA
ATOM     15  O   UNL     1      -5.106   1.388   1.270  0.00  0.00    +0.000 OA
BRANCH  13  16
ATOM     16  N   UNL     1      -3.609   2.959  -0.118  0.00  0.00    +0.000 NA
ATOM     17  H   UNL     1      -3.664   3.473  -1.006  0.00  0.00    +0.000 HD
ATOM     18  H   UNL     1      -3.614   3.563   0.712  0.00  0.00    +0.000 HD
ENDBRANCH  13  16
ENDBRANCH  10  13
ENDBRANCH   1   7
BRANCH   2  19
ATOM     19  C   UNL     1       1.947  -0.621  -0.094  0.00  0.00    +0.000 A 
ATOM     20  C   UNL     1       2.145  -0.029  -1.342  0.00  0.00    +0.000 A 
ATOM     21  C   UNL     1       2.217   0.099   1.070  0.00  0.00    +0.000 A 
ATOM     22  C   UNL     1       2.613   1.282  -1.425  0.00  0.00    +0.000 A 
ATOM     23  C   UNL     1       2.685   1.411   0.986  0.00  0.00    +0.000 A 
ATOM     24  C   UNL     1       2.883   2.002  -0.262  0.00  0.00    +0.000 A 
BRANCH  24  25
ATOM     25  O   UNL     1       3.339   3.282  -0.343  0.00  0.00    +0.000 OA
BRANCH  25  26
ATOM     26  C   UNL     1       2.991   4.165   0.722  0.00  0.00    +0.000 C 
ATOM     27  C   UNL     1       2.912   5.578   0.186  0.00  0.00    +0.000 C 
ENDBRANCH  25  26
ENDBRANCH  24  25
ENDBRANCH   2  19
TORSDOF 6
