REMARK  Name = 5287443
REMARK  12 active torsions:
REMARK  status: ('A' for Active; 'I' for Inactive)
REMARK    1  A    between atoms: O_4  and  C_38
REMARK    2  A    between atoms: N_7  and  C_16
REMARK    3  A    between atoms: N_8  and  C_10
REMARK    4  A    between atoms: N_9  and  C_17
REMARK    5  A    between atoms: C_16  and  C_19
REMARK    6  A    between atoms: C_17  and  C_18
REMARK    7  A    between atoms: C_17  and  C_20
REMARK    8  A    between atoms: C_20  and  C_23
REMARK    9  A    between atoms: C_26  and  C_31
REMARK   10  A    between atoms: C_29  and  C_34
REMARK   11  A    between atoms: C_30  and  C_37
REMARK   12  A    between atoms: C_33  and  C_38
REMARK                            x       y       z     vdW  Elec       q    Type
REMARK                         _______ _______ _______ _____ _____    ______ ____
ROOT
ATOM      1  O   UNL     1       3.639  -0.860  -1.408  0.00  0.00    +0.000 OA
ATOM      2  N   UNL     1       2.627  -1.915   0.397  0.00  0.00    +0.000 N 
ATOM      3  C   UNL     1       3.533  -1.047  -0.198  0.00  0.00    +0.000 C 
ATOM      4  H   UNL     1       2.659  -2.044   1.404  0.00  0.00    +0.000 HD
ENDROOT
BRANCH   2   7
ATOM      5  O   UNL     1       0.410  -2.472   1.679  0.00  0.00    +0.000 OA
ATOM      6  N   UNL     1      -0.667  -3.457  -0.120  0.00  0.00    +0.000 N 
ATOM      7  C   UNL     1       1.686  -2.715  -0.352  0.00  0.00    +0.000 C 
ATOM      8  C   UNL     1       2.298  -4.077  -0.680  0.00  0.00    +0.000 C 
ATOM      9  C   UNL     1       1.685  -4.738  -1.914  0.00  0.00    +0.000 C 
ATOM     10  C   UNL     1       0.203  -5.080  -1.782  0.00  0.00    +0.000 C 
ATOM     11  C   UNL     1      -0.677  -3.862  -1.527  0.00  0.00    +0.000 C 
ATOM     12  C   UNL     1       0.427  -2.853   0.505  0.00  0.00    +0.000 C 
BRANCH   6  13
ATOM     13  C   UNL     1      -1.884  -3.717   0.637  0.00  0.00    +0.000 C 
BRANCH  13  14
ATOM     14  C   UNL     1      -2.863  -2.584   0.535  0.00  0.00    +0.000 A 
ATOM     15  C   UNL     1      -2.823  -1.542   1.462  0.00  0.00    +0.000 A 
ATOM     16  C   UNL     1      -3.814  -2.573  -0.486  0.00  0.00    +0.000 A 
ATOM     17  C   UNL     1      -3.733  -0.489   1.367  0.00  0.00    +0.000 A 
ATOM     18  C   UNL     1      -4.723  -1.520  -0.580  0.00  0.00    +0.000 A 
ATOM     19  C   UNL     1      -4.683  -0.478   0.346  0.00  0.00    +0.000 A 
BRANCH  19  20
ATOM     20  C   UNL     1      -5.627   0.614   0.248  0.00  0.00    +0.000 A 
ATOM     21  C   UNL     1      -5.312   1.742  -0.510  0.00  0.00    +0.000 A 
ATOM     22  C   UNL     1      -6.852   0.539   0.910  0.00  0.00    +0.000 A 
ATOM     23  C   UNL     1      -6.222   2.795  -0.606  0.00  0.00    +0.000 A 
ATOM     24  C   UNL     1      -7.762   1.592   0.815  0.00  0.00    +0.000 A 
ATOM     25  C   UNL     1      -7.447   2.720   0.057  0.00  0.00    +0.000 A 
ENDBRANCH  19  20
ENDBRANCH  13  14
ENDBRANCH   6  13
ENDBRANCH   2   7
BRANCH   3  26
ATOM     26  C   UNL     1       4.439  -0.377   0.828  0.00  0.00    +0.000 C 
BRANCH  26  28
ATOM     27  O   UNL     1       7.200   0.088   1.596  0.00  0.00    +0.000 OA
ATOM     28  N   UNL     1       5.440   0.359   0.097  0.00  0.00    +0.000 N 
ATOM     29  C   UNL     1       6.740   0.529   0.546  0.00  0.00    +0.000 C 
ATOM     30  C   UNL     1       7.583   1.316  -0.421  0.00  0.00    +0.000 C 
ATOM     31  H   UNL     1       5.172   0.783  -0.788  0.00  0.00    +0.000 HD
ENDBRANCH  26  28
BRANCH  26  32
ATOM     32  C   UNL     1       3.618   0.527   1.755  0.00  0.00    +0.000 C 
BRANCH  32  33
ATOM     33  C   UNL     1       2.870   1.603   1.008  0.00  0.00    +0.000 A 
ATOM     34  C   UNL     1       1.577   1.362   0.544  0.00  0.00    +0.000 A 
ATOM     35  C   UNL     1       3.473   2.841   0.781  0.00  0.00    +0.000 A 
ATOM     36  C   UNL     1       0.886   2.358  -0.146  0.00  0.00    +0.000 A 
ATOM     37  C   UNL     1       2.782   3.837   0.091  0.00  0.00    +0.000 A 
ATOM     38  C   UNL     1       1.489   3.596  -0.373  0.00  0.00    +0.000 A 
BRANCH  36  40
ATOM     39  O   UNL     1      -1.027   0.995  -0.432  0.00  0.00    +0.000 OA
ATOM     40  C   UNL     1      -0.464   2.077  -0.616  0.00  0.00    +0.000 C 
ENDBRANCH  36  40
BRANCH  38  42
ATOM     41  O   UNL     1      -0.273   5.171  -0.744  0.00  0.00    +0.000 OA
ATOM     42  C   UNL     1       0.793   4.656  -1.091  0.00  0.00    +0.000 C 
BRANCH  42  43
ATOM     43  O   UNL     1       1.454   5.038  -2.216  0.00  0.00    +0.000 OA
ATOM     44  H   UNL     1       0.979   5.753  -2.693  0.00  0.00    +0.000 HD
ENDBRANCH  42  43
ENDBRANCH  38  42
ENDBRANCH  32  33
ENDBRANCH  26  32
ENDBRANCH   3  26
TORSDOF 11
