REMARK  Name = 66555680
REMARK  5 active torsions:
REMARK  status: ('A' for Active; 'I' for Inactive)
REMARK    1  A    between atoms: N_2  and  C_8
REMARK    2  A    between atoms: N_7  and  C_12
REMARK    3  A    between atoms: C_9  and  C_17
REMARK    4  A    between atoms: C_10  and  C_17
REMARK    5  A    between atoms: C_22  and  C_27
REMARK                            x       y       z     vdW  Elec       q    Type
REMARK                         _______ _______ _______ _____ _____    ______ ____
ROOT
ATOM      1  N   UNL     1      -1.270   0.117  -0.126  0.00  0.00    +0.000 N 
ATOM      2  N   UNL     1      -0.657  -1.077  -0.199  0.00  0.00    +0.000 NA
ATOM      3  C   UNL     1       0.850   0.628   0.000  0.00  0.00    +0.000 A 
ATOM      4  C   UNL     1      -0.412   1.171  -0.006  0.00  0.00    +0.000 A 
ATOM      5  C   UNL     1       0.638  -0.758  -0.121  0.00  0.00    +0.000 A 
ENDROOT
BRANCH   1   8
ATOM      6  N   UNL     1      -5.820  -1.617   0.619  0.00  0.00    +0.000 N 
ATOM      7  N   UNL     1      -6.814   0.174  -0.245  0.00  0.00    +0.000 NA
ATOM      8  C   UNL     1      -2.664   0.177  -0.177  0.00  0.00    +0.000 A 
ATOM      9  C   UNL     1      -4.802  -0.780   0.240  0.00  0.00    +0.000 A 
ATOM     10  C   UNL     1      -3.414  -0.895   0.318  0.00  0.00    +0.000 A 
ATOM     11  C   UNL     1      -5.448   0.330  -0.296  0.00  0.00    +0.000 A 
ATOM     12  C   UNL     1      -3.284   1.304  -0.721  0.00  0.00    +0.000 A 
ATOM     13  C   UNL     1      -4.679   1.398  -0.789  0.00  0.00    +0.000 A 
ATOM     14  C   UNL     1      -7.002  -1.003   0.309  0.00  0.00    +0.000 A 
ATOM     15  C   UNL     1      -8.297  -1.648   0.593  0.00  0.00    +0.000 C 
ATOM     16  H   UNL     1      -5.713  -2.525   1.051  0.00  0.00    +0.000 HD
ENDBRANCH   1   8
BRANCH   4  17
ATOM     17  N   UNL     1      -0.849   2.446   0.081  0.00  0.00    +0.000 N 
ATOM     18  H   UNL     1      -0.186   3.216   0.085  0.00  0.00    +0.000 HD
ATOM     19  H   UNL     1      -1.774   2.712   0.397  0.00  0.00    +0.000 HD
ENDBRANCH   4  17
BRANCH   3  21
ATOM     20  O   UNL     1       2.043   2.629   0.210  0.00  0.00    +0.000 OA
ATOM     21  C   UNL     1       2.150   1.384   0.114  0.00  0.00    +0.000 C 
BRANCH  21  23
ATOM     22  N   UNL     1       3.694  -0.425  -0.543  0.00  0.00    +0.000 N 
ATOM     23  C   UNL     1       3.429   0.747   0.113  0.00  0.00    +0.000 A 
ATOM     24  C   UNL     1       5.010  -0.786  -0.357  0.00  0.00    +0.000 A 
ATOM     25  C   UNL     1       5.596   0.195   0.446  0.00  0.00    +0.000 A 
ATOM     26  C   UNL     1       4.586   1.156   0.735  0.00  0.00    +0.000 A 
ATOM     27  C   UNL     1       5.719  -1.894  -0.833  0.00  0.00    +0.000 A 
ATOM     28  C   UNL     1       6.955   0.066   0.791  0.00  0.00    +0.000 A 
ATOM     29  C   UNL     1       7.066  -2.001  -0.478  0.00  0.00    +0.000 A 
ATOM     30  C   UNL     1       7.677  -1.037   0.322  0.00  0.00    +0.000 A 
ATOM     31  H   UNL     1       3.054  -0.929  -1.138  0.00  0.00    +0.000 HD
ENDBRANCH  21  23
ENDBRANCH   3  21
TORSDOF 4
