REMARK  Name = 
REMARK  17 active torsions:
REMARK  status: ('A' for Active; 'I' for Inactive)
REMARK    1  A    between atoms: C_1  and  C_2
REMARK    2  A    between atoms: C_2  and  C_3
REMARK    3  A    between atoms: C_2  and  C_4
REMARK    4  A    between atoms: C_4  and  N_5
REMARK    5  A    between atoms: C_4  and  C_21
REMARK    6  A    between atoms: C_6  and  C_8
REMARK    7  A    between atoms: C_11  and  C_12
REMARK    8  A    between atoms: N_14  and  C_15
REMARK    9  A    between atoms: C_15  and  C_16
REMARK   10  A    between atoms: C_16  and  O_18
REMARK   11  A    between atoms: C_27  and  C_28
REMARK   12  A    between atoms: N_30  and  C_31
REMARK   13  A    between atoms: C_31  and  C_32
REMARK   14  A    between atoms: C_31  and  C_38
REMARK   15  A    between atoms: C_32  and  C_34
REMARK   16  A    between atoms: C_38  and  C_39
REMARK   17  A    between atoms: C_38  and  C_40
REMARK                            x       y       z     vdW  Elec       q    Type
REMARK                         _______ _______ _______ _____ _____    ______ ____
ROOT
ATOM      1  C   UNL     1      -0.060  -0.277  -0.429  0.00  0.00    +0.000 C 
ENDROOT
BRANCH   1   2
ATOM      2  C   UNL     1      -1.445   0.455   0.033  0.00  0.00    +0.000 C 
ATOM      3  O   UNL     1      -1.939   0.057   1.089  0.00  0.00    +0.000 OA
ATOM      4  N   UNL     1      -2.190   0.993  -1.070  0.00  0.00    +0.000 N 
ATOM      5  C   UNL     1      -1.619   1.242  -2.393  0.00  0.00    +0.000 C 
ATOM      6  C   UNL     1      -2.658   1.966  -3.175  0.00  0.00    +0.000 C 
ATOM      7  C   UNL     1      -3.796   2.234  -2.237  0.00  0.00    +0.000 C 
ATOM      8  C   UNL     1      -2.827   2.446  -0.895  0.00  0.00    +0.000 C 
BRANCH   8   9
ATOM      9  C   UNL     1      -3.959   1.899   0.138  0.00  0.00    +0.000 C 
ATOM     10  O   UNL     1      -3.956   2.615   1.149  0.00  0.00    +0.000 OA
ATOM     11  N   UNL     1      -4.805   0.877  -0.237  0.00  0.00    +0.000 N 
ATOM     12  H   UNL     1      -4.745   0.324  -1.049  0.00  0.00    +0.000 HD
BRANCH  11  13
ATOM     13  C   UNL     1      -5.904   0.777   0.920  0.00  0.00    +0.000 C 
BRANCH  13  14
ATOM     14  C   UNL     1      -7.159   0.873  -0.170  0.00  0.00    +0.000 C 
ATOM     15  C   UNL     1      -8.347   0.386   0.642  0.00  0.00    +0.000 C 
ATOM     16  C   UNL     1      -6.835  -0.101  -1.255  0.00  0.00    +0.000 C 
ENDBRANCH  13  14
BRANCH  13  17
ATOM     17  C   UNL     1      -5.943  -0.860   0.907  0.00  0.00    +0.000 C 
ATOM     18  O   UNL     1      -6.699  -1.157   1.834  0.00  0.00    +0.000 OA
BRANCH  17  19
ATOM     19  C   UNL     1      -4.629  -1.522   0.871  0.00  0.00    +0.000 C 
ATOM     20  F   UNL     1      -4.296  -1.736  -0.454  0.00  0.00    +0.000 F 
ATOM     21  F   UNL     1      -3.656  -0.875   1.583  0.00  0.00    +0.000 F 
ATOM     22  F   UNL     1      -4.808  -2.791   1.392  0.00  0.00    +0.000 F 
ENDBRANCH  17  19
ENDBRANCH  13  17
ENDBRANCH  11  13
ENDBRANCH   8   9
ENDBRANCH   1   2
BRANCH   1  23
ATOM     23  N   UNL     1       0.616  -0.126   1.012  0.00  0.00    +0.000 N 
ATOM     24  C   UNL     1       1.508   0.963   1.119  0.00  0.00    +0.000 C 
ATOM     25  O   UNL     1       1.072   2.071   0.679  0.00  0.00    +0.000 OA
ATOM     26  H   UNL     1       0.426  -0.737   1.760  0.00  0.00    +0.000 HD
BRANCH  24  27
ATOM     27  C   UNL     1       2.969   0.868   1.192  0.00  0.00    +0.000 A 
ATOM     28  C   UNL     1       3.776   1.335   0.158  0.00  0.00    +0.000 A 
ATOM     29  C   UNL     1       4.828   0.518  -0.206  0.00  0.00    +0.000 A 
ATOM     30  C   UNL     1       5.540  -0.089   0.819  0.00  0.00    +0.000 A 
ATOM     31  C   UNL     1       4.975  -0.160   2.086  0.00  0.00    +0.000 A 
ATOM     32  C   UNL     1       3.643   0.193   2.186  0.00  0.00    +0.000 A 
BRANCH  30  33
ATOM     33  C   UNL     1       6.809  -0.755   0.503  0.00  0.00    +0.000 C 
ATOM     34  O   UNL     1       6.954  -1.999   0.686  0.00  0.00    +0.000 OA
ATOM     35  N   UNL     1       7.674  -0.163  -0.466  0.00  0.00    +0.000 N 
ATOM     36  H   UNL     1       7.644   0.810  -0.611  0.00  0.00    +0.000 HD
BRANCH  35  37
ATOM     37  C   UNL     1       8.594  -0.971  -1.237  0.00  0.00    +0.000 C 
BRANCH  37  38
ATOM     38  C   UNL     1       9.959  -1.001  -0.623  0.00  0.00    +0.000 C 
ATOM     39  O   UNL     1      10.214  -2.049   0.026  0.00  0.00    +0.000 OA
BRANCH  38  40
ATOM     40  O   UNL     1      10.439   0.228  -0.172  0.00  0.00    +0.000 OA
ATOM     41  H   UNL     1      10.251   1.010  -0.653  0.00  0.00    +0.000 HD
ENDBRANCH  38  40
ENDBRANCH  37  38
ENDBRANCH  35  37
ENDBRANCH  30  33
ENDBRANCH  24  27
ENDBRANCH   1  23
BRANCH   1  43
ATOM     42  C   UNL     1       0.440  -2.699  -0.613  0.00  0.00    +0.000 C 
ATOM     43  C   UNL     1      -0.637  -1.802  -0.082  0.00  0.00    +0.000 C 
ATOM     44  C   UNL     1      -1.841  -1.863  -1.005  0.00  0.00    +0.000 C 
ENDBRANCH   1  43
TORSDOF 13
