REMARK  Name = 5287799
REMARK  12 active torsions:
REMARK  status: ('A' for Active; 'I' for Inactive)
REMARK    1  A    between atoms: O_4  and  C_21
REMARK    2  A    between atoms: O_4  and  C_23
REMARK    3  A    between atoms: N_6  and  C_10
REMARK    4  A    between atoms: N_7  and  C_20
REMARK    5  A    between atoms: C_9  and  C_10
REMARK    6  A    between atoms: C_9  and  C_11
REMARK    7  A    between atoms: C_10  and  C_14
REMARK    8  A    between atoms: C_11  and  C_16
REMARK    9  A    between atoms: C_11  and  C_17
REMARK   10  A    between atoms: C_20  and  C_21
REMARK   11  A    between atoms: C_20  and  C_22
REMARK   12  A    between atoms: C_23  and  C_24
REMARK                            x       y       z     vdW  Elec       q    Type
REMARK                         _______ _______ _______ _____ _____    ______ ____
ROOT
ATOM      1  O   UNL     1       0.727  -0.989   1.489  0.00  0.00    +0.000 OA
ATOM      2  N   UNL     1       1.651  -2.329  -0.167  0.00  0.00    +0.000 N 
ATOM      3  C   UNL     1       1.529  -1.162   0.574  0.00  0.00    +0.000 C 
ATOM      4  H   UNL     1       2.323  -2.361  -0.929  0.00  0.00    +0.000 HD
ENDROOT
BRANCH   3   5
ATOM      5  C   UNL     1       2.477  -0.072   0.084  0.00  0.00    +0.000 C 
BRANCH   5   9
ATOM      6  O   UNL     1      -1.407   5.037   0.085  0.00  0.00    +0.000 OA
ATOM      7  O   UNL     1       0.763   1.036  -1.854  0.00  0.00    +0.000 OA
ATOM      8  N   UNL     1       0.338   2.907  -0.550  0.00  0.00    +0.000 N 
ATOM      9  N   UNL     1       1.776   1.187   0.200  0.00  0.00    +0.000 N 
ATOM     10  C   UNL     1      -0.549   3.490  -1.560  0.00  0.00    +0.000 C 
ATOM     11  C   UNL     1       0.615   3.788   0.593  0.00  0.00    +0.000 C 
ATOM     12  C   UNL     1       0.944   1.665  -0.806  0.00  0.00    +0.000 C 
ATOM     13  C   UNL     1      -1.788   4.091  -0.916  0.00  0.00    +0.000 C 
ATOM     14  C   UNL     1      -0.674   4.399   1.132  0.00  0.00    +0.000 C 
ATOM     15  H   UNL     1       1.790   1.622   1.111  0.00  0.00    +0.000 HD
ENDBRANCH   5   9
BRANCH   5  16
ATOM     16  C   UNL     1       3.775  -0.091   0.901  0.00  0.00    +0.000 C 
BRANCH  16  17
ATOM     17  C   UNL     1       4.794   1.004   0.524  0.00  0.00    +0.000 C 
ATOM     18  C   UNL     1       6.040   0.970   1.409  0.00  0.00    +0.000 C 
ATOM     19  C   UNL     1       5.199   0.847  -0.944  0.00  0.00    +0.000 C 
ENDBRANCH  16  17
ENDBRANCH   5  16
ENDBRANCH   3   5
BRANCH   2  20
ATOM     20  C   UNL     1       0.832  -3.499   0.058  0.00  0.00    +0.000 C 
BRANCH  20  22
ATOM     21  N   UNL     1       2.192  -5.686  -0.479  0.00  0.00    +0.000 NA
ATOM     22  C   UNL     1       1.591  -4.722  -0.243  0.00  0.00    +0.000 C 
ENDBRANCH  20  22
BRANCH  20  23
ATOM     23  C   UNL     1      -0.463  -3.422  -0.749  0.00  0.00    +0.000 C 
BRANCH  23  24
ATOM     24  O   UNL     1      -1.394  -2.526  -0.151  0.00  0.00    +0.000 OA
BRANCH  24  25
ATOM     25  C   UNL     1      -2.583  -2.424  -0.922  0.00  0.00    +0.000 C 
BRANCH  25  26
ATOM     26  C   UNL     1      -3.523  -1.470  -0.246  0.00  0.00    +0.000 A 
ATOM     27  C   UNL     1      -4.443  -1.942   0.690  0.00  0.00    +0.000 A 
ATOM     28  C   UNL     1      -3.478  -0.110  -0.554  0.00  0.00    +0.000 A 
ATOM     29  C   UNL     1      -5.317  -1.056   1.318  0.00  0.00    +0.000 A 
ATOM     30  C   UNL     1      -4.353   0.777   0.074  0.00  0.00    +0.000 A 
ATOM     31  C   UNL     1      -5.272   0.304   1.010  0.00  0.00    +0.000 A 
ENDBRANCH  25  26
ENDBRANCH  24  25
ENDBRANCH  23  24
ENDBRANCH  20  23
ENDBRANCH   2  20
TORSDOF 10
