REMARK  Name = 9865808
REMARK  5 active torsions:
REMARK  status: ('A' for Active; 'I' for Inactive)
REMARK    1  A    between atoms: S_2  and  N_10
REMARK    2  A    between atoms: S_2  and  C_18
REMARK    3  A    between atoms: N_8  and  C_12
REMARK    4  A    between atoms: C_11  and  C_13
REMARK    5  A    between atoms: C_15  and  C_23
REMARK                            x       y       z     vdW  Elec       q    Type
REMARK                         _______ _______ _______ _____ _____    ______ ____
ROOT
ATOM      1  N   UNL     1      -1.073  -0.606   0.001  0.00  0.00    +0.000 N 
ATOM      2  N   UNL     1      -1.934  -1.637   0.023  0.00  0.00    +0.000 NA
ATOM      3  C   UNL     1      -1.676   0.619  -0.006  0.00  0.00    +0.000 A 
ATOM      4  C   UNL     1      -3.028   0.368   0.011  0.00  0.00    +0.000 A 
ATOM      5  C   UNL     1      -3.127  -1.036   0.029  0.00  0.00    +0.000 A 
ENDROOT
BRANCH   3   7
ATOM      6 CL   UNL     1       1.222   5.818  -0.100  0.00  0.00    +0.000 Cl
ATOM      7  C   UNL     1      -0.974   1.879  -0.029  0.00  0.00    +0.000 A 
ATOM      8  C   UNL     1      -0.621   2.502   1.168  0.00  0.00    +0.000 A 
ATOM      9  C   UNL     1      -0.648   2.474  -1.248  0.00  0.00    +0.000 A 
ATOM     10  C   UNL     1       0.058   3.720   1.146  0.00  0.00    +0.000 A 
ATOM     11  C   UNL     1       0.031   3.692  -1.270  0.00  0.00    +0.000 A 
ATOM     12  C   UNL     1       0.384   4.315  -0.073  0.00  0.00    +0.000 A 
ENDBRANCH   3   7
BRANCH   1  13
ATOM     13  C   UNL     1       0.300  -0.858  -0.012  0.00  0.00    +0.000 A 
ATOM     14  C   UNL     1       1.168   0.055   0.572  0.00  0.00    +0.000 A 
ATOM     15  C   UNL     1       0.777  -2.017  -0.609  0.00  0.00    +0.000 A 
ATOM     16  C   UNL     1       3.031  -1.358  -0.038  0.00  0.00    +0.000 A 
ATOM     17  C   UNL     1       2.540  -0.197   0.558  0.00  0.00    +0.000 A 
ATOM     18  C   UNL     1       2.149  -2.268  -0.622  0.00  0.00    +0.000 A 
BRANCH  16  19
ATOM     19  S   UNL     1       4.748  -1.673  -0.054  0.00  0.00    +0.000 S 
ATOM     20  O   UNL     1       5.042  -2.562  -1.169  0.00  0.00    +0.000 OA
ATOM     21  O   UNL     1       5.452  -0.404   0.064  0.00  0.00    +0.000 OA
BRANCH  19  22
ATOM     22  N   UNL     1       4.933  -2.541   1.407  0.00  0.00    +0.000 NA
ATOM     23  H   UNL     1       5.134  -3.546   1.342  0.00  0.00    +0.000 HD
ATOM     24  H   UNL     1       5.413  -2.070   2.183  0.00  0.00    +0.000 HD
ENDBRANCH  19  22
ENDBRANCH  16  19
ENDBRANCH   1  13
BRANCH   5  28
ATOM     25  F   UNL     1      -5.499  -1.101   0.059  0.00  0.00    +0.000 F 
ATOM     26  F   UNL     1      -4.474  -2.686  -1.020  0.00  0.00    +0.000 F 
ATOM     27  F   UNL     1      -4.425  -2.647   1.159  0.00  0.00    +0.000 F 
ATOM     28  C   UNL     1      -4.355  -1.849   0.054  0.00  0.00    +0.000 C 
ENDBRANCH   5  28
TORSDOF 5
