REMARK  Name = 
REMARK  20 active torsions:
REMARK  status: ('A' for Active; 'I' for Inactive)
REMARK    1  A    between atoms: C_1  and  C_2
REMARK    2  A    between atoms: C_2  and  C_3
REMARK    3  A    between atoms: C_3  and  C_4
REMARK    4  A    between atoms: C_3  and  C_5
REMARK    5  A    between atoms: C_5  and  N_6
REMARK    6  A    between atoms: C_5  and  C_19
REMARK    7  A    between atoms: C_7  and  C_9
REMARK    8  A    between atoms: C_9  and  O_10
REMARK    9  A    between atoms: C_9  and  C_11
REMARK   10  A    between atoms: C_11  and  C_12
REMARK   11  A    between atoms: C_15  and  O_16
REMARK   12  A    between atoms: C_22  and  C_23
REMARK   13  A    between atoms: N_25  and  C_26
REMARK   14  A    between atoms: C_26  and  C_27
REMARK   15  A    between atoms: C_27  and  C_28
REMARK   16  A    between atoms: C_28  and  C_29
REMARK   17  A    between atoms: C_29  and  N_30
REMARK   18  A    between atoms: C_38  and  O_39
REMARK   19  A    between atoms: O_39  and  S_40
REMARK   20  A    between atoms: S_40  and  O_43
REMARK                            x       y       z     vdW  Elec       q    Type
REMARK                         _______ _______ _______ _____ _____    ______ ____
ROOT
ATOM      1  C   UNL     1      -0.004  -0.942  -0.966  0.00  0.00    +0.000 C 
ATOM      2  O   UNL     1      -0.206  -0.463  -2.129  0.00  0.00    +0.000 OA
ATOM      3  N   UNL     1      -1.242  -0.963  -0.209  0.00  0.00    +0.000 N 
ATOM      4  C   UNL     1      -2.595  -0.648  -0.983  0.00  0.00    +0.000 C 
ATOM      5  C   UNL     1      -3.544  -0.605   0.329  0.00  0.00    +0.000 C 
ATOM      6  C   UNL     1      -2.888  -1.612   1.342  0.00  0.00    +0.000 C 
ATOM      7  C   UNL     1      -1.741  -0.627   1.957  0.00  0.00    +0.000 C 
ATOM      8  C   UNL     1      -1.666  -1.508   3.164  0.00  0.00    +0.000 C 
ATOM      9  C   UNL     1      -1.336  -3.074   2.737  0.00  0.00    +0.000 C 
ATOM     10  C   UNL     1      -0.662  -2.658   1.298  0.00  0.00    +0.000 C 
ATOM     11  C   UNL     1      -1.835  -2.358   0.228  0.00  0.00    +0.000 C 
ENDROOT
BRANCH   4  12
ATOM     12  C   UNL     1      -2.470   0.966  -0.906  0.00  0.00    +0.000 C 
ATOM     13  O   UNL     1      -3.538   1.550  -0.501  0.00  0.00    +0.000 OA
ATOM     14  N   UNL     1      -2.211   1.628  -2.157  0.00  0.00    +0.000 N 
ATOM     15  H   UNL     1      -2.208   1.165  -3.026  0.00  0.00    +0.000 HD
BRANCH  14  16
ATOM     16  C   UNL     1      -1.952   3.060  -2.004  0.00  0.00    +0.000 C 
BRANCH  16  17
ATOM     17  C   UNL     1      -2.189   3.466  -0.596  0.00  0.00    +0.000 C 
BRANCH  17  18
ATOM     18  C   UNL     1      -2.145   4.897  -0.272  0.00  0.00    +0.000 C 
BRANCH  18  19
ATOM     19  C   UNL     1      -3.364   5.074   0.642  0.00  0.00    +0.000 C 
BRANCH  19  20
ATOM     20  N   UNL     1      -4.293   5.761  -0.224  0.00  0.00    +0.000 NA
ATOM     21  C   UNL     1      -5.541   5.514  -0.206  0.00  0.00    +0.000 C 
ATOM     22  N   UNL     1      -6.394   6.540  -0.700  0.00  0.00    +0.000 N 
ATOM     23  N   UNL     1      -6.076   4.223   0.030  0.00  0.00    +0.000 N 
ATOM     24  H   UNL     1      -6.035   7.441  -0.868  0.00  0.00    +0.000 HD
ATOM     25  H   UNL     1      -7.344   6.349  -0.873  0.00  0.00    +0.000 HD
ATOM     26  H   UNL     1      -5.496   3.505   0.372  0.00  0.00    +0.000 HD
ATOM     27  H   UNL     1      -7.028   4.045  -0.147  0.00  0.00    +0.000 HD
ENDBRANCH  19  20
ENDBRANCH  18  19
ENDBRANCH  17  18
ENDBRANCH  16  17
ENDBRANCH  14  16
ENDBRANCH   4  12
BRANCH   1  28
ATOM     28  C   UNL     1       0.774  -2.361  -0.949  0.00  0.00    +0.000 C 
BRANCH  28  29
ATOM     29  N   UNL     1       2.236  -1.907  -0.693  0.00  0.00    +0.000 N 
ATOM     30  C   UNL     1       2.629  -0.674  -0.261  0.00  0.00    +0.000 C 
ATOM     31  O   UNL     1       2.228   0.177  -1.112  0.00  0.00    +0.000 OA
ATOM     32  H   UNL     1       2.945  -2.571  -0.856  0.00  0.00    +0.000 HD
BRANCH  30  33
ATOM     33  C   UNL     1       4.255  -0.643  -0.417  0.00  0.00    +0.000 C 
BRANCH  33  34
ATOM     34  O   UNL     1       4.436  -1.693   0.674  0.00  0.00    +0.000 OA
ATOM     35  H   UNL     1       3.888  -1.460   1.440  0.00  0.00    +0.000 HD
ENDBRANCH  33  34
BRANCH  33  36
ATOM     36  C   UNL     1       4.440   0.578   0.681  0.00  0.00    +0.000 C 
BRANCH  36  37
ATOM     37  C   UNL     1       5.594   1.383   0.167  0.00  0.00    +0.000 A 
ATOM     38  C   UNL     1       5.416   2.760   0.282  0.00  0.00    +0.000 A 
ATOM     39  C   UNL     1       6.416   3.638  -0.116  0.00  0.00    +0.000 A 
ATOM     40  C   UNL     1       7.684   3.164  -0.298  0.00  0.00    +0.000 A 
ATOM     41  C   UNL     1       7.895   1.800  -0.167  0.00  0.00    +0.000 A 
ATOM     42  C   UNL     1       6.912   1.032   0.447  0.00  0.00    +0.000 A 
BRANCH  40  43
ATOM     43  O   UNL     1       8.771   3.956  -0.568  0.00  0.00    +0.000 OA
ATOM     44  H   UNL     1       8.664   4.882  -0.663  0.00  0.00    +0.000 HD
ENDBRANCH  40  43
ENDBRANCH  36  37
ENDBRANCH  33  36
ENDBRANCH  30  33
ENDBRANCH  28  29
BRANCH  28  45
ATOM     45  C   UNL     1       1.082  -2.427  -2.632  0.00  0.00    +0.000 C 
ATOM     46  C   UNL     1      -0.352  -3.117  -2.921  0.00  0.00    +0.000 C 
BRANCH  45  48
ATOM     47  C   UNL     1       1.208  -4.724  -2.377  0.00  0.00    +0.000 C 
ATOM     48  C   UNL     1       1.877  -3.822  -2.466  0.00  0.00    +0.000 C 
ENDBRANCH  45  48
ENDBRANCH  28  45
ENDBRANCH   1  28
BRANCH   9  49
ATOM     49  O   UNL     1      -2.741  -3.393   2.280  0.00  0.00    +0.000 OA
BRANCH  49  50
ATOM     50  S   UNL     1      -3.078  -4.875   1.941  0.00  0.00    +0.000 S 
ATOM     51  O   UNL     1      -3.375  -5.589   3.210  0.00  0.00    +0.000 OA
ATOM     52  O   UNL     1      -4.383  -4.835   1.159  0.00  0.00    +0.000 OA
BRANCH  50  53
ATOM     53  O   UNL     1      -2.031  -5.647   0.919  0.00  0.00    +0.000 OA
ATOM     54  H   UNL     1      -1.161  -5.719   1.342  0.00  0.00    +0.000 HD
ENDBRANCH  50  53
ENDBRANCH  49  50
ENDBRANCH   9  49
TORSDOF 18
