REMARK  Name = 
REMARK  20 active torsions:
REMARK  status: ('A' for Active; 'I' for Inactive)
REMARK    1  A    between atoms: C_1  and  C_2
REMARK    2  A    between atoms: C_2  and  C_3
REMARK    3  A    between atoms: C_3  and  C_4
REMARK    4  A    between atoms: C_4  and  C_5
REMARK    5  A    between atoms: C_5  and  C_6
REMARK    6  A    between atoms: C_8  and  O_9
REMARK    7  A    between atoms: C_11  and  S_12
REMARK    8  A    between atoms: S_12  and  C_13
REMARK    9  A    between atoms: C_13  and  C_14
REMARK   10  A    between atoms: C_14  and  N_15
REMARK   11  A    between atoms: C_14  and  C_25
REMARK   12  A    between atoms: C_16  and  C_18
REMARK   13  A    between atoms: C_18  and  C_19
REMARK   14  A    between atoms: C_19  and  C_20
REMARK   15  A    between atoms: C_20  and  N_21
REMARK   16  A    between atoms: C_20  and  C_22
REMARK   17  A    between atoms: C_22  and  O_24
REMARK   18  A    between atoms: N_27  and  CA_28
REMARK   19  A    between atoms: CA_28  and  C_29
REMARK   20  A    between atoms: C_29  and  OXT_31
REMARK                            x       y       z     vdW  Elec       q    Type
REMARK                         _______ _______ _______ _____ _____    ______ ____
ROOT
ATOM      1  C   UNK A   1      -0.835   0.091  -0.661  0.00  0.00    +0.000 C 
ENDROOT
BRANCH   1   2
ATOM      2  N   UNK A   1      -2.330   0.135  -0.175  0.00  0.00    +0.000 N 
ATOM      3  C   UNK A   1      -3.211  -0.841  -0.681  0.00  0.00    +0.000 C 
ATOM      4  O   UNK A   1      -3.195  -0.884  -1.951  0.00  0.00    +0.000 OA
ATOM      5  H   UNK A   1      -2.639   0.820   0.462  0.00  0.00    +0.000 HD
BRANCH   3   6
ATOM      6  C   UNK A   1      -4.561  -0.608  -0.052  0.00  0.00    +0.000 C 
BRANCH   6   7
ATOM      7  C   UNK A   1      -4.893   0.799  -0.469  0.00  0.00    +0.000 C 
BRANCH   7   8
ATOM      8  C   UNK A   1      -5.059   1.677   0.914  0.00  0.00    +0.000 C 
BRANCH   8   9
ATOM      9  N   UNK A   1      -6.032   0.614   1.564  0.00  0.00    +0.000 NA
ATOM     10  H   UNK A   1      -6.743   0.344   0.884  0.00  0.00    +0.000 HD
ATOM     11  H   UNK A   1      -6.482   1.021   2.383  0.00  0.00    +0.000 HD
ENDBRANCH   8   9
BRANCH   8  12
ATOM     12  C   UNK A   1      -6.271   2.561   0.313  0.00  0.00    +0.000 C 
ATOM     13  O   UNK A   1      -7.149   1.981  -0.308  0.00  0.00    +0.000 OA
BRANCH  12  14
ATOM     14  O   UNK A   1      -6.002   3.905   0.241  0.00  0.00    +0.000 OA
ATOM     15  H   UNK A   1      -5.308   4.272   0.753  0.00  0.00    +0.000 HD
ENDBRANCH  12  14
ENDBRANCH   8  12
ENDBRANCH   7   8
ENDBRANCH   6   7
ENDBRANCH   3   6
ENDBRANCH   1   2
BRANCH   1  16
ATOM     16  C   UNK A   1      -0.561  -1.338   0.035  0.00  0.00    +0.000 C 
ATOM     17  O   UNK A   1      -0.407  -1.442   1.216  0.00  0.00    +0.000 OA
ATOM     18  N   GLY A   2      -0.801  -2.467  -0.795  0.00  0.00    +0.000 N 
ATOM     19  H   GLY A   2      -0.676  -2.419  -1.770  0.00  0.00    +0.000 HD
BRANCH  18  20
ATOM     20  CA  GLY A   2      -1.234  -3.684  -0.155  0.00  0.00    +0.000 C 
BRANCH  20  21
ATOM     21  C   GLY A   2      -0.142  -4.639   0.094  0.00  0.00    +0.000 C 
ATOM     22  O   GLY A   2      -0.418  -5.841  -0.205  0.00  0.00    +0.000 OA
BRANCH  21  23
ATOM     23  OXT GLY A   2       1.129  -4.279   0.512  0.00  0.00    +0.000 OA
ATOM     24  HXT GLY A   2       1.315  -3.386   0.729  0.00  0.00    +0.000 HD
ENDBRANCH  21  23
ENDBRANCH  20  21
ENDBRANCH  18  20
ENDBRANCH   1  16
BRANCH   1  25
ATOM     25  C   UNK A   1      -0.399   0.982   0.657  0.00  0.00    +0.000 C 
BRANCH  25  26
ATOM     26  S   UNK A   1       1.146   1.730   0.424  0.00  0.00    +0.000 S 
BRANCH  26  31
ATOM     27  C   UNK A   1       3.706   1.437   0.401  0.00  0.00    +0.000 C 
ATOM     28  O   UNK A   1       4.403   0.665  -0.708  0.00  0.00    +0.000 OA
ATOM     29  C   UNK A   1       3.329   1.293  -1.612  0.00  0.00    +0.000 C 
ATOM     30  C   UNK A   1       2.300   0.086  -1.109  0.00  0.00    +0.000 C 
ATOM     31  C   UNK A   1       2.425   0.361   0.429  0.00  0.00    +0.000 C 
BRANCH  29  32
ATOM     32  O   UNK A   1       3.796   0.471  -2.823  0.00  0.00    +0.000 OA
ATOM     33  H   UNK A   1       3.958  -0.445  -2.548  0.00  0.00    +0.000 HD
ENDBRANCH  29  32
BRANCH  27  34
ATOM     34  C   UNK A   1       4.512   0.603   1.574  0.00  0.00    +0.000 C 
BRANCH  34  35
ATOM     35  C   UNK A   1       5.809   1.384   1.737  0.00  0.00    +0.000 C 
BRANCH  35  36
ATOM     36  C   UNK A   1       6.099   2.054   0.456  0.00  0.00    +0.000 C 
BRANCH  36  38
ATOM     37  C   UNK A   1       7.394   1.420   0.054  0.00  0.00    +0.000 C 
ATOM     38  C   UNK A   1       7.454   1.775  -0.129  0.00  0.00    +0.000 C 
ENDBRANCH  36  38
ENDBRANCH  35  36
ENDBRANCH  34  35
ENDBRANCH  27  34
ENDBRANCH  26  31
ENDBRANCH  25  26
ENDBRANCH   1  25
TORSDOF 19
