REMARK  Name = 
REMARK  20 active torsions:
REMARK  status: ('A' for Active; 'I' for Inactive)
REMARK    1  A    between atoms: C_1  and  C_2
REMARK    2  A    between atoms: C_2  and  O_3
REMARK    3  A    between atoms: O_3  and  C_4
REMARK    4  A    between atoms: C_4  and  C_6
REMARK    5  A    between atoms: C_7  and  C_8
REMARK    6  A    between atoms: C_8  and  C_9
REMARK    7  A    between atoms: C_8  and  N_16
REMARK    8  A    between atoms: C_9  and  C_10
REMARK    9  A    between atoms: C_17  and  C_19
REMARK   10  A    between atoms: C_19  and  C_20
REMARK   11  A    between atoms: C_19  and  C_36
REMARK   12  A    between atoms: C_20  and  C_21
REMARK   13  A    between atoms: C_21  and  C_23
REMARK   14  A    between atoms: C_23  and  N_24
REMARK   15  A    between atoms: C_23  and  C_33
REMARK   16  A    between atoms: C_25  and  C_27
REMARK   17  A    between atoms: C_29  and  C_30
REMARK   18  A    between atoms: C_33  and  C_34
REMARK   19  A    between atoms: C_33  and  C_35
REMARK   20  A    between atoms: C_36  and  C_37
REMARK                            x       y       z     vdW  Elec       q    Type
REMARK                         _______ _______ _______ _____ _____    ______ ____
ROOT
ATOM      1  C   UNL     1       0.007  -1.166  -0.709  0.00  0.00    +0.000 C 
ENDROOT
BRANCH   1   3
ATOM      2  N   UNL     1      -2.602  -1.220  -0.790  0.00  0.00    +0.000 N 
ATOM      3  C   UNL     1      -1.429  -0.655  -1.216  0.00  0.00    +0.000 C 
ATOM      4  O   UNL     1      -1.257  -0.112  -2.352  0.00  0.00    +0.000 OA
ATOM      5  H   UNL     1      -2.708  -1.727   0.048  0.00  0.00    +0.000 HD
BRANCH   2   6
ATOM      6  C   UNL     1      -3.767  -0.946  -1.833  0.00  0.00    +0.000 C 
BRANCH   6   8
ATOM      7  C   UNL     1      -4.305   1.391  -2.499  0.00  0.00    +0.000 C 
ATOM      8  C   UNL     1      -3.605   0.666  -1.669  0.00  0.00    +0.000 C 
BRANCH   7   9
ATOM      9  C   UNL     1      -4.697   2.753  -2.093  0.00  0.00    +0.000 C 
ATOM     10  O   UNL     1      -3.809   3.552  -1.665  0.00  0.00    +0.000 OA
BRANCH   9  11
ATOM     11  O   UNL     1      -5.925   2.824  -1.427  0.00  0.00    +0.000 OA
BRANCH  11  13
ATOM     12  C   UNL     1      -6.854   4.822  -0.618  0.00  0.00    +0.000 C 
ATOM     13  C   UNL     1      -6.127   3.590  -0.250  0.00  0.00    +0.000 C 
ENDBRANCH  11  13
ENDBRANCH   9  11
ENDBRANCH   7   9
ENDBRANCH   6   8
BRANCH   6  14
ATOM     14  C   UNL     1      -5.029  -0.975  -0.765  0.00  0.00    +0.000 C 
BRANCH  14  15
ATOM     15  C   UNL     1      -4.356  -1.434   0.649  0.00  0.00    +0.000 C 
ATOM     16  C   UNL     1      -5.673  -2.319   1.080  0.00  0.00    +0.000 C 
ATOM     17  C   UNL     1      -5.482  -2.112   2.558  0.00  0.00    +0.000 C 
ATOM     18  N   UNL     1      -5.314  -0.682   2.692  0.00  0.00    +0.000 N 
ATOM     19  C   UNL     1      -4.927  -0.138   1.425  0.00  0.00    +0.000 C 
ATOM     20  O   UNL     1      -4.141   0.861   1.394  0.00  0.00    +0.000 OA
ATOM     21  H   UNL     1      -5.443  -0.166   3.521  0.00  0.00    +0.000 HD
ENDBRANCH  14  15
ENDBRANCH   6  14
ENDBRANCH   2   6
ENDBRANCH   1   3
BRANCH   1  22
ATOM     22  C   UNL     1       0.207   0.174   0.228  0.00  0.00    +0.000 C 
BRANCH  22  23
ATOM     23  C   UNL     1       1.632   0.186   0.648  0.00  0.00    +0.000 C 
ATOM     24  O   UNL     1       2.032  -0.088   1.736  0.00  0.00    +0.000 OA
BRANCH  23  25
ATOM     25  C   UNL     1       2.633   0.983  -0.357  0.00  0.00    +0.000 C 
BRANCH  25  26
ATOM     26  N   UNL     1       3.442   1.711   0.804  0.00  0.00    +0.000 N 
ATOM     27  C   UNL     1       4.820   1.829   0.604  0.00  0.00    +0.000 C 
ATOM     28  O   UNL     1       5.377   0.705   0.417  0.00  0.00    +0.000 OA
ATOM     29  H   UNL     1       2.999   2.057   1.612  0.00  0.00    +0.000 HD
BRANCH  27  30
ATOM     30  C   UNL     1       5.678   2.979   0.715  0.00  0.00    +0.000 A 
ATOM     31  C   UNL     1       6.451   3.346  -0.387  0.00  0.00    +0.000 A 
ATOM     32  C   UNL     1       7.381   4.287   0.036  0.00  0.00    +0.000 A 
ATOM     33  C   UNL     1       7.763   5.572  -0.630  0.00  0.00    +0.000 C 
ATOM     34  O   UNL     1       7.441   4.106   1.336  0.00  0.00    +0.000 OA
ATOM     35  N   UNL     1       6.466   3.361   1.753  0.00  0.00    +0.000 NA
ENDBRANCH  27  30
ENDBRANCH  25  26
BRANCH  25  36
ATOM     36  C   UNL     1       3.723  -0.250  -0.500  0.00  0.00    +0.000 C 
ATOM     37  C   UNL     1       3.726  -0.360  -2.026  0.00  0.00    +0.000 C 
ATOM     38  C   UNL     1       3.231  -1.486   0.033  0.00  0.00    +0.000 C 
ENDBRANCH  25  36
ENDBRANCH  23  25
ENDBRANCH  22  23
ENDBRANCH   1  22
BRANCH   1  39
ATOM     39  C   UNL     1      -0.568  -2.054   0.552  0.00  0.00    +0.000 C 
BRANCH  39  40
ATOM     40  C   UNL     1      -0.024  -3.435   0.343  0.00  0.00    +0.000 A 
ATOM     41  C   UNL     1       0.645  -3.959   1.446  0.00  0.00    +0.000 A 
ATOM     42  C   UNL     1       1.455  -5.082   1.357  0.00  0.00    +0.000 A 
ATOM     43  C   UNL     1       1.728  -5.636   0.137  0.00  0.00    +0.000 A 
ATOM     44  F   UNL     1       2.074  -6.917  -0.076  0.00  0.00    +0.000 F 
ATOM     45  C   UNL     1       1.421  -4.876  -0.973  0.00  0.00    +0.000 A 
ATOM     46  C   UNL     1       0.556  -3.793  -0.870  0.00  0.00    +0.000 A 
ENDBRANCH  39  40
ENDBRANCH   1  39
TORSDOF 16
