REMARK  Name = 
REMARK  8 active torsions:
REMARK  status: ('A' for Active; 'I' for Inactive)
REMARK    1  A    between atoms: C_1  and  C_2
REMARK    2  A    between atoms: C_2  and  C_3
REMARK    3  A    between atoms: C_2  and  C_4
REMARK    4  A    between atoms: C_4  and  N_5
REMARK    5  A    between atoms: C_4  and  C_6
REMARK    6  A    between atoms: C_12  and  B_13
REMARK    7  A    between atoms: B_13  and  O_14
REMARK    8  A    between atoms: B_13  and  O_15
REMARK                            x       y       z     vdW  Elec       q    Type
REMARK                         _______ _______ _______ _____ _____    ______ ____
ROOT
ATOM      1  C   UNL     1       0.704   0.165   0.851  0.00  0.00    +0.000 C 
ATOM      2  O   UNL     1       0.862   0.453   2.079  0.00  0.00    +0.000 OA
ATOM      3  N   UNL     1      -0.459  -0.536   0.455  0.00  0.00    +0.000 N 
ATOM      4  C   UNL     1      -1.542  -1.133   1.143  0.00  0.00    +0.000 C 
ATOM      5  C   UNL     1      -2.039  -2.081   0.104  0.00  0.00    +0.000 C 
ATOM      6  C   UNL     1      -1.641  -1.620  -1.237  0.00  0.00    +0.000 C 
ATOM      7  C   UNL     1      -1.017  -0.125  -0.960  0.00  0.00    +0.000 C 
ENDROOT
BRANCH   1   8
ATOM      8  C   UNL     1       2.102  -0.546   0.388  0.00  0.00    +0.000 C 
BRANCH   8  10
ATOM      9  C   UNL     1       2.552   1.577   0.602  0.00  0.00    +0.000 C 
ATOM     10  C   UNL     1       2.825   0.931   0.129  0.00  0.00    +0.000 C 
ATOM     11  C   UNL     1       4.140   0.591  -0.534  0.00  0.00    +0.000 C 
ENDBRANCH   8  10
BRANCH   8  12
ATOM     12  N   UNL     1       1.627  -0.633  -1.133  0.00  0.00    +0.000 NA
ATOM     13  H   UNL     1       1.221   0.259  -1.414  0.00  0.00    +0.000 HD
ATOM     14  H   UNL     1       0.929  -1.370  -1.229  0.00  0.00    +0.000 HD
ENDBRANCH   8  12
ENDBRANCH   1   8
BRANCH   7  15
ATOM     15  B   UNL     1      -2.509   0.476  -0.329  0.00  0.00    +0.000 B 
BRANCH  15  16
ATOM     16  O   UNL     1      -3.279   0.999  -1.469  0.00  0.00    +0.000 OA
ATOM     17  H   UNL     1      -3.376   0.305  -2.140  0.00  0.00    +0.000 HD
ENDBRANCH  15  16
BRANCH  15  18
ATOM     18  O   UNL     1      -2.325   1.484   0.731  0.00  0.00    +0.000 OA
ATOM     19  H   UNL     1      -1.815   1.098   1.459  0.00  0.00    +0.000 HD
ENDBRANCH  15  18
ENDBRANCH   7  15
TORSDOF 6
