REMARK  Name = 6323185
REMARK  13 active torsions:
REMARK  status: ('A' for Active; 'I' for Inactive)
REMARK    1  A    between atoms: O_3  and  C_17
REMARK    2  A    between atoms: O_4  and  C_24
REMARK    3  A    between atoms: O_4  and  C_28
REMARK    4  A    between atoms: N_7  and  C_15
REMARK    5  A    between atoms: N_8  and  C_16
REMARK    6  A    between atoms: C_9  and  C_13
REMARK    7  A    between atoms: C_14  and  C_16
REMARK    8  A    between atoms: C_15  and  C_17
REMARK    9  A    between atoms: C_15  and  C_18
REMARK   10  A    between atoms: C_16  and  C_19
REMARK   11  A    between atoms: C_17  and  C_21
REMARK   12  A    between atoms: C_18  and  C_20
REMARK   13  A    between atoms: C_28  and  C_29
REMARK                            x       y       z     vdW  Elec       q    Type
REMARK                         _______ _______ _______ _____ _____    ______ ____
ROOT
ATOM      1  O   UNL     1      -0.033   0.057  -0.304  0.00  0.00    +0.000 OA
ATOM      2  N   UNL     1      -1.046   2.135  -0.403  0.00  0.00    +0.000 N 
ATOM      3  C   UNL     1      -2.024   1.894   0.650  0.00  0.00    +0.000 C 
ATOM      4  C   UNL     1      -2.561   3.276   1.004  0.00  0.00    +0.000 C 
ATOM      5  C   UNL     1      -2.419   4.057  -0.300  0.00  0.00    +0.000 C 
ATOM      6  C   UNL     1      -1.134   3.506  -0.899  0.00  0.00    +0.000 C 
ATOM      7  C   UNL     1      -0.075   1.207  -0.744  0.00  0.00    +0.000 C 
ENDROOT
BRANCH   3  10
ATOM      8  O   UNL     1      -3.380   1.049  -1.123  0.00  0.00    +0.000 OA
ATOM      9  N   UNL     1      -3.689   0.215   1.028  0.00  0.00    +0.000 N 
ATOM     10  C   UNL     1      -3.090   1.015   0.070  0.00  0.00    +0.000 C 
ATOM     11  H   UNL     1      -3.359   0.265   1.987  0.00  0.00    +0.000 HD
BRANCH   9  12
ATOM     12  C   UNL     1      -4.762  -0.707   0.730  0.00  0.00    +0.000 C 
BRANCH  12  13
ATOM     13  C   UNL     1      -6.045  -0.314   1.491  0.00  0.00    +0.000 C 
ATOM     14  C   UNL     1      -5.897  -0.420   3.006  0.00  0.00    +0.000 C 
BRANCH  13  15
ATOM     15  O   UNL     1      -6.420   1.019   1.151  0.00  0.00    +0.000 OA
ATOM     16  H   UNL     1      -7.249   1.220   1.618  0.00  0.00    +0.000 HD
ENDBRANCH  13  15
ENDBRANCH  12  13
BRANCH  12  17
ATOM     17  C   UNL     1      -4.285  -2.141   1.031  0.00  0.00    +0.000 C 
BRANCH  17  18
ATOM     18  C   UNL     1      -3.330  -2.697   0.004  0.00  0.00    +0.000 A 
ATOM     19  C   UNL     1      -1.956  -2.513   0.158  0.00  0.00    +0.000 A 
ATOM     20  C   UNL     1      -3.821  -3.395  -1.099  0.00  0.00    +0.000 A 
ATOM     21  C   UNL     1      -1.073  -3.026  -0.792  0.00  0.00    +0.000 A 
ATOM     22  C   UNL     1      -2.939  -3.909  -2.049  0.00  0.00    +0.000 A 
ATOM     23  C   UNL     1      -1.565  -3.724  -1.896  0.00  0.00    +0.000 A 
ENDBRANCH  17  18
ENDBRANCH  12  17
ENDBRANCH   9  12
ENDBRANCH   3  10
BRANCH   7  24
ATOM     24  C   UNL     1       0.963   1.685  -1.728  0.00  0.00    +0.000 C 
ATOM     25  C   UNL     1       0.555   1.348  -3.143  0.00  0.00    +0.000 C 
BRANCH  24  27
ATOM     26  O   UNL     1       2.885   2.512   0.286  0.00  0.00    +0.000 OA
ATOM     27  N   UNL     1       2.164   1.013  -1.333  0.00  0.00    +0.000 N 
ATOM     28  C   UNL     1       3.032   1.478  -0.357  0.00  0.00    +0.000 C 
ATOM     29  H   UNL     1       2.380   0.116  -1.759  0.00  0.00    +0.000 HD
BRANCH  28  30
ATOM     30  O   UNL     1       4.082   0.616  -0.212  0.00  0.00    +0.000 OA
BRANCH  30  31
ATOM     31  C   UNL     1       5.058   0.981   0.771  0.00  0.00    +0.000 C 
BRANCH  31  32
ATOM     32  C   UNL     1       6.134  -0.064   0.803  0.00  0.00    +0.000 A 
ATOM     33  C   UNL     1       7.252   0.060  -0.021  0.00  0.00    +0.000 A 
ATOM     34  C   UNL     1       6.016  -1.160   1.658  0.00  0.00    +0.000 A 
ATOM     35  C   UNL     1       8.252  -0.912   0.009  0.00  0.00    +0.000 A 
ATOM     36  C   UNL     1       7.017  -2.132   1.688  0.00  0.00    +0.000 A 
ATOM     37  C   UNL     1       8.135  -2.008   0.864  0.00  0.00    +0.000 A 
ENDBRANCH  31  32
ENDBRANCH  30  31
ENDBRANCH  28  30
ENDBRANCH  24  27
ENDBRANCH   7  24
TORSDOF 11
