REMARK  Name = 25134248
REMARK  7 active torsions:
REMARK  status: ('A' for Active; 'I' for Inactive)
REMARK    1  A    between atoms: N_4  and  C_21
REMARK    2  A    between atoms: C_7  and  C_10
REMARK    3  A    between atoms: C_10  and  C_15
REMARK    4  A    between atoms: C_14  and  C_20
REMARK    5  A    between atoms: C_15  and  C_19
REMARK    6  A    between atoms: C_21  and  C_22
REMARK    7  A    between atoms: C_27  and  C_28
REMARK                            x       y       z     vdW  Elec       q    Type
REMARK                         _______ _______ _______ _____ _____    ______ ____
ROOT
ATOM      1  O   UNL     1      -2.666   1.693   0.994  0.00  0.00    +0.000 OA
ATOM      2  N   UNL     1      -1.842   2.052  -1.153  0.00  0.00    +0.000 N 
ATOM      3  C   UNL     1      -2.595   1.395  -0.195  0.00  0.00    +0.000 C 
ATOM      4  H   UNL     1      -1.855   1.717  -2.112  0.00  0.00    +0.000 HD
ENDROOT
BRANCH   3   7
ATOM      5  O   UNL     1      -2.947  -2.587   1.528  0.00  0.00    +0.000 OA
ATOM      6  N   UNL     1      -3.568  -0.740   0.286  0.00  0.00    +0.000 N 
ATOM      7  C   UNL     1      -3.370   0.248  -0.771  0.00  0.00    +0.000 C 
ATOM      8  C   UNL     1      -4.781   0.688  -1.151  0.00  0.00    +0.000 C 
ATOM      9  C   UNL     1      -4.944  -0.727   0.765  0.00  0.00    +0.000 C 
ATOM     10  C   UNL     1      -5.568   0.513   0.145  0.00  0.00    +0.000 C 
ATOM     11  C   UNL     1      -2.666  -1.697   0.723  0.00  0.00    +0.000 C 
BRANCH  11  12
ATOM     12  C   UNL     1      -1.273  -1.605   0.153  0.00  0.00    +0.000 C 
BRANCH  12  13
ATOM     13  C   UNL     1      -0.395  -2.710   0.716  0.00  0.00    +0.000 C 
BRANCH  13  14
ATOM     14  C   UNL     1       1.048  -2.631   0.222  0.00  0.00    +0.000 C 
ATOM     15  C   UNL     1       1.908  -3.715   0.885  0.00  0.00    +0.000 C 
ATOM     16  C   UNL     1       1.105  -2.748  -1.307  0.00  0.00    +0.000 C 
ATOM     17  C   UNL     1       3.344  -3.691   0.367  0.00  0.00    +0.000 C 
ATOM     18  C   UNL     1       2.542  -2.725  -1.821  0.00  0.00    +0.000 C 
ATOM     19  C   UNL     1       3.396  -3.798  -1.153  0.00  0.00    +0.000 C 
ENDBRANCH  13  14
ENDBRANCH  12  13
ENDBRANCH  11  12
ENDBRANCH   3   7
BRANCH   2  20
ATOM     20  C   UNL     1      -1.023   3.206  -0.860  0.00  0.00    +0.000 C 
BRANCH  20  21
ATOM     21  C   UNL     1       0.375   2.819  -0.472  0.00  0.00    +0.000 A 
ATOM     22  C   UNL     1       0.877   3.182   0.778  0.00  0.00    +0.000 A 
ATOM     23  C   UNL     1       1.171   2.095  -1.359  0.00  0.00    +0.000 A 
ATOM     24  C   UNL     1       2.175   2.822   1.140  0.00  0.00    +0.000 A 
ATOM     25  C   UNL     1       2.469   1.735  -0.998  0.00  0.00    +0.000 A 
ATOM     26  C   UNL     1       2.971   2.098   0.252  0.00  0.00    +0.000 A 
BRANCH  26  29
ATOM     27  N   UNL     1       4.853   2.069   1.872  0.00  0.00    +0.000 N 
ATOM     28  N   UNL     1       5.078   1.040  -0.214  0.00  0.00    +0.000 NA
ATOM     29  C   UNL     1       4.324   1.722   0.630  0.00  0.00    +0.000 C 
ATOM     30  H   UNL     1       4.346   2.589   2.576  0.00  0.00    +0.000 HD
ATOM     31  H   UNL     1       5.800   1.798   2.117  0.00  0.00    +0.000 HD
ATOM     32  H   UNL     1       5.988   0.873   0.229  0.00  0.00    +0.000 HD
ENDBRANCH  26  29
ENDBRANCH  20  21
ENDBRANCH   2  20
TORSDOF 7
