REMARK  Name = 23647361
REMARK  12 active torsions:
REMARK  status: ('A' for Active; 'I' for Inactive)
REMARK    1  A    between atoms: O_4  and  C_22
REMARK    2  A    between atoms: N_8  and  CA_11
REMARK    3  A    between atoms: N_9  and  C_25
REMARK    4  A    between atoms: CA_10  and  C_22
REMARK    5  A    between atoms: CA_11  and  CB_15
REMARK    6  A    between atoms: CA_11  and  C_16
REMARK    7  A    between atoms: CB_15  and  CG1_20
REMARK    8  A    between atoms: CB_15  and  CG2_21
REMARK    9  A    between atoms: C_17  and  C_19
REMARK   10  A    between atoms: C_18  and  C_23
REMARK   11  A    between atoms: CG1_20  and  CD1_24
REMARK   12  A    between atoms: C_25  and  C_26
REMARK                            x       y       z     vdW  Elec       q    Type
REMARK                         _______ _______ _______ _____ _____    ______ ____
ROOT
ATOM      1  O   UNL     1       0.612  -1.337  -2.089  0.00  0.00    +0.000 OA
ATOM      2  N   UNL     1       0.616   0.376  -0.510  0.00  0.00    +0.000 N 
ATOM      3  C   ACE A   0       0.060  -0.685  -1.211  0.00  0.00    +0.000 C 
ATOM      4  H   UNL     1       0.059   0.806   0.222  0.00  0.00    +0.000 HD
ENDROOT
BRANCH   3   6
ATOM      5  O   UNL     1      -1.509  -2.405  -0.547  0.00  0.00    +0.000 OA
ATOM      6  C   UNL     1      -1.341  -1.017  -0.818  0.00  0.00    +0.000 C 
ATOM      7  C   UNL     1      -1.610  -1.503   0.563  0.00  0.00    +0.000 C 
BRANCH   7  10
ATOM      8  O   UNL     1      -3.588  -2.428   1.375  0.00  0.00    +0.000 OA
ATOM      9  N   UNL     1      -3.422  -0.108   1.256  0.00  0.00    +0.000 N 
ATOM     10  C   UNL     1      -2.969  -1.405   1.105  0.00  0.00    +0.000 C 
ATOM     11  H   UNL     1      -2.817   0.662   0.986  0.00  0.00    +0.000 HD
BRANCH   9  12
ATOM     12  C   UNL     1      -4.734   0.216   1.770  0.00  0.00    +0.000 C 
BRANCH  12  13
ATOM     13  C   UNL     1      -5.758   0.312   0.677  0.00  0.00    +0.000 A 
ATOM     14  C   UNL     1      -5.985   1.534   0.053  0.00  0.00    +0.000 A 
ATOM     15  C   UNL     1      -6.470  -0.820   0.300  0.00  0.00    +0.000 A 
ATOM     16  C   UNL     1      -6.936   1.623  -0.963  0.00  0.00    +0.000 A 
ATOM     17  C   UNL     1      -7.422  -0.731  -0.716  0.00  0.00    +0.000 A 
ATOM     18  C   UNL     1      -7.655   0.491  -1.347  0.00  0.00    +0.000 A 
ENDBRANCH  12  13
ENDBRANCH   9  12
ENDBRANCH   7  10
ENDBRANCH   3   6
BRANCH   2  19
ATOM     19  CA  UNL     1       1.949   0.858  -0.728  0.00  0.00    +0.000 C 
BRANCH  19  26
ATOM     20  O   UNL     1       2.486  -0.470   1.173  0.00  0.00    +0.000 OA
ATOM     21  N   UNL     1       4.092  -0.301  -0.485  0.00  0.00    +0.000 N 
ATOM     22  CA  UNL     1       5.021  -1.269   0.084  0.00  0.00    +0.000 C 
ATOM     23  CB  UNL     1       5.991  -1.586  -1.048  0.00  0.00    +0.000 C 
ATOM     24  CD  UNL     1       4.570   0.193  -1.774  0.00  0.00    +0.000 C 
ATOM     25  CG  UNL     1       6.005  -0.302  -1.874  0.00  0.00    +0.000 C 
ATOM     26  C   UNL     1       2.855  -0.035   0.081  0.00  0.00    +0.000 C 
BRANCH  22  28
ATOM     27  OXT UNL     1       5.930   0.600   1.318  0.00  0.00    +0.000 OA
ATOM     28  C   UNL     1       5.709  -0.599   1.235  0.00  0.00    +0.000 C 
BRANCH  28  29
ATOM     29  O   UNL     1       6.058  -1.507   2.179  0.00  0.00    +0.000 OA
ATOM     30  H   UNL     1       6.511  -1.087   2.940  0.00  0.00    +0.000 HD
ENDBRANCH  28  29
ENDBRANCH  22  28
ENDBRANCH  19  26
BRANCH  19  31
ATOM     31  CB  UNL     1       2.154   2.342  -0.376  0.00  0.00    +0.000 C 
ATOM     32  CG2 UNL     1       1.279   3.211  -1.288  0.00  0.00    +0.000 C 
BRANCH  31  33
ATOM     33  CG1 UNL     1       1.893   2.646   1.117  0.00  0.00    +0.000 C 
ATOM     34  CD1 UNL     1       2.120   4.105   1.488  0.00  0.00    +0.000 C 
ENDBRANCH  31  33
ENDBRANCH  19  31
ENDBRANCH   2  19
TORSDOF 10
