REMARK  Name = 444238
REMARK  10 active torsions:
REMARK  status: ('A' for Active; 'I' for Inactive)
REMARK    1  A    between atoms: O_1  and  C_13
REMARK    2  A    between atoms: O_1  and  C_17
REMARK    3  A    between atoms: N_5  and  N_6
REMARK    4  A    between atoms: N_6  and  C_14
REMARK    5  A    between atoms: N_7  and  C_18
REMARK    6  A    between atoms: C_8  and  C_12
REMARK    7  A    between atoms: C_14  and  C_15
REMARK    8  A    between atoms: C_15  and  C_16
REMARK    9  A    between atoms: C_16  and  C_18
REMARK   10  A    between atoms: C_17  and  C_19
REMARK                            x       y       z     vdW  Elec       q    Type
REMARK                         _______ _______ _______ _____ _____    ______ ____
ROOT
ATOM      1  O   UNL     1      -3.116   1.802  -1.825  0.00  0.00    +0.000 OA
ATOM      2  N   UNL     1      -3.262   0.023  -0.353  0.00  0.00    +0.000 N 
ATOM      3  C   UNL     1      -2.746  -0.670   0.818  0.00  0.00    +0.000 C 
ATOM      4  C   UNL     1      -3.939  -1.451   1.358  0.00  0.00    +0.000 C 
ATOM      5  C   UNL     1      -4.781  -1.722   0.112  0.00  0.00    +0.000 C 
ATOM      6  C   UNL     1      -4.585  -0.467  -0.724  0.00  0.00    +0.000 C 
ATOM      7  C   UNL     1      -2.630   1.116  -0.929  0.00  0.00    +0.000 C 
ENDROOT
BRANCH   3  10
ATOM      8  O   UNL     1      -1.661  -2.068  -0.782  0.00  0.00    +0.000 OA
ATOM      9  N   UNL     1      -0.668  -1.757   1.301  0.00  0.00    +0.000 N 
ATOM     10  C   UNL     1      -1.652  -1.579   0.345  0.00  0.00    +0.000 C 
ATOM     11  H   UNL     1      -0.713  -1.332   2.222  0.00  0.00    +0.000 HD
BRANCH   9  12
ATOM     12  N   UNL     1       0.425  -2.551   0.999  0.00  0.00    +0.000 NA
ATOM     13  H   UNL     1       0.735  -2.976   1.873  0.00  0.00    +0.000 HD
BRANCH  12  14
ATOM     14  C   UNL     1       1.498  -1.741   0.438  0.00  0.00    +0.000 C 
BRANCH  14  15
ATOM     15  C   UNL     1       2.730  -2.604   0.168  0.00  0.00    +0.000 C 
BRANCH  15  16
ATOM     16  C   UNL     1       3.873  -1.766  -0.415  0.00  0.00    +0.000 C 
BRANCH  16  17
ATOM     17  C   UNL     1       5.147  -2.570  -0.682  0.00  0.00    +0.000 C 
BRANCH  17  18
ATOM     18  N   UNL     1       6.215  -1.748  -1.238  0.00  0.00    +0.000 NA
ATOM     19  H   UNL     1       6.446  -1.000  -0.586  0.00  0.00    +0.000 HD
ATOM     20  H   UNL     1       7.058  -2.312  -1.338  0.00  0.00    +0.000 HD
ENDBRANCH  17  18
ENDBRANCH  16  17
ENDBRANCH  15  16
ENDBRANCH  14  15
ENDBRANCH  12  14
ENDBRANCH   9  12
ENDBRANCH   3  10
BRANCH   7  21
ATOM     21  O   UNL     1      -1.397   1.343  -0.380  0.00  0.00    +0.000 OA
BRANCH  21  22
ATOM     22  C   UNL     1      -0.669   2.455  -0.912  0.00  0.00    +0.000 C 
BRANCH  22  23
ATOM     23  C   UNL     1       0.650   2.561  -0.204  0.00  0.00    +0.000 A 
ATOM     24  C   UNL     1       0.753   3.334   0.947  0.00  0.00    +0.000 A 
ATOM     25  C   UNL     1       1.757   1.886  -0.706  0.00  0.00    +0.000 A 
ATOM     26  C   UNL     1       1.979   3.432   1.605  0.00  0.00    +0.000 A 
ATOM     27  C   UNL     1       2.983   1.984  -0.048  0.00  0.00    +0.000 A 
ATOM     28  C   UNL     1       3.094   2.758   1.108  0.00  0.00    +0.000 A 
ENDBRANCH  22  23
ENDBRANCH  21  22
ENDBRANCH   7  21
TORSDOF 10
