REMARK  Name = 
REMARK  4 active torsions:
REMARK  status: ('A' for Active; 'I' for Inactive)
REMARK    1  A    between atoms: C_2  and  C_3
REMARK    2  A    between atoms: C_12  and  B_13
REMARK    3  A    between atoms: B_13  and  O_14
REMARK    4  A    between atoms: B_13  and  O_15
REMARK                            x       y       z     vdW  Elec       q    Type
REMARK                         _______ _______ _______ _____ _____    ______ ____
ROOT
ATOM      1  O   UNL     1       0.874  -0.625   1.473  0.00  0.00    +0.000 OA
ATOM      2  C   UNL     1       0.667  -0.471   0.625  0.00  0.00    +0.000 C 
ATOM      3  N   UNL     1      -0.649  -0.729   0.101  0.00  0.00    +0.000 N 
ATOM      4  C   UNL     1      -0.982  -1.978  -0.588  0.00  0.00    +0.000 C 
ATOM      5  C   UNL     1      -2.459  -1.784  -0.648  0.00  0.00    +0.000 C 
ATOM      6  C   UNL     1      -2.734  -0.381  -0.955  0.00  0.00    +0.000 C 
ATOM      7  C   UNL     1      -1.265   0.355  -0.871  0.00  0.00    +0.000 C 
ENDROOT
BRANCH   2   8
ATOM      8  C   UNL     1       1.746  -0.815  -0.566  0.00  0.00    +0.000 C 
ATOM      9  C   UNL     1       3.043  -0.763   0.479  0.00  0.00    +0.000 C 
ATOM     10  C   UNL     1       3.805   0.393  -0.040  0.00  0.00    +0.000 C 
ATOM     11  C   UNL     1       2.586   1.316   0.036  0.00  0.00    +0.000 C 
ATOM     12  N   UNL     1       1.850   0.719  -0.985  0.00  0.00    +0.000 NA
ATOM     13  H   UNL     1       2.331   0.815  -1.879  0.00  0.00    +0.000 HD
ENDBRANCH   2   8
BRANCH   7  14
ATOM     14  B   UNL     1      -1.755   1.362   0.443  0.00  0.00    +0.000 B 
BRANCH  14  15
ATOM     15  O   UNL     1      -2.248   2.666  -0.018  0.00  0.00    +0.000 OA
ATOM     16  H   UNL     1      -1.685   2.988  -0.739  0.00  0.00    +0.000 HD
ENDBRANCH  14  15
BRANCH  14  17
ATOM     17  O   UNL     1      -2.478   0.736   1.514  0.00  0.00    +0.000 OA
ATOM     18  H   UNL     1      -2.063  -0.113   1.731  0.00  0.00    +0.000 HD
ENDBRANCH  14  17
ENDBRANCH   7  14
TORSDOF 4
