REMARK  Name = 448763
REMARK  9 active torsions:
REMARK  status: ('A' for Active; 'I' for Inactive)
REMARK    1  A    between atoms: N_4  and  C_14
REMARK    2  A    between atoms: N_5  and  C_10
REMARK    3  A    between atoms: N_6  and  C_20
REMARK    4  A    between atoms: N_6  and  C_23
REMARK    5  A    between atoms: C_7  and  C_14
REMARK    6  A    between atoms: C_13  and  C_18
REMARK    7  A    between atoms: C_19  and  C_20
REMARK    8  A    between atoms: C_20  and  C_21
REMARK    9  A    between atoms: C_21  and  C_22
REMARK                            x       y       z     vdW  Elec       q    Type
REMARK                         _______ _______ _______ _____ _____    ______ ____
ROOT
ATOM      1  O   UNL     1      -0.295  -1.167   0.154  0.00  0.00    +0.000 OA
ATOM      2  N   UNL     1      -1.147   0.977   0.328  0.00  0.00    +0.000 N 
ATOM      3  C   UNL     1      -0.255   1.591  -0.647  0.00  0.00    +0.000 C 
ATOM      4  C   UNL     1      -0.892   2.940  -0.960  0.00  0.00    +0.000 C 
ATOM      5  C   UNL     1      -1.630   3.291   0.329  0.00  0.00    +0.000 C 
ATOM      6  C   UNL     1      -2.123   1.942   0.829  0.00  0.00    +0.000 C 
ATOM      7  C   UNL     1      -1.136  -0.383   0.595  0.00  0.00    +0.000 C 
ENDROOT
BRANCH   3  10
ATOM      8  O   UNL     1       1.190   1.916   1.226  0.00  0.00    +0.000 OA
ATOM      9  N   UNL     1       2.138   1.699  -0.891  0.00  0.00    +0.000 N 
ATOM     10  C   UNL     1       1.082   1.746   0.014  0.00  0.00    +0.000 C 
ATOM     11  H   UNL     1       1.933   1.568  -1.878  0.00  0.00    +0.000 HD
BRANCH   9  12
ATOM     12  C   UNL     1       3.512   1.845  -0.516  0.00  0.00    +0.000 C 
BRANCH  12  13
ATOM     13  C   UNL     1       4.136   0.491  -0.184  0.00  0.00    +0.000 C 
ATOM     14  C   UNL     1       5.584   0.664   0.293  0.00  0.00    +0.000 C 
ATOM     15  C   UNL     1       4.068  -0.448  -1.395  0.00  0.00    +0.000 C 
ATOM     16  C   UNL     1       6.178  -1.612  -0.631  0.00  0.00    +0.000 C 
ATOM     17  C   UNL     1       6.247  -0.681   0.584  0.00  0.00    +0.000 C 
ATOM     18  C   UNL     1       4.732  -1.794  -1.104  0.00  0.00    +0.000 C 
BRANCH  16  19
ATOM     19  N   UNL     1       6.776  -2.905  -0.299  0.00  0.00    +0.000 NA
ATOM     20  H   UNL     1       6.774  -3.505  -1.122  0.00  0.00    +0.000 HD
ATOM     21  H   UNL     1       7.753  -2.775  -0.039  0.00  0.00    +0.000 HD
ENDBRANCH  16  19
ENDBRANCH  12  13
ENDBRANCH   9  12
ENDBRANCH   3  10
BRANCH   7  22
ATOM     22  C   UNL     1      -2.240  -0.876   1.496  0.00  0.00    +0.000 C 
BRANCH  22  23
ATOM     23  N   UNL     1      -1.568  -1.372   2.691  0.00  0.00    +0.000 NA
ATOM     24  C   UNL     1      -1.200  -0.275   3.575  0.00  0.00    +0.000 C 
ATOM     25  H   UNL     1      -2.192  -1.997   3.201  0.00  0.00    +0.000 HD
ENDBRANCH  22  23
BRANCH  22  26
ATOM     26  C   UNL     1      -3.053  -1.979   0.819  0.00  0.00    +0.000 C 
BRANCH  26  27
ATOM     27  C   UNL     1      -4.075  -1.437  -0.153  0.00  0.00    +0.000 A 
ATOM     28  C   UNL     1      -5.362  -1.129   0.287  0.00  0.00    +0.000 A 
ATOM     29  C   UNL     1      -3.730  -1.242  -1.491  0.00  0.00    +0.000 A 
ATOM     30  C   UNL     1      -6.305  -0.628  -0.611  0.00  0.00    +0.000 A 
ATOM     31  C   UNL     1      -4.673  -0.741  -2.389  0.00  0.00    +0.000 A 
ATOM     32  C   UNL     1      -5.960  -0.434  -1.948  0.00  0.00    +0.000 A 
ENDBRANCH  26  27
ENDBRANCH  22  26
ENDBRANCH   7  22
TORSDOF 8
