REMARK  Name = 5289314
REMARK  9 active torsions:
REMARK  status: ('A' for Active; 'I' for Inactive)
REMARK    1  A    between atoms: O_3  and  C_32
REMARK    2  A    between atoms: N_6  and  C_8
REMARK    3  A    between atoms: C_11  and  C_13
REMARK    4  A    between atoms: C_11  and  C_21
REMARK    5  A    between atoms: C_11  and  C_24
REMARK    6  A    between atoms: C_13  and  C_19
REMARK    7  A    between atoms: C_19  and  C_28
REMARK    8  A    between atoms: C_19  and  C_29
REMARK    9  A    between atoms: C_24  and  C_32
REMARK                            x       y       z     vdW  Elec       q    Type
REMARK                         _______ _______ _______ _____ _____    ______ ____
ROOT
ATOM      1  O   UNL     1      -0.473  -2.436   1.331  0.00  0.00    +0.000 OA
ATOM      2  N   UNL     1       3.665   0.781   0.879  0.00  0.00    +0.000 N 
ATOM      3  N   UNL     1       0.786  -2.188  -0.603  0.00  0.00    +0.000 N 
ATOM      4  C   UNL     1      -0.667  -0.372   0.081  0.00  0.00    +0.000 C 
ATOM      5  C   UNL     1      -0.016   0.670   0.998  0.00  0.00    +0.000 C 
ATOM      6  C   UNL     1       1.439   0.888   0.720  0.00  0.00    +0.000 A 
ATOM      7  C   UNL     1       4.979   0.407   1.373  0.00  0.00    +0.000 C 
ATOM      8  C   UNL     1       2.015   1.600  -0.381  0.00  0.00    +0.000 A 
ATOM      9  C   UNL     1       3.408   1.521  -0.255  0.00  0.00    +0.000 A 
ATOM     10  C   UNL     1       5.604  -0.814   0.681  0.00  0.00    +0.000 C 
ATOM     11  C   UNL     1       2.489   0.435   1.493  0.00  0.00    +0.000 A 
ATOM     12  C   UNL     1       4.850  -2.126   0.935  0.00  0.00    +0.000 C 
ATOM     13  C   UNL     1       3.776  -2.408  -0.121  0.00  0.00    +0.000 C 
ATOM     14  C   UNL     1       2.708  -3.374   0.401  0.00  0.00    +0.000 C 
ATOM     15  C   UNL     1      -0.134  -1.776   0.351  0.00  0.00    +0.000 C 
ATOM     16  C   UNL     1       1.496  -3.455  -0.528  0.00  0.00    +0.000 C 
ATOM     17  C   UNL     1       1.474   2.299  -1.481  0.00  0.00    +0.000 A 
ATOM     18  C   UNL     1       4.274   2.113  -1.188  0.00  0.00    +0.000 A 
ATOM     19  C   UNL     1       2.330   2.894  -2.412  0.00  0.00    +0.000 A 
ATOM     20  C   UNL     1       3.711   2.801  -2.266  0.00  0.00    +0.000 A 
ATOM     21  H   UNL     1       1.012  -1.571  -1.378  0.00  0.00    +0.000 HD
ENDROOT
BRANCH   4  23
ATOM     22  O   UNL     1      -2.728   1.147  -1.261  0.00  0.00    +0.000 OA
ATOM     23  N   UNL     1      -2.089  -0.433   0.316  0.00  0.00    +0.000 N 
ATOM     24  C   UNL     1      -3.011   0.338  -0.380  0.00  0.00    +0.000 C 
ATOM     25  H   UNL     1      -2.419  -1.050   1.052  0.00  0.00    +0.000 HD
BRANCH  24  26
ATOM     26  C   UNL     1      -4.447   0.102   0.095  0.00  0.00    +0.000 C 
BRANCH  26  27
ATOM     27  C   UNL     1      -5.357  -0.382  -1.053  0.00  0.00    +0.000 C 
BRANCH  27  28
ATOM     28  C   UNL     1      -4.889  -1.680  -1.746  0.00  0.00    +0.000 C 
ATOM     29  C   UNL     1      -4.944  -2.843  -0.751  0.00  0.00    +0.000 C 
ATOM     30  C   UNL     1      -3.475  -1.560  -2.317  0.00  0.00    +0.000 C 
ENDBRANCH  27  28
ENDBRANCH  26  27
BRANCH  26  31
ATOM     31  C   UNL     1      -4.980   1.417   0.698  0.00  0.00    +0.000 C 
BRANCH  31  33
ATOM     32  O   UNL     1      -3.528   1.226   2.648  0.00  0.00    +0.000 OA
ATOM     33  C   UNL     1      -4.138   1.924   1.850  0.00  0.00    +0.000 C 
BRANCH  33  34
ATOM     34  O   UNL     1      -4.127   3.282   1.895  0.00  0.00    +0.000 OA
ATOM     35  H   UNL     1      -3.579   3.618   2.636  0.00  0.00    +0.000 HD
ENDBRANCH  33  34
ENDBRANCH  31  33
ENDBRANCH  26  31
ENDBRANCH  24  26
ENDBRANCH   4  23
TORSDOF 7
