REMARK  Name = 6323528
REMARK  17 active torsions:
REMARK  status: ('A' for Active; 'I' for Inactive)
REMARK    1  A    between atoms: S_1  and  N_9
REMARK    2  A    between atoms: S_1  and  C_22
REMARK    3  A    between atoms: O_6  and  C_25
REMARK    4  A    between atoms: O_6  and  C_26
REMARK    5  A    between atoms: N_9  and  C_12
REMARK    6  A    between atoms: N_10  and  C_18
REMARK    7  A    between atoms: C_11  and  C_15
REMARK    8  A    between atoms: C_15  and  C_17
REMARK    9  A    between atoms: C_15  and  C_19
REMARK   10  A    between atoms: C_16  and  C_18
REMARK   11  A    between atoms: C_17  and  C_21
REMARK   12  A    between atoms: C_18  and  C_20
REMARK   13  A    between atoms: C_20  and  C_23
REMARK   14  A    between atoms: C_20  and  C_24
REMARK   15  A    between atoms: C_26  and  C_27
REMARK   16  A    between atoms: C_26  and  C_28
REMARK   17  A    between atoms: C_26  and  C_29
REMARK                            x       y       z     vdW  Elec       q    Type
REMARK                         _______ _______ _______ _____ _____    ______ ____
ROOT
ATOM      1  O   UNL     1       0.356  -1.405   1.242  0.00  0.00    +0.000 OA
ATOM      2  N   UNL     1      -0.966  -0.434  -0.390  0.00  0.00    +0.000 N 
ATOM      3  C   UNL     1      -2.212  -0.431   0.386  0.00  0.00    +0.000 C 
ATOM      4  C   UNL     1      -3.137   0.513  -0.395  0.00  0.00    +0.000 C 
ATOM      5  C   UNL     1      -2.658   0.371  -1.838  0.00  0.00    +0.000 C 
ATOM      6  C   UNL     1      -1.153   0.183  -1.700  0.00  0.00    +0.000 C 
ATOM      7  C   UNL     1       0.235  -0.888   0.130  0.00  0.00    +0.000 C 
ENDROOT
BRANCH   4   8
ATOM      8  N   UNL     1      -2.925   1.911   0.064  0.00  0.00    +0.000 NA
ATOM      9  H   UNL     1      -1.970   2.216   0.285  0.00  0.00    +0.000 HD
BRANCH   8  10
ATOM     10  S   UNL     1      -4.195   3.031  -0.105  0.00  0.00    +0.000 S 
ATOM     11  O   UNL     1      -5.002   2.697  -1.262  0.00  0.00    +0.000 OA
ATOM     12  O   UNL     1      -3.646   4.364   0.056  0.00  0.00    +0.000 OA
ATOM     13  C   UNL     1      -5.150   2.670   1.351  0.00  0.00    +0.000 C 
ENDBRANCH   8  10
ENDBRANCH   4   8
BRANCH   3  14
ATOM     14  C   UNL     1      -2.798  -1.839   0.486  0.00  0.00    +0.000 C 
BRANCH  14  16
ATOM     15  O   UNL     1      -1.215  -3.685   0.655  0.00  0.00    +0.000 OA
ATOM     16  C   UNL     1      -1.768  -2.720   1.171  0.00  0.00    +0.000 C 
ENDBRANCH  14  16
BRANCH  14  17
ATOM     17  C   UNL     1      -4.146  -1.813   1.216  0.00  0.00    +0.000 C 
ATOM     18  C   UNL     1      -4.782  -3.195   1.321  0.00  0.00    +0.000 C 
ENDBRANCH  14  17
ENDBRANCH   3  14
BRANCH   7  19
ATOM     19  C   UNL     1       1.437  -0.721  -0.765  0.00  0.00    +0.000 C 
BRANCH  19  21
ATOM     20  O   UNL     1       3.688   1.083  -1.105  0.00  0.00    +0.000 OA
ATOM     21  N   UNL     1       2.478  -0.425   0.179  0.00  0.00    +0.000 N 
ATOM     22  C   UNL     1       3.519   0.452  -0.067  0.00  0.00    +0.000 C 
ATOM     23  H   UNL     1       2.475  -0.894   1.082  0.00  0.00    +0.000 HD
BRANCH  22  24
ATOM     24  O   UNL     1       4.341   0.518   1.023  0.00  0.00    +0.000 OA
BRANCH  24  25
ATOM     25  C   UNL     1       5.467   1.394   0.904  0.00  0.00    +0.000 C 
ATOM     26  C   UNL     1       6.336   0.916  -0.258  0.00  0.00    +0.000 C 
ATOM     27  C   UNL     1       4.955   2.812   0.654  0.00  0.00    +0.000 C 
ATOM     28  C   UNL     1       6.243   1.327   2.218  0.00  0.00    +0.000 C 
ENDBRANCH  24  25
ENDBRANCH  22  24
ENDBRANCH  19  21
BRANCH  19  29
ATOM     29  C   UNL     1       1.710  -1.981  -1.593  0.00  0.00    +0.000 C 
ATOM     30  C   UNL     1       2.562  -1.662  -2.826  0.00  0.00    +0.000 C 
ATOM     31  C   UNL     1       2.423  -3.044  -0.749  0.00  0.00    +0.000 C 
ENDBRANCH  19  29
ENDBRANCH   7  19
TORSDOF 10
