REMARK  Name = 114948
REMARK  11 active torsions:
REMARK  status: ('A' for Active; 'I' for Inactive)
REMARK    1  A    between atoms: O_2  and  C_12
REMARK    2  A    between atoms: N_8  and  C_13
REMARK    3  A    between atoms: N_9  and  C_35
REMARK    4  A    between atoms: C_13  and  C_24
REMARK    5  A    between atoms: C_14  and  C_25
REMARK    6  A    between atoms: C_22  and  C_29
REMARK    7  A    between atoms: C_24  and  C_33
REMARK    8  A    between atoms: C_24  and  C_34
REMARK    9  A    between atoms: C_25  and  C_30
REMARK   10  A    between atoms: C_30  and  C_39
REMARK   11  A    between atoms: C_30  and  C_40
REMARK                            x       y       z     vdW  Elec       q    Type
REMARK                         _______ _______ _______ _____ _____    ______ ____
ROOT
ATOM      1  O   UNL     1       2.391  -0.706   1.403  0.00  0.00    +0.000 OA
ATOM      2  O   UNL     1       3.235  -1.944  -1.781  0.00  0.00    +0.000 OA
ATOM      3  O   UNL     1       5.773   2.753  -1.134  0.00  0.00    +0.000 OA
ATOM      4  N   UNL     1       3.472  -0.010  -0.477  0.00  0.00    +0.000 N 
ATOM      5  N   UNL     1       4.841   1.996   0.828  0.00  0.00    +0.000 N 
ATOM      6  C   UNL     1       4.099   1.001   1.587  0.00  0.00    +0.000 C 
ATOM      7  C   UNL     1       2.938   0.458   0.773  0.00  0.00    +0.000 C 
ATOM      8  C   UNL     1       2.162  -1.700   0.395  0.00  0.00    +0.000 C 
ATOM      9  C   UNL     1       4.353   0.813  -1.300  0.00  0.00    +0.000 C 
ATOM     10  C   UNL     1       3.793   1.702   2.910  0.00  0.00    +0.000 C 
ATOM     11  C   UNL     1       5.351   3.049   1.694  0.00  0.00    +0.000 C 
ATOM     12  C   UNL     1       3.031  -1.287  -0.772  0.00  0.00    +0.000 C 
ATOM     13  C   UNL     1       5.038   2.567   3.106  0.00  0.00    +0.000 C 
ATOM     14  C   UNL     1       5.059   1.945  -0.534  0.00  0.00    +0.000 C 
ENDROOT
BRANCH   8  16
ATOM     15  O   UNL     1      -0.190  -2.333   1.965  0.00  0.00    +0.000 OA
ATOM     16  N   UNL     1       0.792  -1.658  -0.035  0.00  0.00    +0.000 N 
ATOM     17  C   UNL     1      -0.271  -1.980   0.791  0.00  0.00    +0.000 C 
ATOM     18  H   UNL     1       0.573  -1.542  -1.014  0.00  0.00    +0.000 HD
BRANCH  17  23
ATOM     19  N   UNL     1      -3.927  -2.690   0.049  0.00  0.00    +0.000 NA
ATOM     20  N   UNL     1      -7.462   2.185  -0.045  0.00  0.00    +0.000 N 
ATOM     21  C   UNL     1      -3.496  -0.243  -0.356  0.00  0.00    +0.000 C 
ATOM     22  C   UNL     1      -4.479  -1.330   0.267  0.00  0.00    +0.000 C 
ATOM     23  C   UNL     1      -1.595  -1.827   0.100  0.00  0.00    +0.000 C 
ATOM     24  C   UNL     1      -2.094  -0.393   0.248  0.00  0.00    +0.000 C 
ATOM     25  C   UNL     1      -2.599  -2.826   0.673  0.00  0.00    +0.000 C 
ATOM     26  C   UNL     1      -5.951  -1.186  -0.281  0.00  0.00    +0.000 C 
ATOM     27  C   UNL     1      -4.066   1.158  -0.210  0.00  0.00    +0.000 A 
ATOM     28  C   UNL     1      -5.461   1.270  -0.163  0.00  0.00    +0.000 A 
ATOM     29  C   UNL     1      -6.410   0.230  -0.190  0.00  0.00    +0.000 A 
ATOM     30  C   UNL     1      -4.802  -3.750   0.558  0.00  0.00    +0.000 C 
ATOM     31  C   UNL     1      -6.117   2.483  -0.074  0.00  0.00    +0.000 A 
ATOM     32  C   UNL     1      -3.351   2.363  -0.195  0.00  0.00    +0.000 A 
ATOM     33  C   UNL     1      -7.650   0.820  -0.118  0.00  0.00    +0.000 A 
ATOM     34  C   UNL     1      -5.414   3.687  -0.035  0.00  0.00    +0.000 A 
ATOM     35  C   UNL     1      -4.015   3.598  -0.102  0.00  0.00    +0.000 A 
ATOM     36  H   UNL     1      -8.205   2.866   0.016  0.00  0.00    +0.000 HD
ENDBRANCH  17  23
ENDBRANCH   8  16
BRANCH   8  37
ATOM     37  C   UNL     1       2.538  -3.067   0.937  0.00  0.00    +0.000 C 
ATOM     38  C   UNL     1       3.978  -3.070   1.456  0.00  0.00    +0.000 C 
ATOM     39  C   UNL     1       2.358  -4.147  -0.131  0.00  0.00    +0.000 C 
ENDBRANCH   8  37
BRANCH   7  40
ATOM     40  O   UNL     1       1.922   1.414   0.499  0.00  0.00    +0.000 OA
ATOM     41  H   UNL     1       1.709   1.885   1.319  0.00  0.00    +0.000 HD
ENDBRANCH   7  40
BRANCH   9  42
ATOM     42  C   UNL     1       3.585   1.398  -2.485  0.00  0.00    +0.000 C 
BRANCH  42  43
ATOM     43  C   UNL     1       2.909   0.332  -3.359  0.00  0.00    +0.000 C 
ATOM     44  C   UNL     1       3.904  -0.688  -3.914  0.00  0.00    +0.000 C 
ATOM     45  C   UNL     1       1.828  -0.388  -2.549  0.00  0.00    +0.000 C 
ENDBRANCH  42  43
ENDBRANCH   9  42
TORSDOF 6
