REMARK  Name = 71600094
REMARK  11 active torsions:
REMARK  status: ('A' for Active; 'I' for Inactive)
REMARK    1  A    between atoms: N_7  and  C_13
REMARK    2  A    between atoms: N_8  and  C_28
REMARK    3  A    between atoms: N_9  and  C_26
REMARK    4  A    between atoms: N_9  and  C_30
REMARK    5  A    between atoms: C_12  and  C_13
REMARK    6  A    between atoms: C_13  and  C_20
REMARK    7  A    between atoms: C_19  and  C_24
REMARK    8  A    between atoms: C_25  and  C_26
REMARK    9  A    between atoms: C_26  and  C_27
REMARK   10  A    between atoms: C_29  and  C_32
REMARK   11  A    between atoms: C_31  and  C_33
REMARK                            x       y       z     vdW  Elec       q    Type
REMARK                         _______ _______ _______ _____ _____    ______ ____
ROOT
ATOM      1  O   UNL     1       1.692   0.764   0.655  0.00  0.00    +0.000 OA
ATOM      2  N   UNL     1       1.545   0.689  -1.653  0.00  0.00    +0.000 N 
ATOM      3  C   UNL     1       0.237   1.323  -1.758  0.00  0.00    +0.000 C 
ATOM      4  C   UNL     1       2.200   0.527  -0.442  0.00  0.00    +0.000 C 
ATOM      5  C   UNL     1       2.108   0.421  -2.974  0.00  0.00    +0.000 C 
ATOM      6  C   UNL     1       0.111   1.708  -3.227  0.00  0.00    +0.000 C 
ATOM      7  C   UNL     1       0.961   0.662  -3.943  0.00  0.00    +0.000 C 
ENDROOT
BRANCH   3  10
ATOM      8  O   UNL     1      -0.580  -0.896  -1.551  0.00  0.00    +0.000 OA
ATOM      9  N   UNL     1      -1.900   0.898  -0.794  0.00  0.00    +0.000 N 
ATOM     10  C   UNL     1      -0.783   0.298  -1.361  0.00  0.00    +0.000 C 
ATOM     11  H   UNL     1      -1.917   1.913  -0.722  0.00  0.00    +0.000 HD
BRANCH   9  14
ATOM     12  S   UNL     1      -3.130  -1.450  -0.399  0.00  0.00    +0.000 S 
ATOM     13  N   UNL     1      -5.153  -0.218   0.634  0.00  0.00    +0.000 NA
ATOM     14  C   UNL     1      -3.063   0.261  -0.301  0.00  0.00    +0.000 A 
ATOM     15  C   UNL     1      -4.222   0.737   0.274  0.00  0.00    +0.000 A 
ATOM     16  C   UNL     1      -4.684  -1.407   0.327  0.00  0.00    +0.000 A 
BRANCH  15  17
ATOM     17  C   UNL     1      -4.470   2.134   0.495  0.00  0.00    +0.000 A 
ATOM     18  C   UNL     1      -3.611   2.873   1.308  0.00  0.00    +0.000 A 
ATOM     19  C   UNL     1      -5.568   2.751  -0.103  0.00  0.00    +0.000 A 
ATOM     20  C   UNL     1      -3.851   4.231   1.524  0.00  0.00    +0.000 A 
ATOM     21  C   UNL     1      -5.808   4.109   0.112  0.00  0.00    +0.000 A 
ATOM     22  C   UNL     1      -4.950   4.848   0.926  0.00  0.00    +0.000 A 
ENDBRANCH  15  17
BRANCH  16  25
ATOM     23  O   UNL     1      -4.917  -3.827   0.253  0.00  0.00    +0.000 OA
ATOM     24  N   UNL     1      -6.601  -2.596   1.128  0.00  0.00    +0.000 NA
ATOM     25  C   UNL     1      -5.410  -2.599   0.574  0.00  0.00    +0.000 A 
ATOM     26  C   UNL     1      -5.904  -4.679   0.648  0.00  0.00    +0.000 A 
ATOM     27  C   UNL     1      -6.923  -3.929   1.179  0.00  0.00    +0.000 A 
ENDBRANCH  16  25
ENDBRANCH   9  14
ENDBRANCH   3  10
BRANCH   4  28
ATOM     28  C   UNL     1       3.615   0.016  -0.531  0.00  0.00    +0.000 C 
BRANCH  28  29
ATOM     29  C   UNL     1       3.648  -1.507  -0.419  0.00  0.00    +0.000 C 
ATOM     30  C   UNL     1       4.941  -2.068  -1.028  0.00  0.00    +0.000 C 
ATOM     31  C   UNL     1       3.497  -1.946   1.043  0.00  0.00    +0.000 C 
ATOM     32  C   UNL     1       5.021  -3.585  -0.880  0.00  0.00    +0.000 C 
ATOM     33  C   UNL     1       3.580  -3.465   1.187  0.00  0.00    +0.000 C 
ATOM     34  C   UNL     1       4.862  -4.019   0.574  0.00  0.00    +0.000 C 
ENDBRANCH  28  29
BRANCH  28  36
ATOM     35  O   UNL     1       6.355   0.899  -0.489  0.00  0.00    +0.000 OA
ATOM     36  N   UNL     1       4.295   0.656   0.554  0.00  0.00    +0.000 N 
ATOM     37  C   UNL     1       5.631   1.054   0.492  0.00  0.00    +0.000 C 
ATOM     38  H   UNL     1       3.780   0.826   1.414  0.00  0.00    +0.000 HD
BRANCH  37  39
ATOM     39  C   UNL     1       6.107   1.697   1.789  0.00  0.00    +0.000 C 
ATOM     40  C   UNL     1       5.900   3.206   1.738  0.00  0.00    +0.000 C 
BRANCH  39  41
ATOM     41  N   UNL     1       7.524   1.388   1.960  0.00  0.00    +0.000 NA
ATOM     42  C   UNL     1       7.700   0.040   2.480  0.00  0.00    +0.000 C 
ATOM     43  H   UNL     1       7.941   2.043   2.622  0.00  0.00    +0.000 HD
ENDBRANCH  39  41
ENDBRANCH  37  39
ENDBRANCH  28  36
ENDBRANCH   4  28
TORSDOF 9
