REMARK  Name = 
REMARK  30 active torsions:
REMARK  status: ('A' for Active; 'I' for Inactive)
REMARK    1  A    between atoms: CD1_1  and  CG1_2
REMARK    2  A    between atoms: CG1_2  and  CB_3
REMARK    3  A    between atoms: CB_3  and  CG2_4
REMARK    4  A    between atoms: CB_3  and  CA_5
REMARK    5  A    between atoms: CA_5  and  N_6
REMARK    6  A    between atoms: CA_5  and  C_40
REMARK    7  A    between atoms: C_7  and  CA_9
REMARK    8  A    between atoms: CA_9  and  CB_10
REMARK    9  A    between atoms: CA_9  and  N_12
REMARK   10  A    between atoms: CB_10  and  OG_11
REMARK   11  A    between atoms: C_13  and  CA_15
REMARK   12  A    between atoms: CA_15  and  N_16
REMARK   13  A    between atoms: CA_15  and  CB_37
REMARK   14  A    between atoms: C_17  and  CA_19
REMARK   15  A    between atoms: C_24  and  CA_26
REMARK   16  A    between atoms: CA_26  and  CB_27
REMARK   17  A    between atoms: CA_26  and  N_28
REMARK   18  A    between atoms: C_29  and  CA_31
REMARK   19  A    between atoms: CA_31  and  N_32
REMARK   20  A    between atoms: CA_31  and  CB_33
REMARK   21  A    between atoms: CB_33  and  CG_34
REMARK   22  A    between atoms: CB_37  and  CG1_38
REMARK   23  A    between atoms: CB_37  and  CG2_39
REMARK   24  A    between atoms: CA_46  and  C_47
REMARK   25  A    between atoms: N_49  and  CA_50
REMARK   26  A    between atoms: CA_50  and  CB_51
REMARK   27  A    between atoms: CA_50  and  C_56
REMARK   28  A    between atoms: CB_51  and  CG_52
REMARK   29  A    between atoms: CG_52  and  CD_53
REMARK   30  A    between atoms: C_56  and  OXT_58
REMARK                            x       y       z     vdW  Elec       q    Type
REMARK                         _______ _______ _______ _____ _____    ______ ____
ROOT
ATOM      1  CA  SER A   5      -1.061  -0.109  -1.940  0.00  0.00    +0.000 C 
ENDROOT
BRANCH   1   3
ATOM      2  N   ILE A   6      -3.181  -1.349  -1.094  0.00  0.00    +0.000 N 
ATOM      3  C   SER A   5      -1.744  -1.347  -1.174  0.00  0.00    +0.000 C 
ATOM      4  O   SER A   5      -1.392  -2.490  -1.318  0.00  0.00    +0.000 OA
ATOM      5  H   ILE A   6      -3.653  -1.136  -0.257  0.00  0.00    +0.000 HD
BRANCH   2   6
ATOM      6  CA  ILE A   6      -3.959  -1.710  -2.412  0.00  0.00    +0.000 C 
BRANCH   6   7
ATOM      7  C   ILE A   6      -5.373  -1.167  -1.903  0.00  0.00    +0.000 C 
ATOM      8  O   ILE A   6      -5.791  -0.459  -2.880  0.00  0.00    +0.000 OA
ATOM      9  N   PRO A   7      -5.642  -0.623  -0.689  0.00  0.00    +0.000 N 
ATOM     10  CD  PRO A   7      -5.268   0.572  -0.083  0.00  0.00    +0.000 C 
ATOM     11  CG  PRO A   7      -5.226   0.147   1.339  0.00  0.00    +0.000 C 
ATOM     12  CB  PRO A   7      -6.258  -0.842   1.574  0.00  0.00    +0.000 C 
ATOM     13  CA  PRO A   7      -6.843  -1.266   0.101  0.00  0.00    +0.000 C 
BRANCH  13  14
ATOM     14  C   PRO A   7      -7.849  -0.008  -0.011  0.00  0.00    +0.000 C 
ATOM     15  O   PRO A   7      -8.980  -0.565   0.186  0.00  0.00    +0.000 OA
ATOM     16  N   GLN A   8      -7.660   1.167   0.681  0.00  0.00    +0.000 N 
ATOM     17  H   GLN A   8      -6.764   1.562   0.783  0.00  0.00    +0.000 HD
BRANCH  16  18
ATOM     18  CA  GLN A   8      -8.939   1.862   1.306  0.00  0.00    +0.000 C 
BRANCH  18  19
ATOM     19  C   GLN A   8      -8.078   2.906   2.158  0.00  0.00    +0.000 C 
ATOM     20  O   GLN A   8      -7.053   2.728   2.705  0.00  0.00    +0.000 OA
BRANCH  19  21
ATOM     21  OXT GLN A   8      -8.670   4.133   2.249  0.00  0.00    +0.000 OA
ATOM     22  HXT GLN A   8      -9.487   4.292   1.818  0.00  0.00    +0.000 HD
ENDBRANCH  19  21
ENDBRANCH  18  19
BRANCH  18  23
ATOM     23  CB  GLN A   8      -9.035   0.738   2.495  0.00  0.00    +0.000 C 
BRANCH  23  24
ATOM     24  CG  GLN A   8      -8.955   1.300   3.822  0.00  0.00    +0.000 C 
BRANCH  24  25
ATOM     25  CD  GLN A   8      -8.337   0.248   4.693  0.00  0.00    +0.000 C 
ATOM     26  NE2 GLN A   8      -6.919   0.201   4.908  0.00  0.00    +0.000 N 
ATOM     27  OE1 GLN A   8      -8.990  -0.584   5.361  0.00  0.00    +0.000 OA
ATOM     28 HE21 GLN A   8      -6.327   0.821   4.424  0.00  0.00    +0.000 HD
ATOM     29 HE22 GLN A   8      -6.539  -0.451   5.540  0.00  0.00    +0.000 HD
ENDBRANCH  24  25
ENDBRANCH  23  24
ENDBRANCH  18  23
ENDBRANCH  16  18
ENDBRANCH  13  14
ENDBRANCH   6   7
BRANCH   6  30
ATOM     30  CB  ILE A   6      -4.189  -3.382  -2.095  0.00  0.00    +0.000 C 
ATOM     31  CG2 ILE A   6      -4.482  -3.295  -0.512  0.00  0.00    +0.000 C 
BRANCH  30  33
ATOM     32  CD1 ILE A   6      -5.973  -3.237  -2.736  0.00  0.00    +0.000 C 
ATOM     33  CG1 ILE A   6      -5.757  -3.412  -2.523  0.00  0.00    +0.000 C 
ENDBRANCH  30  33
ENDBRANCH   6  30
ENDBRANCH   2   6
ENDBRANCH   1   3
BRANCH   1  34
ATOM     34  N   SER A   5       0.362  -0.168  -1.241  0.00  0.00    +0.000 N 
ATOM     35  C   VAL A   4       0.929   1.069  -1.458  0.00  0.00    +0.000 C 
ATOM     36  O   VAL A   4       0.425   2.062  -0.888  0.00  0.00    +0.000 OA
ATOM     37  H   SER A   5       0.757  -0.928  -0.756  0.00  0.00    +0.000 HD
BRANCH  35  38
ATOM     38  CA  VAL A   4       2.463   1.345  -1.863  0.00  0.00    +0.000 C 
BRANCH  38  39
ATOM     39  N   VAL A   4       2.989   0.003  -1.248  0.00  0.00    +0.000 N 
ATOM     40  C   PRO A   3       4.217  -0.529  -1.520  0.00  0.00    +0.000 C 
ATOM     41  O   PRO A   3       3.906  -1.136  -2.595  0.00  0.00    +0.000 OA
ATOM     42  H   VAL A   4       2.399  -0.485  -0.629  0.00  0.00    +0.000 HD
BRANCH  40  43
ATOM     43  CA  PRO A   3       5.581   0.293  -1.767  0.00  0.00    +0.000 C 
ATOM     44  CB  PRO A   3       6.362  -0.977  -2.470  0.00  0.00    +0.000 C 
ATOM     45  CG  PRO A   3       7.755  -0.703  -2.037  0.00  0.00    +0.000 C 
ATOM     46  CD  PRO A   3       7.607   0.138  -0.809  0.00  0.00    +0.000 C 
ATOM     47  N   PRO A   3       6.221  -0.104  -0.390  0.00  0.00    +0.000 N 
ATOM     48  C   ALA A   2       5.777   0.469   0.838  0.00  0.00    +0.000 C 
ATOM     49  O   ALA A   2       4.637   0.886   1.061  0.00  0.00    +0.000 OA
BRANCH  48  50
ATOM     50  CA  ALA A   2       6.424  -0.512   1.949  0.00  0.00    +0.000 C 
ATOM     51  CB  ALA A   2       6.017   0.469   3.204  0.00  0.00    +0.000 C 
BRANCH  50  52
ATOM     52  N   ALA A   2       7.835   0.179   1.810  0.00  0.00    +0.000 N 
ATOM     53  C   ASN A   1       8.903  -0.659   2.163  0.00  0.00    +0.000 C 
ATOM     54  O   ASN A   1       8.889  -1.866   2.339  0.00  0.00    +0.000 OA
ATOM     55  H   ALA A   2       7.954   1.107   1.505  0.00  0.00    +0.000 HD
BRANCH  53  56
ATOM     56  CA  ASN A   1      10.137   0.227   2.696  0.00  0.00    +0.000 C 
BRANCH  56  57
ATOM     57  N   ASN A   1      10.227  -0.559   4.062  0.00  0.00    +0.000 NA
ATOM     58  H1  ASN A   1      10.184  -1.562   3.881  0.00  0.00    +0.000 HD
ATOM     59  H2  ASN A   1       9.447  -0.288   4.661  0.00  0.00    +0.000 HD
ENDBRANCH  56  57
BRANCH  56  60
ATOM     60  CB  ASN A   1      11.244  -0.759   1.981  0.00  0.00    +0.000 C 
BRANCH  60  61
ATOM     61  CG  ASN A   1      11.780   0.097   0.908  0.00  0.00    +0.000 C 
ATOM     62  ND2 ASN A   1      10.995   0.328  -0.266  0.00  0.00    +0.000 N 
ATOM     63  OD1 ASN A   1      13.005   0.412   0.816  0.00  0.00    +0.000 OA
ATOM     64 HD21 ASN A   1      10.036   0.107  -0.267  0.00  0.00    +0.000 HD
ATOM     65 HD22 ASN A   1      11.414   0.707  -1.072  0.00  0.00    +0.000 HD
ENDBRANCH  60  61
ENDBRANCH  56  60
ENDBRANCH  53  56
ENDBRANCH  50  52
ENDBRANCH  48  50
ENDBRANCH  40  43
ENDBRANCH  38  39
BRANCH  38  66
ATOM     66  CB  VAL A   4       2.236   0.870  -3.430  0.00  0.00    +0.000 C 
ATOM     67  CG1 VAL A   4       1.417   2.108  -3.839  0.00  0.00    +0.000 C 
ATOM     68  CG2 VAL A   4       3.524   1.222  -4.173  0.00  0.00    +0.000 C 
ENDBRANCH  38  66
ENDBRANCH  35  38
ENDBRANCH   1  34
BRANCH   1  69
ATOM     69  CB  SER A   5      -0.523  -0.988  -3.224  0.00  0.00    +0.000 C 
BRANCH  69  70
ATOM     70  OG  SER A   5       0.265  -1.995  -2.815  0.00  0.00    +0.000 OA
ATOM     71  H   SER A   5       1.034  -1.634  -2.348  0.00  0.00    +0.000 HD
ENDBRANCH  69  70
ENDBRANCH   1  69
TORSDOF 25
