REMARK  Name = 
REMARK  32 active torsions:
REMARK  status: ('A' for Active; 'I' for Inactive)
REMARK    1  A    between atoms: C_1  and  C_2
REMARK    2  A    between atoms: C_2  and  C_3
REMARK    3  A    between atoms: C_3  and  C_4
REMARK    4  A    between atoms: C_3  and  C_5
REMARK    5  A    between atoms: C_5  and  C_6
REMARK    6  A    between atoms: C_5  and  N_33
REMARK    7  A    between atoms: C_6  and  C_7
REMARK    8  A    between atoms: C_6  and  O_31
REMARK    9  A    between atoms: C_7  and  C_8
REMARK   10  A    between atoms: C_14  and  C_15
REMARK   11  A    between atoms: C_15  and  O_16
REMARK   12  A    between atoms: C_15  and  C_18
REMARK   13  A    between atoms: O_16  and  C_17
REMARK   14  A    between atoms: C_18  and  C_19
REMARK   15  A    between atoms: C_18  and  C_20
REMARK   16  A    between atoms: N_22  and  C_23
REMARK   17  A    between atoms: C_23  and  C_24
REMARK   18  A    between atoms: C_24  and  C_25
REMARK   19  A    between atoms: O_31  and  C_32
REMARK   20  A    between atoms: N_33  and  C_34
REMARK   21  A    between atoms: C_35  and  C_37
REMARK   22  A    between atoms: C_37  and  N_38
REMARK   23  A    between atoms: C_37  and  C_48
REMARK   24  A    between atoms: C_39  and  C_41
REMARK   25  A    between atoms: C_41  and  C_42
REMARK   26  A    between atoms: C_41  and  N_45
REMARK   27  A    between atoms: C_42  and  C_43
REMARK   28  A    between atoms: C_42  and  C_44
REMARK   29  A    between atoms: N_45  and  C_46
REMARK   30  A    between atoms: N_45  and  C_47
REMARK   31  A    between atoms: C_48  and  C_49
REMARK   32  A    between atoms: C_48  and  C_50
REMARK                            x       y       z     vdW  Elec       q    Type
REMARK                         _______ _______ _______ _____ _____    ______ ____
ROOT
ATOM      1  C   UNL     1      -1.000   0.992  -0.687  0.00  0.00    +0.000 C 
ENDROOT
BRANCH   1   2
ATOM      2  O   UNL     1      -1.147   0.482  -2.103  0.00  0.00    +0.000 OA
ATOM      3  C   UNL     1      -0.012   0.816  -2.780  0.00  0.00    +0.000 C 
ENDBRANCH   1   2
BRANCH   1   4
ATOM      4  C   UNL     1      -2.080  -0.161  -0.009  0.00  0.00    +0.000 C 
BRANCH   4   5
ATOM      5  N   UNL     1      -3.251   0.201  -0.949  0.00  0.00    +0.000 N 
ATOM      6  C   UNL     1      -3.332   1.570  -1.487  0.00  0.00    +0.000 C 
ATOM      7  C   UNL     1      -4.520  -0.007  -0.292  0.00  0.00    +0.000 C 
ATOM      8  O   UNL     1      -4.991  -1.100  -0.373  0.00  0.00    +0.000 OA
BRANCH   7   9
ATOM      9  C   UNL     1      -4.864   0.965   0.948  0.00  0.00    +0.000 C 
BRANCH   9  10
ATOM     10  N   UNL     1      -6.330   1.363   0.507  0.00  0.00    +0.000 N 
ATOM     11  C   UNL     1      -7.082   0.325  -0.079  0.00  0.00    +0.000 C 
ATOM     12  O   UNL     1      -6.725   0.423  -1.287  0.00  0.00    +0.000 OA
ATOM     13  H   UNL     1      -6.691   2.270   0.632  0.00  0.00    +0.000 HD
BRANCH  11  14
ATOM     14  C   UNL     1      -8.667   0.642  -0.099  0.00  0.00    +0.000 C 
BRANCH  14  15
ATOM     15  C   UNL     1      -8.743   0.754   1.544  0.00  0.00    +0.000 C 
ATOM     16  C   UNL     1      -8.558   2.248   1.736  0.00  0.00    +0.000 C 
ATOM     17  C   UNL     1     -10.165   0.430   1.897  0.00  0.00    +0.000 C 
ENDBRANCH  14  15
BRANCH  14  18
ATOM     18  N   UNL     1      -9.056  -0.888  -0.060  0.00  0.00    +0.000 NA
ATOM     19  C   UNL     1      -8.360  -1.531  -1.124  0.00  0.00    +0.000 C 
ATOM     20  C   UNL     1     -10.460  -0.905  -0.454  0.00  0.00    +0.000 C 
ENDBRANCH  14  18
ENDBRANCH  11  14
ENDBRANCH   9  10
BRANCH   9  21
ATOM     21  C   UNL     1      -5.427  -0.148   2.021  0.00  0.00    +0.000 C 
ATOM     22  C   UNL     1      -4.859   0.221   3.353  0.00  0.00    +0.000 C 
ATOM     23  C   UNL     1      -5.265  -1.488   1.775  0.00  0.00    +0.000 C 
ENDBRANCH   9  21
ENDBRANCH   7   9
ENDBRANCH   4   5
BRANCH   4  24
ATOM     24  C   UNL     1      -1.411  -1.478  -0.852  0.00  0.00    +0.000 C 
ATOM     25  C   UNL     1      -1.335  -2.349   0.519  0.00  0.00    +0.000 C 
BRANCH  24  27
ATOM     26  C   UNL     1      -2.823  -2.861  -1.431  0.00  0.00    +0.000 C 
ATOM     27  C   UNL     1      -2.762  -2.218  -1.331  0.00  0.00    +0.000 C 
ENDBRANCH  24  27
ENDBRANCH   4  24
ENDBRANCH   1   4
BRANCH   1  28
ATOM     28  C   UNL     1       0.338   0.092  -0.399  0.00  0.00    +0.000 C 
BRANCH  28  29
ATOM     29  C   UNL     1       1.391   1.058   0.037  0.00  0.00    +0.000 C 
ATOM     30  O   UNL     1       1.050   2.262   0.256  0.00  0.00    +0.000 OA
ATOM     31  N   UNL     1       2.450   0.563   0.763  0.00  0.00    +0.000 N 
ATOM     32  C   UNL     1       2.312  -0.165   2.007  0.00  0.00    +0.000 C 
ATOM     33  C   UNL     1       2.453  -1.591   1.516  0.00  0.00    +0.000 C 
ATOM     34  C   UNL     1       3.223  -1.515   0.236  0.00  0.00    +0.000 C 
ATOM     35  C   UNL     1       3.824   0.004   0.298  0.00  0.00    +0.000 C 
BRANCH  35  36
ATOM     36  C   UNL     1       3.527   0.265  -1.364  0.00  0.00    +0.000 C 
BRANCH  36  37
ATOM     37  O   UNL     1       4.383  -0.885  -1.815  0.00  0.00    +0.000 OA
ATOM     38  C   UNL     1       3.554  -1.755  -2.506  0.00  0.00    +0.000 C 
ENDBRANCH  36  37
BRANCH  36  39
ATOM     39  C   UNL     1       4.736   1.459  -1.616  0.00  0.00    +0.000 C 
ATOM     40  C   UNL     1       4.600   2.192  -0.168  0.00  0.00    +0.000 C 
BRANCH  39  41
ATOM     41  C   UNL     1       6.012   0.628  -1.177  0.00  0.00    +0.000 C 
ATOM     42  O   UNL     1       6.098  -0.154  -0.336  0.00  0.00    +0.000 OA
ATOM     43  N   UNL     1       7.075   0.867  -2.100  0.00  0.00    +0.000 N 
ATOM     44  H   UNL     1       6.888   1.268  -2.979  0.00  0.00    +0.000 HD
BRANCH  43  45
ATOM     45  C   UNL     1       8.419   0.519  -1.734  0.00  0.00    +0.000 C 
BRANCH  45  46
ATOM     46  C   UNL     1       8.517  -0.659  -0.809  0.00  0.00    +0.000 C 
BRANCH  46  47
ATOM     47  C   UNL     1       9.132  -0.298   0.505  0.00  0.00    +0.000 A 
ATOM     48  C   UNL     1       8.866  -1.040   1.653  0.00  0.00    +0.000 A 
ATOM     49  C   UNL     1       9.214  -0.383   2.830  0.00  0.00    +0.000 A 
ATOM     50  C   UNL     1      10.552   0.000   2.855  0.00  0.00    +0.000 A 
ATOM     51  C   UNL     1      11.158   0.321   1.645  0.00  0.00    +0.000 A 
ATOM     52  C   UNL     1      10.341   0.393   0.521  0.00  0.00    +0.000 A 
ENDBRANCH  46  47
ENDBRANCH  45  46
ENDBRANCH  43  45
ENDBRANCH  39  41
ENDBRANCH  36  39
ENDBRANCH  35  36
ENDBRANCH  28  29
ENDBRANCH   1  28
TORSDOF 20
