REMARK  Name = 
REMARK  22 active torsions:
REMARK  status: ('A' for Active; 'I' for Inactive)
REMARK    1  A    between atoms: CA_2  and  C_6
REMARK    2  A    between atoms: C_6  and  OXT_8
REMARK    3  A    between atoms: C_9  and  CA_10
REMARK    4  A    between atoms: CA_10  and  CB_11
REMARK    5  A    between atoms: CA_10  and  N_14
REMARK    6  A    between atoms: CB_11  and  CG2_12
REMARK    7  A    between atoms: CB_11  and  OG1_13
REMARK    8  A    between atoms: C_15  and  C_16
REMARK    9  A    between atoms: C_16  and  C_17
REMARK   10  A    between atoms: C_16  and  N_22
REMARK   11  A    between atoms: C_17  and  S_18
REMARK   12  A    between atoms: S_18  and  O_21
REMARK   13  A    between atoms: C_23  and  CA_24
REMARK   14  A    between atoms: CA_24  and  N_25
REMARK   15  A    between atoms: C_26  and  CA_27
REMARK   16  A    between atoms: CA_27  and  CB_28
REMARK   17  A    between atoms: CA_27  and  N_35
REMARK   18  A    between atoms: CB_28  and  CG_29
REMARK   19  A    between atoms: CG_29  and  CD_30
REMARK   20  A    between atoms: CD_30  and  NE_31
REMARK   21  A    between atoms: C_36  and  CA_37
REMARK   22  A    between atoms: CA_37  and  N_38
REMARK                            x       y       z     vdW  Elec       q    Type
REMARK                         _______ _______ _______ _____ _____    ______ ____
ROOT
ATOM      1  N   UNK A   4       0.217  -1.442   0.000  0.00  0.00    +0.000 N 
ATOM      2  C   GLY A   3      -0.498  -1.030   0.000  0.00  0.00    +0.000 C 
ATOM      3  O   GLY A   3      -0.498  -0.206   0.000  0.00  0.00    +0.000 OA
ATOM      4  H   UNK A   4       0.217  -2.426   0.000  0.00  0.00    +0.000 HD
ENDROOT
BRANCH   1   5
ATOM      5  C   UNK A   4       0.931  -1.030   0.000  0.00  0.00    +0.000 C 
BRANCH   5   7
ATOM      6  N   THR A   5       2.357  -1.030   0.000  0.00  0.00    +0.000 N 
ATOM      7  C   UNK A   4       1.646  -1.442   0.000  0.00  0.00    +0.000 C 
ATOM      8  O   UNK A   4       1.646  -2.270   0.000  0.00  0.00    +0.000 OA
ATOM      9  H   THR A   5       2.355  -0.045   0.000  0.00  0.00    +0.000 HD
BRANCH   6  10
ATOM     10  CA  THR A   5       3.071  -1.442   0.000  0.00  0.00    +0.000 C 
BRANCH  10  16
ATOM     11  N   PRO A   6       4.501  -1.442   0.000  0.00  0.00    +0.000 N 
ATOM     12  CA  PRO A   6       5.255  -1.110   0.000  0.00  0.00    +0.000 C 
ATOM     13  CB  PRO A   6       5.808  -1.722   0.000  0.00  0.00    +0.000 C 
ATOM     14  CG  PRO A   6       5.396  -2.437   0.000  0.00  0.00    +0.000 C 
ATOM     15  CD  PRO A   6       4.588  -2.265   0.000  0.00  0.00    +0.000 C 
ATOM     16  C   THR A   5       3.786  -1.030   0.000  0.00  0.00    +0.000 C 
ATOM     17  O   THR A   5       3.786  -0.206   0.000  0.00  0.00    +0.000 OA
BRANCH  12  18
ATOM     18  C   PRO A   6       5.427  -0.302   0.000  0.00  0.00    +0.000 C 
ATOM     19  O   PRO A   6       6.210  -0.047   0.000  0.00  0.00    +0.000 OA
BRANCH  18  20
ATOM     20  OXT PRO A   6       4.815   0.251   0.000  0.00  0.00    +0.000 OA
ATOM     21  HXT PRO A   6       5.012   1.167   0.000  0.00  0.00    +0.000 HD
ENDBRANCH  18  20
ENDBRANCH  12  18
ENDBRANCH  10  16
BRANCH  10  22
ATOM     22  CB  THR A   5       3.071  -2.270   0.000  0.00  0.00    +0.000 C 
ATOM     23  CG2 THR A   5       3.786  -2.682   0.000  0.00  0.00    +0.000 C 
BRANCH  22  24
ATOM     24  OG1 THR A   5       2.357  -2.682   0.000  0.00  0.00    +0.000 OA
ATOM     25  HG1 THR A   5       1.517  -2.196   0.000  0.00  0.00    +0.000 HD
ENDBRANCH  22  24
ENDBRANCH  10  22
ENDBRANCH   6  10
ENDBRANCH   5   7
BRANCH   5  26
ATOM     26  C   UNK A   4       0.931  -0.206   0.000  0.00  0.00    +0.000 C 
BRANCH  26  27
ATOM     27  S   UNK A   4       1.646   0.206   0.000  0.00  0.00    +0.000 S 
ATOM     28  O   UNK A   4       1.234   0.921   0.000  0.00  0.00    +0.000 OA
ATOM     29  O   UNK A   4       2.058  -0.509   0.000  0.00  0.00    +0.000 OA
BRANCH  27  30
ATOM     30  O   UNK A   4       2.357   0.618   0.000  0.00  0.00    +0.000 OA
ATOM     31  H   UNK A   4       3.198   0.134   0.000  0.00  0.00    +0.000 HD
ENDBRANCH  27  30
ENDBRANCH  26  27
ENDBRANCH   5  26
ENDBRANCH   1   5
BRANCH   2  32
ATOM     32  CA  GLY A   3      -1.213  -1.442   0.000  0.00  0.00    +0.000 C 
BRANCH  32  33
ATOM     33  N   GLY A   3      -1.928  -1.030   0.000  0.00  0.00    +0.000 N 
ATOM     34  C   ARG A   2      -2.643  -1.442   0.000  0.00  0.00    +0.000 C 
ATOM     35  O   ARG A   2      -2.643  -2.270   0.000  0.00  0.00    +0.000 OA
ATOM     36  H   GLY A   3      -1.928  -0.045   0.000  0.00  0.00    +0.000 HD
BRANCH  34  37
ATOM     37  CA  ARG A   2      -3.353  -1.030   0.000  0.00  0.00    +0.000 C 
BRANCH  37  38
ATOM     38  N   ARG A   2      -4.068  -1.442   0.000  0.00  0.00    +0.000 N 
ATOM     39  C   GLY A   1      -4.783  -1.030   0.000  0.00  0.00    +0.000 C 
ATOM     40  O   GLY A   1      -4.783  -0.206   0.000  0.00  0.00    +0.000 OA
ATOM     41  H   ARG A   2      -4.068  -2.426   0.000  0.00  0.00    +0.000 HD
BRANCH  39  42
ATOM     42  CA  GLY A   1      -5.498  -1.442   0.000  0.00  0.00    +0.000 C 
BRANCH  42  43
ATOM     43  N   GLY A   1      -6.210  -1.030   0.000  0.00  0.00    +0.000 NA
ATOM     44  H1  GLY A   1      -6.210  -0.010   0.000  0.00  0.00    +0.000 HD
ATOM     45  H2  GLY A   1      -7.094  -1.539   0.000  0.00  0.00    +0.000 HD
ENDBRANCH  42  43
ENDBRANCH  39  42
ENDBRANCH  37  38
BRANCH  37  46
ATOM     46  CB  ARG A   2      -3.353  -0.206   0.000  0.00  0.00    +0.000 C 
BRANCH  46  47
ATOM     47  CG  ARG A   2      -4.068   0.206   0.000  0.00  0.00    +0.000 C 
BRANCH  47  48
ATOM     48  CD  ARG A   2      -4.068   1.030   0.000  0.00  0.00    +0.000 C 
BRANCH  48  49
ATOM     49  NE  ARG A   2      -4.783   1.442   0.000  0.00  0.00    +0.000 N 
ATOM     50  CZ  ARG A   2      -4.783   2.270   0.000  0.00  0.00    +0.000 C 
ATOM     51  NH1 ARG A   2      -5.498   2.682   0.000  0.00  0.00    +0.000 N 
ATOM     52  NH2 ARG A   2      -4.068   2.682   0.000  0.00  0.00    +0.000 NA
ATOM     53  HE  ARG A   2      -5.635   0.949   0.000  0.00  0.00    +0.000 HD
ATOM     54 HH11 ARG A   2      -5.499   3.666   0.000  0.00  0.00    +0.000 HD
ATOM     55 HH12 ARG A   2      -6.350   2.189   0.000  0.00  0.00    +0.000 HD
ATOM     56  HH2 ARG A   2      -3.216   2.189   0.000  0.00  0.00    +0.000 HD
ENDBRANCH  48  49
ENDBRANCH  47  48
ENDBRANCH  46  47
ENDBRANCH  37  46
ENDBRANCH  34  37
ENDBRANCH  32  33
ENDBRANCH   2  32
TORSDOF 21
