REMARK  Name = 
REMARK  22 active torsions:
REMARK  status: ('A' for Active; 'I' for Inactive)
REMARK    1  A    between atoms: CG1_1  and  CB_2
REMARK    2  A    between atoms: CB_2  and  CG2_3
REMARK    3  A    between atoms: CB_2  and  CA_4
REMARK    4  A    between atoms: CA_4  and  N_5
REMARK    5  A    between atoms: CA_4  and  C_31
REMARK    6  A    between atoms: C_6  and  CA_8
REMARK    7  A    between atoms: CA_8  and  CB_9
REMARK    8  A    between atoms: CA_8  and  N_16
REMARK    9  A    between atoms: CB_9  and  CG_10
REMARK   10  A    between atoms: CG_10  and  CD_11
REMARK   11  A    between atoms: CD_11  and  NE_12
REMARK   12  A    between atoms: N_19  and  CA_20
REMARK   13  A    between atoms: CA_20  and  CB_21
REMARK   14  A    between atoms: CA_20  and  C_28
REMARK   15  A    between atoms: CB_21  and  CG_22
REMARK   16  A    between atoms: C_28  and  OXT_30
REMARK   17  A    between atoms: N_33  and  CA_34
REMARK   18  A    between atoms: CA_34  and  C_35
REMARK   19  A    between atoms: CA_34  and  CB_37
REMARK   20  A    between atoms: CB_37  and  CG_38
REMARK   21  A    between atoms: CG_38  and  CD_39
REMARK   22  A    between atoms: CD_39  and  NE_40
REMARK                            x       y       z     vdW  Elec       q    Type
REMARK                         _______ _______ _______ _____ _____    ______ ____
ROOT
ATOM      1  CA  PHE A   1      -1.459   1.603   1.384  0.00  0.00    +0.000 C 
ENDROOT
BRANCH   1   2
ATOM      2  N   PHE A   1      -2.480   0.423   1.116  0.00  0.00    +0.000 N 
ATOM      3  C   UNK A   0      -2.928   0.479  -0.248  0.00  0.00    +0.000 C 
ATOM      4  O   UNK A   0      -3.233   1.647  -0.660  0.00  0.00    +0.000 OA
ATOM      5  N   PHE A   1      -3.624  -0.580  -0.797  0.00  0.00    +0.000 N 
ATOM      6  H   PHE A   1      -2.763  -0.245   1.781  0.00  0.00    +0.000 HD
ATOM      7  H   PHE A   1      -3.460  -1.495  -0.474  0.00  0.00    +0.000 HD
BRANCH   5   8
ATOM      8  CA  PHE A   1      -4.681  -0.329  -1.940  0.00  0.00    +0.000 C 
BRANCH   8   9
ATOM      9  C   PHE A   1      -3.607   0.411  -2.901  0.00  0.00    +0.000 C 
ATOM     10  O   PHE A   1      -4.076   1.403  -3.543  0.00  0.00    +0.000 OA
BRANCH   9  11
ATOM     11  OXT PHE A   1      -3.151  -0.567  -3.806  0.00  0.00    +0.000 OA
ATOM     12  HXT PHE A   1      -2.775  -1.363  -3.485  0.00  0.00    +0.000 HD
ENDBRANCH   9  11
ENDBRANCH   8   9
BRANCH   8  13
ATOM     13  CB  PHE A   1      -5.221   1.092  -1.296  0.00  0.00    +0.000 C 
BRANCH  13  14
ATOM     14  CG  PHE A   1      -6.588   0.706  -0.908  0.00  0.00    +0.000 A 
ATOM     15  CD1 PHE A   1      -7.521   0.757  -1.914  0.00  0.00    +0.000 A 
ATOM     16  CE1 PHE A   1      -8.687   0.050  -1.744  0.00  0.00    +0.000 A 
ATOM     17  CZ  PHE A   1      -9.170   0.006  -0.443  0.00  0.00    +0.000 A 
ATOM     18  CE2 PHE A   1      -8.202  -0.180   0.539  0.00  0.00    +0.000 A 
ATOM     19  CD2 PHE A   1      -6.898   0.161   0.304  0.00  0.00    +0.000 A 
ENDBRANCH  13  14
ENDBRANCH   8  13
ENDBRANCH   5   8
ENDBRANCH   1   2
BRANCH   1  21
ATOM     20  N   PHE A   1       1.063   1.306   0.927  0.00  0.00    +0.000 N 
ATOM     21  C   PHE A   1      -0.168   0.674   1.113  0.00  0.00    +0.000 C 
ATOM     22  O   PHE A   1      -0.278  -0.268   0.357  0.00  0.00    +0.000 OA
ATOM     23  H   PHE A   1       1.238   2.086   0.352  0.00  0.00    +0.000 HD
BRANCH  20  24
ATOM     24  CA  PHE A   1       2.124   0.537   1.812  0.00  0.00    +0.000 C 
BRANCH  24  25
ATOM     25  C   PHE A   1       3.308   0.916   0.791  0.00  0.00    +0.000 C 
ATOM     26  O   PHE A   1       4.225   1.615   1.254  0.00  0.00    +0.000 OA
ATOM     27  N   ARG A   2       3.201   0.549  -0.532  0.00  0.00    +0.000 N 
ATOM     28  H   ARG A   2       2.448   0.021  -0.883  0.00  0.00    +0.000 HD
BRANCH  27  29
ATOM     29  CA  ARG A   2       4.389   1.052  -1.436  0.00  0.00    +0.000 C 
BRANCH  29  30
ATOM     30  C   ARG A   2       4.506  -0.363  -2.215  0.00  0.00    +0.000 C 
ATOM     31  O   ARG A   2       4.552  -1.353  -1.564  0.00  0.00    +0.000 OA
ENDBRANCH  29  30
BRANCH  29  32
ATOM     32  CB  ARG A   2       5.559   0.655  -0.341  0.00  0.00    +0.000 C 
BRANCH  32  33
ATOM     33  CG  ARG A   2       6.754   0.354  -1.155  0.00  0.00    +0.000 C 
BRANCH  33  34
ATOM     34  CD  ARG A   2       7.985   0.777  -0.388  0.00  0.00    +0.000 C 
BRANCH  34  35
ATOM     35  NE  ARG A   2       9.089   0.099  -1.033  0.00  0.00    +0.000 NA
ATOM     36  CZ  ARG A   2       8.966  -0.692  -2.036  0.00  0.00    +0.000 C 
ATOM     37  NH1 ARG A   2       8.117  -1.817  -1.942  0.00  0.00    +0.000 N 
ATOM     38  NH2 ARG A   2       9.213  -0.159  -3.333  0.00  0.00    +0.000 N 
ATOM     39 HH11 ARG A   2       7.922  -2.214  -1.062  0.00  0.00    +0.000 HD
ATOM     40 HH12 ARG A   2       7.720  -2.203  -2.755  0.00  0.00    +0.000 HD
ATOM     41 HH21 ARG A   2       9.800   0.624  -3.440  0.00  0.00    +0.000 HD
ATOM     42 HH22 ARG A   2       8.797  -0.574  -4.123  0.00  0.00    +0.000 HD
ENDBRANCH  34  35
ENDBRANCH  33  34
ENDBRANCH  32  33
ENDBRANCH  29  32
ENDBRANCH  27  29
ENDBRANCH  24  25
BRANCH  24  44
ATOM     43  CG1 PHE A   1       1.343  -1.460   1.632  0.00  0.00    +0.000 C 
ATOM     44  CB  PHE A   1       1.870  -0.965   1.168  0.00  0.00    +0.000 C 
ATOM     45  CG2 PHE A   1       3.111  -1.637   1.774  0.00  0.00    +0.000 C 
ENDBRANCH  24  44
ENDBRANCH  20  24
ENDBRANCH   1  21
BRANCH   1  46
ATOM     46  CB  PHE A   1      -1.392   1.387   3.013  0.00  0.00    +0.000 C 
BRANCH  46  47
ATOM     47  CG  PHE A   1      -2.332   0.417   3.494  0.00  0.00    +0.000 C 
BRANCH  47  48
ATOM     48  CD  PHE A   1      -2.115  -0.914   3.268  0.00  0.00    +0.000 C 
BRANCH  48  49
ATOM     49  NE  PHE A   1      -1.454  -1.989   3.386  0.00  0.00    +0.000 NA
ATOM     50  CZ  PHE A   1      -0.466  -2.710   3.137  0.00  0.00    +0.000 C 
ATOM     51  NH1 PHE A   1       0.763  -2.350   3.772  0.00  0.00    +0.000 N 
ATOM     52  NH2 PHE A   1      -0.407  -3.457   1.933  0.00  0.00    +0.000 N 
ATOM     53 HH11 PHE A   1       0.751  -1.832   4.609  0.00  0.00    +0.000 HD
ATOM     54 HH12 PHE A   1       1.621  -2.620   3.373  0.00  0.00    +0.000 HD
ATOM     55 HH21 PHE A   1      -1.239  -3.718   1.475  0.00  0.00    +0.000 HD
ATOM     56 HH22 PHE A   1       0.464  -3.714   1.555  0.00  0.00    +0.000 HD
ENDBRANCH  48  49
ENDBRANCH  47  48
ENDBRANCH  46  47
ENDBRANCH   1  46
TORSDOF 20
