REMARK  Name = 25323033
REMARK  11 active torsions:
REMARK  status: ('A' for Active; 'I' for Inactive)
REMARK    1  A    between atoms: P_1  and  O_6
REMARK    2  A    between atoms: P_1  and  O_7
REMARK    3  A    between atoms: P_1  and  O_8
REMARK    4  A    between atoms: P_2  and  O_7
REMARK    5  A    between atoms: P_2  and  O_10
REMARK    6  A    between atoms: P_2  and  O_11
REMARK    7  A    between atoms: O_4  and  C_18
REMARK    8  A    between atoms: O_5  and  C_19
REMARK    9  A    between atoms: O_6  and  C_22
REMARK   10  A    between atoms: N_13  and  C_20
REMARK   11  A    between atoms: C_21  and  C_22
REMARK                            x       y       z     vdW  Elec       q    Type
REMARK                         _______ _______ _______ _____ _____    ______ ____
ROOT
ATOM      1  O   UNL     1       0.308  -0.707  -0.588  0.00  0.00    +0.000 OA
ATOM      2  C   UNL     1       1.154  -2.472   0.769  0.00  0.00    +0.000 C 
ATOM      3  C   UNL     1      -0.360  -2.532   0.784  0.00  0.00    +0.000 C 
ATOM      4  C   UNL     1       1.418  -1.622  -0.478  0.00  0.00    +0.000 C 
ATOM      5  C   UNL     1      -0.728  -1.121   0.324  0.00  0.00    +0.000 C 
ENDROOT
BRANCH   4   6
ATOM      6  N   UNL     1       2.754  -0.922  -0.498  0.00  0.00    +0.000 N 
ATOM      7  N   UNL     1       4.919  -0.575  -0.900  0.00  0.00    +0.000 NA
ATOM      8  N   UNL     1       2.199   1.160   0.623  0.00  0.00    +0.000 NA
ATOM      9  N   UNL     1       4.148   2.619   0.798  0.00  0.00    +0.000 NA
ATOM     10  N   UNL     1       6.297   2.000  -0.053  0.00  0.00    +0.000 N 
ATOM     11  C   UNL     1       3.039   0.315   0.007  0.00  0.00    +0.000 A 
ATOM     12  C   UNL     1       3.915  -1.416  -1.032  0.00  0.00    +0.000 A 
ATOM     13  C   UNL     1       4.386   0.511  -0.252  0.00  0.00    +0.000 A 
ATOM     14  C   UNL     1       4.938   1.717   0.169  0.00  0.00    +0.000 A 
ATOM     15  C   UNL     1       2.847   2.290   0.983  0.00  0.00    +0.000 A 
ATOM     16  H   UNL     1       6.889   1.329  -0.523  0.00  0.00    +0.000 HD
ATOM     17  H   UNL     1       6.675   2.883   0.262  0.00  0.00    +0.000 HD
ENDBRANCH   4   6
BRANCH   2  18
ATOM     18  O   UNL     1       1.605  -1.803   1.943  0.00  0.00    +0.000 OA
ATOM     19  H   UNL     1       1.363  -2.358   2.704  0.00  0.00    +0.000 HD
ENDBRANCH   2  18
BRANCH   3  20
ATOM     20  O   UNL     1      -0.786  -3.521  -0.144  0.00  0.00    +0.000 OA
ATOM     21  H   UNL     1      -0.476  -4.382   0.184  0.00  0.00    +0.000 HD
ENDBRANCH   3  20
BRANCH   5  22
ATOM     22  C   UNL     1      -2.076  -0.979  -0.357  0.00  0.00    +0.000 C 
BRANCH  22  23
ATOM     23  O   UNL     1      -2.271   0.381  -0.710  0.00  0.00    +0.000 OA
BRANCH  23  24
ATOM     24  P   UNL     1      -3.632   0.835  -1.456  0.00  0.00    +0.000 P 
ATOM     25  O   UNL     1      -3.714   2.300  -1.775  0.00  0.00    +0.000 OA
BRANCH  24  26
ATOM     26  O   UNL     1      -3.728  -0.135  -2.748  0.00  0.00    +0.000 OA
ATOM     27  H   UNL     1      -4.412   0.046  -3.427  0.00  0.00    +0.000 HD
ENDBRANCH  24  26
BRANCH  24  28
ATOM     28  O   UNL     1      -4.819   0.297  -0.500  0.00  0.00    +0.000 OA
BRANCH  28  29
ATOM     29  P   UNL     1      -5.250   0.724   0.998  0.00  0.00    +0.000 P 
ATOM     30  O   UNL     1      -4.184   0.527   2.035  0.00  0.00    +0.000 OA
BRANCH  29  31
ATOM     31  O   UNL     1      -6.611  -0.113   1.241  0.00  0.00    +0.000 OA
ATOM     32  H   UNL     1      -7.031  -0.091   2.127  0.00  0.00    +0.000 HD
ENDBRANCH  29  31
BRANCH  29  33
ATOM     33  O   UNL     1      -5.768   2.244   0.819  0.00  0.00    +0.000 OA
ATOM     34  H   UNL     1      -6.014   2.759   1.617  0.00  0.00    +0.000 HD
ENDBRANCH  29  33
ENDBRANCH  28  29
ENDBRANCH  24  28
ENDBRANCH  23  24
ENDBRANCH  22  23
ENDBRANCH   5  22
TORSDOF 11
