REMARK  Name = 124992
REMARK  11 active torsions:
REMARK  status: ('A' for Active; 'I' for Inactive)
REMARK    1  A    between atoms: P_1  and  O_4
REMARK    2  A    between atoms: P_1  and  O_5
REMARK    3  A    between atoms: P_1  and  C_14
REMARK    4  A    between atoms: O_2  and  C_16
REMARK    5  A    between atoms: N_8  and  C_12
REMARK    6  A    between atoms: N_9  and  CA_13
REMARK    7  A    between atoms: C_10  and  C_11
REMARK    8  A    between atoms: C_10  and  C_12
REMARK    9  A    between atoms: C_11  and  CA_13
REMARK   10  A    between atoms: CA_13  and  C_16
REMARK   11  A    between atoms: C_14  and  C_15
REMARK                            x       y       z     vdW  Elec       q    Type
REMARK                         _______ _______ _______ _____ _____    ______ ____
ROOT
ATOM      1  O   UNL     1       1.847  -0.746   1.310  0.00  0.00    +0.000 OA
ATOM      2  N   UNL     1       0.606  -1.277  -0.586  0.00  0.00    +0.000 N 
ATOM      3  C   UNL     1       1.712  -0.774   0.089  0.00  0.00    +0.000 C 
ATOM      4  H   UNL     1       0.596  -1.250  -1.602  0.00  0.00    +0.000 HD
ENDROOT
BRANCH   2   5
ATOM      5  C   UNL     1      -0.538  -1.838   0.079  0.00  0.00    +0.000 C 
BRANCH   5   6
ATOM      6  C   UNL     1      -1.608  -0.794   0.388  0.00  0.00    +0.000 C 
BRANCH   6   7
ATOM      7  C   UNL     1      -2.154  -0.124  -0.884  0.00  0.00    +0.000 C 
BRANCH   7   8
ATOM      8  CA  UNL     1      -3.275   0.896  -0.636  0.00  0.00    +0.000 C 
BRANCH   8   9
ATOM      9  N   UNL     1      -2.802   2.034   0.151  0.00  0.00    +0.000 NA
ATOM     10  H1  UNL     1      -1.984   2.443  -0.299  0.00  0.00    +0.000 HD
ATOM     11  H2  UNL     1      -2.493   1.725   1.071  0.00  0.00    +0.000 HD
ENDBRANCH   8   9
BRANCH   8  13
ATOM     12  OXT UNL     1      -4.881   0.627   1.184  0.00  0.00    +0.000 OA
ATOM     13  C   UNL     1      -4.456   0.277   0.091  0.00  0.00    +0.000 C 
BRANCH  13  14
ATOM     14  O   UNL     1      -5.013  -0.739  -0.620  0.00  0.00    +0.000 OA
ATOM     15  H   UNL     1      -5.776  -1.139  -0.149  0.00  0.00    +0.000 HD
ENDBRANCH  13  14
ENDBRANCH   8  13
ENDBRANCH   7   8
ENDBRANCH   6   7
ENDBRANCH   5   6
ENDBRANCH   2   5
BRANCH   3  16
ATOM     16  C   UNL     1       2.766  -0.251  -0.853  0.00  0.00    +0.000 C 
BRANCH  16  17
ATOM     17  P   UNL     1       4.210   0.443  -0.024  0.00  0.00    +0.000 P 
ATOM     18  O   UNL     1       4.928  -0.530   0.846  0.00  0.00    +0.000 OA
BRANCH  17  19
ATOM     19  O   UNL     1       3.602   1.738   0.715  0.00  0.00    +0.000 OA
ATOM     20  H   UNL     1       4.190   2.292   1.271  0.00  0.00    +0.000 HD
ENDBRANCH  17  19
BRANCH  17  21
ATOM     21  O   UNL     1       5.056   1.057  -1.249  0.00  0.00    +0.000 OA
ATOM     22  H   UNL     1       5.922   1.480  -1.067  0.00  0.00    +0.000 HD
ENDBRANCH  17  21
ENDBRANCH  16  17
ENDBRANCH   3  16
TORSDOF 11
