REMARK  Name = 
REMARK  23 active torsions:
REMARK  status: ('A' for Active; 'I' for Inactive)
REMARK    1  A    between atoms: C_11  and  C_12
REMARK    2  A    between atoms: C_12  and  N_13
REMARK    3  A    between atoms: N_13  and  C_14
REMARK    4  A    between atoms: C_17  and  C_18
REMARK    5  A    between atoms: N_20  and  C_21
REMARK    6  A    between atoms: C_21  and  C_22
REMARK    7  A    between atoms: C_21  and  C_45
REMARK    8  A    between atoms: C_22  and  C_23
REMARK    9  A    between atoms: C_23  and  C_24
REMARK   10  A    between atoms: N_26  and  C_27
REMARK   11  A    between atoms: C_27  and  C_28
REMARK   12  A    between atoms: C_27  and  C_42
REMARK   13  A    between atoms: C_28  and  C_29
REMARK   14  A    between atoms: C_29  and  C_30
REMARK   15  A    between atoms: N_32  and  C_33
REMARK   16  A    between atoms: C_33  and  C_34
REMARK   17  A    between atoms: C_33  and  C_39
REMARK   18  A    between atoms: C_34  and  C_35
REMARK   19  A    between atoms: C_35  and  C_36
REMARK   20  A    between atoms: C_36  and  O_38
REMARK   21  A    between atoms: C_39  and  O_41
REMARK   22  A    between atoms: C_42  and  O_44
REMARK   23  A    between atoms: C_45  and  O_47
REMARK                            x       y       z     vdW  Elec       q    Type
REMARK                         _______ _______ _______ _____ _____    ______ ____
ROOT
ATOM      1  C   UNK A   1       0.147  -1.496   1.166  0.00  0.00    +0.000 C 
ENDROOT
BRANCH   1   4
ATOM      2  C   UNK A   0      -1.966  -0.494   0.245  0.00  0.00    +0.000 C 
ATOM      3  O   UNK A   0      -2.679  -1.073   1.120  0.00  0.00    +0.000 OA
ATOM      4  N   UNK A   1      -0.676  -0.196   0.753  0.00  0.00    +0.000 N 
ATOM      5  H   UNK A   1      -0.325   0.720   0.842  0.00  0.00    +0.000 HD
BRANCH   2   9
ATOM      6  C   UNK A   0      -4.830  -0.593  -2.559  0.00  0.00    +0.000 A 
ATOM      7  C   UNK A   0      -3.876  -1.611  -2.632  0.00  0.00    +0.000 A 
ATOM      8  C   UNK A   0      -2.673  -1.520  -1.927  0.00  0.00    +0.000 A 
ATOM      9  C   UNK A   0      -2.367  -0.391  -1.165  0.00  0.00    +0.000 A 
ATOM     10  C   UNK A   0      -2.999   0.741  -1.675  0.00  0.00    +0.000 A 
ATOM     11  C   UNK A   0      -4.176   0.633  -2.415  0.00  0.00    +0.000 A 
BRANCH   6  12
ATOM     12  N   UNK A   0      -6.127  -0.818  -1.992  0.00  0.00    +0.000 N 
ATOM     13  H   UNK A   0      -6.137  -0.907  -1.012  0.00  0.00    +0.000 HD
BRANCH  12  14
ATOM     14  C   UNK A   0      -7.375  -0.932  -2.598  0.00  0.00    +0.000 C 
BRANCH  14  25
ATOM     15  N   UNK A   0      -9.339  -1.181   3.158  0.00  0.00    +0.000 N 
ATOM     16  C   UNK A   0      -8.909  -0.698   2.026  0.00  0.00    +0.000 A 
ATOM     17  N   UNK A   0      -7.981   0.276   2.031  0.00  0.00    +0.000 NA
ATOM     18  C   UNK A   0      -7.469   0.809   0.900  0.00  0.00    +0.000 A 
ATOM     19  O   UNK A   0      -6.655   1.779   0.974  0.00  0.00    +0.000 OA
ATOM     20  C   UNK A   0      -7.869   0.306  -0.335  0.00  0.00    +0.000 A 
ATOM     21  C   UNK A   0      -8.845  -0.684  -0.320  0.00  0.00    +0.000 A 
ATOM     22  N   UNK A   0      -9.321  -1.173   0.827  0.00  0.00    +0.000 N 
ATOM     23  N   UNK A   0      -9.540  -0.782  -1.569  0.00  0.00    +0.000 N 
ATOM     24  C   UNK A   0      -9.507   0.229  -2.551  0.00  0.00    +0.000 C 
ATOM     25  C   UNK A   0      -7.931   0.603  -2.888  0.00  0.00    +0.000 C 
ATOM     26  N   UNK A   0      -7.655   1.137  -1.424  0.00  0.00    +0.000 N 
ATOM     27  C   UNK A   0      -7.312   2.505  -1.341  0.00  0.00    +0.000 C 
ATOM     28  O   UNK A   0      -8.066   3.448  -1.077  0.00  0.00    +0.000 OA
ATOM     29  H   UNK A   0      -9.014  -0.806   4.008  0.00  0.00    +0.000 HD
ATOM     30  H   UNK A   0      -9.989  -1.921   3.162  0.00  0.00    +0.000 HD
ATOM     31  H   UNK A   0      -9.988  -1.897   0.800  0.00  0.00    +0.000 HD
ATOM     32  H   UNK A   0     -10.065  -1.594  -1.750  0.00  0.00    +0.000 HD
ENDBRANCH  14  25
ENDBRANCH  12  14
ENDBRANCH   6  12
ENDBRANCH   2   9
ENDBRANCH   1   4
BRANCH   1  33
ATOM     33  C   UNK A   1       1.045  -0.664   2.243  0.00  0.00    +0.000 C 
ATOM     34  O   UNK A   1       0.289  -0.449   3.240  0.00  0.00    +0.000 OA
BRANCH  33  35
ATOM     35  O   UNK A   1       2.155  -1.463   2.544  0.00  0.00    +0.000 OA
ATOM     36  H   UNK A   1       2.773  -1.678   1.874  0.00  0.00    +0.000 HD
ENDBRANCH  33  35
ENDBRANCH   1  33
BRANCH   1  37
ATOM     37  C   UNK A   1       1.295  -1.321  -0.016  0.00  0.00    +0.000 C 
BRANCH  37  38
ATOM     38  C   UNK A   1       1.086  -0.043  -0.724  0.00  0.00    +0.000 C 
BRANCH  38  39
ATOM     39  C   UNK A   1       2.346   0.753  -0.575  0.00  0.00    +0.000 C 
ATOM     40  O   UNK A   1       2.528   1.443   0.473  0.00  0.00    +0.000 OA
ATOM     41  N   UNK A   1       3.468   0.241  -1.299  0.00  0.00    +0.000 N 
ATOM     42  H   UNK A   1       3.386  -0.213  -2.169  0.00  0.00    +0.000 HD
BRANCH  41  43
ATOM     43  C   UNK A   1       4.861   0.474  -0.568  0.00  0.00    +0.000 C 
BRANCH  43  44
ATOM     44  C   UNK A   1       5.721  -0.175  -1.789  0.00  0.00    +0.000 C 
ATOM     45  O   UNK A   1       5.375   0.211  -2.937  0.00  0.00    +0.000 OA
BRANCH  44  46
ATOM     46  O   UNK A   1       7.060   0.151  -1.516  0.00  0.00    +0.000 OA
ATOM     47  H   UNK A   1       7.440  -0.083  -0.692  0.00  0.00    +0.000 HD
ENDBRANCH  44  46
ENDBRANCH  43  44
BRANCH  43  48
ATOM     48  C   UNK A   1       4.753  -0.994   0.199  0.00  0.00    +0.000 C 
BRANCH  48  49
ATOM     49  C   UNK A   1       5.038  -0.696   1.661  0.00  0.00    +0.000 C 
BRANCH  49  50
ATOM     50  C   UNK A   1       6.519  -0.901   1.759  0.00  0.00    +0.000 C 
ATOM     51  O   UNK A   1       7.043  -1.881   1.146  0.00  0.00    +0.000 OA
ATOM     52  N   UNK A   1       7.398  -0.294   2.622  0.00  0.00    +0.000 N 
ATOM     53  H   UNK A   1       7.127  -0.108   3.550  0.00  0.00    +0.000 HD
BRANCH  52  54
ATOM     54  C   UNK A   1       8.854   0.108   2.126  0.00  0.00    +0.000 C 
BRANCH  54  55
ATOM     55  C   UNK A   1       8.297   1.394   1.287  0.00  0.00    +0.000 C 
ATOM     56  O   UNK A   1       9.230   1.965   0.640  0.00  0.00    +0.000 OA
BRANCH  55  57
ATOM     57  O   UNK A   1       7.710   2.267   2.217  0.00  0.00    +0.000 OA
ATOM     58  H   UNK A   1       7.007   1.969   2.760  0.00  0.00    +0.000 HD
ENDBRANCH  55  57
ENDBRANCH  54  55
BRANCH  54  59
ATOM     59  C   UNK A   1       8.863  -0.871   0.784  0.00  0.00    +0.000 C 
BRANCH  59  60
ATOM     60  C   UNK A   1       9.925  -0.350  -0.112  0.00  0.00    +0.000 C 
BRANCH  60  61
ATOM     61  C   UNK A   1      11.291  -0.437   0.412  0.00  0.00    +0.000 C 
ATOM     62  O   UNK A   1      12.197   0.142  -0.263  0.00  0.00    +0.000 OA
BRANCH  61  63
ATOM     63  O   UNK A   1      11.649  -0.726   1.713  0.00  0.00    +0.000 OA
ATOM     64  H   UNK A   1      11.041  -1.154   2.283  0.00  0.00    +0.000 HD
ENDBRANCH  61  63
ENDBRANCH  60  61
ENDBRANCH  59  60
ENDBRANCH  54  59
ENDBRANCH  52  54
ENDBRANCH  49  50
ENDBRANCH  48  49
ENDBRANCH  43  48
ENDBRANCH  41  43
ENDBRANCH  38  39
ENDBRANCH  37  38
ENDBRANCH   1  37
TORSDOF 23
