REMARK  Name = 
REMARK  19 active torsions:
REMARK  status: ('A' for Active; 'I' for Inactive)
REMARK    1  A    between atoms: C_1  and  C_2
REMARK    2  A    between atoms: C_2  and  N_3
REMARK    3  A    between atoms: N_7  and  C_8
REMARK    4  A    between atoms: C_8  and  C_9
REMARK    5  A    between atoms: C_8  and  C_10
REMARK    6  A    between atoms: C_12  and  S_13
REMARK    7  A    between atoms: S_13  and  C_14
REMARK    8  A    between atoms: C_14  and  C_15
REMARK    9  A    between atoms: C_15  and  N_16
REMARK   10  A    between atoms: C_15  and  C_26
REMARK   11  A    between atoms: C_17  and  C_19
REMARK   12  A    between atoms: C_19  and  C_20
REMARK   13  A    between atoms: C_20  and  C_21
REMARK   14  A    between atoms: C_21  and  N_22
REMARK   15  A    between atoms: C_21  and  C_23
REMARK   16  A    between atoms: C_23  and  O_25
REMARK   17  A    between atoms: N_28  and  CA_29
REMARK   18  A    between atoms: CA_29  and  C_30
REMARK   19  A    between atoms: C_30  and  OXT_32
REMARK                            x       y       z     vdW  Elec       q    Type
REMARK                         _______ _______ _______ _____ _____    ______ ____
ROOT
ATOM      1  C   UNK A   1      -1.009  -0.843  -0.084  0.00  0.00    +0.000 C 
ENDROOT
BRANCH   1   2
ATOM      2  N   UNK A   1      -2.221  -0.011   0.562  0.00  0.00    +0.000 N 
ATOM      3  C   UNK A   1      -2.670   1.046  -0.298  0.00  0.00    +0.000 C 
ATOM      4  O   UNK A   1      -2.354   1.048  -1.527  0.00  0.00    +0.000 OA
ATOM      5  H   UNK A   1      -2.611  -0.204   1.445  0.00  0.00    +0.000 HD
BRANCH   3   6
ATOM      6  C   UNK A   1      -2.907   2.398   0.295  0.00  0.00    +0.000 C 
BRANCH   6   7
ATOM      7  C   UNK A   1      -4.333   2.587   0.716  0.00  0.00    +0.000 C 
BRANCH   7   8
ATOM      8  C   UNK A   1      -5.220   2.324  -0.684  0.00  0.00    +0.000 C 
BRANCH   8   9
ATOM      9  N   UNK A   1      -4.308   3.350  -1.522  0.00  0.00    +0.000 NA
ATOM     10  H   UNK A   1      -4.177   4.206  -0.984  0.00  0.00    +0.000 HD
ATOM     11  H   UNK A   1      -4.769   3.571  -2.405  0.00  0.00    +0.000 HD
ENDBRANCH   8   9
BRANCH   8  12
ATOM     12  C   UNK A   1      -6.306   3.495  -0.298  0.00  0.00    +0.000 C 
ATOM     13  O   UNK A   1      -5.835   4.558   0.096  0.00  0.00    +0.000 OA
BRANCH  12  14
ATOM     14  O   UNK A   1      -7.588   3.031  -0.138  0.00  0.00    +0.000 OA
ATOM     15  H   UNK A   1      -7.831   2.196  -0.487  0.00  0.00    +0.000 HD
ENDBRANCH  12  14
ENDBRANCH   8  12
ENDBRANCH   7   8
ENDBRANCH   6   7
ENDBRANCH   3   6
ENDBRANCH   1   2
BRANCH   1  16
ATOM     16  C   UNK A   1      -1.873  -2.241   0.007  0.00  0.00    +0.000 C 
ATOM     17  O   UNK A   1      -2.651  -2.249  -0.996  0.00  0.00    +0.000 OA
ATOM     18  N   GLY A   2      -1.030  -3.381   0.142  0.00  0.00    +0.000 N 
ATOM     19  H   GLY A   2      -0.229  -3.325   0.711  0.00  0.00    +0.000 HD
BRANCH  18  20
ATOM     20  CA  GLY A   2      -1.331  -4.629  -0.544  0.00  0.00    +0.000 C 
BRANCH  20  21
ATOM     21  C   GLY A   2      -1.790  -5.638   0.457  0.00  0.00    +0.000 C 
ATOM     22  O   GLY A   2      -2.929  -6.147   0.302  0.00  0.00    +0.000 OA
BRANCH  21  23
ATOM     23  OXT GLY A   2      -0.810  -6.476   0.992  0.00  0.00    +0.000 OA
ATOM     24  HXT GLY A   2       0.059  -6.153   1.130  0.00  0.00    +0.000 HD
ENDBRANCH  21  23
ENDBRANCH  20  21
ENDBRANCH  18  20
ENDBRANCH   1  16
BRANCH   1  25
ATOM     25  C   UNK A   1      -0.337  -1.116   1.427  0.00  0.00    +0.000 C 
BRANCH  25  26
ATOM     26  S   UNK A   1       0.730   0.348   1.572  0.00  0.00    +0.000 S 
BRANCH  26  33
ATOM     27  N   UNK A   1       4.856  -1.916  -0.179  0.00  0.00    +0.000 N 
ATOM     28  C   UNK A   1       3.959  -0.828  -0.414  0.00  0.00    +0.000 A 
ATOM     29  N   UNK A   1       4.447   0.348  -0.874  0.00  0.00    +0.000 NA
ATOM     30  C   UNK A   1       3.751   1.501  -0.766  0.00  0.00    +0.000 A 
ATOM     31  N   UNK A   1       4.473   2.737  -0.781  0.00  0.00    +0.000 N 
ATOM     32  N   UNK A   1       2.514   1.415  -0.242  0.00  0.00    +0.000 NA
ATOM     33  C   UNK A   1       2.039   0.294   0.344  0.00  0.00    +0.000 A 
ATOM     34  N   UNK A   1       2.781  -0.826   0.218  0.00  0.00    +0.000 NA
ATOM     35  H   UNK A   1       4.712  -2.809  -0.566  0.00  0.00    +0.000 HD
ATOM     36  H   UNK A   1       4.520   3.284  -1.599  0.00  0.00    +0.000 HD
BRANCH  31  37
ATOM     37  C   UNK A   1       5.134   3.164   0.441  0.00  0.00    +0.000 C 
ATOM     38  C   UNK A   1       4.228   2.956   1.647  0.00  0.00    +0.000 C 
ATOM     39  C   UNK A   1       6.396   2.345   0.690  0.00  0.00    +0.000 C 
ENDBRANCH  31  37
BRANCH  27  41
ATOM     40  C   UNK A   1       6.195  -1.035   0.779  0.00  0.00    +0.000 C 
ATOM     41  C   UNK A   1       6.001  -1.612   0.674  0.00  0.00    +0.000 C 
ENDBRANCH  27  41
ENDBRANCH  26  33
ENDBRANCH  25  26
ENDBRANCH   1  25
TORSDOF 16
