REMARK  Name = 5288660
REMARK  9 active torsions:
REMARK  status: ('A' for Active; 'I' for Inactive)
REMARK    1  A    between atoms: O_3  and  C_15
REMARK    2  A    between atoms: O_6  and  C_19
REMARK    3  A    between atoms: N_9  and  CA_11
REMARK    4  A    between atoms: C_10  and  CA_11
REMARK    5  A    between atoms: CA_11  and  C_15
REMARK    6  A    between atoms: C_13  and  C_16
REMARK    7  A    between atoms: CA_14  and  C_19
REMARK    8  A    between atoms: C_17  and  C_18
REMARK    9  A    between atoms: C_18  and  C_20
REMARK                            x       y       z     vdW  Elec       q    Type
REMARK                         _______ _______ _______ _____ _____    ______ ____
ROOT
ATOM      1  CA  UNL     1      -2.377  -0.245   0.532  0.00  0.00    +0.000 C 
ENDROOT
BRANCH   1   4
ATOM      2  S   UNL     1      -1.546   1.104  -1.695  0.00  0.00    +0.000 S 
ATOM      3  N   UNL     1      -0.417   1.179   0.754  0.00  0.00    +0.000 N 
ATOM      4  C   UNL     1      -1.714   1.062   0.117  0.00  0.00    +0.000 C 
ATOM      5  C   UNL     1      -0.543   2.612  -1.821  0.00  0.00    +0.000 C 
ATOM      6  C   UNL     1       0.616   2.678  -0.843  0.00  0.00    +0.000 C 
ATOM      7  CA  UNL     1       0.617   1.978   0.315  0.00  0.00    +0.000 C 
ATOM      8  C   UNL     1       1.707   3.613  -1.305  0.00  0.00    +0.000 C 
ATOM      9  H   UNL     1      -0.311   0.785   1.684  0.00  0.00    +0.000 HD
BRANCH   7  11
ATOM     10  OXT UNL     1       2.927   2.167   0.842  0.00  0.00    +0.000 OA
ATOM     11  C   UNL     1       1.784   2.012   1.215  0.00  0.00    +0.000 C 
BRANCH  11  12
ATOM     12  O   UNL     1       1.369   1.845   2.485  0.00  0.00    +0.000 OA
ATOM     13  H   UNL     1       2.115   1.859   3.122  0.00  0.00    +0.000 HD
ENDBRANCH  11  12
ENDBRANCH   7  11
ENDBRANCH   1   4
BRANCH   1  15
ATOM     14  O   UNL     1      -0.375  -1.398   2.247  0.00  0.00    +0.000 OA
ATOM     15  N   UNL     1      -1.522  -1.361   0.228  0.00  0.00    +0.000 N 
ATOM     16  C   UNL     1      -0.580  -1.851   1.123  0.00  0.00    +0.000 C 
ATOM     17  H   UNL     1      -1.601  -1.788  -0.690  0.00  0.00    +0.000 HD
BRANCH  16  18
ATOM     18  C   UNL     1       0.190  -3.042   0.587  0.00  0.00    +0.000 C 
BRANCH  18  20
ATOM     19  S   UNL     1       1.629  -2.892  -1.763  0.00  0.00    +0.000 S 
ATOM     20  C   UNL     1       1.431  -2.554  -0.108  0.00  0.00    +0.000 A 
ATOM     21  C   UNL     1       2.464  -1.847   0.430  0.00  0.00    +0.000 A 
ATOM     22  C   UNL     1       3.462  -1.566  -0.546  0.00  0.00    +0.000 A 
ATOM     23  C   UNL     1       3.135  -2.077  -1.783  0.00  0.00    +0.000 A 
ENDBRANCH  18  20
ENDBRANCH  16  18
ENDBRANCH   1  15
BRANCH   1  25
ATOM     24  OXT UNL     1      -4.646   0.428   0.041  0.00  0.00    +0.000 OA
ATOM     25  C   UNL     1      -3.737  -0.377  -0.130  0.00  0.00    +0.000 C 
BRANCH  25  26
ATOM     26  O   UNL     1      -3.876  -1.469  -0.921  0.00  0.00    +0.000 OA
ATOM     27  H   UNL     1      -4.769  -1.519  -1.323  0.00  0.00    +0.000 HD
ENDBRANCH  25  26
ENDBRANCH   1  25
TORSDOF 8
