REMARK  Name = 
REMARK  22 active torsions:
REMARK  status: ('A' for Active; 'I' for Inactive)
REMARK    1  A    between atoms: C_1  and  C_2
REMARK    2  A    between atoms: C_2  and  C_3
REMARK    3  A    between atoms: C_2  and  C_4
REMARK    4  A    between atoms: C_4  and  C_5
REMARK    5  A    between atoms: C_5  and  N_6
REMARK    6  A    between atoms: C_5  and  C_31
REMARK    7  A    between atoms: C_7  and  C_9
REMARK    8  A    between atoms: C_24  and  C_25
REMARK    9  A    between atoms: C_25  and  C_26
REMARK   10  A    between atoms: C_25  and  C_27
REMARK   11  A    between atoms: C_31  and  O_32
REMARK   12  A    between atoms: C_31  and  C_33
REMARK   13  A    between atoms: C_33  and  C_34
REMARK   14  A    between atoms: C_34  and  C_35
REMARK   15  A    between atoms: C_34  and  C_36
REMARK   16  A    between atoms: N_38  and  C_39
REMARK   17  A    between atoms: C_39  and  C_40
REMARK   18  A    between atoms: C_39  and  C_50
REMARK   19  A    between atoms: N_42  and  C_43
REMARK   20  A    between atoms: C_43  and  C_44
REMARK   21  A    between atoms: C_50  and  C_51
REMARK   22  A    between atoms: C_50  and  C_52
REMARK                            x       y       z     vdW  Elec       q    Type
REMARK                         _______ _______ _______ _____ _____    ______ ____
ROOT
ATOM      1  C   UNL     1       0.071  -0.385  -1.084  0.00  0.00    +0.000 C 
ENDROOT
BRANCH   1   2
ATOM      2  N   UNL     1      -1.403   0.023  -1.426  0.00  0.00    +0.000 N 
ATOM      3  C   UNL     1      -2.160   0.676  -0.508  0.00  0.00    +0.000 C 
ATOM      4  O   UNL     1      -1.665   1.262   0.454  0.00  0.00    +0.000 OA
ATOM      5  H   UNL     1      -1.781  -0.195  -2.309  0.00  0.00    +0.000 HD
BRANCH   3   6
ATOM      6  C   UNL     1      -3.776   0.694  -0.635  0.00  0.00    +0.000 C 
ATOM      7  C   UNL     1      -3.957   0.273   0.954  0.00  0.00    +0.000 C 
ATOM      8  C   UNL     1      -3.951  -1.123   1.164  0.00  0.00    +0.000 C 
ATOM      9  O   UNL     1      -3.164  -2.022   0.731  0.00  0.00    +0.000 OA
ATOM     10  N   UNL     1      -4.383  -1.486   2.486  0.00  0.00    +0.000 N 
ATOM     11  C   UNL     1      -4.593  -0.537   3.553  0.00  0.00    +0.000 C 
ATOM     12  C   UNL     1      -5.940   0.102   3.279  0.00  0.00    +0.000 C 
ATOM     13  C   UNL     1      -6.770  -0.735   2.310  0.00  0.00    +0.000 C 
ATOM     14  C   UNL     1      -7.991   0.041   2.009  0.00  0.00    +0.000 C 
ATOM     15  C   UNL     1      -8.499   0.063   0.648  0.00  0.00    +0.000 C 
ATOM     16  C   UNL     1      -7.537   0.140  -0.479  0.00  0.00    +0.000 C 
ATOM     17  O   UNL     1      -7.900   1.262  -1.282  0.00  0.00    +0.000 OA
ATOM     18  C   UNL     1      -6.914   1.925  -2.022  0.00  0.00    +0.000 C 
ATOM     19  O   UNL     1      -7.064   3.147  -2.246  0.00  0.00    +0.000 OA
ATOM     20  N   UNL     1      -5.688   1.251  -2.338  0.00  0.00    +0.000 N 
ATOM     21  C   UNL     1      -5.944  -0.316  -2.411  0.00  0.00    +0.000 C 
ATOM     22  C   UNL     1      -4.353  -0.639  -2.564  0.00  0.00    +0.000 C 
ATOM     23  O   UNL     1      -4.094  -1.591  -3.341  0.00  0.00    +0.000 OA
ATOM     24  N   UNL     1      -3.878  -0.789  -1.213  0.00  0.00    +0.000 N 
ATOM     25  H   UNL     1      -4.545  -2.438   2.675  0.00  0.00    +0.000 HD
ATOM     26  H   UNL     1      -4.821   1.691  -2.486  0.00  0.00    +0.000 HD
ATOM     27  H   UNL     1      -3.662  -1.629  -0.746  0.00  0.00    +0.000 HD
BRANCH  21  28
ATOM     28  C   UNL     1      -6.178  -0.271  -4.055  0.00  0.00    +0.000 C 
ATOM     29  C   UNL     1      -5.084   0.565  -4.619  0.00  0.00    +0.000 C 
ATOM     30  C   UNL     1      -7.524   0.328  -4.278  0.00  0.00    +0.000 C 
ENDBRANCH  21  28
ENDBRANCH   3   6
ENDBRANCH   1   2
BRANCH   1  31
ATOM     31  C   UNL     1       0.584   1.173  -1.090  0.00  0.00    +0.000 C 
BRANCH  31  33
ATOM     32  C   UNL     1       0.830   1.015  -3.250  0.00  0.00    +0.000 C 
ATOM     33  C   UNL     1       1.409   1.167  -2.376  0.00  0.00    +0.000 C 
ATOM     34  C   UNL     1       2.685   0.374  -2.215  0.00  0.00    +0.000 C 
ENDBRANCH  31  33
ENDBRANCH   1  31
BRANCH   1  35
ATOM     35  C   UNL     1      -0.131  -0.372   0.638  0.00  0.00    +0.000 C 
BRANCH  35  36
ATOM     36  O   UNL     1      -0.115  -1.893   0.691  0.00  0.00    +0.000 OA
ATOM     37  H   UNL     1       0.618  -2.228   0.150  0.00  0.00    +0.000 HD
ENDBRANCH  35  36
BRANCH  35  38
ATOM     38  C   UNL     1       1.494  -0.306   0.896  0.00  0.00    +0.000 C 
BRANCH  38  39
ATOM     39  C   UNL     1       1.493  -0.994   2.397  0.00  0.00    +0.000 C 
ATOM     40  C   UNL     1       2.108  -2.414   1.826  0.00  0.00    +0.000 C 
BRANCH  39  41
ATOM     41  C   UNL     1       2.951  -0.440   2.807  0.00  0.00    +0.000 C 
ATOM     42  O   UNL     1       3.036  -0.045   3.992  0.00  0.00    +0.000 OA
ATOM     43  N   UNL     1       3.808   0.081   1.858  0.00  0.00    +0.000 N 
ATOM     44  H   UNL     1       3.521   0.528   1.029  0.00  0.00    +0.000 HD
BRANCH  43  45
ATOM     45  C   UNL     1       5.320  -0.143   2.288  0.00  0.00    +0.000 C 
BRANCH  45  46
ATOM     46  C   UNL     1       5.833   1.003   1.248  0.00  0.00    +0.000 C 
ATOM     47  O   UNL     1       5.661   2.114   1.800  0.00  0.00    +0.000 OA
ATOM     48  N   UNL     1       7.094   0.744   0.690  0.00  0.00    +0.000 N 
ATOM     49  H   UNL     1       7.265  -0.179   0.391  0.00  0.00    +0.000 HD
BRANCH  48  50
ATOM     50  C   UNL     1       8.161   1.688   0.510  0.00  0.00    +0.000 C 
BRANCH  50  51
ATOM     51  C   UNL     1       9.435   0.911   0.361  0.00  0.00    +0.000 A 
ATOM     52  C   UNL     1       9.527   0.205  -0.833  0.00  0.00    +0.000 A 
ATOM     53  C   UNL     1      10.370  -0.888  -0.909  0.00  0.00    +0.000 A 
ATOM     54  C   UNL     1      10.707  -1.557   0.261  0.00  0.00    +0.000 A 
ATOM     55  C   UNL     1      10.514  -0.962   1.480  0.00  0.00    +0.000 A 
ATOM     56  C   UNL     1      10.059   0.351   1.469  0.00  0.00    +0.000 A 
ENDBRANCH  50  51
ENDBRANCH  48  50
ENDBRANCH  45  46
BRANCH  45  57
ATOM     57  C   UNL     1       5.497  -1.371   1.187  0.00  0.00    +0.000 C 
ATOM     58  C   UNL     1       5.107  -0.851  -0.133  0.00  0.00    +0.000 C 
ATOM     59  C   UNL     1       6.900  -1.854   1.323  0.00  0.00    +0.000 C 
ENDBRANCH  45  57
ENDBRANCH  43  45
ENDBRANCH  39  41
ENDBRANCH  38  39
ENDBRANCH  35  38
ENDBRANCH   1  35
TORSDOF 15
