REMARK  Name = 5282253
REMARK  12 active torsions:
REMARK  status: ('A' for Active; 'I' for Inactive)
REMARK    1  A    between atoms: O_1  and  C_14
REMARK    2  A    between atoms: O_3  and  C_16
REMARK    3  A    between atoms: O_5  and  C_22
REMARK    4  A    between atoms: C_8  and  C_12
REMARK    5  A    between atoms: C_9  and  C_13
REMARK    6  A    between atoms: CA_10  and  C_14
REMARK    7  A    between atoms: C_12  and  C_16
REMARK    8  A    between atoms: C_13  and  C_15
REMARK    9  A    between atoms: C_17  and  C_18
REMARK   10  A    between atoms: C_19  and  C_20
REMARK   11  A    between atoms: C_20  and  C_21
REMARK   12  A    between atoms: C_20  and  C_22
REMARK                            x       y       z     vdW  Elec       q    Type
REMARK                         _______ _______ _______ _____ _____    ______ ____
ROOT
ATOM      1  N   UNL     1       2.713   0.045   2.212  0.00  0.00    +0.000 NA
ATOM      2  C   UNL     1       1.757  -0.050   0.002  0.00  0.00    +0.000 C 
ATOM      3  C   UNL     1       0.843  -0.707   1.057  0.00  0.00    +0.000 C 
ATOM      4  CA  UNL     1       2.958   0.451   0.827  0.00  0.00    +0.000 C 
ATOM      5  C   UNL     1       1.822  -1.111   2.151  0.00  0.00    +0.000 C 
ATOM      6  H   UNL     1       2.222   0.789   2.710  0.00  0.00    +0.000 HD
ENDROOT
BRANCH   3   7
ATOM      7  C   UNL     1      -0.030  -1.826   0.596  0.00  0.00    +0.000 C 
ATOM      8  C   UNL     1       0.618  -3.184   0.689  0.00  0.00    +0.000 C 
ATOM      9  C   UNL     1      -1.288  -1.710   0.128  0.00  0.00    +0.000 C 
BRANCH   9  10
ATOM     10  C   UNL     1      -2.058  -0.493  -0.029  0.00  0.00    +0.000 C 
ATOM     11  C   UNL     1      -3.314  -0.486  -0.508  0.00  0.00    +0.000 C 
BRANCH  11  12
ATOM     12  C   UNL     1      -4.202   0.719  -0.715  0.00  0.00    +0.000 C 
ATOM     13  C   UNL     1      -4.703   0.954  -2.139  0.00  0.00    +0.000 C 
BRANCH  12  15
ATOM     14  O   UNL     1      -5.957  -0.464   0.507  0.00  0.00    +0.000 OA
ATOM     15  C   UNL     1      -5.403   0.587   0.210  0.00  0.00    +0.000 C 
BRANCH  15  16
ATOM     16  O   UNL     1      -5.793   1.789   0.712  0.00  0.00    +0.000 OA
ATOM     17  H   UNL     1      -6.560   1.700   1.318  0.00  0.00    +0.000 HD
ENDBRANCH  15  16
ENDBRANCH  12  15
ENDBRANCH  11  12
ENDBRANCH   9  10
ENDBRANCH   3   7
BRANCH   4  19
ATOM     18  OXT UNL     1       2.454   2.679   1.604  0.00  0.00    +0.000 OA
ATOM     19  C   UNL     1       3.052   1.941   0.835  0.00  0.00    +0.000 C 
BRANCH  19  20
ATOM     20  O   UNL     1       3.896   2.373  -0.134  0.00  0.00    +0.000 OA
ATOM     21  H   UNL     1       3.970   3.351  -0.147  0.00  0.00    +0.000 HD
ENDBRANCH  19  20
ENDBRANCH   4  19
BRANCH   2  22
ATOM     22  C   UNL     1       2.238  -0.993  -1.106  0.00  0.00    +0.000 C 
BRANCH  22  24
ATOM     23  O   UNL     1       2.882   0.684  -2.754  0.00  0.00    +0.000 OA
ATOM     24  C   UNL     1       3.153  -0.291  -2.069  0.00  0.00    +0.000 C 
BRANCH  24  25
ATOM     25  O   UNL     1       4.364  -0.905  -2.076  0.00  0.00    +0.000 OA
ATOM     26  H   UNL     1       4.990  -0.472  -2.695  0.00  0.00    +0.000 HD
ENDBRANCH  24  25
ENDBRANCH  22  24
ENDBRANCH   2  22
TORSDOF 10
