REMARK  Name = 444104
REMARK  14 active torsions:
REMARK  status: ('A' for Active; 'I' for Inactive)
REMARK    1  A    between atoms: SG_1  and  O_2
REMARK    2  A    between atoms: SG_1  and  CB_15
REMARK    3  A    between atoms: O_7  and  C_21
REMARK    4  A    between atoms: O_9  and  C_23
REMARK    5  A    between atoms: N_11  and  CA_14
REMARK    6  A    between atoms: N_12  and  CA_22
REMARK    7  A    between atoms: N_13  and  CA_19
REMARK    8  A    between atoms: CA_14  and  CB_15
REMARK    9  A    between atoms: CA_14  and  C_20
REMARK   10  A    between atoms: C_16  and  C_17
REMARK   11  A    between atoms: C_16  and  C_18
REMARK   12  A    between atoms: C_17  and  CA_19
REMARK   13  A    between atoms: CA_19  and  C_21
REMARK   14  A    between atoms: CA_22  and  C_23
REMARK                            x       y       z     vdW  Elec       q    Type
REMARK                         _______ _______ _______ _____ _____    ______ ____
ROOT
ATOM      1  CA  UNL     1       1.182  -0.170   0.740  0.00  0.00    +0.000 C 
ENDROOT
BRANCH   1   3
ATOM      2  O   UNL     1      -1.217   0.735   2.064  0.00  0.00    +0.000 OA
ATOM      3  N   UNL     1      -0.104   0.082   0.133  0.00  0.00    +0.000 N 
ATOM      4  C   UNL     1      -1.205   0.518   0.856  0.00  0.00    +0.000 C 
ATOM      5  H   UNL     1      -0.206  -0.090  -0.864  0.00  0.00    +0.000 HD
BRANCH   4   6
ATOM      6  C   UNL     1      -2.425   0.691  -0.034  0.00  0.00    +0.000 C 
BRANCH   6   7
ATOM      7  C   UNL     1      -3.651   1.172   0.745  0.00  0.00    +0.000 C 
BRANCH   7   8
ATOM      8  CA  UNL     1      -4.867   1.420  -0.155  0.00  0.00    +0.000 C 
BRANCH   8   9
ATOM      9  N   UNL     1      -5.995   1.875   0.662  0.00  0.00    +0.000 NA
ATOM     10  H1  UNL     1      -5.744   2.745   1.131  0.00  0.00    +0.000 HD
ATOM     11  H2  UNL     1      -6.178   1.202   1.406  0.00  0.00    +0.000 HD
ENDBRANCH   8   9
BRANCH   8  13
ATOM     12  OXT UNL     1      -6.083  -0.683  -0.361  0.00  0.00    +0.000 OA
ATOM     13  C   UNL     1      -5.315   0.142  -0.841  0.00  0.00    +0.000 C 
BRANCH  13  14
ATOM     14  O   UNL     1      -4.744  -0.013  -2.064  0.00  0.00    +0.000 OA
ATOM     15  H   UNL     1      -5.026  -0.847  -2.497  0.00  0.00    +0.000 HD
ENDBRANCH  13  14
ENDBRANCH   8  13
ENDBRANCH   7   8
ENDBRANCH   6   7
ENDBRANCH   4   6
ENDBRANCH   1   3
BRANCH   1  18
ATOM     16  O   UNL     1       2.041   0.542  -1.412  0.00  0.00    +0.000 OA
ATOM     17  N   UNL     1       3.543   0.132   0.311  0.00  0.00    +0.000 N 
ATOM     18  C   ACE A   1       2.278   0.200  -0.255  0.00  0.00    +0.000 C 
ATOM     19  H   UNL     1       3.637  -0.106   1.293  0.00  0.00    +0.000 HD
BRANCH  17  20
ATOM     20  CA  UNL     1       4.753   0.463  -0.408  0.00  0.00    +0.000 C 
BRANCH  20  22
ATOM     21  OXT UNL     1       6.114   2.404  -0.826  0.00  0.00    +0.000 OA
ATOM     22  C   UNL     1       5.129   1.918  -0.285  0.00  0.00    +0.000 C 
BRANCH  22  23
ATOM     23  O   UNL     1       4.274   2.635   0.481  0.00  0.00    +0.000 OA
ATOM     24  H   UNL     1       4.540   3.577   0.545  0.00  0.00    +0.000 HD
ENDBRANCH  22  23
ENDBRANCH  20  22
ENDBRANCH  17  20
ENDBRANCH   1  18
BRANCH   1  25
ATOM     25  CB  UNL     1       1.305  -1.603   1.247  0.00  0.00    +0.000 C 
BRANCH  25  26
ATOM     26  SG  UNL     1       1.227  -2.819  -0.033  0.00  0.00    +0.000 S 
ATOM     27  O   UNL     1       2.313  -2.587  -0.967  0.00  0.00    +0.000 OA
ATOM     28  O   UNL     1      -0.148  -2.936  -0.481  0.00  0.00    +0.000 OA
BRANCH  26  29
ATOM     29  O   UNL     1       1.592  -4.116   0.886  0.00  0.00    +0.000 OA
ATOM     30  H   UNL     1       2.530  -4.175   1.184  0.00  0.00    +0.000 HD
ENDBRANCH  26  29
ENDBRANCH  25  26
ENDBRANCH   1  25
TORSDOF 14
