REMARK  Name = 
REMARK  21 active torsions:
REMARK  status: ('A' for Active; 'I' for Inactive)
REMARK    1  A    between atoms: N_1  and  C_2
REMARK    2  A    between atoms: C_2  and  C_3
REMARK    3  A    between atoms: C_3  and  C_4
REMARK    4  A    between atoms: C_4  and  C_5
REMARK    5  A    between atoms: C_5  and  N_6
REMARK    6  A    between atoms: N_6  and  C_7
REMARK    7  A    between atoms: C_7  and  C_8
REMARK    8  A    between atoms: C_8  and  C_9
REMARK    9  A    between atoms: C_9  and  N_10
REMARK   10  A    between atoms: C_11  and  C_13
REMARK   11  A    between atoms: C_13  and  N_14
REMARK   12  A    between atoms: C_15  and  C_17
REMARK   13  A    between atoms: C_17  and  C_18
REMARK   14  A    between atoms: C_17  and  N_20
REMARK   15  A    between atoms: C_18  and  S_19
REMARK   16  A    between atoms: C_21  and  C_23
REMARK   17  A    between atoms: C_23  and  C_24
REMARK   18  A    between atoms: C_24  and  C_25
REMARK   19  A    between atoms: C_25  and  N_26
REMARK   20  A    between atoms: C_25  and  C_27
REMARK   21  A    between atoms: C_27  and  O_29
REMARK                            x       y       z     vdW  Elec       q    Type
REMARK                         _______ _______ _______ _____ _____    ______ ____
ROOT
ATOM      1  N   UNK     1      -0.375  -1.035   0.822  0.00  0.00    +0.000 N 
ATOM      2  C   UNK     1      -1.629  -1.474   0.310  0.00  0.00    +0.000 C 
ATOM      3  O   UNK     1      -2.109  -1.042  -0.718  0.00  0.00    +0.000 OA
ATOM      4  H   UNK     1       0.229  -1.644   1.305  0.00  0.00    +0.000 HD
ENDROOT
BRANCH   1   5
ATOM      5  C   UNK     1      -0.032   0.366   0.592  0.00  0.00    +0.000 C 
BRANCH   5   7
ATOM      6  N   UNK     1       2.020   0.322  -0.794  0.00  0.00    +0.000 N 
ATOM      7  C   UNK     1       1.462   0.404   0.515  0.00  0.00    +0.000 C 
ATOM      8  O   UNK     1       2.053  -0.261   1.419  0.00  0.00    +0.000 OA
ATOM      9  H   UNK     1       1.527   0.729  -1.543  0.00  0.00    +0.000 HD
BRANCH   6  10
ATOM     10  C   UNK     1       3.286  -0.339  -1.072  0.00  0.00    +0.000 C 
BRANCH  10  11
ATOM     11  C   UNK     1       4.374   0.615  -0.671  0.00  0.00    +0.000 C 
BRANCH  11  12
ATOM     12  C   UNK     1       5.004   0.286   0.653  0.00  0.00    +0.000 C 
BRANCH  12  13
ATOM     13  N   UNK     1       6.374  -0.132   0.529  0.00  0.00    +0.000 NA
ATOM     14  H   UNK     1       6.796  -0.127   1.458  0.00  0.00    +0.000 HD
BRANCH  13  15
ATOM     15  C   UNK     1       7.165   0.705  -0.331  0.00  0.00    +0.000 C 
BRANCH  15  16
ATOM     16  C   UNK     1       6.633   2.100  -0.482  0.00  0.00    +0.000 C 
BRANCH  16  17
ATOM     17  C   UNK     1       6.968   2.998   0.679  0.00  0.00    +0.000 C 
BRANCH  17  18
ATOM     18  C   UNK     1       8.301   2.488   1.222  0.00  0.00    +0.000 C 
BRANCH  18  19
ATOM     19  N   UNK     1       8.525   2.171   1.196  0.00  0.00    +0.000 NA
ATOM     20  H   UNK     1       9.363   2.299   1.764  0.00  0.00    +0.000 HD
ATOM     21  H   UNK     1       8.794   2.023   0.223  0.00  0.00    +0.000 HD
ENDBRANCH  18  19
ENDBRANCH  17  18
ENDBRANCH  16  17
ENDBRANCH  15  16
ENDBRANCH  13  15
ENDBRANCH  12  13
ENDBRANCH  11  12
ENDBRANCH  10  11
ENDBRANCH   6  10
ENDBRANCH   5   7
ENDBRANCH   1   5
BRANCH   2  22
ATOM     22  C   UNK     1      -2.138  -2.863   0.944  0.00  0.00    +0.000 C 
BRANCH  22  23
ATOM     23  N   UNK     1      -3.574  -2.301   1.245  0.00  0.00    +0.000 N 
ATOM     24  C   UNK     1      -4.351  -1.812   0.186  0.00  0.00    +0.000 C 
ATOM     25  O   UNK     1      -4.459  -2.681  -0.736  0.00  0.00    +0.000 OA
ATOM     26  H   UNK     1      -3.924  -2.293   2.165  0.00  0.00    +0.000 HD
BRANCH  24  27
ATOM     27  C   UNK     1      -5.660  -1.199   0.576  0.00  0.00    +0.000 C 
BRANCH  27  28
ATOM     28  C   UNK     1      -6.104  -0.088  -0.271  0.00  0.00    +0.000 C 
BRANCH  28  29
ATOM     29  C   UNK     1      -4.987   1.113  -0.247  0.00  0.00    +0.000 C 
BRANCH  29  30
ATOM     30  N   UNK     1      -4.605   0.873   1.263  0.00  0.00    +0.000 NA
ATOM     31  H   UNK     1      -5.455   0.777   1.818  0.00  0.00    +0.000 HD
ATOM     32  H   UNK     1      -4.062   1.665   1.607  0.00  0.00    +0.000 HD
ENDBRANCH  29  30
BRANCH  29  33
ATOM     33  C   UNK     1      -6.093   2.217   0.161  0.00  0.00    +0.000 C 
ATOM     34  O   UNK     1      -7.051   2.329  -0.627  0.00  0.00    +0.000 OA
BRANCH  33  35
ATOM     35  O   UNK     1      -5.568   3.384   0.699  0.00  0.00    +0.000 OA
ATOM     36  H   UNK     1      -4.847   3.342   1.296  0.00  0.00    +0.000 HD
ENDBRANCH  33  35
ENDBRANCH  29  33
ENDBRANCH  28  29
ENDBRANCH  27  28
ENDBRANCH  24  27
ENDBRANCH  22  23
BRANCH  22  37
ATOM     37  C   UNK     1      -2.535  -3.533  -0.506  0.00  0.00    +0.000 C 
BRANCH  37  38
ATOM     38  S   UNK     1      -0.896  -3.611  -1.304  0.00  0.00    +0.000 S 
ATOM     39  H   UNK     1      -0.348  -2.367  -1.337  0.00  0.00    +0.000 HD
ENDBRANCH  37  38
ENDBRANCH  22  37
ENDBRANCH   2  22
TORSDOF 21
