REMARK  Name = 131704251
REMARK  16 active torsions:
REMARK  status: ('A' for Active; 'I' for Inactive)
REMARK    1  A    between atoms: O_3  and  C_19
REMARK    2  A    between atoms: O_3  and  C_22
REMARK    3  A    between atoms: N_6  and  C_12
REMARK    4  A    between atoms: N_7  and  C_16
REMARK    5  A    between atoms: N_8  and  C_14
REMARK    6  A    between atoms: N_8  and  C_17
REMARK    7  A    between atoms: N_9  and  C_17
REMARK    8  A    between atoms: N_10  and  C_17
REMARK    9  A    between atoms: C_11  and  C_12
REMARK   10  A    between atoms: C_11  and  C_13
REMARK   11  A    between atoms: C_12  and  C_15
REMARK   12  A    between atoms: C_13  and  C_14
REMARK   13  A    between atoms: C_16  and  C_18
REMARK   14  A    between atoms: C_16  and  C_20
REMARK   15  A    between atoms: C_20  and  C_21
REMARK   16  A    between atoms: C_22  and  C_23
REMARK                            x       y       z     vdW  Elec       q    Type
REMARK                         _______ _______ _______ _____ _____    ______ ____
ROOT
ATOM      1  C   UNL     1      -0.453   0.900  -1.219  0.00  0.00    +0.000 C 
ENDROOT
BRANCH   1   4
ATOM      2  O   UNL     1      -0.901   2.043   0.872  0.00  0.00    +0.000 OA
ATOM      3  N   UNL     1      -2.503   2.116  -0.806  0.00  0.00    +0.000 N 
ATOM      4  C   UNL     1      -1.290   1.732  -0.253  0.00  0.00    +0.000 C 
ATOM      5  H   UNL     1      -2.752   1.794  -1.736  0.00  0.00    +0.000 HD
BRANCH   3   6
ATOM      6  C   UNL     1      -3.456   2.941  -0.101  0.00  0.00    +0.000 C 
ATOM      7  C   UNL     1      -4.295   3.774  -1.052  0.00  0.00    +0.000 C 
BRANCH   6   9
ATOM      8  O   UNL     1      -4.689   0.906   0.316  0.00  0.00    +0.000 OA
ATOM      9  C   UNL     1      -4.337   2.014   0.721  0.00  0.00    +0.000 C 
BRANCH   9  11
ATOM     10  F   UNL     1      -5.571   1.619   2.702  0.00  0.00    +0.000 F 
ATOM     11  C   UNL     1      -4.807   2.539   2.053  0.00  0.00    +0.000 C 
ENDBRANCH   9  11
ENDBRANCH   6   9
ENDBRANCH   3   6
ENDBRANCH   1   4
BRANCH   1  13
ATOM     12  O   UNL     1       2.099   0.707  -2.594  0.00  0.00    +0.000 OA
ATOM     13  N   UNL     1       0.849   0.684  -0.639  0.00  0.00    +0.000 N 
ATOM     14  C   UNL     1       2.015   0.606  -1.375  0.00  0.00    +0.000 C 
ATOM     15  H   UNL     1       0.918   0.568   0.368  0.00  0.00    +0.000 HD
BRANCH  14  16
ATOM     16  O   UNL     1       3.076   0.397  -0.539  0.00  0.00    +0.000 OA
BRANCH  16  17
ATOM     17  C   UNL     1       4.357   0.295  -1.171  0.00  0.00    +0.000 C 
BRANCH  17  18
ATOM     18  C   UNL     1       5.405   0.069  -0.121  0.00  0.00    +0.000 A 
ATOM     19  C   UNL     1       6.041   1.158   0.476  0.00  0.00    +0.000 A 
ATOM     20  C   UNL     1       5.743  -1.230   0.259  0.00  0.00    +0.000 A 
ATOM     21  C   UNL     1       7.015   0.947   1.453  0.00  0.00    +0.000 A 
ATOM     22  C   UNL     1       6.717  -1.441   1.235  0.00  0.00    +0.000 A 
ATOM     23  C   UNL     1       7.353  -0.352   1.832  0.00  0.00    +0.000 A 
ENDBRANCH  17  18
ENDBRANCH  16  17
ENDBRANCH  14  16
ENDBRANCH   1  13
BRANCH   1  24
ATOM     24  C   UNL     1      -1.137  -0.418  -1.606  0.00  0.00    +0.000 C 
BRANCH  24  25
ATOM     25  C   UNL     1      -1.476  -1.321  -0.412  0.00  0.00    +0.000 C 
BRANCH  25  26
ATOM     26  C   UNL     1      -2.210  -2.582  -0.870  0.00  0.00    +0.000 C 
BRANCH  26  27
ATOM     27  N   UNL     1      -2.543  -3.419   0.276  0.00  0.00    +0.000 NA
ATOM     28  H   UNL     1      -3.104  -2.900   0.950  0.00  0.00    +0.000 HD
BRANCH  27  29
ATOM     29  C   UNL     1      -3.248  -4.645  -0.102  0.00  0.00    +0.000 C 
BRANCH  29  30
ATOM     30  N   UNL     1      -4.676  -4.411  -0.294  0.00  0.00    +0.000 NA
ATOM     31  H   UNL     1      -5.128  -5.290  -0.541  0.00  0.00    +0.000 HD
ATOM     32  H   UNL     1      -4.815  -3.787  -1.087  0.00  0.00    +0.000 HD
ENDBRANCH  29  30
BRANCH  29  33
ATOM     33  N   UNL     1      -3.081  -5.633   0.960  0.00  0.00    +0.000 NA
ATOM     34  H   UNL     1      -2.086  -5.776   1.127  0.00  0.00    +0.000 HD
ATOM     35  H   UNL     1      -3.461  -5.254   1.826  0.00  0.00    +0.000 HD
ENDBRANCH  29  33
ENDBRANCH  27  29
ENDBRANCH  26  27
ENDBRANCH  25  26
ENDBRANCH  24  25
ENDBRANCH   1  24
TORSDOF 15
