REMARK  Name = 440723
REMARK  12 active torsions:
REMARK  status: ('A' for Active; 'I' for Inactive)
REMARK    1  A    between atoms: O_3  and  C_18
REMARK    2  A    between atoms: O_6  and  C_24
REMARK    3  A    between atoms: N_9  and  CA_14
REMARK    4  A    between atoms: N_10  and  CA_23
REMARK    5  A    between atoms: C_12  and  C_16
REMARK    6  A    between atoms: C_12  and  C_17
REMARK    7  A    between atoms: CA_13  and  C_18
REMARK    8  A    between atoms: C_19  and  C_20
REMARK    9  A    between atoms: C_20  and  C_21
REMARK   10  A    between atoms: C_21  and  C_22
REMARK   11  A    between atoms: C_22  and  CA_23
REMARK   12  A    between atoms: CA_23  and  C_24
REMARK                            x       y       z     vdW  Elec       q    Type
REMARK                         _______ _______ _______ _____ _____    ______ ____
ROOT
ATOM      1  O   UNL     1       2.066  -3.304  -0.687  0.00  0.00    +0.000 OA
ATOM      2  N   UNL     1       0.776  -1.840   0.568  0.00  0.00    +0.000 N 
ATOM      3  C   UNL     1       1.965  -2.457   0.196  0.00  0.00    +0.000 C 
ATOM      4  H   UNL     1       0.794  -1.179   1.341  0.00  0.00    +0.000 HD
ENDROOT
BRANCH   2  11
ATOM      5  S   UNL     1      -1.587  -0.583   2.072  0.00  0.00    +0.000 S 
ATOM      6  O   UNL     1      -0.415  -0.697  -2.174  0.00  0.00    +0.000 OA
ATOM      7  N   UNL     1      -2.046  -0.807  -0.471  0.00  0.00    +0.000 N 
ATOM      8  C   UNL     1      -1.791  -1.716   0.650  0.00  0.00    +0.000 C 
ATOM      9  C   UNL     1      -2.777   0.637   1.319  0.00  0.00    +0.000 C 
ATOM     10  CA  UNL     1      -2.485   0.545  -0.194  0.00  0.00    +0.000 C 
ATOM     11  CA  UNL     1      -0.511  -2.150  -0.077  0.00  0.00    +0.000 C 
ATOM     12  C   UNL     1      -0.922  -1.142  -1.169  0.00  0.00    +0.000 C 
ATOM     13  C   UNL     1      -2.469   2.033   1.863  0.00  0.00    +0.000 C 
ATOM     14  C   UNL     1      -4.198   0.218   1.720  0.00  0.00    +0.000 C 
BRANCH  10  16
ATOM     15  OXT UNL     1      -4.165   0.013  -1.844  0.00  0.00    +0.000 OA
ATOM     16  C   UNL     1      -3.650   0.824  -1.088  0.00  0.00    +0.000 C 
BRANCH  16  17
ATOM     17  O   UNL     1      -4.064   2.107  -0.951  0.00  0.00    +0.000 OA
ATOM     18  H   UNL     1      -4.829   2.310  -1.529  0.00  0.00    +0.000 HD
ENDBRANCH  16  17
ENDBRANCH  10  16
ENDBRANCH   2  11
BRANCH   3  19
ATOM     19  C   UNL     1       3.137  -1.978   1.037  0.00  0.00    +0.000 C 
BRANCH  19  20
ATOM     20  C   UNL     1       3.392  -0.473   0.933  0.00  0.00    +0.000 C 
BRANCH  20  21
ATOM     21  C   UNL     1       3.710  -0.038  -0.506  0.00  0.00    +0.000 C 
BRANCH  21  22
ATOM     22  CA  UNL     1       3.917   1.473  -0.693  0.00  0.00    +0.000 C 
BRANCH  22  23
ATOM     23  N   UNL     1       5.095   1.974   0.015  0.00  0.00    +0.000 NA
ATOM     24  H1  UNL     1       5.261   2.947  -0.239  0.00  0.00    +0.000 HD
ATOM     25  H2  UNL     1       5.919   1.456  -0.286  0.00  0.00    +0.000 HD
ENDBRANCH  22  23
BRANCH  22  27
ATOM     26  OXT UNL     1       2.720   3.127   0.647  0.00  0.00    +0.000 OA
ATOM     27  C   UNL     1       2.713   2.279  -0.235  0.00  0.00    +0.000 C 
BRANCH  27  28
ATOM     28  O   UNL     1       1.591   1.954  -0.930  0.00  0.00    +0.000 OA
ATOM     29  H   UNL     1       0.813   2.473  -0.631  0.00  0.00    +0.000 HD
ENDBRANCH  27  28
ENDBRANCH  22  27
ENDBRANCH  21  22
ENDBRANCH  20  21
ENDBRANCH  19  20
ENDBRANCH   3  19
TORSDOF 10
