REMARK  Name = 127370
REMARK  11 active torsions:
REMARK  status: ('A' for Active; 'I' for Inactive)
REMARK    1  A    between atoms: O_1  and  C_12
REMARK    2  A    between atoms: O_4  and  C_16
REMARK    3  A    between atoms: N_6  and  CA_9
REMARK    4  A    between atoms: N_7  and  C_11
REMARK    5  A    between atoms: C_8  and  CA_9
REMARK    6  A    between atoms: C_8  and  C_10
REMARK    7  A    between atoms: CA_9  and  C_12
REMARK    8  A    between atoms: C_10  and  C_11
REMARK    9  A    between atoms: C_13  and  C_14
REMARK   10  A    between atoms: C_14  and  C_15
REMARK   11  A    between atoms: C_15  and  C_16
REMARK                            x       y       z     vdW  Elec       q    Type
REMARK                         _______ _______ _______ _____ _____    ______ ____
ROOT
ATOM      1  CA  UNL     1      -1.674  -0.801   0.223  0.00  0.00    +0.000 C 
ENDROOT
BRANCH   1   3
ATOM      2  O   UNL     1       0.905  -1.082   1.504  0.00  0.00    +0.000 OA
ATOM      3  N   UNL     1      -0.415  -0.262  -0.225  0.00  0.00    +0.000 N 
ATOM      4  C   UNL     1       0.780  -0.449   0.459  0.00  0.00    +0.000 C 
ATOM      5  H   UNL     1      -0.395   0.221  -1.119  0.00  0.00    +0.000 HD
BRANCH   4   6
ATOM      6  C   UNL     1       1.940   0.233  -0.243  0.00  0.00    +0.000 C 
BRANCH   6   7
ATOM      7  C   UNL     1       3.262   0.039   0.493  0.00  0.00    +0.000 C 
BRANCH   7   9
ATOM      8  O   UNL     1       4.322   1.357  -1.258  0.00  0.00    +0.000 OA
ATOM      9  C   UNL     1       4.407   0.729  -0.211  0.00  0.00    +0.000 C 
BRANCH   9  10
ATOM     10  O   UNL     1       5.574   0.571   0.467  0.00  0.00    +0.000 OA
ATOM     11  H   UNL     1       6.322   1.017   0.016  0.00  0.00    +0.000 HD
ENDBRANCH   9  10
ENDBRANCH   7   9
ENDBRANCH   6   7
ENDBRANCH   4   6
ENDBRANCH   1   3
BRANCH   1  13
ATOM     12  OXT UNL     1      -1.347  -2.569  -1.421  0.00  0.00    +0.000 OA
ATOM     13  C   UNL     1      -1.770  -2.209  -0.330  0.00  0.00    +0.000 C 
BRANCH  13  14
ATOM     14  O   UNL     1      -2.437  -3.042   0.512  0.00  0.00    +0.000 OA
ATOM     15  H   UNL     1      -2.518  -3.947   0.143  0.00  0.00    +0.000 HD
ENDBRANCH  13  14
ENDBRANCH   1  13
BRANCH   1  16
ATOM     16  C   UNL     1      -2.864   0.037  -0.245  0.00  0.00    +0.000 C 
BRANCH  16  17
ATOM     17  C   UNL     1      -2.797   1.481   0.264  0.00  0.00    +0.000 C 
BRANCH  17  18
ATOM     18  C   UNL     1      -3.979   2.302  -0.250  0.00  0.00    +0.000 C 
BRANCH  18  19
ATOM     19  N   UNL     1      -3.910   3.666   0.261  0.00  0.00    +0.000 NA
ATOM     20  H   UNL     1      -3.027   4.092  -0.021  0.00  0.00    +0.000 HD
ATOM     21  H   UNL     1      -3.899   3.649   1.280  0.00  0.00    +0.000 HD
ENDBRANCH  18  19
ENDBRANCH  17  18
ENDBRANCH  16  17
ENDBRANCH   1  16
TORSDOF 11
