REMARK  Name = 
REMARK  17 active torsions:
REMARK  status: ('A' for Active; 'I' for Inactive)
REMARK    1  A    between atoms: C_1  and  C_2
REMARK    2  A    between atoms: C_2  and  C_3
REMARK    3  A    between atoms: C_2  and  C_4
REMARK    4  A    between atoms: C_4  and  N_5
REMARK    5  A    between atoms: C_4  and  C_21
REMARK    6  A    between atoms: C_6  and  C_8
REMARK    7  A    between atoms: C_11  and  C_12
REMARK    8  A    between atoms: N_14  and  C_15
REMARK    9  A    between atoms: C_15  and  C_16
REMARK   10  A    between atoms: C_16  and  O_18
REMARK   11  A    between atoms: C_27  and  C_28
REMARK   12  A    between atoms: N_30  and  C_31
REMARK   13  A    between atoms: C_31  and  C_32
REMARK   14  A    between atoms: C_31  and  C_38
REMARK   15  A    between atoms: C_32  and  C_34
REMARK   16  A    between atoms: C_38  and  C_39
REMARK   17  A    between atoms: C_38  and  C_40
REMARK                            x       y       z     vdW  Elec       q    Type
REMARK                         _______ _______ _______ _____ _____    ______ ____
ROOT
ATOM      1  C   UNL     1       0.358   0.055   0.120  0.00  0.00    +0.000 C 
ENDROOT
BRANCH   1   2
ATOM      2  C   UNL     1      -0.917   0.064   1.160  0.00  0.00    +0.000 C 
ATOM      3  O   UNL     1      -0.628   0.582   2.267  0.00  0.00    +0.000 OA
ATOM      4  N   UNL     1      -2.110   0.423   0.436  0.00  0.00    +0.000 N 
ATOM      5  C   UNL     1      -2.362   0.446  -0.968  0.00  0.00    +0.000 C 
ATOM      6  C   UNL     1      -2.714   1.813  -1.405  0.00  0.00    +0.000 C 
ATOM      7  C   UNL     1      -2.460   2.651  -0.218  0.00  0.00    +0.000 C 
ATOM      8  C   UNL     1      -2.996   1.633   0.999  0.00  0.00    +0.000 C 
BRANCH   8   9
ATOM      9  C   UNL     1      -4.336   1.135   0.169  0.00  0.00    +0.000 C 
ATOM     10  O   UNL     1      -4.972   2.104  -0.319  0.00  0.00    +0.000 OA
ATOM     11  N   UNL     1      -5.051   0.380   1.099  0.00  0.00    +0.000 N 
ATOM     12  H   UNL     1      -4.586  -0.006   1.877  0.00  0.00    +0.000 HD
BRANCH  11  13
ATOM     13  C   UNL     1      -6.621   0.136   0.909  0.00  0.00    +0.000 C 
BRANCH  13  14
ATOM     14  C   UNL     1      -6.909   1.680   0.323  0.00  0.00    +0.000 C 
ATOM     15  C   UNL     1      -7.379   2.365   1.607  0.00  0.00    +0.000 C 
ATOM     16  C   UNL     1      -8.124   1.565  -0.532  0.00  0.00    +0.000 C 
ENDBRANCH  13  14
BRANCH  13  17
ATOM     17  C   UNL     1      -6.503  -0.532  -0.600  0.00  0.00    +0.000 C 
ATOM     18  O   UNL     1      -5.474  -1.200  -0.729  0.00  0.00    +0.000 OA
BRANCH  17  19
ATOM     19  C   UNL     1      -7.708  -1.373  -0.934  0.00  0.00    +0.000 C 
ATOM     20  F   UNL     1      -8.630  -1.405   0.077  0.00  0.00    +0.000 F 
ATOM     21  F   UNL     1      -8.261  -1.022  -2.159  0.00  0.00    +0.000 F 
ATOM     22  F   UNL     1      -7.381  -2.717  -1.122  0.00  0.00    +0.000 F 
ENDBRANCH  17  19
ENDBRANCH  13  17
ENDBRANCH  11  13
ENDBRANCH   8   9
ENDBRANCH   1   2
BRANCH   1  23
ATOM     23  N   UNL     1       1.347  -0.661   1.165  0.00  0.00    +0.000 N 
ATOM     24  C   UNL     1       2.529  -1.119   0.544  0.00  0.00    +0.000 C 
ATOM     25  O   UNL     1       2.376  -1.795  -0.517  0.00  0.00    +0.000 OA
ATOM     26  H   UNL     1       1.152  -0.767   2.124  0.00  0.00    +0.000 HD
BRANCH  24  27
ATOM     27  C   UNL     1       3.898  -0.754   0.924  0.00  0.00    +0.000 A 
ATOM     28  C   UNL     1       4.939  -1.663   0.754  0.00  0.00    +0.000 A 
ATOM     29  C   UNL     1       6.224  -1.267   0.400  0.00  0.00    +0.000 A 
ATOM     30  C   UNL     1       6.324  -0.053  -0.273  0.00  0.00    +0.000 A 
ATOM     31  C   UNL     1       5.488   0.944   0.222  0.00  0.00    +0.000 A 
ATOM     32  C   UNL     1       4.348   0.564   0.925  0.00  0.00    +0.000 A 
BRANCH  30  33
ATOM     33  C   UNL     1       7.364   0.230  -1.245  0.00  0.00    +0.000 C 
ATOM     34  O   UNL     1       7.138   1.120  -2.120  0.00  0.00    +0.000 OA
ATOM     35  N   UNL     1       8.744  -0.060  -1.032  0.00  0.00    +0.000 N 
ATOM     36  H   UNL     1       9.014  -0.992  -0.868  0.00  0.00    +0.000 HD
BRANCH  35  37
ATOM     37  C   UNL     1       9.771   0.980  -1.049  0.00  0.00    +0.000 C 
BRANCH  37  38
ATOM     38  C   UNL     1      10.451   0.857   0.279  0.00  0.00    +0.000 C 
ATOM     39  O   UNL     1      11.384   0.011   0.362  0.00  0.00    +0.000 OA
BRANCH  38  40
ATOM     40  O   UNL     1       9.607   0.950   1.390  0.00  0.00    +0.000 OA
ATOM     41  H   UNL     1       8.896   1.560   1.388  0.00  0.00    +0.000 HD
ENDBRANCH  38  40
ENDBRANCH  37  38
ENDBRANCH  35  37
ENDBRANCH  30  33
ENDBRANCH  24  27
ENDBRANCH   1  23
BRANCH   1  43
ATOM     42  C   UNL     1      -0.196  -1.481  -1.001  0.00  0.00    +0.000 C 
ATOM     43  C   UNL     1      -0.115  -1.410  -0.535  0.00  0.00    +0.000 C 
ATOM     44  C   UNL     1      -0.446  -2.278   0.628  0.00  0.00    +0.000 C 
ENDBRANCH   1  43
TORSDOF 13
