REMARK  Name = 
REMARK  20 active torsions:
REMARK  status: ('A' for Active; 'I' for Inactive)
REMARK    1  A    between atoms: N_1  and  C_2
REMARK    2  A    between atoms: C_2  and  C_3
REMARK    3  A    between atoms: C_2  and  C_32
REMARK    4  A    between atoms: C_3  and  C_4
REMARK    5  A    between atoms: C_4  and  C_5
REMARK    6  A    between atoms: N_7  and  C_8
REMARK    7  A    between atoms: C_8  and  C_9
REMARK    8  A    between atoms: C_8  and  C_25
REMARK    9  A    between atoms: C_9  and  S_10
REMARK   10  A    between atoms: S_10  and  C_11
REMARK   11  A    between atoms: C_11  and  C_12
REMARK   12  A    between atoms: C_11  and  C_14
REMARK   13  A    between atoms: C_12  and  O_13
REMARK   14  A    between atoms: C_14  and  O_15
REMARK   15  A    between atoms: O_15  and  C_16
REMARK   16  A    between atoms: C_19  and  N_20
REMARK   17  A    between atoms: N_27  and  CA_28
REMARK   18  A    between atoms: CA_28  and  C_29
REMARK   19  A    between atoms: C_29  and  OXT_31
REMARK   20  A    between atoms: C_32  and  O_34
REMARK                            x       y       z     vdW  Elec       q    Type
REMARK                         _______ _______ _______ _____ _____    ______ ____
ROOT
ATOM      1  C   UNK A   1      -1.614   0.806   1.294  0.00  0.00    +0.000 C 
ENDROOT
BRANCH   1   4
ATOM      2  C   UNK A   1      -3.321  -0.847   0.286  0.00  0.00    +0.000 C 
ATOM      3  O   UNK A   1      -2.419  -1.355  -0.422  0.00  0.00    +0.000 OA
ATOM      4  N   UNK A   1      -3.003   0.053   1.262  0.00  0.00    +0.000 N 
ATOM      5  H   UNK A   1      -3.661   0.239   1.969  0.00  0.00    +0.000 HD
BRANCH   2   6
ATOM      6  C   UNK A   1      -4.660  -1.403   0.169  0.00  0.00    +0.000 C 
BRANCH   6   7
ATOM      7  C   UNK A   1      -5.263  -2.096   1.282  0.00  0.00    +0.000 C 
BRANCH   7   8
ATOM      8  C   UNK A   1      -5.409  -3.703   0.919  0.00  0.00    +0.000 C 
BRANCH   8   9
ATOM      9  N   UNK A   1      -3.921  -3.786   0.380  0.00  0.00    +0.000 NA
ATOM     10  H   UNK A   1      -3.287  -3.964   1.159  0.00  0.00    +0.000 HD
ATOM     11  H   UNK A   1      -3.671  -2.904  -0.067  0.00  0.00    +0.000 HD
ENDBRANCH   8   9
BRANCH   8  12
ATOM     12  C   UNK A   1      -6.064  -3.427  -0.535  0.00  0.00    +0.000 C 
ATOM     13  O   UNK A   1      -6.794  -4.444  -0.768  0.00  0.00    +0.000 OA
BRANCH  12  14
ATOM     14  O   UNK A   1      -5.312  -3.015  -1.577  0.00  0.00    +0.000 OA
ATOM     15  H   UNK A   1      -4.749  -2.272  -1.483  0.00  0.00    +0.000 HD
ENDBRANCH  12  14
ENDBRANCH   8  12
ENDBRANCH   7   8
ENDBRANCH   6   7
ENDBRANCH   2   6
ENDBRANCH   1   4
BRANCH   1  16
ATOM     16  C   UNK A   1      -2.058   1.862   0.147  0.00  0.00    +0.000 C 
ATOM     17  O   UNK A   1      -2.565   1.428  -0.875  0.00  0.00    +0.000 OA
ATOM     18  N   GLY A   2      -1.721   3.210   0.409  0.00  0.00    +0.000 N 
ATOM     19  H   GLY A   2      -1.605   3.544   1.328  0.00  0.00    +0.000 HD
BRANCH  18  20
ATOM     20  CA  GLY A   2      -1.556   4.082  -0.751  0.00  0.00    +0.000 C 
BRANCH  20  21
ATOM     21  C   GLY A   2      -2.368   5.315  -0.568  0.00  0.00    +0.000 C 
ATOM     22  O   GLY A   2      -3.601   5.229  -0.853  0.00  0.00    +0.000 OA
BRANCH  21  23
ATOM     23  OXT GLY A   2      -1.808   6.579  -0.482  0.00  0.00    +0.000 OA
ATOM     24  HXT GLY A   2      -0.900   6.676  -0.273  0.00  0.00    +0.000 HD
ENDBRANCH  21  23
ENDBRANCH  20  21
ENDBRANCH  18  20
ENDBRANCH   1  16
BRANCH   1  25
ATOM     25  C   UNK A   1      -0.840  -0.188   0.224  0.00  0.00    +0.000 C 
BRANCH  25  26
ATOM     26  S   UNK A   1       0.313   0.718  -0.707  0.00  0.00    +0.000 S 
BRANCH  26  27
ATOM     27  C   UNK A   1       2.068   0.666   0.018  0.00  0.00    +0.000 C 
BRANCH  27  28
ATOM     28  C   UNK A   1       1.778   1.765   1.129  0.00  0.00    +0.000 C 
BRANCH  28  29
ATOM     29  O   UNK A   1       2.299   2.936   0.607  0.00  0.00    +0.000 OA
ATOM     30  H   UNK A   1       3.242   2.814   0.418  0.00  0.00    +0.000 HD
ENDBRANCH  28  29
ENDBRANCH  27  28
BRANCH  27  31
ATOM     31  C   UNK A   1       1.870  -0.576   0.988  0.00  0.00    +0.000 C 
BRANCH  31  32
ATOM     32  O   UNK A   1       2.372  -1.727   0.362  0.00  0.00    +0.000 OA
BRANCH  32  33
ATOM     33  C   UNK A   1       3.676  -1.729  -0.084  0.00  0.00    +0.000 A 
ATOM     34  C   UNK A   1       4.661  -2.534   0.476  0.00  0.00    +0.000 A 
ATOM     35  C   UNK A   1       5.971  -2.071   0.514  0.00  0.00    +0.000 A 
ATOM     36  C   UNK A   1       6.331  -0.855  -0.055  0.00  0.00    +0.000 A 
ATOM     37  C   UNK A   1       5.435  -0.289  -0.945  0.00  0.00    +0.000 A 
ATOM     38  C   UNK A   1       4.141  -0.791  -0.997  0.00  0.00    +0.000 A 
BRANCH  36  39
ATOM     39  N   UNK A   1       7.414  -0.115   0.493  0.00  0.00    +0.000 N 
ATOM     40  O   UNK A   1       7.494   1.110   0.347  0.00  0.00    +0.000 OA
ATOM     41  O   UNK A   1       8.473  -0.808   1.014  0.00  0.00    +0.000 OA
ENDBRANCH  36  39
ENDBRANCH  32  33
ENDBRANCH  31  32
ENDBRANCH  27  31
ENDBRANCH  26  27
ENDBRANCH  25  26
ENDBRANCH   1  25
TORSDOF 20
