REMARK  Name = 447524
REMARK  14 active torsions:
REMARK  status: ('A' for Active; 'I' for Inactive)
REMARK    1  A    between atoms: O_4  and  C_37
REMARK    2  A    between atoms: O_6  and  C_40
REMARK    3  A    between atoms: N_8  and  C_17
REMARK    4  A    between atoms: N_9  and  C_11
REMARK    5  A    between atoms: N_10  and  C_18
REMARK    6  A    between atoms: C_17  and  C_20
REMARK    7  A    between atoms: C_18  and  C_19
REMARK    8  A    between atoms: C_18  and  C_21
REMARK    9  A    between atoms: C_21  and  C_22
REMARK   10  A    between atoms: C_29  and  C_34
REMARK   11  A    between atoms: C_30  and  C_36
REMARK   12  A    between atoms: C_31  and  C_37
REMARK   13  A    between atoms: C_32  and  C_35
REMARK   14  A    between atoms: C_35  and  C_40
REMARK                            x       y       z     vdW  Elec       q    Type
REMARK                         _______ _______ _______ _____ _____    ______ ____
ROOT
ATOM      1  O   UNL     1       3.747  -0.972  -1.433  0.00  0.00    +0.000 OA
ATOM      2  N   UNL     1       2.797  -2.009   0.416  0.00  0.00    +0.000 N 
ATOM      3  C   UNL     1       3.657  -1.121  -0.216  0.00  0.00    +0.000 C 
ATOM      4  H   UNL     1       2.841  -2.101   1.426  0.00  0.00    +0.000 HD
ENDROOT
BRANCH   2   7
ATOM      5  O   UNL     1       0.616  -2.624   1.733  0.00  0.00    +0.000 OA
ATOM      6  N   UNL     1      -0.423  -3.720  -0.022  0.00  0.00    +0.000 N 
ATOM      7  C   UNL     1       1.890  -2.878  -0.298  0.00  0.00    +0.000 C 
ATOM      8  C   UNL     1       2.564  -4.221  -0.583  0.00  0.00    +0.000 C 
ATOM      9  C   UNL     1       1.975  -4.952  -1.788  0.00  0.00    +0.000 C 
ATOM     10  C   UNL     1       0.511  -5.359  -1.633  0.00  0.00    +0.000 C 
ATOM     11  C   UNL     1      -0.424  -4.175  -1.413  0.00  0.00    +0.000 C 
ATOM     12  C   UNL     1       0.644  -3.045   0.574  0.00  0.00    +0.000 C 
BRANCH   6  13
ATOM     13  C   UNL     1      -1.623  -4.011   0.754  0.00  0.00    +0.000 C 
BRANCH  13  14
ATOM     14  C   UNL     1      -2.655  -2.929   0.620  0.00  0.00    +0.000 A 
ATOM     15  C   UNL     1      -2.658  -1.855   1.509  0.00  0.00    +0.000 A 
ATOM     16  C   UNL     1      -3.611  -2.999  -0.393  0.00  0.00    +0.000 A 
ATOM     17  C   UNL     1      -3.617  -0.849   1.385  0.00  0.00    +0.000 A 
ATOM     18  C   UNL     1      -4.570  -1.993  -0.517  0.00  0.00    +0.000 A 
ATOM     19  C   UNL     1      -4.573  -0.919   0.372  0.00  0.00    +0.000 A 
BRANCH  19  20
ATOM     20  C   UNL     1      -5.567   0.124   0.243  0.00  0.00    +0.000 A 
ATOM     21  C   UNL     1      -5.311   1.238  -0.556  0.00  0.00    +0.000 A 
ATOM     22  C   UNL     1      -6.784   0.015   0.918  0.00  0.00    +0.000 A 
ATOM     23  C   UNL     1      -6.270   2.243  -0.681  0.00  0.00    +0.000 A 
ATOM     24  C   UNL     1      -7.743   1.020   0.793  0.00  0.00    +0.000 A 
ATOM     25  C   UNL     1      -7.486   2.134  -0.006  0.00  0.00    +0.000 A 
ENDBRANCH  19  20
ENDBRANCH  13  14
ENDBRANCH   6  13
ENDBRANCH   2   7
BRANCH   3  26
ATOM     26  C   UNL     1       4.538  -0.373   0.779  0.00  0.00    +0.000 C 
BRANCH  26  28
ATOM     27  O   UNL     1       7.278   0.247   1.509  0.00  0.00    +0.000 OA
ATOM     28  N   UNL     1       5.497   0.383   0.015  0.00  0.00    +0.000 N 
ATOM     29  C   UNL     1       6.791   0.629   0.448  0.00  0.00    +0.000 C 
ATOM     30  C   UNL     1       7.590   1.420  -0.552  0.00  0.00    +0.000 C 
ATOM     31  H   UNL     1       5.205   0.762  -0.882  0.00  0.00    +0.000 HD
ENDBRANCH  26  28
BRANCH  26  32
ATOM     32  C   UNL     1       3.680   0.522   1.681  0.00  0.00    +0.000 C 
BRANCH  32  33
ATOM     33  C   UNL     1       2.877   1.536   0.903  0.00  0.00    +0.000 A 
ATOM     34  C   UNL     1       1.594   1.218   0.458  0.00  0.00    +0.000 A 
ATOM     35  C   UNL     1       3.419   2.792   0.628  0.00  0.00    +0.000 A 
ATOM     36  C   UNL     1       0.853   2.155  -0.262  0.00  0.00    +0.000 A 
ATOM     37  C   UNL     1       1.395   3.411  -0.536  0.00  0.00    +0.000 A 
ATOM     38  C   UNL     1       2.678   3.729  -0.091  0.00  0.00    +0.000 A 
BRANCH  36  40
ATOM     39  O   UNL     1      -1.525   2.382  -0.403  0.00  0.00    +0.000 OA
ATOM     40  C   UNL     1      -0.484   1.796  -0.715  0.00  0.00    +0.000 C 
BRANCH  40  41
ATOM     41  O   UNL     1      -0.479   0.719  -1.545  0.00  0.00    +0.000 OA
ATOM     42  H   UNL     1      -1.383   0.482  -1.841  0.00  0.00    +0.000 HD
ENDBRANCH  40  41
ENDBRANCH  36  40
BRANCH  37  43
ATOM     43  C   UNL     1       0.623   4.434  -1.304  0.00  0.00    +0.000 C 
BRANCH  43  45
ATOM     44  O   UNL     1      -0.322   5.243   0.789  0.00  0.00    +0.000 OA
ATOM     45  C   UNL     1      -0.221   5.335  -0.426  0.00  0.00    +0.000 C 
BRANCH  45  46
ATOM     46  O   UNL     1      -0.872   6.281  -1.153  0.00  0.00    +0.000 OA
ATOM     47  H   UNL     1      -1.419   6.865  -0.586  0.00  0.00    +0.000 HD
ENDBRANCH  45  46
ENDBRANCH  43  45
ENDBRANCH  37  43
ENDBRANCH  32  33
ENDBRANCH  26  32
ENDBRANCH   3  26
TORSDOF 13
