REMARK  Name = 5288147
REMARK  16 active torsions:
REMARK  status: ('A' for Active; 'I' for Inactive)
REMARK    1  A    between atoms: O_2  and  C_20
REMARK    2  A    between atoms: O_4  and  C_22
REMARK    3  A    between atoms: N_6  and  C_9
REMARK    4  A    between atoms: N_7  and  C_14
REMARK    5  A    between atoms: C_8  and  C_9
REMARK    6  A    between atoms: C_8  and  C_10
REMARK    7  A    between atoms: C_9  and  C_12
REMARK    8  A    between atoms: C_10  and  C_15
REMARK    9  A    between atoms: C_10  and  C_16
REMARK   10  A    between atoms: C_11  and  C_13
REMARK   11  A    between atoms: C_11  and  C_14
REMARK   12  A    between atoms: C_13  and  C_18
REMARK   13  A    between atoms: C_13  and  C_19
REMARK   14  A    between atoms: C_17  and  C_20
REMARK   15  A    between atoms: C_20  and  C_21
REMARK   16  A    between atoms: C_21  and  C_22
REMARK                            x       y       z     vdW  Elec       q    Type
REMARK                         _______ _______ _______ _____ _____    ______ ____
ROOT
ATOM      1  C   UNL     1       0.226  -1.323   0.029  0.00  0.00    +0.000 C 
ENDROOT
BRANCH   1   4
ATOM      2  O   UNL     1       1.056   0.740  -0.938  0.00  0.00    +0.000 OA
ATOM      3  N   UNL     1       2.377  -0.385   0.606  0.00  0.00    +0.000 N 
ATOM      4  C   UNL     1       1.249  -0.212  -0.184  0.00  0.00    +0.000 C 
ATOM      5  H   UNL     1       2.455  -1.213   1.188  0.00  0.00    +0.000 HD
BRANCH   3   6
ATOM      6  C   UNL     1       3.477   0.553   0.633  0.00  0.00    +0.000 C 
BRANCH   6   7
ATOM      7  C   UNL     1       4.547   0.228  -0.406  0.00  0.00    +0.000 C 
BRANCH   7   8
ATOM      8  C   UNL     1       5.763   1.176  -0.408  0.00  0.00    +0.000 C 
ATOM      9  C   UNL     1       6.427   1.169   0.972  0.00  0.00    +0.000 C 
ATOM     10  C   UNL     1       5.386   2.608  -0.791  0.00  0.00    +0.000 C 
ENDBRANCH   7   8
ENDBRANCH   6   7
ENDBRANCH   3   6
ENDBRANCH   1   4
BRANCH   1  12
ATOM     11  O   UNL     1      -1.228  -0.084   2.185  0.00  0.00    +0.000 OA
ATOM     12  N   UNL     1      -1.079  -0.718  -0.044  0.00  0.00    +0.000 N 
ATOM     13  C   UNL     1      -1.705  -0.142   1.054  0.00  0.00    +0.000 C 
ATOM     14  H   UNL     1      -1.479  -0.571  -0.964  0.00  0.00    +0.000 HD
BRANCH  13  15
ATOM     15  C   UNL     1      -3.084   0.412   0.719  0.00  0.00    +0.000 C 
BRANCH  15  16
ATOM     16  O   UNL     1      -3.687   0.883   1.915  0.00  0.00    +0.000 OA
ATOM     17  H   UNL     1      -3.826   0.115   2.495  0.00  0.00    +0.000 HD
ENDBRANCH  15  16
BRANCH  15  18
ATOM     18  C   UNL     1      -2.996   1.549  -0.303  0.00  0.00    +0.000 C 
BRANCH  18  20
ATOM     19  O   UNL     1      -5.423   1.747  -0.170  0.00  0.00    +0.000 OA
ATOM     20  C   UNL     1      -4.358   2.112  -0.650  0.00  0.00    +0.000 C 
BRANCH  20  21
ATOM     21  O   UNL     1      -4.264   3.102  -1.575  0.00  0.00    +0.000 OA
ATOM     22  H   UNL     1      -5.143   3.475  -1.803  0.00  0.00    +0.000 HD
ENDBRANCH  20  21
ENDBRANCH  18  20
ENDBRANCH  15  18
ENDBRANCH  13  15
ENDBRANCH   1  12
BRANCH   1  23
ATOM     23  C   UNL     1       0.414  -2.426  -1.020  0.00  0.00    +0.000 C 
BRANCH  23  24
ATOM     24  C   UNL     1      -0.600  -3.584  -0.931  0.00  0.00    +0.000 C 
ATOM     25  C   UNL     1      -0.473  -4.372   0.373  0.00  0.00    +0.000 C 
ATOM     26  C   UNL     1      -2.023  -3.035  -1.065  0.00  0.00    +0.000 C 
ENDBRANCH  23  24
ENDBRANCH   1  23
TORSDOF 12
