REMARK  Name = 6758
REMARK  6 active torsions:
REMARK  status: ('A' for Active; 'I' for Inactive)
REMARK    1  A    between atoms: O_5  and  C_24
REMARK    2  A    between atoms: O_5  and  C_28
REMARK    3  A    between atoms: O_6  and  C_25
REMARK    4  A    between atoms: O_6  and  C_29
REMARK    5  A    between atoms: C_16  and  C_22
REMARK    6  A    between atoms: C_22  and  C_26
REMARK                            x       y       z     vdW  Elec       q    Type
REMARK                         _______ _______ _______ _____ _____    ______ ____
ROOT
ATOM      1  O   UNL     1      -0.770  -0.647  -1.296  0.00  0.00    +0.000 OA
ATOM      2  O   UNL     1       1.665  -2.039  -1.733  0.00  0.00    +0.000 OA
ATOM      3  O   UNL     1      -4.475   0.569   1.248  0.00  0.00    +0.000 OA
ATOM      4  O   UNL     1       0.818   3.133  -1.097  0.00  0.00    +0.000 OA
ATOM      5  C   UNL     1       1.146   0.846  -1.771  0.00  0.00    +0.000 C 
ATOM      6  C   UNL     1       0.150  -0.189  -2.297  0.00  0.00    +0.000 C 
ATOM      7  C   UNL     1      -1.409   0.354  -0.629  0.00  0.00    +0.000 A 
ATOM      8  C   UNL     1       2.172   0.197  -0.871  0.00  0.00    +0.000 A 
ATOM      9  C   UNL     1       0.381   1.987  -1.136  0.00  0.00    +0.000 C 
ATOM     10  C   UNL     1       0.923  -1.410  -2.783  0.00  0.00    +0.000 C 
ATOM     11  C   UNL     1      -2.599   0.049   0.010  0.00  0.00    +0.000 A 
ATOM     12  C   UNL     1      -0.923   1.659  -0.526  0.00  0.00    +0.000 A 
ATOM     13  C   UNL     1      -3.363  -1.220   0.041  0.00  0.00    +0.000 C 
ATOM     14  C   UNL     1      -4.374  -0.876   1.146  0.00  0.00    +0.000 C 
ATOM     15  C   UNL     1      -3.305   1.025   0.697  0.00  0.00    +0.000 A 
ATOM     16  C   UNL     1       2.372  -1.192  -0.919  0.00  0.00    +0.000 A 
ATOM     17  C   UNL     1      -1.647   2.647   0.168  0.00  0.00    +0.000 A 
ATOM     18  C   UNL     1       2.986   0.958  -0.016  0.00  0.00    +0.000 A 
ATOM     19  C   UNL     1      -2.860   2.330   0.782  0.00  0.00    +0.000 A 
ATOM     20  C   UNL     1       3.317  -1.805  -0.089  0.00  0.00    +0.000 A 
ATOM     21  C   UNL     1       3.936   0.344   0.803  0.00  0.00    +0.000 A 
ATOM     22  C   UNL     1       4.097  -1.037   0.771  0.00  0.00    +0.000 A 
ENDROOT
BRANCH  14  23
ATOM     23  C   UNL     1      -5.730  -1.444   0.892  0.00  0.00    +0.000 C 
ATOM     24  C   UNL     1      -6.654  -0.604   0.062  0.00  0.00    +0.000 C 
ATOM     25  C   UNL     1      -6.101  -2.638   1.378  0.00  0.00    +0.000 C 
ENDBRANCH  14  23
BRANCH  21  26
ATOM     26  O   UNL     1       4.702   1.112   1.628  0.00  0.00    +0.000 OA
ATOM     27  C   UNL     1       4.198   1.354   2.940  0.00  0.00    +0.000 C 
ENDBRANCH  21  26
BRANCH  22  28
ATOM     28  O   UNL     1       5.018  -1.648   1.567  0.00  0.00    +0.000 OA
ATOM     29  C   UNL     1       6.329  -1.816   1.032  0.00  0.00    +0.000 C 
ENDBRANCH  22  28
TORSDOF 3
