REMARK  Name = 9825434
REMARK  12 active torsions:
REMARK  status: ('A' for Active; 'I' for Inactive)
REMARK    1  A    between atoms: O_3  and  C_32
REMARK    2  A    between atoms: OE1_5  and  CD_33
REMARK    3  A    between atoms: N_7  and  C_19
REMARK    4  A    between atoms: N_9  and  C_16
REMARK    5  A    between atoms: N_9  and  C_21
REMARK    6  A    between atoms: N_12  and  CA_25
REMARK    7  A    between atoms: C_14  and  C_16
REMARK    8  A    between atoms: CA_25  and  CB_27
REMARK    9  A    between atoms: CA_25  and  C_32
REMARK   10  A    between atoms: C_26  and  C_30
REMARK   11  A    between atoms: CB_27  and  CG_31
REMARK   12  A    between atoms: CG_31  and  CD_33
REMARK                            x       y       z     vdW  Elec       q    Type
REMARK                         _______ _______ _______ _____ _____    ______ ____
ROOT
ATOM      1  C   UNL     1       0.204   1.902  -0.649  0.00  0.00    +0.000 A 
ATOM      2  C   UNL     1      -0.237   1.032   0.348  0.00  0.00    +0.000 A 
ATOM      3  C   UNL     1      -0.715   2.683  -1.349  0.00  0.00    +0.000 A 
ATOM      4  C   UNL     1      -2.516   1.726  -0.054  0.00  0.00    +0.000 A 
ATOM      5  C   UNL     1      -1.597   0.945   0.646  0.00  0.00    +0.000 A 
ATOM      6  C   UNL     1      -2.075   2.595  -1.052  0.00  0.00    +0.000 A 
ENDROOT
BRANCH   4   9
ATOM      7  O   UNL     1      -4.692   2.594   0.032  0.00  0.00    +0.000 OA
ATOM      8  N   UNL     1      -4.391   0.423   0.789  0.00  0.00    +0.000 N 
ATOM      9  C   ACE A   0      -3.933   1.635   0.257  0.00  0.00    +0.000 C 
ATOM     10  H   UNL     1      -3.751  -0.359   0.880  0.00  0.00    +0.000 HD
BRANCH   8  11
ATOM     11  CA  UNL     1      -5.773   0.170   1.127  0.00  0.00    +0.000 C 
BRANCH  11  13
ATOM     12  OXT UNL     1      -4.804  -1.232   2.867  0.00  0.00    +0.000 OA
ATOM     13  C   UNL     1      -5.789  -0.715   2.356  0.00  0.00    +0.000 C 
BRANCH  13  14
ATOM     14  O   UNL     1      -7.041  -0.847   2.869  0.00  0.00    +0.000 OA
ATOM     15  H   UNL     1      -7.048  -1.407   3.675  0.00  0.00    +0.000 HD
ENDBRANCH  13  14
ENDBRANCH  11  13
BRANCH  11  16
ATOM     16  CB  UNL     1      -6.577  -0.392  -0.051  0.00  0.00    +0.000 C 
BRANCH  16  17
ATOM     17  CG  UNL     1      -6.113  -1.752  -0.589  0.00  0.00    +0.000 C 
BRANCH  17  19
ATOM     18  OE2 UNL     1      -7.874  -1.671  -2.270  0.00  0.00    +0.000 OA
ATOM     19  CD  UNL     1      -6.931  -2.257  -1.758  0.00  0.00    +0.000 C 
BRANCH  19  20
ATOM     20  OE1 UNL     1      -6.517  -3.486  -2.164  0.00  0.00    +0.000 OA
ATOM     21  HE1 UNL     1      -7.056  -3.825  -2.910  0.00  0.00    +0.000 HD
ENDBRANCH  19  20
ENDBRANCH  17  19
ENDBRANCH  16  17
ENDBRANCH  11  16
ENDBRANCH   8  11
ENDBRANCH   4   9
BRANCH   1  22
ATOM     22  N   UNL     1       1.559   1.990  -0.945  0.00  0.00    +0.000 N 
ATOM     23  H   UNL     1       1.829   2.628  -1.686  0.00  0.00    +0.000 HD
BRANCH  22  24
ATOM     24  C   UNL     1       2.577   1.226  -0.278  0.00  0.00    +0.000 C 
BRANCH  24  31
ATOM     25  O   UNL     1       6.583   0.157   2.284  0.00  0.00    +0.000 OA
ATOM     26  N   UNL     1       5.009   1.236   0.119  0.00  0.00    +0.000 N 
ATOM     27  N   UNL     1       4.554  -0.526  -1.960  0.00  0.00    +0.000 N 
ATOM     28  N   UNL     1       5.822  -2.214  -0.805  0.00  0.00    +0.000 N 
ATOM     29  N   UNL     1       6.891  -1.846   1.254  0.00  0.00    +0.000 NA
ATOM     30  N   UNL     1       7.068  -3.903   0.129  0.00  0.00    +0.000 N 
ATOM     31  C   UNL     1       3.948   1.577  -0.861  0.00  0.00    +0.000 C 
ATOM     32  C   UNL     1       4.205   0.859  -2.194  0.00  0.00    +0.000 C 
ATOM     33  C   UNL     1       5.543  -0.067   0.136  0.00  0.00    +0.000 A 
ATOM     34  C   UNL     1       5.305  -0.943  -0.875  0.00  0.00    +0.000 A 
ATOM     35  C   UNL     1       5.321   2.280   1.090  0.00  0.00    +0.000 C 
ATOM     36  C   UNL     1       6.379  -0.559   1.310  0.00  0.00    +0.000 A 
ATOM     37  C   UNL     1       6.606  -2.618   0.242  0.00  0.00    +0.000 A 
ATOM     38  H   UNL     1       4.424  -1.200  -2.707  0.00  0.00    +0.000 HD
ATOM     39  H   UNL     1       5.620  -2.833  -1.582  0.00  0.00    +0.000 HD
ATOM     40  H   UNL     1       7.660  -4.313   0.844  0.00  0.00    +0.000 HD
ATOM     41  H   UNL     1       6.832  -4.483  -0.669  0.00  0.00    +0.000 HD
ENDBRANCH  24  31
ENDBRANCH  22  24
ENDBRANCH   1  22
TORSDOF 11
