REMARK  Name = 
REMARK  22 active torsions:
REMARK  status: ('A' for Active; 'I' for Inactive)
REMARK    1  A    between atoms: C_1  and  C_2
REMARK    2  A    between atoms: C_1  and  C_9
REMARK    3  A    between atoms: C_1  and  N_38
REMARK    4  A    between atoms: C_2  and  C_3
REMARK    5  A    between atoms: N_10  and  C_11
REMARK    6  A    between atoms: C_11  and  C_12
REMARK    7  A    between atoms: C_11  and  C_33
REMARK    8  A    between atoms: N_13  and  C_14
REMARK    9  A    between atoms: C_14  and  C_15
REMARK   10  A    between atoms: C_14  and  C_25
REMARK   11  A    between atoms: N_16  and  C_17
REMARK   12  A    between atoms: C_17  and  C_18
REMARK   13  A    between atoms: C_25  and  C_26
REMARK   14  A    between atoms: C_26  and  C_27
REMARK   15  A    between atoms: C_27  and  N_28
REMARK   16  A    between atoms: C_33  and  C_34
REMARK   17  A    between atoms: C_34  and  C_35
REMARK   18  A    between atoms: C_35  and  C_36
REMARK   19  A    between atoms: C_39  and  C_40
REMARK   20  A    between atoms: C_40  and  C_41
REMARK   21  A    between atoms: C_40  and  N_48
REMARK   22  A    between atoms: C_41  and  C_42
REMARK                            x       y       z     vdW  Elec       q    Type
REMARK                         _______ _______ _______ _____ _____    ______ ____
ROOT
ATOM      1  C   UNL     1       0.002   0.215   0.000  0.00  0.00    +0.000 C 
ENDROOT
BRANCH   1   3
ATOM      2  C   UNL     1      -1.417   0.215   0.000  0.00  0.00    +0.000 C 
ATOM      3  N   UNL     1      -0.708  -0.203   0.000  0.00  0.00    +0.000 N 
ATOM      4  O   UNL     1      -1.417   1.055   0.000  0.00  0.00    +0.000 OA
ATOM      5  H   UNL     1      -0.708  -1.187   0.000  0.00  0.00    +0.000 HD
BRANCH   2   6
ATOM      6  C   UNL     1      -2.127  -0.203   0.000  0.00  0.00    +0.000 C 
BRANCH   6   7
ATOM      7  N   UNL     1      -2.845   0.203   0.000  0.00  0.00    +0.000 N 
ATOM      8  C   UNL     1      -2.845   1.042   0.000  0.00  0.00    +0.000 C 
ATOM      9  O   UNL     1      -2.133   1.463   0.000  0.00  0.00    +0.000 OA
ATOM     10  H   UNL     1      -3.695  -0.293   0.000  0.00  0.00    +0.000 HD
BRANCH   8  11
ATOM     11  C   UNL     1      -3.553   1.463   0.000  0.00  0.00    +0.000 C 
BRANCH  11  12
ATOM     12  N   UNL     1      -3.553   2.302   0.000  0.00  0.00    +0.000 NA
ATOM     13  H   UNL     1      -2.669   2.812   0.000  0.00  0.00    +0.000 HD
ATOM     14  H   UNL     1      -4.436   2.812   0.000  0.00  0.00    +0.000 HD
ENDBRANCH  11  12
BRANCH  11  15
ATOM     15  C   UNL     1      -4.262   1.042   0.000  0.00  0.00    +0.000 C 
BRANCH  15  16
ATOM     16  C   UNL     1      -4.972   1.463   0.000  0.00  0.00    +0.000 A 
ATOM     17  C   UNL     1      -4.972   2.302   0.000  0.00  0.00    +0.000 A 
ATOM     18  C   UNL     1      -5.682   2.720   0.000  0.00  0.00    +0.000 A 
ATOM     19  C   UNL     1      -6.391   2.302   0.000  0.00  0.00    +0.000 A 
ATOM     20  C   UNL     1      -6.391   1.463   0.000  0.00  0.00    +0.000 A 
ATOM     21  C   UNL     1      -5.682   1.042   0.000  0.00  0.00    +0.000 A 
ENDBRANCH  15  16
ENDBRANCH  11  15
ENDBRANCH   8  11
ENDBRANCH   6   7
BRANCH   6  22
ATOM     22  C   UNL     1      -2.127  -1.042   0.000  0.00  0.00    +0.000 C 
BRANCH  22  23
ATOM     23  C   UNL     1      -2.837  -1.463   0.000  0.00  0.00    +0.000 A 
ATOM     24  C   UNL     1      -2.837  -2.302   0.000  0.00  0.00    +0.000 A 
ATOM     25  C   UNL     1      -3.549  -2.720   0.000  0.00  0.00    +0.000 A 
ATOM     26  C   UNL     1      -4.256  -2.302   0.000  0.00  0.00    +0.000 A 
ATOM     27  C   UNL     1      -4.256  -1.463   0.000  0.00  0.00    +0.000 A 
ATOM     28  C   UNL     1      -3.549  -1.042   0.000  0.00  0.00    +0.000 A 
ENDBRANCH  22  23
ENDBRANCH   6  22
ENDBRANCH   2   6
ENDBRANCH   1   3
BRANCH   1  29
ATOM     29  C   UNL     1       0.712  -0.203   0.000  0.00  0.00    +0.000 C 
ATOM     30  N   UNL     1       1.421   0.215   0.000  0.00  0.00    +0.000 N 
ATOM     31  O   UNL     1       0.712  -1.042   0.000  0.00  0.00    +0.000 OA
ATOM     32  H   UNL     1       1.421   1.200   0.000  0.00  0.00    +0.000 HD
BRANCH  30  33
ATOM     33  C   UNL     1       2.131  -0.203   0.000  0.00  0.00    +0.000 C 
BRANCH  33  34
ATOM     34  C   UNL     1       2.841   0.215   0.000  0.00  0.00    +0.000 C 
ATOM     35  N   UNL     1       3.550  -0.203   0.000  0.00  0.00    +0.000 N 
ATOM     36  O   UNL     1       2.841   1.055   0.000  0.00  0.00    +0.000 OA
ATOM     37  H   UNL     1       3.550  -1.187   0.000  0.00  0.00    +0.000 HD
BRANCH  35  38
ATOM     38  C   UNL     1       4.260   0.215   0.000  0.00  0.00    +0.000 C 
BRANCH  38  39
ATOM     39  C   UNL     1       4.972  -0.203   0.000  0.00  0.00    +0.000 A 
ATOM     40  C   UNL     1       4.972  -1.042   0.000  0.00  0.00    +0.000 A 
ATOM     41  C   UNL     1       5.682  -1.463   0.000  0.00  0.00    +0.000 A 
ATOM     42  N   UNL     1       6.391  -1.042   0.000  0.00  0.00    +0.000 NA
ATOM     43  C   UNL     1       6.391  -0.203   0.000  0.00  0.00    +0.000 A 
ATOM     44  C   UNL     1       5.682   0.215   0.000  0.00  0.00    +0.000 A 
ENDBRANCH  38  39
ENDBRANCH  35  38
ENDBRANCH  33  34
BRANCH  33  45
ATOM     45  C   UNL     1       2.131  -1.727   0.000  0.00  0.00    +0.000 C 
BRANCH  45  46
ATOM     46  C   UNL     1       1.421  -2.146   0.000  0.00  0.00    +0.000 C 
BRANCH  46  47
ATOM     47  C   UNL     1       0.718  -1.713   0.000  0.00  0.00    +0.000 C 
BRANCH  47  48
ATOM     48  N   UNL     1       0.008  -2.133   0.000  0.00  0.00    +0.000 N 
ATOM     49  C   UNL     1      -0.693  -1.700   0.000  0.00  0.00    +0.000 C 
ATOM     50  N   UNL     1      -0.693  -0.861   0.000  0.00  0.00    +0.000 NA
ATOM     51  N   UNL     1      -1.403  -2.121   0.000  0.00  0.00    +0.000 N 
ATOM     52  H   UNL     1      -0.001  -3.118   0.000  0.00  0.00    +0.000 HD
ATOM     53  H   UNL     1       0.159  -0.369   0.000  0.00  0.00    +0.000 HD
ATOM     54  H   UNL     1      -2.261  -1.638   0.000  0.00  0.00    +0.000 HD
ATOM     55  H   UNL     1      -1.392  -3.105   0.000  0.00  0.00    +0.000 HD
ENDBRANCH  47  48
ENDBRANCH  46  47
ENDBRANCH  45  46
ENDBRANCH  33  45
ENDBRANCH  30  33
ENDBRANCH   1  29
BRANCH   1  56
ATOM     56  C   UNL     1       0.002   1.098   0.000  0.00  0.00    +0.000 C 
BRANCH  56  57
ATOM     57  C   UNL     1       0.712   1.519   0.000  0.00  0.00    +0.000 C 
BRANCH  57  58
ATOM     58  C   UNL     1       1.421   1.098   0.000  0.00  0.00    +0.000 C 
ATOM     59  C   UNL     1       2.131   1.519   0.000  0.00  0.00    +0.000 C 
ENDBRANCH  57  58
ENDBRANCH  56  57
ENDBRANCH   1  56
TORSDOF 21
