REMARK  Name = 
REMARK  18 active torsions:
REMARK  status: ('A' for Active; 'I' for Inactive)
REMARK    1  A    between atoms: C_1  and  C_2
REMARK    2  A    between atoms: C_7  and  O_8
REMARK    3  A    between atoms: O_8  and  C_9
REMARK    4  A    between atoms: C_9  and  C_10
REMARK    5  A    between atoms: N_12  and  CA_13
REMARK    6  A    between atoms: CA_13  and  CB_14
REMARK    7  A    between atoms: CA_13  and  C_18
REMARK    8  A    between atoms: CB_14  and  CG_15
REMARK    9  A    between atoms: CG_15  and  CD1_16
REMARK   10  A    between atoms: CG_15  and  CD2_17
REMARK   11  A    between atoms: N_20  and  C_21
REMARK   12  A    between atoms: C_21  and  C_22
REMARK   13  A    between atoms: C_21  and  C_41
REMARK   14  A    between atoms: C_22  and  C_23
REMARK   15  A    between atoms: C_26  and  O_27
REMARK   16  A    between atoms: O_27  and  C_28
REMARK   17  A    between atoms: C_33  and  C_34
REMARK   18  A    between atoms: C_41  and  O_43
REMARK                            x       y       z     vdW  Elec       q    Type
REMARK                         _______ _______ _______ _____ _____    ______ ____
ROOT
ATOM      1  C   UNK A   2      -0.714  -0.230   0.774  0.00  0.00    +0.000 C 
ENDROOT
BRANCH   1   4
ATOM      2  C   LEU A   1      -2.522  -1.880   1.208  0.00  0.00    +0.000 C 
ATOM      3  O   LEU A   1      -1.824  -2.412   2.090  0.00  0.00    +0.000 OA
ATOM      4  N   UNK A   2      -2.159  -0.771   0.470  0.00  0.00    +0.000 N 
ATOM      5  H   UNK A   2      -2.756  -0.354  -0.192  0.00  0.00    +0.000 HD
BRANCH   2   6
ATOM      6  CA  LEU A   1      -3.844  -2.700   0.784  0.00  0.00    +0.000 C 
BRANCH   6   9
ATOM      7  C   UNK A   0      -5.194  -1.087  -0.673  0.00  0.00    +0.000 C 
ATOM      8  O   UNK A   0      -4.288  -1.083  -1.564  0.00  0.00    +0.000 OA
ATOM      9  N   LEU A   1      -4.689  -1.390   0.580  0.00  0.00    +0.000 N 
ATOM     10  H   LEU A   1      -4.859  -0.788   1.340  0.00  0.00    +0.000 HD
BRANCH   7  11
ATOM     11  C   UNK A   0      -6.146   0.049  -0.794  0.00  0.00    +0.000 C 
BRANCH  11  12
ATOM     12  O   UNK A   0      -5.340   1.218  -0.652  0.00  0.00    +0.000 OA
BRANCH  12  19
ATOM     13  C   UNK A   0      -7.103   2.707  -2.079  0.00  0.00    +0.000 C 
ATOM     14  C   UNK A   0      -7.125   2.729  -0.794  0.00  0.00    +0.000 A 
ATOM     15  C   UNK A   0      -8.084   3.463  -0.106  0.00  0.00    +0.000 A 
ATOM     16  C   UNK A   0      -7.934   3.703   1.253  0.00  0.00    +0.000 A 
ATOM     17  C   UNK A   0      -6.879   3.175   1.968  0.00  0.00    +0.000 A 
ATOM     18  C   UNK A   0      -5.934   2.415   1.300  0.00  0.00    +0.000 A 
ATOM     19  C   UNK A   0      -6.011   2.305  -0.080  0.00  0.00    +0.000 A 
ENDBRANCH  12  19
ENDBRANCH  11  12
ENDBRANCH   7  11
ENDBRANCH   6   9
BRANCH   6  20
ATOM     20  CB  LEU A   1      -3.356  -2.859  -0.779  0.00  0.00    +0.000 C 
BRANCH  20  21
ATOM     21  CG  LEU A   1      -3.934  -4.118  -1.299  0.00  0.00    +0.000 C 
ATOM     22  CD1 LEU A   1      -5.372  -4.378  -1.045  0.00  0.00    +0.000 C 
ATOM     23  CD2 LEU A   1      -3.087  -5.335  -1.190  0.00  0.00    +0.000 C 
ENDBRANCH  20  21
ENDBRANCH   6  20
ENDBRANCH   2   6
ENDBRANCH   1   4
BRANCH   1  24
ATOM     24  C   UNK A   2      -0.492   0.349  -0.713  0.00  0.00    +0.000 C 
ATOM     25  O   UNK A   2      -1.045  -0.184  -1.667  0.00  0.00    +0.000 OA
BRANCH  24  26
ATOM     26  O   UNK A   2      -0.380   1.742  -0.772  0.00  0.00    +0.000 OA
ATOM     27  H   UNK A   2       0.033   2.209  -0.072  0.00  0.00    +0.000 HD
ENDBRANCH  24  26
ENDBRANCH   1  24
BRANCH   1  28
ATOM     28  C   UNK A   2      -0.012  -1.669   0.402  0.00  0.00    +0.000 C 
BRANCH  28  29
ATOM     29  C   UNK A   2       1.412  -1.379   0.138  0.00  0.00    +0.000 A 
ATOM     30  C   UNK A   2       1.720  -1.328  -1.221  0.00  0.00    +0.000 A 
ATOM     31  C   UNK A   2       3.037  -1.188  -1.592  0.00  0.00    +0.000 A 
ATOM     32  C   UNK A   2       4.042  -1.680  -0.768  0.00  0.00    +0.000 A 
ATOM     33  C   UNK A   2       3.585  -2.423   0.317  0.00  0.00    +0.000 A 
ATOM     34  C   UNK A   2       2.324  -2.159   0.850  0.00  0.00    +0.000 A 
BRANCH  32  35
ATOM     35  O   UNK A   2       5.248  -0.969  -0.750  0.00  0.00    +0.000 OA
BRANCH  35  36
ATOM     36  C   UNK A   2       5.401   0.236  -0.057  0.00  0.00    +0.000 C 
ATOM     37  O   UNK A   2       4.346   0.935   0.044  0.00  0.00    +0.000 OA
ATOM     38  N   UNK A   2       6.317   0.344   1.045  0.00  0.00    +0.000 N 
ATOM     39  C   UNK A   2       7.608  -0.299   0.821  0.00  0.00    +0.000 C 
ATOM     40  C   UNK A   2       8.376   0.551  -0.114  0.00  0.00    +0.000 C 
ATOM     41  C   UNK A   2       8.076   1.977  -0.194  0.00  0.00    +0.000 C 
ATOM     42  C   UNK A   2       6.943   2.531   0.573  0.00  0.00    +0.000 C 
ATOM     43  C   UNK A   2       6.443   1.647   1.692  0.00  0.00    +0.000 C 
BRANCH  41  44
ATOM     44  C   UNK A   2       9.241   2.879  -0.026  0.00  0.00    +0.000 C 
ATOM     45  N   UNK A   2      10.328   2.448   0.795  0.00  0.00    +0.000 N 
ATOM     46  O   UNK A   2       9.024   4.120  -0.162  0.00  0.00    +0.000 OA
ATOM     47  H   UNK A   2      10.508   1.486   0.909  0.00  0.00    +0.000 HD
ATOM     48  H   UNK A   2      10.897   3.112   1.247  0.00  0.00    +0.000 HD
ENDBRANCH  41  44
ENDBRANCH  35  36
ENDBRANCH  32  35
ENDBRANCH  28  29
ENDBRANCH   1  28
TORSDOF 15
