REMARK  Name = 6610318
REMARK  14 active torsions:
REMARK  status: ('A' for Active; 'I' for Inactive)
REMARK    1  A    between atoms: O_3  and  C_21
REMARK    2  A    between atoms: O_3  and  C_27
REMARK    3  A    between atoms: N_8  and  C_11
REMARK    4  A    between atoms: N_9  and  C_25
REMARK    5  A    between atoms: C_10  and  C_21
REMARK    6  A    between atoms: C_11  and  C_15
REMARK    7  A    between atoms: C_11  and  C_16
REMARK    8  A    between atoms: C_15  and  C_20
REMARK    9  A    between atoms: C_15  and  C_22
REMARK   10  A    between atoms: C_17  and  C_19
REMARK   11  A    between atoms: C_18  and  C_23
REMARK   12  A    between atoms: C_20  and  C_24
REMARK   13  A    between atoms: C_25  and  C_26
REMARK   14  A    between atoms: C_26  and  C_28
REMARK                            x       y       z     vdW  Elec       q    Type
REMARK                         _______ _______ _______ _____ _____    ______ ____
ROOT
ATOM      1  C   UNL     1       0.766   1.210  -0.229  0.00  0.00    +0.000 C 
ENDROOT
BRANCH   1   8
ATOM      2  O   UNL     1       1.122  -0.972   0.654  0.00  0.00    +0.000 OA
ATOM      3  N   UNL     1       2.798  -0.082  -0.671  0.00  0.00    +0.000 N 
ATOM      4  C   UNL     1       3.624  -1.281  -0.723  0.00  0.00    +0.000 C 
ATOM      5  C   UNL     1       4.608  -1.025  -1.858  0.00  0.00    +0.000 C 
ATOM      6  C   UNL     1       3.362   0.982  -1.497  0.00  0.00    +0.000 C 
ATOM      7  C   UNL     1       4.756   0.494  -1.864  0.00  0.00    +0.000 C 
ATOM      8  C   UNL     1       1.566  -0.053  -0.037  0.00  0.00    +0.000 C 
BRANCH   4  10
ATOM      9  O   UNL     1       4.179  -0.601   1.520  0.00  0.00    +0.000 OA
ATOM     10  C   UNL     1       4.319  -1.397   0.601  0.00  0.00    +0.000 C 
BRANCH  10  11
ATOM     11  O   UNL     1       5.111  -2.507   0.604  0.00  0.00    +0.000 OA
ATOM     12  C   UNL     1       5.838  -2.739   1.815  0.00  0.00    +0.000 C 
ENDBRANCH  10  11
ENDBRANCH   4  10
ENDBRANCH   1   8
BRANCH   1  14
ATOM     13  O   UNL     1      -1.341   2.330  -1.892  0.00  0.00    +0.000 OA
ATOM     14  N   UNL     1      -0.609   0.806  -0.289  0.00  0.00    +0.000 N 
ATOM     15  C   UNL     1      -1.548   1.402  -1.119  0.00  0.00    +0.000 C 
ATOM     16  H   UNL     1      -0.916   0.054   0.322  0.00  0.00    +0.000 HD
BRANCH  15  18
ATOM     17  O   UNL     1      -3.483   0.485  -2.293  0.00  0.00    +0.000 OA
ATOM     18  C   UNL     1      -2.919   0.819  -1.019  0.00  0.00    +0.000 C 
ATOM     19  C   UNL     1      -3.158  -0.607  -1.424  0.00  0.00    +0.000 C 
BRANCH  19  22
ATOM     20  O   UNL     1      -5.196  -1.695  -1.721  0.00  0.00    +0.000 OA
ATOM     21  N   UNL     1      -4.355  -1.500   0.442  0.00  0.00    +0.000 N 
ATOM     22  C   UNL     1      -4.340  -1.321  -0.928  0.00  0.00    +0.000 C 
ATOM     23  H   UNL     1      -3.582  -1.143   0.996  0.00  0.00    +0.000 HD
BRANCH  21  24
ATOM     24  C   UNL     1      -5.426  -2.176   1.139  0.00  0.00    +0.000 C 
BRANCH  24  25
ATOM     25  C   UNL     1      -6.532  -1.221   1.571  0.00  0.00    +0.000 C 
ATOM     26  C   UNL     1      -6.030  -0.119   2.493  0.00  0.00    +0.000 C 
ENDBRANCH  24  25
ENDBRANCH  21  24
ENDBRANCH  19  22
ENDBRANCH  15  18
ENDBRANCH   1  14
BRANCH   1  27
ATOM     27  C   UNL     1       1.075   2.248   0.864  0.00  0.00    +0.000 C 
ATOM     28  C   UNL     1       0.743   3.653   0.346  0.00  0.00    +0.000 C 
BRANCH  27  29
ATOM     29  C   UNL     1       0.352   1.950   2.197  0.00  0.00    +0.000 C 
ATOM     30  C   UNL     1       0.719   2.917   3.316  0.00  0.00    +0.000 C 
ENDBRANCH  27  29
ENDBRANCH   1  27
TORSDOF 10
