REMARK  Name = 24946920
REMARK  19 active torsions:
REMARK  status: ('A' for Active; 'I' for Inactive)
REMARK    1  A    between atoms: O_1  and  C_26
REMARK    2  A    between atoms: O_3  and  C_31
REMARK    3  A    between atoms: O_3  and  C_34
REMARK    4  A    between atoms: O_4  and  C_32
REMARK    5  A    between atoms: O_4  and  C_35
REMARK    6  A    between atoms: O_5  and  C_36
REMARK    7  A    between atoms: O_5  and  C_38
REMARK    8  A    between atoms: O_6  and  C_37
REMARK    9  A    between atoms: O_6  and  C_39
REMARK   10  A    between atoms: N_7  and  C_15
REMARK   11  A    between atoms: C_8  and  C_12
REMARK   12  A    between atoms: C_8  and  C_16
REMARK   13  A    between atoms: C_8  and  C_17
REMARK   14  A    between atoms: C_8  and  C_18
REMARK   15  A    between atoms: C_9  and  C_14
REMARK   16  A    between atoms: C_13  and  C_26
REMARK   17  A    between atoms: C_15  and  C_25
REMARK   18  A    between atoms: C_34  and  C_36
REMARK   19  A    between atoms: C_35  and  C_37
REMARK                            x       y       z     vdW  Elec       q    Type
REMARK                         _______ _______ _______ _____ _____    ______ ____
ROOT
ATOM      1  N   UNL     1       0.068  -0.878  -1.940  0.00  0.00    +0.000 N 
ATOM      2  C   UNL     1      -1.897  -0.799  -0.910  0.00  0.00    +0.000 A 
ATOM      3  C   UNL     1      -1.593  -2.162  -1.184  0.00  0.00    +0.000 A 
ATOM      4  C   UNL     1      -0.355  -2.184  -1.830  0.00  0.00    +0.000 A 
ATOM      5  C   UNL     1      -0.857  -0.034  -1.386  0.00  0.00    +0.000 A 
ATOM      6  C   UNL     1      -2.254  -3.383  -0.943  0.00  0.00    +0.000 A 
ATOM      7  C   UNL     1       0.258  -3.370  -2.249  0.00  0.00    +0.000 A 
ATOM      8  C   UNL     1      -1.653  -4.578  -1.357  0.00  0.00    +0.000 A 
ATOM      9  C   UNL     1      -0.417  -4.569  -2.000  0.00  0.00    +0.000 A 
ENDROOT
BRANCH   2  11
ATOM     10  C   UNL     1      -5.294   0.841   0.996  0.00  0.00    +0.000 A 
ATOM     11  C   UNL     1      -3.052  -0.242  -0.262  0.00  0.00    +0.000 A 
ATOM     12  C   UNL     1      -4.480  -0.063   1.679  0.00  0.00    +0.000 A 
ATOM     13  C   UNL     1      -4.987   1.204  -0.315  0.00  0.00    +0.000 A 
ATOM     14  C   UNL     1      -3.360  -0.605   1.050  0.00  0.00    +0.000 A 
ATOM     15  C   UNL     1      -3.866   0.662  -0.944  0.00  0.00    +0.000 A 
BRANCH  10  16
ATOM     16  C   UNL     1      -6.493   1.420   1.669  0.00  0.00    +0.000 C 
ATOM     17  C   UNL     1      -6.095   2.211   2.953  0.00  0.00    +0.000 C 
ATOM     18  C   UNL     1      -7.496   0.303   2.096  0.00  0.00    +0.000 C 
ATOM     19  C   UNL     1      -7.330   2.421   0.805  0.00  0.00    +0.000 C 
ENDBRANCH  10  16
ENDBRANCH   2  11
BRANCH   5  21
ATOM     20  O   UNL     1      -0.589   2.150  -2.326  0.00  0.00    +0.000 OA
ATOM     21  C   UNL     1      -0.708   1.392  -1.343  0.00  0.00    +0.000 C 
BRANCH  21  22
ATOM     22  O   UNL     1      -0.706   1.896  -0.070  0.00  0.00    +0.000 OA
ATOM     23  H   UNL     1      -0.603   2.872  -0.068  0.00  0.00    +0.000 HD
ENDBRANCH  21  22
ENDBRANCH   5  21
BRANCH   1  24
ATOM     24  C   UNL     1       1.313  -0.460  -2.552  0.00  0.00    +0.000 C 
BRANCH  24  25
ATOM     25  C   UNL     1       2.385  -0.112  -1.550  0.00  0.00    +0.000 A 
ATOM     26  C   UNL     1       2.974   1.152  -1.569  0.00  0.00    +0.000 A 
ATOM     27  C   UNL     1       2.788  -1.055  -0.604  0.00  0.00    +0.000 A 
ATOM     28  C   UNL     1       3.779  -0.733   0.323  0.00  0.00    +0.000 A 
ATOM     29  C   UNL     1       3.965   1.474  -0.642  0.00  0.00    +0.000 A 
ATOM     30  C   UNL     1       4.368   0.532   0.304  0.00  0.00    +0.000 A 
BRANCH  28  31
ATOM     31  O   UNL     1       4.173  -1.652   1.246  0.00  0.00    +0.000 OA
BRANCH  31  32
ATOM     32  C   UNL     1       3.197  -2.601   1.675  0.00  0.00    +0.000 C 
BRANCH  32  33
ATOM     33  C   UNL     1       3.509  -3.025   3.097  0.00  0.00    +0.000 C 
BRANCH  33  34
ATOM     34  O   UNL     1       4.795  -3.631   3.128  0.00  0.00    +0.000 OA
ATOM     35  C   UNL     1       5.151  -4.030   4.445  0.00  0.00    +0.000 C 
ENDBRANCH  33  34
ENDBRANCH  32  33
ENDBRANCH  31  32
ENDBRANCH  28  31
BRANCH  29  36
ATOM     36  O   UNL     1       4.540   2.708  -0.661  0.00  0.00    +0.000 OA
BRANCH  36  37
ATOM     37  C   UNL     1       3.734   3.792  -1.122  0.00  0.00    +0.000 C 
BRANCH  37  38
ATOM     38  C   UNL     1       4.159   5.062  -0.408  0.00  0.00    +0.000 C 
BRANCH  38  39
ATOM     39  O   UNL     1       3.962   4.896   0.991  0.00  0.00    +0.000 OA
ATOM     40  C   UNL     1       4.365   6.051   1.713  0.00  0.00    +0.000 C 
ENDBRANCH  38  39
ENDBRANCH  37  38
ENDBRANCH  36  37
ENDBRANCH  29  36
ENDBRANCH  24  25
ENDBRANCH   1  24
TORSDOF 14
