REMARK  Name = 46937104
REMARK  10 active torsions:
REMARK  status: ('A' for Active; 'I' for Inactive)
REMARK    1  A    between atoms: N_5  and  C_7
REMARK    2  A    between atoms: N_6  and  C_11
REMARK    3  A    between atoms: C_7  and  C_8
REMARK    4  A    between atoms: C_7  and  C_9
REMARK    5  A    between atoms: C_8  and  C_10
REMARK    6  A    between atoms: C_9  and  C_13
REMARK    7  A    between atoms: C_11  and  C_12
REMARK    8  A    between atoms: C_11  and  C_14
REMARK    9  A    between atoms: C_13  and  C_17
REMARK   10  A    between atoms: C_21  and  C_22
REMARK                            x       y       z     vdW  Elec       q    Type
REMARK                         _______ _______ _______ _____ _____    ______ ____
ROOT
ATOM      1  C   UNL     1       1.369  -0.041  -0.221  0.00  0.00    +0.000 C 
ENDROOT
BRANCH   1   3
ATOM      2  O   UNL     1      -0.558   1.143   1.556  0.00  0.00    +0.000 OA
ATOM      3  N   UNL     1       0.343   0.909  -0.570  0.00  0.00    +0.000 N 
ATOM      4  C   UNL     1      -0.548   1.429   0.360  0.00  0.00    +0.000 C 
ATOM      5  H   UNL     1       0.306   1.239  -1.531  0.00  0.00    +0.000 HD
BRANCH   4   6
ATOM      6  C   UNL     1      -1.498   2.446  -0.259  0.00  0.00    +0.000 C 
ATOM      7  C   UNL     1      -0.917   3.849  -0.185  0.00  0.00    +0.000 C 
BRANCH   6   9
ATOM      8  O   UNL     1      -3.729   0.684  -0.851  0.00  0.00    +0.000 OA
ATOM      9  N   UNL     1      -2.755   2.362   0.437  0.00  0.00    +0.000 N 
ATOM     10  C   UNL     1      -3.768   1.484   0.081  0.00  0.00    +0.000 C 
ATOM     11  C   UNL     1      -4.963   1.585   0.990  0.00  0.00    +0.000 C 
ATOM     12  H   UNL     1      -2.872   2.925   1.275  0.00  0.00    +0.000 HD
ENDBRANCH   6   9
ENDBRANCH   4   6
ENDBRANCH   1   3
BRANCH   1  14
ATOM     13  O   UNL     1       2.834   1.415  -1.463  0.00  0.00    +0.000 OA
ATOM     14  C   UNL     1       2.696   0.657  -0.503  0.00  0.00    +0.000 C 
BRANCH  14  15
ATOM     15  C   UNL     1       3.837   0.338   0.454  0.00  0.00    +0.000 C 
BRANCH  15  17
ATOM     16 CL   UNL     1       6.445   0.560   1.231  0.00  0.00    +0.000 Cl
ATOM     17  C   UNL     1       5.157   0.995   0.080  0.00  0.00    +0.000 C 
ENDBRANCH  15  17
ENDBRANCH  14  15
ENDBRANCH   1  14
BRANCH   1  18
ATOM     18  C   UNL     1       1.220  -1.329  -1.033  0.00  0.00    +0.000 C 
BRANCH  18  19
ATOM     19  C   UNL     1       0.139  -2.239  -0.505  0.00  0.00    +0.000 A 
ATOM     20  C   UNL     1       0.447  -3.205   0.453  0.00  0.00    +0.000 A 
ATOM     21  C   UNL     1      -1.168  -2.115  -0.976  0.00  0.00    +0.000 A 
ATOM     22  C   UNL     1      -0.553  -4.046   0.941  0.00  0.00    +0.000 A 
ATOM     23  C   UNL     1      -2.168  -2.957  -0.487  0.00  0.00    +0.000 A 
ATOM     24  C   UNL     1      -1.860  -3.923   0.471  0.00  0.00    +0.000 A 
ENDBRANCH  18  19
ENDBRANCH   1  18
TORSDOF 8
