REMARK  Name = 
REMARK  25 active torsions:
REMARK  status: ('A' for Active; 'I' for Inactive)
REMARK    1  A    between atoms: C_1  and  C_2
REMARK    2  A    between atoms: C_2  and  C_3
REMARK    3  A    between atoms: C_3  and  C_4
REMARK    4  A    between atoms: C_4  and  C_5
REMARK    5  A    between atoms: C_5  and  C_6
REMARK    6  A    between atoms: C_7  and  C_8
REMARK    7  A    between atoms: C_8  and  C_9
REMARK    8  A    between atoms: C_10  and  C_11
REMARK    9  A    between atoms: C_12  and  C_13
REMARK   10  A    between atoms: C_14  and  C_15
REMARK   11  A    between atoms: C_15  and  S_16
REMARK   12  A    between atoms: C_15  and  C_27
REMARK   13  A    between atoms: S_16  and  C_17
REMARK   14  A    between atoms: C_17  and  C_18
REMARK   15  A    between atoms: C_18  and  N_19
REMARK   16  A    between atoms: C_18  and  C_20
REMARK   17  A    between atoms: N_22  and  CA_23
REMARK   18  A    between atoms: CA_23  and  C_24
REMARK   19  A    between atoms: C_24  and  OXT_26
REMARK   20  A    between atoms: C_27  and  O_28
REMARK   21  A    between atoms: C_27  and  C_29
REMARK   22  A    between atoms: C_29  and  C_30
REMARK   23  A    between atoms: C_30  and  C_31
REMARK   24  A    between atoms: C_31  and  C_32
REMARK   25  A    between atoms: C_32  and  O_34
REMARK                            x       y       z     vdW  Elec       q    Type
REMARK                         _______ _______ _______ _____ _____    ______ ____
ROOT
ATOM      1  C   UNK A   1      -0.946  -1.821   0.219  0.00  0.00    +0.000 C 
ENDROOT
BRANCH   1   3
ATOM      2  C   UNK A   1       0.469  -0.919  -1.625  0.00  0.00    +0.000 C 
ATOM      3  C   UNK A   1      -0.016  -0.784  -0.433  0.00  0.00    +0.000 C 
BRANCH   2   5
ATOM      4  C   UNK A   1       2.453   0.467  -1.165  0.00  0.00    +0.000 C 
ATOM      5  C   UNK A   1       1.750  -0.284  -1.960  0.00  0.00    +0.000 C 
BRANCH   4   7
ATOM      6  C   UNK A   1       4.603  -0.370  -1.661  0.00  0.00    +0.000 C 
ATOM      7  C   UNK A   1       3.833   0.213  -0.742  0.00  0.00    +0.000 C 
BRANCH   6   8
ATOM      8  C   UNK A   1       4.734   0.449  -2.905  0.00  0.00    +0.000 C 
BRANCH   8  10
ATOM      9  C   UNK A   1       6.210   1.763  -1.509  0.00  0.00    +0.000 C 
ATOM     10  C   UNK A   1       5.334   1.746  -2.498  0.00  0.00    +0.000 C 
BRANCH   9  11
ATOM     11  C   UNK A   1       7.132   0.625  -1.318  0.00  0.00    +0.000 C 
BRANCH  11  12
ATOM     12  C   UNK A   1       7.592   0.552   0.133  0.00  0.00    +0.000 C 
BRANCH  12  13
ATOM     13  C   UNK A   1       7.532   1.964   0.690  0.00  0.00    +0.000 C 
BRANCH  13  15
ATOM     14  C   UNK A   1       7.368   2.890   2.955  0.00  0.00    +0.000 C 
ATOM     15  C   UNK A   1       8.070   1.938   2.117  0.00  0.00    +0.000 C 
ENDBRANCH  13  15
ENDBRANCH  12  13
ENDBRANCH  11  12
ENDBRANCH   9  11
ENDBRANCH   8  10
ENDBRANCH   6   8
ENDBRANCH   4   7
ENDBRANCH   2   5
ENDBRANCH   1   3
BRANCH   1  16
ATOM     16  S   UNK A   1      -1.805  -0.651   1.418  0.00  0.00    +0.000 S 
BRANCH  16  17
ATOM     17  C   UNK A   1      -1.838   1.016   0.762  0.00  0.00    +0.000 C 
BRANCH  17  18
ATOM     18  C   UNK A   1      -3.079   0.850  -0.344  0.00  0.00    +0.000 C 
BRANCH  18  19
ATOM     19  C   UNK A   1      -4.086   1.793   0.543  0.00  0.00    +0.000 C 
ATOM     20  O   UNK A   1      -4.146   1.413   1.757  0.00  0.00    +0.000 OA
ATOM     21  N   GLY A   2      -5.367   1.649  -0.097  0.00  0.00    +0.000 N 
ATOM     22  H   GLY A   2      -5.416   1.224  -0.984  0.00  0.00    +0.000 HD
BRANCH  21  23
ATOM     23  CA  GLY A   2      -6.587   2.114   0.533  0.00  0.00    +0.000 C 
BRANCH  23  24
ATOM     24  C   GLY A   2      -6.689   3.544   0.102  0.00  0.00    +0.000 C 
ATOM     25  O   GLY A   2      -5.688   4.262   0.402  0.00  0.00    +0.000 OA
BRANCH  24  26
ATOM     26  OXT GLY A   2      -7.391   3.761  -1.077  0.00  0.00    +0.000 OA
ATOM     27  HXT GLY A   2      -8.129   3.225  -1.289  0.00  0.00    +0.000 HD
ENDBRANCH  24  26
ENDBRANCH  23  24
ENDBRANCH  21  23
ENDBRANCH  18  19
BRANCH  18  28
ATOM     28  N   UNK A   1      -2.555   2.107  -1.182  0.00  0.00    +0.000 NA
ATOM     29  H   UNK A   1      -2.341   2.875  -0.545  0.00  0.00    +0.000 HD
ATOM     30  H   UNK A   1      -3.277   2.402  -1.839  0.00  0.00    +0.000 HD
ENDBRANCH  18  28
ENDBRANCH  17  18
ENDBRANCH  16  17
ENDBRANCH   1  16
BRANCH   1  31
ATOM     31  C   UNK A   1      -2.110  -1.753  -1.022  0.00  0.00    +0.000 C 
BRANCH  31  32
ATOM     32  O   UNK A   1      -1.663  -3.123  -1.561  0.00  0.00    +0.000 OA
ATOM     33  H   UNK A   1      -1.592  -3.752  -0.826  0.00  0.00    +0.000 HD
ENDBRANCH  31  32
BRANCH  31  34
ATOM     34  C   UNK A   1      -3.329  -2.453  -0.125  0.00  0.00    +0.000 C 
BRANCH  34  35
ATOM     35  C   UNK A   1      -2.785  -3.141   1.022  0.00  0.00    +0.000 C 
BRANCH  35  36
ATOM     36  C   UNK A   1      -2.078  -4.433   0.814  0.00  0.00    +0.000 C 
BRANCH  36  37
ATOM     37  C   UNK A   1      -1.802  -4.970   2.183  0.00  0.00    +0.000 C 
ATOM     38  O   UNK A   1      -2.203  -6.100   2.530  0.00  0.00    +0.000 OA
BRANCH  37  39
ATOM     39  O   UNK A   1      -0.918  -4.315   3.045  0.00  0.00    +0.000 OA
ATOM     40  H   UNK A   1      -0.592  -3.465   2.824  0.00  0.00    +0.000 HD
ENDBRANCH  37  39
ENDBRANCH  36  37
ENDBRANCH  35  36
ENDBRANCH  34  35
ENDBRANCH  31  34
ENDBRANCH   1  31
TORSDOF 24
