REMARK  Name = 
REMARK  24 active torsions:
REMARK  status: ('A' for Active; 'I' for Inactive)
REMARK    1  A    between atoms: C_1  and  C_2
REMARK    2  A    between atoms: C_4  and  O_5
REMARK    3  A    between atoms: C_7  and  C_8
REMARK    4  A    between atoms: C_9  and  C_10
REMARK    5  A    between atoms: C_10  and  C_11
REMARK    6  A    between atoms: C_11  and  N_12
REMARK    7  A    between atoms: C_11  and  C_24
REMARK    8  A    between atoms: C_13  and  C_15
REMARK    9  A    between atoms: C_15  and  N_16
REMARK   10  A    between atoms: C_15  and  C_17
REMARK   11  A    between atoms: C_17  and  C_18
REMARK   12  A    between atoms: C_18  and  C_19
REMARK   13  A    between atoms: C_19  and  N_20
REMARK   14  A    between atoms: N_26  and  C_27
REMARK   15  A    between atoms: C_27  and  C_28
REMARK   16  A    between atoms: C_27  and  C_33
REMARK   17  A    between atoms: C_28  and  C_29
REMARK   18  A    between atoms: C_29  and  C_30
REMARK   19  A    between atoms: C_30  and  C_31
REMARK   20  A    between atoms: C_31  and  N_32
REMARK   21  A    between atoms: N_35  and  C_36
REMARK   22  A    between atoms: C_36  and  C_37
REMARK   23  A    between atoms: C_36  and  C_44
REMARK   24  A    between atoms: C_37  and  C_38
REMARK                            x       y       z     vdW  Elec       q    Type
REMARK                         _______ _______ _______ _____ _____    ______ ____
ROOT
ATOM      1  C   UNL     1       1.416  -1.072  -1.899  0.00  0.00    +0.000 C 
ENDROOT
BRANCH   1   2
ATOM      2  N   UNL     1       2.629  -1.076  -0.876  0.00  0.00    +0.000 N 
ATOM      3  C   UNL     1       3.888  -0.730  -1.407  0.00  0.00    +0.000 C 
ATOM      4  O   UNL     1       4.189  -0.898  -2.612  0.00  0.00    +0.000 OA
ATOM      5  H   UNL     1       2.509  -1.307   0.074  0.00  0.00    +0.000 HD
BRANCH   3   6
ATOM      6  C   UNL     1       4.500   0.687  -0.930  0.00  0.00    +0.000 C 
BRANCH   6   7
ATOM      7  N   UNL     1       5.981   0.162  -1.060  0.00  0.00    +0.000 NA
ATOM      8  H   UNL     1       6.055  -0.757  -0.622  0.00  0.00    +0.000 HD
ATOM      9  H   UNL     1       6.614   0.812  -0.595  0.00  0.00    +0.000 HD
ENDBRANCH   6   7
BRANCH   6  10
ATOM     10  C   UNL     1       4.417   0.281   0.661  0.00  0.00    +0.000 C 
BRANCH  10  11
ATOM     11  C   UNL     1       4.663   1.632   1.319  0.00  0.00    +0.000 C 
BRANCH  11  12
ATOM     12  C   UNL     1       5.922   2.278   0.750  0.00  0.00    +0.000 C 
BRANCH  12  13
ATOM     13  N   UNL     1       5.519   3.509   0.073  0.00  0.00    +0.000 N 
ATOM     14  C   UNL     1       6.569   4.366  -0.384  0.00  0.00    +0.000 C 
ATOM     15  N   UNL     1       7.822   4.050  -0.261  0.00  0.00    +0.000 NA
ATOM     16  N   UNL     1       6.277   5.682  -0.802  0.00  0.00    +0.000 N 
ATOM     17  H   UNL     1       4.571   3.738  -0.061  0.00  0.00    +0.000 HD
ATOM     18  H   UNL     1       8.075   3.144   0.029  0.00  0.00    +0.000 HD
ATOM     19  H   UNL     1       5.340   5.967  -0.910  0.00  0.00    +0.000 HD
ATOM     20  H   UNL     1       7.008   6.314  -0.987  0.00  0.00    +0.000 HD
ENDBRANCH  12  13
ENDBRANCH  11  12
ENDBRANCH  10  11
ENDBRANCH   6  10
ENDBRANCH   3   6
ENDBRANCH   1   2
BRANCH   1  21
ATOM     21  C   UNL     1       0.402  -0.438  -0.816  0.00  0.00    +0.000 C 
ATOM     22  O   UNL     1       0.769   0.613  -0.269  0.00  0.00    +0.000 OA
ATOM     23  N   UNL     1      -0.977  -0.419  -1.089  0.00  0.00    +0.000 N 
ATOM     24  H   UNL     1      -1.371  -0.340  -1.987  0.00  0.00    +0.000 HD
BRANCH  23  25
ATOM     25  C   UNL     1      -1.804  -0.544   0.256  0.00  0.00    +0.000 C 
BRANCH  25  26
ATOM     26  C   UNL     1      -2.966   0.433  -0.289  0.00  0.00    +0.000 C 
ATOM     27  O   UNL     1      -3.781  -0.303  -0.932  0.00  0.00    +0.000 OA
ATOM     28  N   UNL     1      -3.512   1.347   0.612  0.00  0.00    +0.000 N 
ATOM     29  H   UNL     1      -2.977   1.703   1.359  0.00  0.00    +0.000 HD
BRANCH  28  30
ATOM     30  C   UNL     1      -5.006   1.795   0.401  0.00  0.00    +0.000 C 
BRANCH  30  31
ATOM     31  C   UNL     1      -5.589   0.283   0.423  0.00  0.00    +0.000 C 
ATOM     32  N   UNL     1      -5.740  -0.164   1.785  0.00  0.00    +0.000 N 
ATOM     33  O   UNL     1      -6.663   0.192  -0.255  0.00  0.00    +0.000 OA
ATOM     34  H   UNL     1      -4.971  -0.138   2.399  0.00  0.00    +0.000 HD
ATOM     35  H   UNL     1      -6.611  -0.495   2.100  0.00  0.00    +0.000 HD
ENDBRANCH  30  31
BRANCH  30  36
ATOM     36  C   UNL     1      -4.897   1.826  -1.244  0.00  0.00    +0.000 C 
BRANCH  36  37
ATOM     37  C   UNL     1      -5.582   3.114  -1.589  0.00  0.00    +0.000 A 
ATOM     38  C   UNL     1      -4.875   4.289  -1.806  0.00  0.00    +0.000 A 
ATOM     39  C   UNL     1      -5.511   5.518  -1.756  0.00  0.00    +0.000 A 
ATOM     40  C   UNL     1      -6.856   5.585  -1.436  0.00  0.00    +0.000 A 
ATOM     41  C   UNL     1      -7.552   4.392  -1.308  0.00  0.00    +0.000 A 
ATOM     42  C   UNL     1      -6.911   3.176  -1.190  0.00  0.00    +0.000 A 
ENDBRANCH  36  37
ENDBRANCH  30  36
ENDBRANCH  28  30
ENDBRANCH  25  26
BRANCH  25  43
ATOM     43  C   UNL     1      -0.988   0.647   1.049  0.00  0.00    +0.000 C 
BRANCH  43  44
ATOM     44  C   UNL     1      -0.600  -0.065   2.346  0.00  0.00    +0.000 C 
BRANCH  44  45
ATOM     45  C   UNL     1      -1.405  -1.276   2.623  0.00  0.00    +0.000 C 
BRANCH  45  46
ATOM     46  C   UNL     1      -0.690  -2.577   2.277  0.00  0.00    +0.000 C 
BRANCH  46  47
ATOM     47  N   UNL     1      -1.607  -3.521   1.641  0.00  0.00    +0.000 NA
ATOM     48  H   UNL     1      -2.371  -3.737   2.282  0.00  0.00    +0.000 HD
ATOM     49  H   UNL     1      -1.106  -4.378   1.409  0.00  0.00    +0.000 HD
ENDBRANCH  46  47
ENDBRANCH  45  46
ENDBRANCH  44  45
ENDBRANCH  43  44
ENDBRANCH  25  43
ENDBRANCH  23  25
ENDBRANCH   1  21
BRANCH   1  50
ATOM     50  C   UNL     1       0.881  -2.605  -1.599  0.00  0.00    +0.000 C 
BRANCH  50  58
ATOM     51  C   UNL     1       1.157  -2.424   0.925  0.00  0.00    +0.000 C 
ATOM     52  C   UNL     1       1.679  -3.138   0.585  0.00  0.00    +0.000 A 
ATOM     53  C   UNL     1       1.885  -4.155   1.475  0.00  0.00    +0.000 A 
ATOM     54  C   UNL     1       2.255  -5.421   1.047  0.00  0.00    +0.000 A 
ATOM     55  C   UNL     1       2.427  -5.613  -0.314  0.00  0.00    +0.000 A 
ATOM     56  C   UNL     1       2.240  -4.563  -1.208  0.00  0.00    +0.000 A 
ATOM     57  C   UNL     1       1.950  -5.021  -2.607  0.00  0.00    +0.000 C 
ATOM     58  C   UNL     1       1.835  -3.306  -0.763  0.00  0.00    +0.000 A 
BRANCH  54  59
ATOM     59  O   UNL     1       2.242  -6.525   1.895  0.00  0.00    +0.000 OA
ATOM     60  H   UNL     1       2.127  -6.406   2.818  0.00  0.00    +0.000 HD
ENDBRANCH  54  59
ENDBRANCH  50  58
ENDBRANCH   1  50
TORSDOF 22
