REMARK  Name = 
REMARK  29 active torsions:
REMARK  status: ('A' for Active; 'I' for Inactive)
REMARK    1  A    between atoms: OD1_5  and  CG_39
REMARK    2  A    between atoms: O_6  and  C_42
REMARK    3  A    between atoms: OH_9  and  CZ_47
REMARK    4  A    between atoms: N_10  and  CA_19
REMARK    5  A    between atoms: N_11  and  CA_23
REMARK    6  A    between atoms: N_12  and  CA_20
REMARK    7  A    between atoms: N_13  and  CA_34
REMARK    8  A    between atoms: N_14  and  CA_32
REMARK    9  A    between atoms: NZ_15  and  CE_36
REMARK   10  A    between atoms: NE_16  and  CD_41
REMARK   11  A    between atoms: CA_19  and  CB_21
REMARK   12  A    between atoms: CA_19  and  C_27
REMARK   13  A    between atoms: CA_20  and  CB_22
REMARK   14  A    between atoms: CA_20  and  C_25
REMARK   15  A    between atoms: CB_21  and  CG1_29
REMARK   16  A    between atoms: CB_21  and  CG2_30
REMARK   17  A    between atoms: CB_22  and  CG_24
REMARK   18  A    between atoms: CA_23  and  C_26
REMARK   19  A    between atoms: CA_23  and  CB_31
REMARK   20  A    between atoms: CG_24  and  CD_28
REMARK   21  A    between atoms: CD_28  and  CE_36
REMARK   22  A    between atoms: CB_31  and  CG_39
REMARK   23  A    between atoms: CA_32  and  C_33
REMARK   24  A    between atoms: CA_32  and  CB_35
REMARK   25  A    between atoms: CA_34  and  CB_37
REMARK   26  A    between atoms: CA_34  and  C_42
REMARK   27  A    between atoms: CB_35  and  CG_38
REMARK   28  A    between atoms: CB_37  and  CG_40
REMARK   29  A    between atoms: CG_38  and  CD_41
REMARK                            x       y       z     vdW  Elec       q    Type
REMARK                         _______ _______ _______ _____ _____    ______ ____
ROOT
ATOM      1  CA  ASP A   3      -0.357   0.825   0.000  0.00  0.00    +0.000 C 
ENDROOT
BRANCH   1   3
ATOM      2  O   LYS A   2       1.072   1.650   0.000  0.00  0.00    +0.000 OA
ATOM      3  N   ASP A   3       0.357   0.412   0.000  0.00  0.00    +0.000 N 
ATOM      4  C   LYS A   2       1.072   0.825   0.000  0.00  0.00    +0.000 C 
ATOM      5  H   ASP A   3       0.357  -0.572   0.000  0.00  0.00    +0.000 HD
BRANCH   4   6
ATOM      6  CA  LYS A   2       1.786   0.412   0.000  0.00  0.00    +0.000 C 
BRANCH   6   8
ATOM      7  O   ARG A   1       3.215  -0.412   0.000  0.00  0.00    +0.000 OA
ATOM      8  N   LYS A   2       2.501   0.825   0.000  0.00  0.00    +0.000 N 
ATOM      9  C   ARG A   1       3.215   0.412   0.000  0.00  0.00    +0.000 C 
ATOM     10  H   LYS A   2       2.501   1.809   0.000  0.00  0.00    +0.000 HD
BRANCH   9  11
ATOM     11  CA  ARG A   1       3.930   0.825   0.000  0.00  0.00    +0.000 C 
BRANCH  11  12
ATOM     12  N   ARG A   1       3.930   1.650   0.000  0.00  0.00    +0.000 NA
ATOM     13  H1  ARG A   1       4.813   2.160   0.000  0.00  0.00    +0.000 HD
ATOM     14  H2  ARG A   1       3.046   2.160   0.000  0.00  0.00    +0.000 HD
ENDBRANCH  11  12
BRANCH  11  15
ATOM     15  CB  ARG A   1       4.644   0.412   0.000  0.00  0.00    +0.000 C 
BRANCH  15  16
ATOM     16  CG  ARG A   1       5.359   0.825   0.000  0.00  0.00    +0.000 C 
BRANCH  16  17
ATOM     17  CD  ARG A   1       6.073   0.412   0.000  0.00  0.00    +0.000 C 
BRANCH  17  18
ATOM     18  NE  ARG A   1       6.787   0.825   0.000  0.00  0.00    +0.000 NA
ATOM     19  NH1 ARG A   1       8.216   0.825   0.000  0.00  0.00    +0.000 N 
ATOM     20  NH2 ARG A   1       7.502  -0.412   0.000  0.00  0.00    +0.000 N 
ATOM     21  CZ  ARG A   1       7.502   0.412   0.000  0.00  0.00    +0.000 C 
ATOM     22 HH11 ARG A   1       9.069   0.333   0.000  0.00  0.00    +0.000 HD
ATOM     23 HH12 ARG A   1       8.216   1.809   0.000  0.00  0.00    +0.000 HD
ATOM     24 HH21 ARG A   1       6.649  -0.905   0.000  0.00  0.00    +0.000 HD
ATOM     25 HH22 ARG A   1       8.355  -0.905   0.000  0.00  0.00    +0.000 HD
ENDBRANCH  17  18
ENDBRANCH  16  17
ENDBRANCH  15  16
ENDBRANCH  11  15
ENDBRANCH   9  11
ENDBRANCH   6   8
BRANCH   6  26
ATOM     26  CB  LYS A   2       1.786  -0.412   0.000  0.00  0.00    +0.000 C 
BRANCH  26  27
ATOM     27  CG  LYS A   2       2.501  -0.825   0.000  0.00  0.00    +0.000 C 
BRANCH  27  28
ATOM     28  CD  LYS A   2       2.501  -1.650   0.000  0.00  0.00    +0.000 C 
BRANCH  28  29
ATOM     29  CE  LYS A   2       3.215  -2.062   0.000  0.00  0.00    +0.000 C 
BRANCH  29  30
ATOM     30  NZ  LYS A   2       3.215  -2.888   0.000  0.00  0.00    +0.000 NA
ATOM     31  HZ1 LYS A   2       2.332  -3.398   0.000  0.00  0.00    +0.000 HD
ATOM     32  HZ2 LYS A   2       4.098  -3.397   0.000  0.00  0.00    +0.000 HD
ENDBRANCH  29  30
ENDBRANCH  28  29
ENDBRANCH  27  28
ENDBRANCH  26  27
ENDBRANCH   6  26
ENDBRANCH   4   6
ENDBRANCH   1   3
BRANCH   1  35
ATOM     33  O   ASP A   3      -1.072  -0.412   0.000  0.00  0.00    +0.000 OA
ATOM     34  N   VAL A   4      -1.786   0.825   0.000  0.00  0.00    +0.000 N 
ATOM     35  C   ASP A   3      -1.072   0.412   0.000  0.00  0.00    +0.000 C 
ATOM     36  H   VAL A   4      -1.786   1.809   0.000  0.00  0.00    +0.000 HD
BRANCH  34  37
ATOM     37  CA  VAL A   4      -2.501   0.412   0.000  0.00  0.00    +0.000 C 
BRANCH  37  40
ATOM     38  O   VAL A   4      -3.215   1.650   0.000  0.00  0.00    +0.000 OA
ATOM     39  N   TYR A   5      -3.930   0.412   0.000  0.00  0.00    +0.000 N 
ATOM     40  C   VAL A   4      -3.215   0.825   0.000  0.00  0.00    +0.000 C 
ATOM     41  H   TYR A   5      -3.930  -0.572   0.000  0.00  0.00    +0.000 HD
BRANCH  39  42
ATOM     42  CA  TYR A   5      -4.644   0.825   0.000  0.00  0.00    +0.000 C 
BRANCH  42  44
ATOM     43  OXT TYR A   5      -3.930   2.062   0.000  0.00  0.00    +0.000 OA
ATOM     44  C   TYR A   5      -4.644   1.650   0.000  0.00  0.00    +0.000 C 
BRANCH  44  45
ATOM     45  O   TYR A   5      -5.359   2.062   0.000  0.00  0.00    +0.000 OA
ATOM     46  H   TYR A   5      -5.359   2.999   0.000  0.00  0.00    +0.000 HD
ENDBRANCH  44  45
ENDBRANCH  42  44
BRANCH  42  47
ATOM     47  CB  TYR A   5      -5.359   0.412   0.000  0.00  0.00    +0.000 C 
BRANCH  47  48
ATOM     48  CG  TYR A   5      -6.073   0.825   0.000  0.00  0.00    +0.000 A 
ATOM     49  CD1 TYR A   5      -6.787   0.412   0.000  0.00  0.00    +0.000 A 
ATOM     50  CD2 TYR A   5      -6.073   1.650   0.000  0.00  0.00    +0.000 A 
ATOM     51  CE1 TYR A   5      -7.502   0.825   0.000  0.00  0.00    +0.000 A 
ATOM     52  CE2 TYR A   5      -6.787   2.062   0.000  0.00  0.00    +0.000 A 
ATOM     53  CZ  TYR A   5      -7.502   1.650   0.000  0.00  0.00    +0.000 A 
BRANCH  53  54
ATOM     54  OH  TYR A   5      -8.216   2.062   0.000  0.00  0.00    +0.000 OA
ATOM     55  HH  TYR A   5      -8.217   2.999   0.000  0.00  0.00    +0.000 HD
ENDBRANCH  53  54
ENDBRANCH  47  48
ENDBRANCH  42  47
ENDBRANCH  39  42
ENDBRANCH  37  40
BRANCH  37  56
ATOM     56  CB  VAL A   4      -2.501  -0.412   0.000  0.00  0.00    +0.000 C 
ATOM     57  CG1 VAL A   4      -3.215  -0.825   0.000  0.00  0.00    +0.000 C 
ATOM     58  CG2 VAL A   4      -1.786  -0.825   0.000  0.00  0.00    +0.000 C 
ENDBRANCH  37  56
ENDBRANCH  34  37
ENDBRANCH   1  35
BRANCH   1  59
ATOM     59  CB  ASP A   3      -0.357   1.650   0.000  0.00  0.00    +0.000 C 
BRANCH  59  61
ATOM     60  OD2 ASP A   3      -1.072   2.887   0.000  0.00  0.00    +0.000 OA
ATOM     61  CG  ASP A   3      -1.072   2.062   0.000  0.00  0.00    +0.000 C 
BRANCH  61  62
ATOM     62  OD1 ASP A   3      -1.786   1.650   0.000  0.00  0.00    +0.000 OA
ATOM     63  HD1 ASP A   3      -2.598   2.119   0.000  0.00  0.00    +0.000 HD
ENDBRANCH  61  62
ENDBRANCH  59  61
ENDBRANCH   1  59
TORSDOF 27
