REMARK  Name = 
REMARK  16 active torsions:
REMARK  status: ('A' for Active; 'I' for Inactive)
REMARK    1  A    between atoms: C_2  and  O_3
REMARK    2  A    between atoms: C_2  and  C_4
REMARK    3  A    between atoms: C_4  and  C_5
REMARK    4  A    between atoms: C_5  and  C_6
REMARK    5  A    between atoms: C_6  and  N_7
REMARK    6  A    between atoms: C_6  and  C_30
REMARK    7  A    between atoms: N_10  and  C_11
REMARK    8  A    between atoms: C_11  and  C_12
REMARK    9  A    between atoms: C_11  and  C_27
REMARK   10  A    between atoms: C_12  and  C_13
REMARK   11  A    between atoms: C_13  and  C_14
REMARK   12  A    between atoms: C_14  and  C_15
REMARK   13  A    between atoms: C_15  and  N_16
REMARK   14  A    between atoms: N_19  and  C_20
REMARK   15  A    between atoms: C_27  and  O_29
REMARK   16  A    between atoms: C_30  and  O_32
REMARK                            x       y       z     vdW  Elec       q    Type
REMARK                         _______ _______ _______ _____ _____    ______ ____
ROOT
ATOM      1  C   UNK A   1      -0.701  -0.156   1.161  0.00  0.00    +0.000 C 
ENDROOT
BRANCH   1   5
ATOM      2  N   UNK A   1      -4.383  -1.215   0.905  0.00  0.00    +0.000 N 
ATOM      3  C   UNK A   0      -3.191  -0.498   0.803  0.00  0.00    +0.000 C 
ATOM      4  O   UNK A   0      -3.285   0.741   0.555  0.00  0.00    +0.000 OA
ATOM      5  N   UNK A   1      -2.042  -0.919   1.485  0.00  0.00    +0.000 N 
ATOM      6  H   UNK A   1      -4.457  -1.984   1.515  0.00  0.00    +0.000 HD
ATOM      7  H   UNK A   1      -2.071  -1.657   2.136  0.00  0.00    +0.000 HD
BRANCH   2   8
ATOM      8  C   UNK A   1      -5.610  -0.767   0.019  0.00  0.00    +0.000 C 
BRANCH   8   9
ATOM      9  C   UNK A   1      -5.596  -2.148  -0.826  0.00  0.00    +0.000 C 
ATOM     10  O   UNK A   1      -6.098  -3.038  -0.065  0.00  0.00    +0.000 OA
BRANCH   9  11
ATOM     11  O   UNK A   1      -4.339  -2.503  -1.309  0.00  0.00    +0.000 OA
ATOM     12  H   UNK A   1      -3.875  -1.922  -1.879  0.00  0.00    +0.000 HD
ENDBRANCH   9  11
ENDBRANCH   8   9
BRANCH   8  13
ATOM     13  C   UNK A   1      -4.744   0.057  -1.122  0.00  0.00    +0.000 C 
BRANCH  13  14
ATOM     14  C   UNK A   1      -5.834   0.919  -1.729  0.00  0.00    +0.000 C 
BRANCH  14  16
ATOM     15  O   UNK A   1      -6.085   2.085  -0.413  0.00  0.00    +0.000 OA
ATOM     16  C   UNK A   1      -6.496   1.761  -0.730  0.00  0.00    +0.000 C 
BRANCH  16  17
ATOM     17  O   UNK A   1      -7.675   1.397  -0.104  0.00  0.00    +0.000 OA
ATOM     18  H   UNK A   1      -8.319   0.902  -0.569  0.00  0.00    +0.000 HD
ENDBRANCH  16  17
ENDBRANCH  14  16
ENDBRANCH  13  14
ENDBRANCH   8  13
ENDBRANCH   2   8
ENDBRANCH   1   5
BRANCH   1  19
ATOM     19  C   UNK A   1      -1.374   1.314   1.295  0.00  0.00    +0.000 C 
ATOM     20  O   UNK A   1      -1.339   1.634   2.527  0.00  0.00    +0.000 OA
BRANCH  19  21
ATOM     21  O   UNK A   1      -0.730   2.263   0.481  0.00  0.00    +0.000 OA
ATOM     22  H   UNK A   1      -0.691   2.135  -0.447  0.00  0.00    +0.000 HD
ENDBRANCH  19  21
ENDBRANCH   1  19
BRANCH   1  23
ATOM     23  C   UNK A   1      -0.926  -0.215  -0.472  0.00  0.00    +0.000 C 
BRANCH  23  24
ATOM     24  C   UNK A   1      -0.239  -1.478  -0.923  0.00  0.00    +0.000 C 
BRANCH  24  25
ATOM     25  C   UNK A   1       1.240  -1.215  -1.058  0.00  0.00    +0.000 C 
BRANCH  25  26
ATOM     26  C   UNK A   1       1.516   0.194  -1.492  0.00  0.00    +0.000 C 
BRANCH  26  27
ATOM     27  N   UNK A   1       2.427   0.777  -0.508  0.00  0.00    +0.000 N 
ATOM     28  C   UNK A   1       3.412  -0.015   0.165  0.00  0.00    +0.000 C 
ATOM     29  O   UNK A   1       3.320  -1.280   0.128  0.00  0.00    +0.000 OA
ATOM     30  N   UNK A   1       4.670   0.466   0.574  0.00  0.00    +0.000 N 
ATOM     31  H   UNK A   1       2.361   1.738  -0.304  0.00  0.00    +0.000 HD
ATOM     32  H   UNK A   1       4.698   1.265   1.148  0.00  0.00    +0.000 HD
BRANCH  30  33
ATOM     33  C   UNK A   1       5.915  -0.144   0.201  0.00  0.00    +0.000 A 
ATOM     34  C   UNK A   1       6.493   0.198  -1.017  0.00  0.00    +0.000 A 
ATOM     35  C   UNK A   1       7.833   0.524  -1.142  0.00  0.00    +0.000 A 
ATOM     36  C   UNK A   1       8.669   0.405  -0.045  0.00  0.00    +0.000 A 
ATOM     37  I   UNK A   1      10.221   1.790   0.338  0.00  0.00    +0.000 I 
ATOM     38  C   UNK A   1       8.164  -0.340   1.014  0.00  0.00    +0.000 A 
ATOM     39  C   UNK A   1       6.806  -0.594   1.156  0.00  0.00    +0.000 A 
ENDBRANCH  30  33
ENDBRANCH  26  27
ENDBRANCH  25  26
ENDBRANCH  24  25
ENDBRANCH  23  24
ENDBRANCH   1  23
TORSDOF 16
