REMARK  Name = 11678534
REMARK  14 active torsions:
REMARK  status: ('A' for Active; 'I' for Inactive)
REMARK    1  A    between atoms: O_4  and  C_24
REMARK    2  A    between atoms: O_4  and  C_28
REMARK    3  A    between atoms: O_5  and  C_20
REMARK    4  A    between atoms: O_5  and  C_37
REMARK    5  A    between atoms: O_7  and  C_34
REMARK    6  A    between atoms: O_7  and  C_38
REMARK    7  A    between atoms: O_8  and  C_36
REMARK    8  A    between atoms: N_10  and  C_15
REMARK    9  A    between atoms: C_12  and  C_18
REMARK   10  A    between atoms: C_14  and  C_19
REMARK   11  A    between atoms: C_19  and  C_25
REMARK   12  A    between atoms: C_28  and  C_31
REMARK   13  A    between atoms: C_28  and  C_36
REMARK   14  A    between atoms: C_31  and  C_35
REMARK                            x       y       z     vdW  Elec       q    Type
REMARK                         _______ _______ _______ _____ _____    ______ ____
ROOT
ATOM      1  N   UNL     1      -0.122   1.447  -0.884  0.00  0.00    +0.000 N 
ATOM      2  C   UNL     1       0.119   0.155  -1.292  0.00  0.00    +0.000 A 
ATOM      3  C   UNL     1       1.060   2.115  -0.706  0.00  0.00    +0.000 A 
ATOM      4  C   UNL     1       1.505   0.002  -1.375  0.00  0.00    +0.000 A 
ATOM      5  C   UNL     1       2.085   1.247  -1.002  0.00  0.00    +0.000 A 
ATOM      6  C   UNL     1      -0.774  -0.880  -1.592  0.00  0.00    +0.000 A 
ATOM      7  C   UNL     1       2.027  -1.244  -1.776  0.00  0.00    +0.000 A 
ATOM      8  C   UNL     1       1.114   3.529  -0.267  0.00  0.00    +0.000 C 
ATOM      9  C   UNL     1      -0.233  -2.107  -1.988  0.00  0.00    +0.000 A 
ATOM     10  C   UNL     1       1.146  -2.288  -2.079  0.00  0.00    +0.000 A 
ENDROOT
BRANCH   1  11
ATOM     11  C   UNL     1      -1.392   2.000  -0.681  0.00  0.00    +0.000 A 
ATOM     12  C   UNL     1      -2.254   1.441   0.262  0.00  0.00    +0.000 A 
ATOM     13  C   UNL     1      -1.794   3.112  -1.421  0.00  0.00    +0.000 A 
ATOM     14  C   UNL     1      -3.519   1.993   0.465  0.00  0.00    +0.000 A 
ATOM     15  C   UNL     1      -3.059   3.664  -1.218  0.00  0.00    +0.000 A 
ATOM     16  C   UNL     1      -3.921   3.104  -0.275  0.00  0.00    +0.000 A 
BRANCH  14  17
ATOM     17  O   UNL     1      -4.361   1.446   1.383  0.00  0.00    +0.000 OA
BRANCH  17  18
ATOM     18  C   UNL     1      -4.737   0.084   1.190  0.00  0.00    +0.000 C 
BRANCH  18  20
ATOM     19  O   UNL     1      -3.652  -0.290   3.338  0.00  0.00    +0.000 OA
ATOM     20  C   UNL     1      -4.230  -0.736   2.357  0.00  0.00    +0.000 C 
BRANCH  20  21
ATOM     21  O   UNL     1      -4.472  -2.057   2.164  0.00  0.00    +0.000 OA
ATOM     22  H   UNL     1      -4.136  -2.603   2.906  0.00  0.00    +0.000 HD
ENDBRANCH  20  21
ENDBRANCH  18  20
BRANCH  18  23
ATOM     23  C   UNL     1      -6.255  -0.004   1.021  0.00  0.00    +0.000 C 
ATOM     24  C   UNL     1      -7.038   0.488   2.233  0.00  0.00    +0.000 C 
ENDBRANCH  18  23
ENDBRANCH  17  18
ENDBRANCH  14  17
ENDBRANCH   1  11
BRANCH   5  26
ATOM     25  O   UNL     1       4.004   2.479  -1.615  0.00  0.00    +0.000 OA
ATOM     26  C   UNL     1       3.481   1.580  -0.933  0.00  0.00    +0.000 C 
BRANCH  26  27
ATOM     27  C   UNL     1       4.406   0.836  -0.026  0.00  0.00    +0.000 A 
ATOM     28  C   UNL     1       5.750   0.689  -0.368  0.00  0.00    +0.000 A 
ATOM     29  C   UNL     1       3.924   0.287   1.163  0.00  0.00    +0.000 A 
ATOM     30  C   UNL     1       6.613  -0.006   0.479  0.00  0.00    +0.000 A 
ATOM     31  C   UNL     1       4.787  -0.408   2.010  0.00  0.00    +0.000 A 
ATOM     32  C   UNL     1       6.132  -0.555   1.668  0.00  0.00    +0.000 A 
BRANCH  32  33
ATOM     33  O   UNL     1       6.974  -1.235   2.493  0.00  0.00    +0.000 OA
ATOM     34  C   UNL     1       6.415  -1.772   3.691  0.00  0.00    +0.000 C 
ENDBRANCH  32  33
ENDBRANCH  26  27
ENDBRANCH   5  26
BRANCH   9  35
ATOM     35  O   UNL     1      -1.069  -3.141  -2.289  0.00  0.00    +0.000 OA
BRANCH  35  39
ATOM     36  F   UNL     1      -1.415  -3.434  -0.048  0.00  0.00    +0.000 F 
ATOM     37  F   UNL     1      -2.151  -4.935  -1.455  0.00  0.00    +0.000 F 
ATOM     38  F   UNL     1      -3.147  -2.993  -1.347  0.00  0.00    +0.000 F 
ATOM     39  C   UNL     1      -1.949  -3.610  -1.275  0.00  0.00    +0.000 C 
ENDBRANCH  35  39
ENDBRANCH   9  35
TORSDOF 11
