REMARK  Name = 
REMARK  16 active torsions:
REMARK  status: ('A' for Active; 'I' for Inactive)
REMARK    1  A    between atoms: O_1  and  C_2
REMARK    2  A    between atoms: C_2  and  C_4
REMARK    3  A    between atoms: C_4  and  C_5
REMARK    4  A    between atoms: C_5  and  C_6
REMARK    5  A    between atoms: C_6  and  N_7
REMARK    6  A    between atoms: C_6  and  C_29
REMARK    7  A    between atoms: N_10  and  C_11
REMARK    8  A    between atoms: C_11  and  C_12
REMARK    9  A    between atoms: C_11  and  C_26
REMARK   10  A    between atoms: C_12  and  C_13
REMARK   11  A    between atoms: C_13  and  C_14
REMARK   12  A    between atoms: C_14  and  C_15
REMARK   13  A    between atoms: C_15  and  N_16
REMARK   14  A    between atoms: C_17  and  C_19
REMARK   15  A    between atoms: C_26  and  O_27
REMARK   16  A    between atoms: C_29  and  O_30
REMARK                            x       y       z     vdW  Elec       q    Type
REMARK                         _______ _______ _______ _____ _____    ______ ____
ROOT
ATOM      1  C   UNK A   1       9.288  -8.662   0.000  0.00  0.00    +0.000 C 
ENDROOT
BRANCH   1   5
ATOM      2  N   UNK A   1       7.145  -9.075   0.000  0.00  0.00    +0.000 N 
ATOM      3  C   UNK A   0       7.859  -8.662   0.000  0.00  0.00    +0.000 C 
ATOM      4  O   UNK A   0       7.859  -7.838   0.000  0.00  0.00    +0.000 OA
ATOM      5  N   UNK A   1       8.574  -9.075   0.000  0.00  0.00    +0.000 N 
ATOM      6  H   UNK A   1       7.145 -10.059   0.000  0.00  0.00    +0.000 HD
ATOM      7  H   UNK A   1       8.574 -10.059   0.000  0.00  0.00    +0.000 HD
BRANCH   2   8
ATOM      8  C   UNK A   1       6.430  -8.662   0.000  0.00  0.00    +0.000 C 
BRANCH   8   9
ATOM      9  C   UNK A   1       6.430  -7.838   0.000  0.00  0.00    +0.000 C 
ATOM     10  O   UNK A   1       5.716  -7.425   0.000  0.00  0.00    +0.000 OA
BRANCH   9  11
ATOM     11  O   UNK A   1       7.145  -7.425   0.000  0.00  0.00    +0.000 OA
ATOM     12  H   UNK A   1       7.956  -7.894   0.000  0.00  0.00    +0.000 HD
ENDBRANCH   9  11
ENDBRANCH   8   9
BRANCH   8  13
ATOM     13  C   UNK A   1       5.716  -9.075   0.000  0.00  0.00    +0.000 C 
BRANCH  13  14
ATOM     14  C   UNK A   1       5.001  -8.662   0.000  0.00  0.00    +0.000 C 
BRANCH  14  15
ATOM     15  C   UNK A   1       4.287  -9.075   0.000  0.00  0.00    +0.000 C 
ATOM     16  O   UNK A   1       4.287  -9.900   0.000  0.00  0.00    +0.000 OA
BRANCH  15  17
ATOM     17  O   UNK A   1       3.572  -8.662   0.000  0.00  0.00    +0.000 OA
ATOM     18  H   UNK A   1       3.572  -7.726   0.000  0.00  0.00    +0.000 HD
ENDBRANCH  15  17
ENDBRANCH  14  15
ENDBRANCH  13  14
ENDBRANCH   8  13
ENDBRANCH   2   8
ENDBRANCH   1   5
BRANCH   1  19
ATOM     19  C   UNK A   1       9.288  -7.838   0.000  0.00  0.00    +0.000 C 
ATOM     20  O   UNK A   1       8.574  -7.425   0.000  0.00  0.00    +0.000 OA
BRANCH  19  21
ATOM     21  O   UNK A   1      10.003  -7.425   0.000  0.00  0.00    +0.000 OA
ATOM     22  H   UNK A   1      10.814  -7.894   0.000  0.00  0.00    +0.000 HD
ENDBRANCH  19  21
ENDBRANCH   1  19
BRANCH   1  23
ATOM     23  C   UNK A   1      10.003  -9.075   0.000  0.00  0.00    +0.000 C 
BRANCH  23  24
ATOM     24  C   UNK A   1      10.717  -8.662   0.000  0.00  0.00    +0.000 C 
BRANCH  24  25
ATOM     25  C   UNK A   1      11.431  -9.075   0.000  0.00  0.00    +0.000 C 
BRANCH  25  26
ATOM     26  C   UNK A   1      12.146  -8.662   0.000  0.00  0.00    +0.000 C 
BRANCH  26  27
ATOM     27  N   UNK A   1      12.861  -9.075   0.000  0.00  0.00    +0.000 N 
ATOM     28  C   UNK A   1      13.575  -8.662   0.000  0.00  0.00    +0.000 C 
ATOM     29  O   UNK A   1      13.575  -7.838   0.000  0.00  0.00    +0.000 OA
ATOM     30  H   UNK A   1      12.861 -10.059   0.000  0.00  0.00    +0.000 HD
BRANCH  28  31
ATOM     31  C   UNK A   1      14.289  -9.075   0.000  0.00  0.00    +0.000 A 
ATOM     32  C   UNK A   1      15.004  -8.662   0.000  0.00  0.00    +0.000 A 
ATOM     33  C   UNK A   1      15.718  -9.075   0.000  0.00  0.00    +0.000 A 
ATOM     34  C   UNK A   1      15.718  -9.900   0.000  0.00  0.00    +0.000 A 
ATOM     35  F   UNK A   1      16.433 -10.312   0.000  0.00  0.00    +0.000 F 
ATOM     36  N   UNK A   1      15.004 -10.312   0.000  0.00  0.00    +0.000 NA
ATOM     37  C   UNK A   1      14.289  -9.900   0.000  0.00  0.00    +0.000 A 
ENDBRANCH  28  31
ENDBRANCH  26  27
ENDBRANCH  25  26
ENDBRANCH  24  25
ENDBRANCH  23  24
ENDBRANCH   1  23
TORSDOF 16
