REMARK  Name = 
REMARK  22 active torsions:
REMARK  status: ('A' for Active; 'I' for Inactive)
REMARK    1  A    between atoms: CG1_1  and  CB_2
REMARK    2  A    between atoms: CB_2  and  CG2_3
REMARK    3  A    between atoms: CB_2  and  CA_4
REMARK    4  A    between atoms: CA_4  and  N_5
REMARK    5  A    between atoms: CA_4  and  C_31
REMARK    6  A    between atoms: C_6  and  CA_8
REMARK    7  A    between atoms: CA_8  and  CB_9
REMARK    8  A    between atoms: CA_8  and  N_16
REMARK    9  A    between atoms: CB_9  and  CG_10
REMARK   10  A    between atoms: CG_10  and  CD_11
REMARK   11  A    between atoms: CD_11  and  NE_12
REMARK   12  A    between atoms: N_19  and  CA_20
REMARK   13  A    between atoms: CA_20  and  CB_21
REMARK   14  A    between atoms: CA_20  and  C_28
REMARK   15  A    between atoms: CB_21  and  CG_22
REMARK   16  A    between atoms: C_28  and  OXT_30
REMARK   17  A    between atoms: N_33  and  CA_34
REMARK   18  A    between atoms: CA_34  and  C_35
REMARK   19  A    between atoms: CA_34  and  CB_37
REMARK   20  A    between atoms: CB_37  and  CG_38
REMARK   21  A    between atoms: CG_38  and  CD_39
REMARK   22  A    between atoms: CD_39  and  NE_40
REMARK                            x       y       z     vdW  Elec       q    Type
REMARK                         _______ _______ _______ _____ _____    ______ ____
ROOT
ATOM      1  CA  PHE A   1      -0.772  -1.847  -0.703  0.00  0.00    +0.000 C 
ENDROOT
BRANCH   1   2
ATOM      2  N   PHE A   1      -1.970  -1.312   0.190  0.00  0.00    +0.000 N 
ATOM      3  C   UNK A   0      -3.264  -1.447  -0.363  0.00  0.00    +0.000 C 
ATOM      4  O   UNK A   0      -3.541  -2.264  -1.261  0.00  0.00    +0.000 OA
ATOM      5  N   PHE A   1      -4.271  -1.272   0.641  0.00  0.00    +0.000 N 
ATOM      6  H   PHE A   1      -1.821  -0.910   1.076  0.00  0.00    +0.000 HD
ATOM      7  H   PHE A   1      -4.076  -1.317   1.605  0.00  0.00    +0.000 HD
BRANCH   5   8
ATOM      8  CA  PHE A   1      -5.728  -0.998   0.069  0.00  0.00    +0.000 C 
BRANCH   8   9
ATOM      9  C   PHE A   1      -5.276   0.264  -0.860  0.00  0.00    +0.000 C 
ATOM     10  O   PHE A   1      -4.400   0.999  -0.390  0.00  0.00    +0.000 OA
BRANCH   9  11
ATOM     11  OXT PHE A   1      -5.294  -0.136  -2.202  0.00  0.00    +0.000 OA
ATOM     12  HXT PHE A   1      -5.978  -0.695  -2.516  0.00  0.00    +0.000 HD
ENDBRANCH   9  11
ENDBRANCH   8   9
BRANCH   8  13
ATOM     13  CB  PHE A   1      -6.084   0.007   1.347  0.00  0.00    +0.000 C 
BRANCH  13  14
ATOM     14  CG  PHE A   1      -7.264   0.762   0.883  0.00  0.00    +0.000 A 
ATOM     15  CD1 PHE A   1      -8.407   0.037   0.650  0.00  0.00    +0.000 A 
ATOM     16  CE1 PHE A   1      -9.537   0.671   0.187  0.00  0.00    +0.000 A 
ATOM     17  CZ  PHE A   1      -9.327   1.848  -0.496  0.00  0.00    +0.000 A 
ATOM     18  CE2 PHE A   1      -8.176   2.588  -0.320  0.00  0.00    +0.000 A 
ATOM     19  CD2 PHE A   1      -7.276   2.113   0.624  0.00  0.00    +0.000 A 
ENDBRANCH  13  14
ENDBRANCH   8  13
ENDBRANCH   5   8
ENDBRANCH   1   2
BRANCH   1  21
ATOM     20  N   PHE A   1       1.606  -1.383   0.177  0.00  0.00    +0.000 N 
ATOM     21  C   PHE A   1       0.273  -1.652   0.535  0.00  0.00    +0.000 C 
ATOM     22  O   PHE A   1      -0.058  -2.379   1.521  0.00  0.00    +0.000 OA
ATOM     23  H   PHE A   1       1.902  -0.946  -0.654  0.00  0.00    +0.000 HD
BRANCH  20  24
ATOM     24  CA  PHE A   1       2.557  -1.906   1.346  0.00  0.00    +0.000 C 
BRANCH  24  25
ATOM     25  C   PHE A   1       3.638  -0.720   1.097  0.00  0.00    +0.000 C 
ATOM     26  O   PHE A   1       3.264   0.383   1.576  0.00  0.00    +0.000 OA
ATOM     27  N   ARG A   2       4.485  -0.736   0.018  0.00  0.00    +0.000 N 
ATOM     28  H   ARG A   2       4.310  -1.179  -0.844  0.00  0.00    +0.000 HD
BRANCH  27  29
ATOM     29  CA  ARG A   2       5.798   0.081   0.395  0.00  0.00    +0.000 C 
BRANCH  29  30
ATOM     30  C   ARG A   2       5.046   1.503   0.116  0.00  0.00    +0.000 C 
ATOM     31  O   ARG A   2       5.422   2.268   1.004  0.00  0.00    +0.000 OA
ENDBRANCH  29  30
BRANCH  29  32
ATOM     32  CB  ARG A   2       6.354   0.010  -1.166  0.00  0.00    +0.000 C 
BRANCH  32  33
ATOM     33  CG  ARG A   2       7.131  -1.276  -1.164  0.00  0.00    +0.000 C 
BRANCH  33  34
ATOM     34  CD  ARG A   2       7.727  -1.562   0.187  0.00  0.00    +0.000 C 
BRANCH  34  35
ATOM     35  NE  ARG A   2       8.473  -0.456   0.727  0.00  0.00    +0.000 NA
ATOM     36  CZ  ARG A   2       9.217   0.331   0.023  0.00  0.00    +0.000 C 
ATOM     37  NH1 ARG A   2       9.243   1.690   0.444  0.00  0.00    +0.000 N 
ATOM     38  NH2 ARG A   2      10.267  -0.154  -0.784  0.00  0.00    +0.000 N 
ATOM     39 HH11 ARG A   2       8.518   2.045   1.008  0.00  0.00    +0.000 HD
ATOM     40 HH12 ARG A   2       9.987   2.275   0.172  0.00  0.00    +0.000 HD
ATOM     41 HH21 ARG A   2      10.264  -1.091  -1.085  0.00  0.00    +0.000 HD
ATOM     42 HH22 ARG A   2      11.002   0.445  -1.047  0.00  0.00    +0.000 HD
ENDBRANCH  34  35
ENDBRANCH  33  34
ENDBRANCH  32  33
ENDBRANCH  29  32
ENDBRANCH  27  29
ENDBRANCH  24  25
BRANCH  24  44
ATOM     43  CG1 PHE A   1       3.391  -2.687  -0.296  0.00  0.00    +0.000 C 
ATOM     44  CB  PHE A   1       3.276  -3.006   0.325  0.00  0.00    +0.000 C 
ATOM     45  CG2 PHE A   1       2.202  -4.090   0.300  0.00  0.00    +0.000 C 
ENDBRANCH  24  44
ENDBRANCH  20  24
ENDBRANCH   1  21
BRANCH   1  46
ATOM     46  CB  PHE A   1      -0.441  -0.340  -1.318  0.00  0.00    +0.000 C 
BRANCH  46  47
ATOM     47  CG  PHE A   1      -0.508   0.572  -0.147  0.00  0.00    +0.000 C 
BRANCH  47  48
ATOM     48  CD  PHE A   1      -0.028   1.932  -0.319  0.00  0.00    +0.000 C 
BRANCH  48  49
ATOM     49  NE  PHE A   1      -1.018   2.847   0.242  0.00  0.00    +0.000 NA
ATOM     50  CZ  PHE A   1      -1.818   3.415  -0.609  0.00  0.00    +0.000 C 
ATOM     51  NH1 PHE A   1      -2.616   2.552  -1.428  0.00  0.00    +0.000 N 
ATOM     52  NH2 PHE A   1      -2.297   4.748  -0.431  0.00  0.00    +0.000 N 
ATOM     53 HH11 PHE A   1      -2.332   1.622  -1.585  0.00  0.00    +0.000 HD
ATOM     54 HH12 PHE A   1      -3.447   2.888  -1.834  0.00  0.00    +0.000 HD
ATOM     55 HH21 PHE A   1      -1.789   5.384   0.122  0.00  0.00    +0.000 HD
ATOM     56 HH22 PHE A   1      -3.136   5.031  -0.862  0.00  0.00    +0.000 HD
ENDBRANCH  48  49
ENDBRANCH  47  48
ENDBRANCH  46  47
ENDBRANCH   1  46
TORSDOF 20
