REMARK  Name = 91667962
REMARK  18 active torsions:
REMARK  status: ('A' for Active; 'I' for Inactive)
REMARK    1  A    between atoms: P_1  and  O_13
REMARK    2  A    between atoms: P_1  and  O_19
REMARK    3  A    between atoms: P_2  and  O_14
REMARK    4  A    between atoms: P_2  and  O_20
REMARK    5  A    between atoms: P_3  and  O_15
REMARK    6  A    between atoms: P_3  and  O_21
REMARK    7  A    between atoms: P_4  and  O_16
REMARK    8  A    between atoms: P_4  and  O_22
REMARK    9  A    between atoms: P_5  and  O_17
REMARK   10  A    between atoms: P_5  and  O_23
REMARK   11  A    between atoms: P_6  and  O_18
REMARK   12  A    between atoms: P_6  and  O_24
REMARK   13  A    between atoms: O_13  and  C_37
REMARK   14  A    between atoms: O_14  and  C_38
REMARK   15  A    between atoms: O_15  and  C_39
REMARK   16  A    between atoms: O_16  and  C_40
REMARK   17  A    between atoms: O_17  and  C_41
REMARK   18  A    between atoms: O_18  and  C_42
REMARK                            x       y       z     vdW  Elec       q    Type
REMARK                         _______ _______ _______ _____ _____    ______ ____
ROOT
ATOM      1  C   UNL     1       4.852  -0.616   0.000  0.00  0.00    +0.000 C 
ATOM      2  C   UNL     1       5.718  -1.116   0.000  0.00  0.00    +0.000 C 
ATOM      3  C   UNL     1       4.852   0.384   0.000  0.00  0.00    +0.000 C 
ATOM      4  C   UNL     1       6.584  -0.616   0.000  0.00  0.00    +0.000 C 
ATOM      5  C   UNL     1       5.718   0.884   0.000  0.00  0.00    +0.000 C 
ATOM      6  C   UNL     1       6.584   0.384   0.000  0.00  0.00    +0.000 C 
ENDROOT
BRANCH   1   7
ATOM      7  O   UNL     1       3.986  -1.116   0.000  0.00  0.00    +0.000 OA
BRANCH   7   8
ATOM      8  P   UNL     1       3.120  -0.616   0.000  0.00  0.00    +0.000 P 
ATOM      9  O   UNL     1       3.620   0.250   0.000  0.00  0.00    +0.000 OA
ATOM     10  O   UNL     1       2.254  -0.116   0.000  0.00  0.00    +0.000 OA
BRANCH   8  11
ATOM     11  O   UNL     1       2.620  -1.482   0.000  0.00  0.00    +0.000 OA
ATOM     12  H   UNL     1       2.000  -1.482   0.000  0.00  0.00    +0.000 HD
ENDBRANCH   8  11
ENDBRANCH   7   8
ENDBRANCH   1   7
BRANCH   2  13
ATOM     13  O   UNL     1       5.718  -2.116   0.000  0.00  0.00    +0.000 OA
BRANCH  13  14
ATOM     14  P   UNL     1       4.852  -2.616   0.000  0.00  0.00    +0.000 P 
ATOM     15  O   UNL     1       3.986  -3.116   0.000  0.00  0.00    +0.000 OA
ATOM     16  O   UNL     1       4.352  -1.750   0.000  0.00  0.00    +0.000 OA
BRANCH  14  17
ATOM     17  O   UNL     1       5.352  -3.482   0.000  0.00  0.00    +0.000 OA
ATOM     18  H   UNL     1       5.042  -4.019   0.000  0.00  0.00    +0.000 HD
ENDBRANCH  14  17
ENDBRANCH  13  14
ENDBRANCH   2  13
BRANCH   3  19
ATOM     19  O   UNL     1       3.986   0.884   0.000  0.00  0.00    +0.000 OA
BRANCH  19  20
ATOM     20  P   UNL     1       3.986   1.884   0.000  0.00  0.00    +0.000 P 
ATOM     21  O   UNL     1       2.986   1.884   0.000  0.00  0.00    +0.000 OA
ATOM     22  O   UNL     1       4.986   1.884   0.000  0.00  0.00    +0.000 OA
BRANCH  20  23
ATOM     23  O   UNL     1       3.986   2.884   0.000  0.00  0.00    +0.000 OA
ATOM     24  H   UNL     1       3.449   3.194   0.000  0.00  0.00    +0.000 HD
ENDBRANCH  20  23
ENDBRANCH  19  20
ENDBRANCH   3  19
BRANCH   4  25
ATOM     25  O   UNL     1       7.450  -1.116   0.000  0.00  0.00    +0.000 OA
BRANCH  25  26
ATOM     26  P   UNL     1       7.450  -2.116   0.000  0.00  0.00    +0.000 P 
ATOM     27  O   UNL     1       8.450  -2.116   0.000  0.00  0.00    +0.000 OA
ATOM     28  O   UNL     1       6.450  -2.116   0.000  0.00  0.00    +0.000 OA
BRANCH  26  29
ATOM     29  O   UNL     1       7.450  -3.116   0.000  0.00  0.00    +0.000 OA
ATOM     30  H   UNL     1       7.987  -3.426   0.000  0.00  0.00    +0.000 HD
ENDBRANCH  26  29
ENDBRANCH  25  26
ENDBRANCH   4  25
BRANCH   5  31
ATOM     31  O   UNL     1       5.718   1.884   0.000  0.00  0.00    +0.000 OA
BRANCH  31  32
ATOM     32  P   UNL     1       6.584   2.384   0.000  0.00  0.00    +0.000 P 
ATOM     33  O   UNL     1       6.084   3.250   0.000  0.00  0.00    +0.000 OA
ATOM     34  O   UNL     1       7.084   1.518   0.000  0.00  0.00    +0.000 OA
BRANCH  32  35
ATOM     35  O   UNL     1       7.450   2.884   0.000  0.00  0.00    +0.000 OA
ATOM     36  H   UNL     1       7.450   3.504   0.000  0.00  0.00    +0.000 HD
ENDBRANCH  32  35
ENDBRANCH  31  32
ENDBRANCH   5  31
BRANCH   6  37
ATOM     37  O   UNL     1       7.450   0.884   0.000  0.00  0.00    +0.000 OA
BRANCH  37  38
ATOM     38  P   UNL     1       8.316   0.384   0.000  0.00  0.00    +0.000 P 
ATOM     39  O   UNL     1       8.816   1.250   0.000  0.00  0.00    +0.000 OA
ATOM     40  O   UNL     1       7.816  -0.482   0.000  0.00  0.00    +0.000 OA
BRANCH  38  41
ATOM     41  O   UNL     1       9.182  -0.116   0.000  0.00  0.00    +0.000 OA
ATOM     42  H   UNL     1       9.719   0.194   0.000  0.00  0.00    +0.000 HD
ENDBRANCH  38  41
ENDBRANCH  37  38
ENDBRANCH   6  37
TORSDOF 18
REMARK  Name = 91667962
REMARK  18 active torsions:
REMARK  status: ('A' for Active; 'I' for Inactive)
REMARK    1  A    between atoms: P_1  and  O_13
REMARK    2  A    between atoms: P_1  and  O_19
REMARK    3  A    between atoms: P_2  and  O_14
REMARK    4  A    between atoms: P_2  and  O_20
REMARK    5  A    between atoms: P_3  and  O_15
REMARK    6  A    between atoms: P_3  and  O_21
REMARK    7  A    between atoms: P_4  and  O_16
REMARK    8  A    between atoms: P_4  and  O_22
REMARK    9  A    between atoms: P_5  and  O_17
REMARK   10  A    between atoms: P_5  and  O_23
REMARK   11  A    between atoms: P_6  and  O_18
REMARK   12  A    between atoms: P_6  and  O_24
REMARK   13  A    between atoms: O_13  and  C_37
REMARK   14  A    between atoms: O_14  and  C_38
REMARK   15  A    between atoms: O_15  and  C_39
REMARK   16  A    between atoms: O_16  and  C_40
REMARK   17  A    between atoms: O_17  and  C_41
REMARK   18  A    between atoms: O_18  and  C_42
REMARK                            x       y       z     vdW  Elec       q    Type
REMARK                         _______ _______ _______ _____ _____    ______ ____
ROOT
ATOM      1 NA   UNL     1       8.950  -2.982   0.000  0.00  0.00    +0.000 Na
ENDROOT
TORSDOF 0
REMARK  Name = 91667962
REMARK  18 active torsions:
REMARK  status: ('A' for Active; 'I' for Inactive)
REMARK    1  A    between atoms: P_1  and  O_13
REMARK    2  A    between atoms: P_1  and  O_19
REMARK    3  A    between atoms: P_2  and  O_14
REMARK    4  A    between atoms: P_2  and  O_20
REMARK    5  A    between atoms: P_3  and  O_15
REMARK    6  A    between atoms: P_3  and  O_21
REMARK    7  A    between atoms: P_4  and  O_16
REMARK    8  A    between atoms: P_4  and  O_22
REMARK    9  A    between atoms: P_5  and  O_17
REMARK   10  A    between atoms: P_5  and  O_23
REMARK   11  A    between atoms: P_6  and  O_18
REMARK   12  A    between atoms: P_6  and  O_24
REMARK   13  A    between atoms: O_13  and  C_37
REMARK   14  A    between atoms: O_14  and  C_38
REMARK   15  A    between atoms: O_15  and  C_39
REMARK   16  A    between atoms: O_16  and  C_40
REMARK   17  A    between atoms: O_17  and  C_41
REMARK   18  A    between atoms: O_18  and  C_42
REMARK                            x       y       z     vdW  Elec       q    Type
REMARK                         _______ _______ _______ _____ _____    ______ ____
ROOT
ATOM      1 NA   UNL     1       6.584   4.116   0.000  0.00  0.00    +0.000 Na
ENDROOT
TORSDOF 0
REMARK  Name = 91667962
REMARK  18 active torsions:
REMARK  status: ('A' for Active; 'I' for Inactive)
REMARK    1  A    between atoms: P_1  and  O_13
REMARK    2  A    between atoms: P_1  and  O_19
REMARK    3  A    between atoms: P_2  and  O_14
REMARK    4  A    between atoms: P_2  and  O_20
REMARK    5  A    between atoms: P_3  and  O_15
REMARK    6  A    between atoms: P_3  and  O_21
REMARK    7  A    between atoms: P_4  and  O_16
REMARK    8  A    between atoms: P_4  and  O_22
REMARK    9  A    between atoms: P_5  and  O_17
REMARK   10  A    between atoms: P_5  and  O_23
REMARK   11  A    between atoms: P_6  and  O_18
REMARK   12  A    between atoms: P_6  and  O_24
REMARK   13  A    between atoms: O_13  and  C_37
REMARK   14  A    between atoms: O_14  and  C_38
REMARK   15  A    between atoms: O_15  and  C_39
REMARK   16  A    between atoms: O_16  and  C_40
REMARK   17  A    between atoms: O_17  and  C_41
REMARK   18  A    between atoms: O_18  and  C_42
REMARK                            x       y       z     vdW  Elec       q    Type
REMARK                         _______ _______ _______ _____ _____    ______ ____
ROOT
ATOM      1 NA   UNL     1       2.486   2.750   0.000  0.00  0.00    +0.000 Na
ENDROOT
TORSDOF 0
REMARK  Name = 91667962
REMARK  18 active torsions:
REMARK  status: ('A' for Active; 'I' for Inactive)
REMARK    1  A    between atoms: P_1  and  O_13
REMARK    2  A    between atoms: P_1  and  O_19
REMARK    3  A    between atoms: P_2  and  O_14
REMARK    4  A    between atoms: P_2  and  O_20
REMARK    5  A    between atoms: P_3  and  O_15
REMARK    6  A    between atoms: P_3  and  O_21
REMARK    7  A    between atoms: P_4  and  O_16
REMARK    8  A    between atoms: P_4  and  O_22
REMARK    9  A    between atoms: P_5  and  O_17
REMARK   10  A    between atoms: P_5  and  O_23
REMARK   11  A    between atoms: P_6  and  O_18
REMARK   12  A    between atoms: P_6  and  O_24
REMARK   13  A    between atoms: O_13  and  C_37
REMARK   14  A    between atoms: O_14  and  C_38
REMARK   15  A    between atoms: O_15  and  C_39
REMARK   16  A    between atoms: O_16  and  C_40
REMARK   17  A    between atoms: O_17  and  C_41
REMARK   18  A    between atoms: O_18  and  C_42
REMARK                            x       y       z     vdW  Elec       q    Type
REMARK                         _______ _______ _______ _____ _____    ______ ____
ROOT
ATOM      1 NA   UNL     1       3.986  -4.116   0.000  0.00  0.00    +0.000 Na
ENDROOT
TORSDOF 0
REMARK  Name = 91667962
REMARK  18 active torsions:
REMARK  status: ('A' for Active; 'I' for Inactive)
REMARK    1  A    between atoms: P_1  and  O_13
REMARK    2  A    between atoms: P_1  and  O_19
REMARK    3  A    between atoms: P_2  and  O_14
REMARK    4  A    between atoms: P_2  and  O_20
REMARK    5  A    between atoms: P_3  and  O_15
REMARK    6  A    between atoms: P_3  and  O_21
REMARK    7  A    between atoms: P_4  and  O_16
REMARK    8  A    between atoms: P_4  and  O_22
REMARK    9  A    between atoms: P_5  and  O_17
REMARK   10  A    between atoms: P_5  and  O_23
REMARK   11  A    between atoms: P_6  and  O_18
REMARK   12  A    between atoms: P_6  and  O_24
REMARK   13  A    between atoms: O_13  and  C_37
REMARK   14  A    between atoms: O_14  and  C_38
REMARK   15  A    between atoms: O_15  and  C_39
REMARK   16  A    between atoms: O_16  and  C_40
REMARK   17  A    between atoms: O_17  and  C_41
REMARK   18  A    between atoms: O_18  and  C_42
REMARK                            x       y       z     vdW  Elec       q    Type
REMARK                         _______ _______ _______ _____ _____    ______ ____
ROOT
ATOM      1 NA   UNL     1       3.120   1.116   0.000  0.00  0.00    +0.000 Na
ENDROOT
TORSDOF 0
REMARK  Name = 91667962
REMARK  18 active torsions:
REMARK  status: ('A' for Active; 'I' for Inactive)
REMARK    1  A    between atoms: P_1  and  O_13
REMARK    2  A    between atoms: P_1  and  O_19
REMARK    3  A    between atoms: P_2  and  O_14
REMARK    4  A    between atoms: P_2  and  O_20
REMARK    5  A    between atoms: P_3  and  O_15
REMARK    6  A    between atoms: P_3  and  O_21
REMARK    7  A    between atoms: P_4  and  O_16
REMARK    8  A    between atoms: P_4  and  O_22
REMARK    9  A    between atoms: P_5  and  O_17
REMARK   10  A    between atoms: P_5  and  O_23
REMARK   11  A    between atoms: P_6  and  O_18
REMARK   12  A    between atoms: P_6  and  O_24
REMARK   13  A    between atoms: O_13  and  C_37
REMARK   14  A    between atoms: O_14  and  C_38
REMARK   15  A    between atoms: O_15  and  C_39
REMARK   16  A    between atoms: O_16  and  C_40
REMARK   17  A    between atoms: O_17  and  C_41
REMARK   18  A    between atoms: O_18  and  C_42
REMARK                            x       y       z     vdW  Elec       q    Type
REMARK                         _______ _______ _______ _____ _____    ______ ____
ROOT
ATOM      1 NA   UNL     1       9.816   1.250   0.000  0.00  0.00    +0.000 Na
ENDROOT
TORSDOF 0
