REMARK  Name = 
REMARK  24 active torsions:
REMARK  status: ('A' for Active; 'I' for Inactive)
REMARK    1  A    between atoms: CD1_1  and  CG1_2
REMARK    2  A    between atoms: CG1_2  and  CB_3
REMARK    3  A    between atoms: CB_3  and  CG2_4
REMARK    4  A    between atoms: CB_3  and  CA_5
REMARK    5  A    between atoms: CA_5  and  N_6
REMARK    6  A    between atoms: CA_5  and  C_19
REMARK    7  A    between atoms: C_7  and  CA_9
REMARK    8  A    between atoms: CA_9  and  N_10
REMARK    9  A    between atoms: CA_9  and  CB_11
REMARK   10  A    between atoms: CB_11  and  CG_12
REMARK   11  A    between atoms: CZ_15  and  OH_16
REMARK   12  A    between atoms: N_21  and  CA_22
REMARK   13  A    between atoms: CA_22  and  C_23
REMARK   14  A    between atoms: N_25  and  CA_26
REMARK   15  A    between atoms: CA_26  and  CB_27
REMARK   16  A    between atoms: CA_26  and  C_29
REMARK   17  A    between atoms: CB_27  and  OG_28
REMARK   18  A    between atoms: N_31  and  CA_32
REMARK   19  A    between atoms: CA_32  and  CB_33
REMARK   20  A    between atoms: CA_32  and  C_40
REMARK   21  A    between atoms: CB_33  and  CG_34
REMARK   22  A    between atoms: CG_34  and  CD_35
REMARK   23  A    between atoms: CD_35  and  NE_36
REMARK   24  A    between atoms: C_40  and  OXT_42
REMARK                            x       y       z     vdW  Elec       q    Type
REMARK                         _______ _______ _______ _____ _____    ______ ____
ROOT
ATOM      1  C   GLY A   3      -0.915   0.605   0.625  0.00  0.00    +0.000 C 
ATOM      2  O   GLY A   3      -1.671   1.485   1.179  0.00  0.00    +0.000 OA
ATOM      3  N   SER A   4      -1.758  -0.350   0.114  0.00  0.00    +0.000 N 
ATOM      4  H   SER A   4      -1.785  -1.247   0.519  0.00  0.00    +0.000 HD
ENDROOT
BRANCH   1   5
ATOM      5  CA  GLY A   3      -0.037   1.646   0.197  0.00  0.00    +0.000 C 
BRANCH   5   8
ATOM      6  C   ILE A   2       2.043   0.476  -0.235  0.00  0.00    +0.000 C 
ATOM      7  O   ILE A   2       1.423  -0.620  -0.421  0.00  0.00    +0.000 OA
ATOM      8  N   GLY A   3       1.214   1.582  -0.270  0.00  0.00    +0.000 N 
ATOM      9  H   GLY A   3       1.580   2.400  -0.677  0.00  0.00    +0.000 HD
BRANCH   6  10
ATOM     10  CA  ILE A   2       3.111   0.331   0.956  0.00  0.00    +0.000 C 
BRANCH  10  11
ATOM     11  N   ILE A   2       3.926  -0.700   0.113  0.00  0.00    +0.000 N 
ATOM     12  C   TYR A   1       3.530  -2.027   0.223  0.00  0.00    +0.000 C 
ATOM     13  O   TYR A   1       3.011  -2.401   1.323  0.00  0.00    +0.000 OA
ATOM     14  H   ILE A   2       4.677  -0.425  -0.463  0.00  0.00    +0.000 HD
BRANCH  12  15
ATOM     15  CA  TYR A   1       4.641  -3.153  -0.147  0.00  0.00    +0.000 C 
BRANCH  15  16
ATOM     16  N   TYR A   1       5.077  -2.394  -1.468  0.00  0.00    +0.000 NA
ATOM     17  H1  TYR A   1       5.201  -1.402  -1.264  0.00  0.00    +0.000 HD
ATOM     18  H2  TYR A   1       4.356  -2.508  -2.179  0.00  0.00    +0.000 HD
ENDBRANCH  15  16
BRANCH  15  19
ATOM     19  CB  TYR A   1       5.751  -2.498   0.871  0.00  0.00    +0.000 C 
BRANCH  19  20
ATOM     20  CG  TYR A   1       6.928  -2.051   0.164  0.00  0.00    +0.000 A 
ATOM     21  CD1 TYR A   1       6.864  -0.946  -0.651  0.00  0.00    +0.000 A 
ATOM     22  CE1 TYR A   1       7.826  -0.067  -0.936  0.00  0.00    +0.000 A 
ATOM     23  CZ  TYR A   1       8.803   0.082   0.022  0.00  0.00    +0.000 A 
ATOM     24  CE2 TYR A   1       8.954  -0.949   0.941  0.00  0.00    +0.000 A 
ATOM     25  CD2 TYR A   1       8.051  -2.006   0.995  0.00  0.00    +0.000 A 
BRANCH  23  26
ATOM     26  OH  TYR A   1       9.382   1.338   0.180  0.00  0.00    +0.000 OA
ATOM     27  HH  TYR A   1       9.250   2.000  -0.470  0.00  0.00    +0.000 HD
ENDBRANCH  23  26
ENDBRANCH  19  20
ENDBRANCH  15  19
ENDBRANCH  12  15
ENDBRANCH  10  11
BRANCH  10  28
ATOM     28  CB  ILE A   2       4.154   1.617   0.501  0.00  0.00    +0.000 C 
ATOM     29  CG2 ILE A   2       3.845   1.640  -1.091  0.00  0.00    +0.000 C 
BRANCH  28  31
ATOM     30  CD1 ILE A   2       3.401   3.799   0.596  0.00  0.00    +0.000 C 
ATOM     31  CG1 ILE A   2       3.083   2.780   0.863  0.00  0.00    +0.000 C 
ENDBRANCH  28  31
ENDBRANCH  10  28
ENDBRANCH   6  10
ENDBRANCH   5   8
ENDBRANCH   1   5
BRANCH   3  32
ATOM     32  CA  SER A   4      -2.681  -0.016  -1.117  0.00  0.00    +0.000 C 
BRANCH  32  33
ATOM     33  C   SER A   4      -3.969   0.495  -0.310  0.00  0.00    +0.000 C 
ATOM     34  O   SER A   4      -3.997   0.878   0.815  0.00  0.00    +0.000 OA
ATOM     35  N   ARG A   5      -4.893   0.973  -1.224  0.00  0.00    +0.000 N 
ATOM     36  H   ARG A   5      -4.778   0.805  -2.187  0.00  0.00    +0.000 HD
BRANCH  35  37
ATOM     37  CA  ARG A   5      -6.132   1.790  -0.692  0.00  0.00    +0.000 C 
BRANCH  37  38
ATOM     38  C   ARG A   5      -5.197   2.920   0.009  0.00  0.00    +0.000 C 
ATOM     39  O   ARG A   5      -4.487   3.545  -0.849  0.00  0.00    +0.000 OA
BRANCH  38  40
ATOM     40  OXT ARG A   5      -6.087   3.770   0.691  0.00  0.00    +0.000 OA
ATOM     41  HXT ARG A   5      -6.660   3.420   1.345  0.00  0.00    +0.000 HD
ENDBRANCH  38  40
ENDBRANCH  37  38
BRANCH  37  42
ATOM     42  CB  ARG A   5      -6.263   0.934   0.712  0.00  0.00    +0.000 C 
BRANCH  42  43
ATOM     43  CG  ARG A   5      -6.663  -0.444   0.386  0.00  0.00    +0.000 C 
BRANCH  43  44
ATOM     44  CD  ARG A   5      -7.140  -0.745  -0.958  0.00  0.00    +0.000 C 
BRANCH  44  45
ATOM     45  NE  ARG A   5      -8.454  -1.323  -1.044  0.00  0.00    +0.000 N 
ATOM     46  CZ  ARG A   5      -9.030  -1.911   0.128  0.00  0.00    +0.000 C 
ATOM     47  NH1 ARG A   5      -8.283  -2.776   0.715  0.00  0.00    +0.000 NA
ATOM     48  NH2 ARG A   5     -10.443  -1.847   0.349  0.00  0.00    +0.000 N 
ATOM     49  HE  ARG A   5      -8.950  -1.314  -1.894  0.00  0.00    +0.000 HD
ATOM     50  HH1 ARG A   5      -7.315  -2.791   0.539  0.00  0.00    +0.000 HD
ATOM     51 HH21 ARG A   5     -10.984  -1.170  -0.118  0.00  0.00    +0.000 HD
ATOM     52 HH22 ARG A   5     -10.873  -2.480   0.968  0.00  0.00    +0.000 HD
ENDBRANCH  44  45
ENDBRANCH  43  44
ENDBRANCH  42  43
ENDBRANCH  37  42
ENDBRANCH  35  37
ENDBRANCH  32  33
BRANCH  32  53
ATOM     53  CB  SER A   4      -3.267  -1.564  -1.205  0.00  0.00    +0.000 C 
BRANCH  53  54
ATOM     54  OG  SER A   4      -3.654  -1.898   0.068  0.00  0.00    +0.000 OA
ATOM     55  H   SER A   4      -2.893  -1.826   0.666  0.00  0.00    +0.000 HD
ENDBRANCH  53  54
ENDBRANCH  32  53
ENDBRANCH   3  32
TORSDOF 22
