REMARK  Name = 154104
REMARK  2 active torsions:
REMARK  status: ('A' for Active; 'I' for Inactive)
REMARK    1  A    between atoms: N_5  and  C_8
REMARK    2  A    between atoms: C_14  and  C_15
REMARK                            x       y       z     vdW  Elec       q    Type
REMARK                         _______ _______ _______ _____ _____    ______ ____
ROOT
ATOM      1  O   UNL     1      -0.433   2.509   0.527  0.00  0.00    +0.000 OA
ATOM      2  N   UNL     1      -1.033   0.425  -0.332  0.00  0.00    +0.000 N 
ATOM      3  C   UNL     1      -0.148   1.392   0.108  0.00  0.00    +0.000 C 
ATOM      4  H   UNL     1      -0.683  -0.480  -0.631  0.00  0.00    +0.000 HD
ENDROOT
BRANCH   3   8
ATOM      5  S   UNL     1       3.895  -2.194   0.195  0.00  0.00    +0.000 S 
ATOM      6  O   UNL     1       0.870  -1.371   0.367  0.00  0.00    +0.000 OA
ATOM      7  N   UNL     1       3.568   1.607  -0.264  0.00  0.00    +0.000 N 
ATOM      8  C   UNL     1       1.258   0.954   0.033  0.00  0.00    +0.000 A 
ATOM      9  C   UNL     1       1.696  -0.483   0.178  0.00  0.00    +0.000 A 
ATOM     10  C   UNL     1       2.214   1.879  -0.174  0.00  0.00    +0.000 A 
ATOM     11  C   UNL     1       3.131  -0.686   0.071  0.00  0.00    +0.000 A 
ATOM     12  C   UNL     1       4.027   0.338  -0.143  0.00  0.00    +0.000 A 
ATOM     13  C   UNL     1       5.368  -0.109  -0.209  0.00  0.00    +0.000 A 
ATOM     14  C   UNL     1       5.442  -1.478  -0.040  0.00  0.00    +0.000 A 
ATOM     15  H   UNL     1       4.175   2.406  -0.424  0.00  0.00    +0.000 HD
ENDBRANCH   3   8
BRANCH   2  18
ATOM     16  N   UNL     1      -4.324  -0.897  -1.038  0.00  0.00    +0.000 NA
ATOM     17  C   UNL     1      -3.118   0.212   0.983  0.00  0.00    +0.000 C 
ATOM     18  C   UNL     1      -2.461   0.622  -0.351  0.00  0.00    +0.000 C 
ATOM     19  C   UNL     1      -4.591   0.649   0.910  0.00  0.00    +0.000 C 
ATOM     20  C   UNL     1      -3.107  -1.322   1.101  0.00  0.00    +0.000 C 
ATOM     21  C   UNL     1      -3.133  -0.151  -1.504  0.00  0.00    +0.000 C 
ATOM     22  C   UNL     1      -5.239   0.035  -0.343  0.00  0.00    +0.000 C 
ATOM     23  C   UNL     1      -3.881  -1.932  -0.078  0.00  0.00    +0.000 C 
ENDBRANCH   2  18
TORSDOF 2
