REMARK  Name = 5287525
REMARK  3 active torsions:
REMARK  status: ('A' for Active; 'I' for Inactive)
REMARK    1  A    between atoms: C_9  and  C_11
REMARK    2  A    between atoms: C_10  and  C_12
REMARK    3  A    between atoms: C_18  and  C_22
REMARK                            x       y       z     vdW  Elec       q    Type
REMARK                         _______ _______ _______ _____ _____    ______ ____
ROOT
ATOM      1  N   UNL     1      -2.847  -0.876  -0.155  0.00  0.00    +0.000 N 
ATOM      2  N   UNL     1      -1.962  -1.865  -0.097  0.00  0.00    +0.000 NA
ATOM      3  C   UNL     1      -2.340   0.379  -0.116  0.00  0.00    +0.000 A 
ATOM      4  C   UNL     1      -3.416   1.381  -0.194  0.00  0.00    +0.000 C 
ATOM      5  C   UNL     1      -4.678   0.513   0.079  0.00  0.00    +0.000 C 
ATOM      6  C   UNL     1      -4.289  -0.941  -0.256  0.00  0.00    +0.000 C 
ATOM      7  C   UNL     1      -0.985   0.232  -0.020  0.00  0.00    +0.000 A 
ATOM      8  C   UNL     1      -0.807  -1.182  -0.012  0.00  0.00    +0.000 A 
ENDROOT
BRANCH   7  10
ATOM      9  F   UNL     1       2.629   4.455   0.239  0.00  0.00    +0.000 F 
ATOM     10  C   UNL     1      -0.056   1.317   0.046  0.00  0.00    +0.000 A 
ATOM     11  C   UNL     1       0.483   1.854  -1.126  0.00  0.00    +0.000 A 
ATOM     12  C   UNL     1       0.318   1.847   1.284  0.00  0.00    +0.000 A 
ATOM     13  C   UNL     1       1.389   2.913  -1.061  0.00  0.00    +0.000 A 
ATOM     14  C   UNL     1       1.224   2.906   1.349  0.00  0.00    +0.000 A 
ATOM     15  C   UNL     1       1.759   3.439   0.176  0.00  0.00    +0.000 A 
ENDBRANCH   7  10
BRANCH   8  17
ATOM     16  N   UNL     1       1.508  -1.259  -0.458  0.00  0.00    +0.000 NA
ATOM     17  C   UNL     1       0.444  -1.894   0.074  0.00  0.00    +0.000 A 
ATOM     18  C   UNL     1       0.491  -3.138   0.674  0.00  0.00    +0.000 A 
ATOM     19  C   UNL     1       2.689  -1.914  -0.384  0.00  0.00    +0.000 A 
ATOM     20  C   UNL     1       1.723  -3.780   0.732  0.00  0.00    +0.000 A 
ATOM     21  C   UNL     1       2.848  -3.163   0.195  0.00  0.00    +0.000 A 
ATOM     22  C   UNL     1       3.874  -1.223  -0.970  0.00  0.00    +0.000 C 
ENDBRANCH   8  17
TORSDOF 2
