REMARK  Name = 6914568
REMARK  5 active torsions:
REMARK  status: ('A' for Active; 'I' for Inactive)
REMARK    1  A    between atoms: N_2  and  C_12
REMARK    2  A    between atoms: N_3  and  C_13
REMARK    3  A    between atoms: N_6  and  C_23
REMARK    4  A    between atoms: C_16  and  C_19
REMARK    5  A    between atoms: C_26  and  C_27
REMARK                            x       y       z     vdW  Elec       q    Type
REMARK                         _______ _______ _______ _____ _____    ______ ____
ROOT
ATOM      1  N   UNL     1       3.348  -3.656  -0.066  0.00  0.00    +0.000 N 
ATOM      2  N   UNL     1       0.963  -3.997  -0.092  0.00  0.00    +0.000 NA
ATOM      3  C   UNL     1      -0.310  -1.915  -0.039  0.00  0.00    +0.000 A 
ATOM      4  C   UNL     1       2.083  -1.817  -0.020  0.00  0.00    +0.000 A 
ATOM      5  C   UNL     1       0.850  -1.144  -0.009  0.00  0.00    +0.000 A 
ATOM      6  C   UNL     1       2.053  -3.207  -0.061  0.00  0.00    +0.000 A 
ATOM      7  C   UNL     1       3.450  -1.434   0.001  0.00  0.00    +0.000 A 
ATOM      8  C   UNL     1      -0.195  -3.297  -0.080  0.00  0.00    +0.000 A 
ATOM      9  C   UNL     1       4.205  -2.587  -0.028  0.00  0.00    +0.000 A 
ATOM     10  H   UNL     1       3.627  -4.627  -0.092  0.00  0.00    +0.000 HD
ENDROOT
BRANCH   3  14
ATOM     11  C   UNL     1      -4.145  -0.051  -0.007  0.00  0.00    +0.000 A 
ATOM     12  C   UNL     1      -3.032   0.590  -0.586  0.00  0.00    +0.000 A 
ATOM     13  C   UNL     1      -3.954  -1.326   0.560  0.00  0.00    +0.000 A 
ATOM     14  C   UNL     1      -1.611  -1.283  -0.029  0.00  0.00    +0.000 A 
ATOM     15  C   UNL     1      -1.778  -0.020  -0.597  0.00  0.00    +0.000 A 
ATOM     16  C   UNL     1      -2.700  -1.936   0.549  0.00  0.00    +0.000 A 
BRANCH  11  17
ATOM     17  N   UNL     1      -5.403   0.562   0.004  0.00  0.00    +0.000 N 
ATOM     18  N   UNL     1      -8.063   1.599  -0.089  0.00  0.00    +0.000 NA
ATOM     19  C   UNL     1      -6.342   0.276   1.094  0.00  0.00    +0.000 C 
ATOM     20  C   UNL     1      -6.014   0.908  -1.286  0.00  0.00    +0.000 C 
ATOM     21  C   UNL     1      -7.395   1.381   1.200  0.00  0.00    +0.000 C 
ATOM     22  C   UNL     1      -7.077   1.994  -1.102  0.00  0.00    +0.000 C 
ATOM     23  C   UNL     1      -9.103   2.619   0.038  0.00  0.00    +0.000 C 
ENDBRANCH  11  17
ENDBRANCH   3  14
BRANCH   7  25
ATOM     24  O   UNL     1       6.289  -0.520  -0.013  0.00  0.00    +0.000 OA
ATOM     25  N   UNL     1       3.964  -0.158   0.043  0.00  0.00    +0.000 N 
ATOM     26  C   UNL     1       5.314   0.223   0.035  0.00  0.00    +0.000 C 
ATOM     27  H   UNL     1       3.250   0.564   0.030  0.00  0.00    +0.000 HD
BRANCH  26  29
ATOM     28  N   UNL     1       4.807   3.867   0.682  0.00  0.00    +0.000 NA
ATOM     29  C   UNL     1       5.564   1.688   0.060  0.00  0.00    +0.000 A 
ATOM     30  C   UNL     1       6.718   2.194  -0.485  0.00  0.00    +0.000 A 
ATOM     31  C   UNL     1       4.642   2.526   0.626  0.00  0.00    +0.000 A 
ATOM     32  C   UNL     1       6.924   3.569  -0.447  0.00  0.00    +0.000 A 
ATOM     33  C   UNL     1       5.947   4.354   0.142  0.00  0.00    +0.000 A 
ENDBRANCH  26  29
ENDBRANCH   7  25
TORSDOF 4
