REMARK  Name = 17756743
REMARK  6 active torsions:
REMARK  status: ('A' for Active; 'I' for Inactive)
REMARK    1  A    between atoms: N_2  and  C_9
REMARK    2  A    between atoms: N_4  and  C_12
REMARK    3  A    between atoms: N_4  and  C_14
REMARK    4  A    between atoms: C_9  and  C_12
REMARK    5  A    between atoms: C_15  and  C_18
REMARK    6  A    between atoms: C_16  and  C_19
REMARK                            x       y       z     vdW  Elec       q    Type
REMARK                         _______ _______ _______ _____ _____    ______ ____
ROOT
ATOM      1  O   UNL     1      -2.782   1.881  -0.448  0.00  0.00    +0.000 OA
ATOM      2  N   UNL     1       0.825   3.610   0.126  0.00  0.00    +0.000 NA
ATOM      3  N   UNL     1      -1.519   3.907  -0.466  0.00  0.00    +0.000 NA
ATOM      4  C   UNL     1      -0.598   1.713   0.087  0.00  0.00    +0.000 A 
ATOM      5  C   UNL     1       0.659   2.278   0.293  0.00  0.00    +0.000 A 
ATOM      6  C   UNL     1      -1.176   0.422   0.152  0.00  0.00    +0.000 A 
ATOM      7  C   UNL     1      -2.501   0.579  -0.181  0.00  0.00    +0.000 A 
ATOM      8  C   UNL     1      -1.621   2.579  -0.285  0.00  0.00    +0.000 A 
ATOM      9  C   UNL     1      -0.259   4.332  -0.238  0.00  0.00    +0.000 A 
ENDROOT
BRANCH   6  10
ATOM     10  C   UNL     1      -0.590  -0.845   0.485  0.00  0.00    +0.000 A 
ATOM     11  C   UNL     1      -0.576  -1.281   1.810  0.00  0.00    +0.000 A 
ATOM     12  C   UNL     1      -0.034  -1.641  -0.517  0.00  0.00    +0.000 A 
ATOM     13  C   UNL     1      -0.006  -2.512   2.133  0.00  0.00    +0.000 A 
ATOM     14  C   UNL     1       0.536  -2.872  -0.194  0.00  0.00    +0.000 A 
ATOM     15  C   UNL     1       0.550  -3.308   1.131  0.00  0.00    +0.000 A 
ENDBRANCH   6  10
BRANCH   7  16
ATOM     16  C   UNL     1      -3.623  -0.313  -0.305  0.00  0.00    +0.000 A 
ATOM     17  C   UNL     1      -3.578  -1.366  -1.220  0.00  0.00    +0.000 A 
ATOM     18  C   UNL     1      -4.755  -0.126   0.487  0.00  0.00    +0.000 A 
ATOM     19  C   UNL     1      -4.666  -2.231  -1.342  0.00  0.00    +0.000 A 
ATOM     20  C   UNL     1      -5.843  -0.991   0.365  0.00  0.00    +0.000 A 
ATOM     21  C   UNL     1      -5.798  -2.043  -0.550  0.00  0.00    +0.000 A 
ENDBRANCH   7  16
BRANCH   5  22
ATOM     22  N   UNL     1       1.742   1.497   0.666  0.00  0.00    +0.000 N 
ATOM     23  H   UNL     1       1.597   0.502   0.781  0.00  0.00    +0.000 HD
BRANCH  22  24
ATOM     24  C   UNL     1       3.067   2.022   0.894  0.00  0.00    +0.000 C 
BRANCH  24  25
ATOM     25  C   UNL     1       4.013   0.884   1.255  0.00  0.00    +0.000 C 
BRANCH  25  26
ATOM     26  N   UNL     1       4.064  -0.097   0.173  0.00  0.00    +0.000 NA
ATOM     27  N   UNL     1       5.444  -1.967  -1.559  0.00  0.00    +0.000 NA
ATOM     28  C   UNL     1       4.520  -1.400   0.671  0.00  0.00    +0.000 C 
ATOM     29  C   UNL     1       4.930   0.372  -0.917  0.00  0.00    +0.000 C 
ATOM     30  C   UNL     1       4.583  -2.424  -0.466  0.00  0.00    +0.000 C 
ATOM     31  C   UNL     1       4.990  -0.661  -2.044  0.00  0.00    +0.000 C 
ATOM     32  H   UNL     1       5.415  -2.643  -2.321  0.00  0.00    +0.000 HD
ENDBRANCH  25  26
ENDBRANCH  24  25
ENDBRANCH  22  24
ENDBRANCH   5  22
TORSDOF 6
