REMARK  Name = 6419789
REMARK  3 active torsions:
REMARK  status: ('A' for Active; 'I' for Inactive)
REMARK    1  A    between atoms: N_5  and  C_17
REMARK    2  A    between atoms: N_6  and  C_16
REMARK    3  A    between atoms: C_7  and  C_9
REMARK                            x       y       z     vdW  Elec       q    Type
REMARK                         _______ _______ _______ _____ _____    ______ ____
ROOT
ATOM      1  N   UNL     1      -1.924  -2.599   0.318  0.00  0.00    +0.000 N 
ATOM      2  N   UNL     1      -0.109  -1.151  -0.306  0.00  0.00    +0.000 NA
ATOM      3  N   UNL     1      -3.249  -2.548   0.613  0.00  0.00    +0.000 NA
ATOM      4  N   UNL     1       2.006  -2.053  -0.661  0.00  0.00    +0.000 N 
ATOM      5  C   UNL     1      -2.473  -0.461   0.134  0.00  0.00    +0.000 A 
ATOM      6  C   UNL     1      -1.418  -1.338   0.020  0.00  0.00    +0.000 A 
ATOM      7  C   UNL     1      -3.565  -1.258   0.498  0.00  0.00    +0.000 A 
ATOM      8  C   UNL     1       0.677  -2.204  -0.333  0.00  0.00    +0.000 A 
ATOM      9  C   UNL     1      -1.102  -3.717   0.293  0.00  0.00    +0.000 A 
ATOM     10  C   UNL     1       0.191  -3.594  -0.020  0.00  0.00    +0.000 A 
ATOM     11  H   UNL     1       2.512  -2.855  -1.025  0.00  0.00    +0.000 HD
ENDROOT
BRANCH   4  13
ATOM     12 CL   UNL     1       3.021   2.043   2.258  0.00  0.00    +0.000 Cl
ATOM     13  C   UNL     1       2.796  -0.932  -0.428  0.00  0.00    +0.000 A 
ATOM     14  C   UNL     1       2.547  -0.094   0.672  0.00  0.00    +0.000 A 
ATOM     15  C   UNL     1       3.860  -0.615  -1.288  0.00  0.00    +0.000 A 
ATOM     16  C   UNL     1       3.341   1.029   0.905  0.00  0.00    +0.000 A 
ATOM     17  C   UNL     1       4.653   0.509  -1.055  0.00  0.00    +0.000 A 
ATOM     18  C   UNL     1       4.394   1.331   0.041  0.00  0.00    +0.000 A 
ENDBRANCH   4  13
BRANCH   5  19
ATOM     19  C   UNL     1      -2.381   0.950  -0.091  0.00  0.00    +0.000 A 
ATOM     20  C   UNL     1      -1.186   1.626   0.164  0.00  0.00    +0.000 A 
ATOM     21  C   UNL     1      -3.488   1.657  -0.567  0.00  0.00    +0.000 A 
ATOM     22  C   UNL     1      -1.097   3.001  -0.055  0.00  0.00    +0.000 A 
ATOM     23  C   UNL     1      -3.400   3.032  -0.786  0.00  0.00    +0.000 A 
ATOM     24  C   UNL     1      -2.205   3.704  -0.530  0.00  0.00    +0.000 A 
BRANCH  22  25
ATOM     25  N   UNL     1       0.111   3.681   0.204  0.00  0.00    +0.000 N 
ATOM     26  H   UNL     1       0.915   3.172   0.546  0.00  0.00    +0.000 HD
ATOM     27  H   UNL     1       0.175   4.677   0.044  0.00  0.00    +0.000 HD
ENDBRANCH  22  25
ENDBRANCH   5  19
TORSDOF 3
