REMARK  Name = 25113181
REMARK  4 active torsions:
REMARK  status: ('A' for Active; 'I' for Inactive)
REMARK    1  A    between atoms: O_4  and  C_26
REMARK    2  A    between atoms: N_6  and  C_14
REMARK    3  A    between atoms: C_18  and  C_22
REMARK    4  A    between atoms: C_21  and  C_23
REMARK                            x       y       z     vdW  Elec       q    Type
REMARK                         _______ _______ _______ _____ _____    ______ ____
ROOT
ATOM      1  N   UNL     1      -2.980  -1.095   0.050  0.00  0.00    +0.000 N 
ATOM      2  N   UNL     1      -5.746  -0.417  -0.175  0.00  0.00    +0.000 NA
ATOM      3  N   UNL     1      -0.742  -0.309  -0.046  0.00  0.00    +0.000 NA
ATOM      4  N   UNL     1       0.147  -2.924   0.259  0.00  0.00    +0.000 NA
ATOM      5  C   UNL     1      -3.466   0.194   0.558  0.00  0.00    +0.000 C 
ATOM      6  C   UNL     1      -3.808  -1.721  -0.985  0.00  0.00    +0.000 C 
ATOM      7  C   UNL     1      -4.944   0.098   0.942  0.00  0.00    +0.000 C 
ATOM      8  C   UNL     1      -5.276  -1.755  -0.552  0.00  0.00    +0.000 C 
ATOM      9  C   UNL     1      -1.602  -1.335   0.076  0.00  0.00    +0.000 A 
ATOM     10  C   UNL     1      -7.163  -0.453   0.184  0.00  0.00    +0.000 C 
ATOM     11  C   UNL     1       0.574  -0.587  -0.016  0.00  0.00    +0.000 A 
ATOM     12  C   UNL     1      -1.164  -2.624   0.227  0.00  0.00    +0.000 A 
ATOM     13  C   UNL     1       1.024  -1.911   0.139  0.00  0.00    +0.000 A 
ATOM     14  C   UNL     1       1.510   0.437  -0.138  0.00  0.00    +0.000 A 
ATOM     15  C   UNL     1       2.393  -2.163   0.165  0.00  0.00    +0.000 A 
ATOM     16  C   UNL     1       2.879   0.174  -0.110  0.00  0.00    +0.000 A 
ATOM     17  C   UNL     1       3.322  -1.131   0.043  0.00  0.00    +0.000 A 
ENDROOT
BRANCH  14  18
ATOM     18  C   UNL     1       1.083   1.816  -0.298  0.00  0.00    +0.000 A 
ATOM     19  C   UNL     1       0.882   2.619   0.824  0.00  0.00    +0.000 A 
ATOM     20  C   UNL     1       0.876   2.337  -1.575  0.00  0.00    +0.000 A 
ATOM     21  C   UNL     1       0.473   3.943   0.669  0.00  0.00    +0.000 A 
ATOM     22  C   UNL     1       0.467   3.662  -1.730  0.00  0.00    +0.000 A 
ATOM     23  C   UNL     1       0.266   4.465  -0.608  0.00  0.00    +0.000 A 
BRANCH  21  24
ATOM     24  O   UNL     1       0.278   4.728   1.764  0.00  0.00    +0.000 OA
ATOM     25  H   UNL     1       0.467   4.207   2.564  0.00  0.00    +0.000 HD
ENDBRANCH  21  24
ENDBRANCH  14  18
BRANCH  17  29
ATOM     26  F   UNL     1       5.572  -0.322  -0.054  0.00  0.00    +0.000 F 
ATOM     27  F   UNL     1       5.193  -2.024   1.235  0.00  0.00    +0.000 F 
ATOM     28  F   UNL     1       5.169  -2.274  -0.925  0.00  0.00    +0.000 F 
ATOM     29  C   UNL     1       4.782  -1.429   0.076  0.00  0.00    +0.000 C 
ENDBRANCH  17  29
TORSDOF 3
