REMARK  Name = 11270500
REMARK  9 active torsions:
REMARK  status: ('A' for Active; 'I' for Inactive)
REMARK    1  A    between atoms: O_2  and  C_19
REMARK    2  A    between atoms: N_3  and  C_14
REMARK    3  A    between atoms: N_5  and  C_18
REMARK    4  A    between atoms: N_6  and  C_22
REMARK    5  A    between atoms: C_15  and  C_19
REMARK    6  A    between atoms: C_18  and  C_25
REMARK    7  A    between atoms: C_18  and  C_26
REMARK    8  A    between atoms: C_23  and  C_27
REMARK    9  A    between atoms: C_24  and  C_29
REMARK                            x       y       z     vdW  Elec       q    Type
REMARK                         _______ _______ _______ _____ _____    ______ ____
ROOT
ATOM      1  N   UNL     1      -1.710   2.841   0.039  0.00  0.00    +0.000 N 
ATOM      2  N   UNL     1      -3.041   0.944   0.403  0.00  0.00    +0.000 NA
ATOM      3  N   UNL     1      -4.033   3.130   0.199  0.00  0.00    +0.000 NA
ATOM      4  C   UNL     1      -4.280   0.438   0.575  0.00  0.00    +0.000 A 
ATOM      5  C   UNL     1      -2.988   2.279   0.222  0.00  0.00    +0.000 A 
ATOM      6  C   UNL     1      -5.428   1.204   0.571  0.00  0.00    +0.000 A 
ATOM      7  C   UNL     1      -5.242   2.558   0.377  0.00  0.00    +0.000 A 
ATOM      8  H   UNL     1      -1.749   3.821  -0.225  0.00  0.00    +0.000 HD
ENDROOT
BRANCH   4  11
ATOM      9  N   UNL     1      -4.451  -1.903  -0.242  0.00  0.00    +0.000 N 
ATOM     10  N   UNL     1      -4.354  -3.083   1.638  0.00  0.00    +0.000 NA
ATOM     11  C   UNL     1      -4.329  -0.987   0.767  0.00  0.00    +0.000 A 
ATOM     12  C   UNL     1      -4.461  -3.146   0.329  0.00  0.00    +0.000 A 
ATOM     13  C   UNL     1      -4.272  -1.742   1.917  0.00  0.00    +0.000 A 
ATOM     14  C   UNL     1      -4.581  -4.380  -0.473  0.00  0.00    +0.000 C 
BRANCH   9  15
ATOM     15  C   UNL     1      -4.550  -1.615  -1.655  0.00  0.00    +0.000 C 
ATOM     16  C   UNL     1      -5.811  -0.817  -1.990  0.00  0.00    +0.000 C 
ATOM     17  C   UNL     1      -3.290  -0.931  -2.190  0.00  0.00    +0.000 C 
ENDBRANCH   9  15
ENDBRANCH   4  11
BRANCH   1  23
ATOM     18  C   UNL     1       2.179   1.156  -0.075  0.00  0.00    +0.000 A 
ATOM     19  C   UNL     1       1.147   0.577   0.702  0.00  0.00    +0.000 A 
ATOM     20  C   UNL     1       1.859   2.321  -0.811  0.00  0.00    +0.000 A 
ATOM     21  C   UNL     1      -0.132   1.132   0.740  0.00  0.00    +0.000 A 
ATOM     22  C   UNL     1       0.580   2.876  -0.773  0.00  0.00    +0.000 A 
ATOM     23  C   UNL     1      -0.416   2.281   0.002  0.00  0.00    +0.000 A 
BRANCH  18  25
ATOM     24  O   UNL     1       7.531  -2.380  -0.410  0.00  0.00    +0.000 OA
ATOM     25  N   UNL     1       3.455   0.601  -0.116  0.00  0.00    +0.000 N 
ATOM     26  N   UNL     1       6.103  -0.571  -0.119  0.00  0.00    +0.000 N 
ATOM     27  C   UNL     1       4.639   1.437  -0.331  0.00  0.00    +0.000 C 
ATOM     28  C   UNL     1       3.645  -0.847   0.017  0.00  0.00    +0.000 C 
ATOM     29  C   UNL     1       5.872   0.808   0.317  0.00  0.00    +0.000 C 
ATOM     30  C   UNL     1       4.946  -1.284  -0.655  0.00  0.00    +0.000 C 
ATOM     31  C   UNL     1       7.335  -1.219  -0.043  0.00  0.00    +0.000 C 
BRANCH  31  32
ATOM     32  C   UNL     1       8.478  -0.414   0.525  0.00  0.00    +0.000 C 
BRANCH  32  33
ATOM     33  O   UNL     1       9.598  -1.265   0.542  0.00  0.00    +0.000 OA
ATOM     34  H   UNL     1       9.849  -1.445  -0.380  0.00  0.00    +0.000 HD
ENDBRANCH  32  33
ENDBRANCH  31  32
ENDBRANCH  18  25
ENDBRANCH   1  23
TORSDOF 6
