REMARK  Name = 6450813
REMARK  6 active torsions:
REMARK  status: ('A' for Active; 'I' for Inactive)
REMARK    1  A    between atoms: N_6  and  C_13
REMARK    2  A    between atoms: N_6  and  C_22
REMARK    3  A    between atoms: C_8  and  C_9
REMARK    4  A    between atoms: C_11  and  C_20
REMARK    5  A    between atoms: C_20  and  C_21
REMARK    6  A    between atoms: C_23  and  C_25
REMARK                            x       y       z     vdW  Elec       q    Type
REMARK                         _______ _______ _______ _____ _____    ______ ____
ROOT
ATOM      1  N   UNL     1       0.407  -0.957  -0.121  0.00  0.00    +0.000 N 
ATOM      2  N   UNL     1       0.574  -0.023  -1.099  0.00  0.00    +0.000 NA
ATOM      3  N   UNL     1       1.720  -2.199   1.476  0.00  0.00    +0.000 NA
ATOM      4  C   UNL     1      -0.787  -1.572   0.292  0.00  0.00    +0.000 A 
ATOM      5  C   UNL     1       1.630  -1.280   0.474  0.00  0.00    +0.000 A 
ATOM      6  C   UNL     1       2.586  -0.512  -0.152  0.00  0.00    +0.000 A 
ATOM      7  C   UNL     1      -0.744  -2.485   1.277  0.00  0.00    +0.000 A 
ATOM      8  C   UNL     1       1.881   0.234  -1.103  0.00  0.00    +0.000 A 
ATOM      9  C   UNL     1       0.604  -2.753   1.837  0.00  0.00    +0.000 A 
ENDROOT
BRANCH   4  10
ATOM     10  C   UNL     1      -2.086  -1.232  -0.317  0.00  0.00    +0.000 A 
ATOM     11  C   UNL     1      -2.856  -0.195   0.212  0.00  0.00    +0.000 A 
ATOM     12  C   UNL     1      -4.084   0.127  -0.364  0.00  0.00    +0.000 A 
ATOM     13  C   UNL     1      -2.546  -1.946  -1.423  0.00  0.00    +0.000 A 
ATOM     14  C   UNL     1      -4.544  -0.588  -1.470  0.00  0.00    +0.000 A 
ATOM     15  C   UNL     1      -3.775  -1.625  -2.000  0.00  0.00    +0.000 A 
BRANCH  12  17
ATOM     16  O   UNL     1      -3.083   2.447   1.049  0.00  0.00    +0.000 OA
ATOM     17  N   UNL     1      -4.855   1.163   0.165  0.00  0.00    +0.000 N 
ATOM     18  C   UNL     1      -6.335   1.127  -0.043  0.00  0.00    +0.000 C 
ATOM     19  C   UNL     1      -4.288   2.308   0.824  0.00  0.00    +0.000 C 
ATOM     20  C   UNL     1      -5.216   3.428   1.234  0.00  0.00    +0.000 C 
ENDBRANCH  12  17
ENDBRANCH   4  10
BRANCH   6  22
ATOM     21  O   UNL     1       4.575  -1.526   0.562  0.00  0.00    +0.000 OA
ATOM     22  C   UNL     1       3.988  -0.512   0.137  0.00  0.00    +0.000 C 
BRANCH  22  24
ATOM     23  S   UNL     1       6.375   0.599  -0.506  0.00  0.00    +0.000 S 
ATOM     24  C   UNL     1       4.748   0.741  -0.087  0.00  0.00    +0.000 A 
ATOM     25  C   UNL     1       4.282   1.998   0.006  0.00  0.00    +0.000 A 
ATOM     26  C   UNL     1       5.319   2.930  -0.283  0.00  0.00    +0.000 A 
ATOM     27  C   UNL     1       6.510   2.305  -0.578  0.00  0.00    +0.000 A 
ENDBRANCH  22  24
ENDBRANCH   6  22
TORSDOF 4
