REMARK  Name = 67501411
REMARK  10 active torsions:
REMARK  status: ('A' for Active; 'I' for Inactive)
REMARK    1  A    between atoms: N_2  and  C_15
REMARK    2  A    between atoms: N_4  and  C_14
REMARK    3  A    between atoms: N_7  and  C_34
REMARK    4  A    between atoms: C_11  and  C_12
REMARK    5  A    between atoms: C_12  and  C_16
REMARK    6  A    between atoms: C_12  and  C_17
REMARK    7  A    between atoms: C_18  and  C_21
REMARK    8  A    between atoms: C_21  and  C_29
REMARK    9  A    between atoms: C_26  and  C_31
REMARK   10  A    between atoms: C_28  and  C_30
REMARK                            x       y       z     vdW  Elec       q    Type
REMARK                         _______ _______ _______ _____ _____    ______ ____
ROOT
ATOM      1  N   UNL     1       1.927  -0.129   0.223  0.00  0.00    +0.000 N 
ATOM      2  N   UNL     1       1.200   0.847   0.797  0.00  0.00    +0.000 NA
ATOM      3  N   UNL     1       1.637  -2.287  -0.830  0.00  0.00    +0.000 NA
ATOM      4  C   UNL     1      -0.137  -0.868   0.085  0.00  0.00    +0.000 A 
ATOM      5  C   UNL     1      -0.055   0.393   0.710  0.00  0.00    +0.000 A 
ATOM      6  C   UNL     1       1.179  -1.179  -0.220  0.00  0.00    +0.000 A 
ATOM      7  C   UNL     1      -1.129  -1.791  -0.267  0.00  0.00    +0.000 A 
ATOM      8  C   UNL     1      -0.714  -2.962  -0.903  0.00  0.00    +0.000 A 
ATOM      9  C   UNL     1       0.642  -3.150  -1.150  0.00  0.00    +0.000 A 
ENDROOT
BRANCH   1  10
ATOM     10  C   UNL     1       3.312  -0.003   0.127  0.00  0.00    +0.000 A 
ATOM     11  C   UNL     1       3.890   1.056  -0.572  0.00  0.00    +0.000 A 
ATOM     12  C   UNL     1       4.123  -0.957   0.743  0.00  0.00    +0.000 A 
ATOM     13  C   UNL     1       5.278   1.163  -0.655  0.00  0.00    +0.000 A 
ATOM     14  C   UNL     1       6.089   0.209  -0.039  0.00  0.00    +0.000 A 
ATOM     15  C   UNL     1       5.511  -0.851   0.660  0.00  0.00    +0.000 A 
BRANCH  14  18
ATOM     16  O   UNL     1       8.080   1.261  -0.728  0.00  0.00    +0.000 OA
ATOM     17  N   UNL     1       8.299  -0.658   0.507  0.00  0.00    +0.000 N 
ATOM     18  C   UNL     1       7.536   0.319  -0.125  0.00  0.00    +0.000 C 
ATOM     19  H   UNL     1       7.941  -1.453   1.020  0.00  0.00    +0.000 HD
ATOM     20  H   UNL     1       9.312  -0.600   0.467  0.00  0.00    +0.000 HD
ENDBRANCH  14  18
BRANCH  11  21
ATOM     21  C   UNL     1       3.049   2.094  -1.243  0.00  0.00    +0.000 C 
ATOM     22  C   UNL     1       2.998   3.397  -0.451  0.00  0.00    +0.000 C 
ENDBRANCH  11  21
ENDBRANCH   1  10
BRANCH   7  23
ATOM     23  N   UNL     1      -2.469  -1.576  -0.007  0.00  0.00    +0.000 N 
ATOM     24  N   UNL     1      -4.505  -1.893   0.819  0.00  0.00    +0.000 NA
ATOM     25  C   UNL     1      -3.227  -0.538  -0.472  0.00  0.00    +0.000 A 
ATOM     26  C   UNL     1      -3.279  -2.363   0.763  0.00  0.00    +0.000 A 
ATOM     27  C   UNL     1      -4.480  -0.756   0.051  0.00  0.00    +0.000 A 
BRANCH  27  30
ATOM     28  N   UNL     1      -7.149   1.550  -0.682  0.00  0.00    +0.000 N 
ATOM     29  N   UNL     1      -7.847   0.703   0.093  0.00  0.00    +0.000 NA
ATOM     30  C   UNL     1      -5.671   0.043  -0.123  0.00  0.00    +0.000 A 
ATOM     31  C   UNL     1      -5.841   1.200  -0.843  0.00  0.00    +0.000 A 
ATOM     32  C   UNL     1      -6.938  -0.216   0.432  0.00  0.00    +0.000 A 
ATOM     33  C   UNL     1      -7.804   2.703  -1.252  0.00  0.00    +0.000 C 
ENDBRANCH  27  30
ENDBRANCH   7  23
BRANCH   5  34
ATOM     34  C   UNL     1      -1.155   1.213   1.247  0.00  0.00    +0.000 C 
ATOM     35  C   UNL     1      -1.047   1.450   2.772  0.00  0.00    +0.000 C 
ATOM     36  C   UNL     1      -1.300   2.577   0.531  0.00  0.00    +0.000 C 
ENDBRANCH   5  34
TORSDOF 6
