REMARK  Name = 72734520
REMARK  7 active torsions:
REMARK  status: ('A' for Active; 'I' for Inactive)
REMARK    1  A    between atoms: O_2  and  C_25
REMARK    2  A    between atoms: O_2  and  C_28
REMARK    3  A    between atoms: N_4  and  C_15
REMARK    4  A    between atoms: N_5  and  C_16
REMARK    5  A    between atoms: N_6  and  C_21
REMARK    6  A    between atoms: N_10  and  C_31
REMARK    7  A    between atoms: C_34  and  C_35
REMARK                            x       y       z     vdW  Elec       q    Type
REMARK                         _______ _______ _______ _____ _____    ______ ____
ROOT
ATOM      1  N   UNL     1      -1.980   2.574   0.656  0.00  0.00    +0.000 N 
ATOM      2  N   UNL     1      -4.290   2.248   0.724  0.00  0.00    +0.000 NA
ATOM      3  N   UNL     1      -2.787   0.502  -0.063  0.00  0.00    +0.000 NA
ATOM      4  N   UNL     1      -6.609   1.590   0.664  0.00  0.00    +0.000 N 
ATOM      5  C   UNL     1      -3.082   1.727   0.427  0.00  0.00    +0.000 A 
ATOM      6  C   UNL     1      -5.122   0.079  -0.032  0.00  0.00    +0.000 A 
ATOM      7  C   UNL     1      -5.272   1.366   0.469  0.00  0.00    +0.000 A 
ATOM      8  C   UNL     1      -3.819  -0.340  -0.298  0.00  0.00    +0.000 A 
ATOM      9  C   UNL     1      -6.422  -0.478  -0.137  0.00  0.00    +0.000 A 
ATOM     10  C   UNL     1      -7.318   0.475   0.298  0.00  0.00    +0.000 A 
ATOM     11  H   UNL     1      -2.258   3.521   0.892  0.00  0.00    +0.000 HD
ATOM     12  H   UNL     1      -7.011   2.446   1.022  0.00  0.00    +0.000 HD
ENDROOT
BRANCH   1  19
ATOM     13  F   UNL     1       1.886  -0.257   0.544  0.00  0.00    +0.000 F 
ATOM     14  C   UNL     1       2.156   2.065   0.124  0.00  0.00    +0.000 A 
ATOM     15  C   UNL     1       1.351   0.966   0.423  0.00  0.00    +0.000 A 
ATOM     16  C   UNL     1       1.587   3.333   0.003  0.00  0.00    +0.000 A 
ATOM     17  C   UNL     1      -0.023   1.135   0.599  0.00  0.00    +0.000 A 
ATOM     18  C   UNL     1       0.214   3.502   0.179  0.00  0.00    +0.000 A 
ATOM     19  C   UNL     1      -0.591   2.403   0.477  0.00  0.00    +0.000 A 
BRANCH  14  20
ATOM     20  N   UNL     1       3.534   1.899  -0.052  0.00  0.00    +0.000 N 
ATOM     21  N   UNL     1       6.319   1.673  -0.644  0.00  0.00    +0.000 NA
ATOM     22  C   UNL     1       3.989   0.999  -1.119  0.00  0.00    +0.000 C 
ATOM     23  C   UNL     1       4.448   2.994   0.287  0.00  0.00    +0.000 C 
ATOM     24  C   UNL     1       5.421   0.530  -0.852  0.00  0.00    +0.000 C 
ATOM     25  C   UNL     1       5.866   2.461   0.508  0.00  0.00    +0.000 C 
ATOM     26  C   UNL     1       7.694   1.215  -0.444  0.00  0.00    +0.000 C 
ENDBRANCH  14  20
ENDBRANCH   1  19
BRANCH   8  27
ATOM     27  O   UNL     1      -3.536  -1.588  -0.794  0.00  0.00    +0.000 OA
BRANCH  27  28
ATOM     28  C   UNL     1      -2.209  -1.893  -1.019  0.00  0.00    +0.000 A 
ATOM     29  C   UNL     1      -1.447  -2.476  -0.006  0.00  0.00    +0.000 A 
ATOM     30  C   UNL     1      -1.630  -1.620  -2.258  0.00  0.00    +0.000 A 
ATOM     31  C   UNL     1      -0.106  -2.786  -0.233  0.00  0.00    +0.000 A 
ATOM     32  C   UNL     1       0.473  -2.513  -1.472  0.00  0.00    +0.000 A 
ATOM     33  C   UNL     1      -0.289  -1.931  -2.485  0.00  0.00    +0.000 A 
BRANCH  31  35
ATOM     34  O   UNL     1       2.774  -3.635  -0.210  0.00  0.00    +0.000 OA
ATOM     35  N   UNL     1       0.656  -3.370   0.780  0.00  0.00    +0.000 N 
ATOM     36  C   UNL     1       2.005  -3.748   0.737  0.00  0.00    +0.000 C 
ATOM     37  H   UNL     1       0.154  -3.533   1.651  0.00  0.00    +0.000 HD
BRANCH  36  38
ATOM     38  C   UNL     1       2.452  -4.340   2.031  0.00  0.00    +0.000 C 
ATOM     39  C   UNL     1       3.710  -4.763   2.186  0.00  0.00    +0.000 C 
ENDBRANCH  36  38
ENDBRANCH  31  35
ENDBRANCH  27  28
ENDBRANCH   8  27
TORSDOF 6
