REMARK  Name = 121269225
REMARK  11 active torsions:
REMARK  status: ('A' for Active; 'I' for Inactive)
REMARK    1  A    between atoms: O_2  and  C_19
REMARK    2  A    between atoms: O_2  and  C_33
REMARK    3  A    between atoms: N_4  and  C_14
REMARK    4  A    between atoms: N_5  and  C_17
REMARK    5  A    between atoms: N_6  and  C_21
REMARK    6  A    between atoms: N_8  and  C_23
REMARK    7  A    between atoms: N_8  and  C_30
REMARK    8  A    between atoms: N_8  and  C_31
REMARK    9  A    between atoms: C_22  and  C_23
REMARK   10  A    between atoms: C_24  and  C_28
REMARK   11  A    between atoms: C_29  and  C_37
REMARK                            x       y       z     vdW  Elec       q    Type
REMARK                         _______ _______ _______ _____ _____    ______ ____
ROOT
ATOM      1  N   UNL     1      -1.880   3.229  -0.373  0.00  0.00    +0.000 N 
ATOM      2  N   UNL     1       2.366   1.258  -0.152  0.00  0.00    +0.000 N 
ATOM      3  N   UNL     1       3.705   1.359  -0.186  0.00  0.00    +0.000 NA
ATOM      4  N   UNL     1       0.233   2.225  -0.260  0.00  0.00    +0.000 NA
ATOM      5  N   UNL     1       0.006   4.601  -0.594  0.00  0.00    +0.000 NA
ATOM      6  C   UNL     1       3.035  -0.802   0.131  0.00  0.00    +0.000 A 
ATOM      7  C   UNL     1       4.109   0.097  -0.013  0.00  0.00    +0.000 A 
ATOM      8  C   UNL     1       1.913  -0.015   0.035  0.00  0.00    +0.000 A 
ATOM      9  C   UNL     1      -0.479   3.358  -0.411  0.00  0.00    +0.000 A 
ATOM     10  C   UNL     1       1.572   2.385  -0.301  0.00  0.00    +0.000 A 
ATOM     11  C   UNL     1       2.194   3.603  -0.483  0.00  0.00    +0.000 A 
ATOM     12  C   UNL     1       1.352   4.688  -0.625  0.00  0.00    +0.000 A 
ATOM     13  H   UNL     1      -2.357   4.126  -0.352  0.00  0.00    +0.000 HD
ENDROOT
BRANCH   1  19
ATOM     14  C   UNL     1      -4.398  -0.097   0.123  0.00  0.00    +0.000 A 
ATOM     15  C   UNL     1      -3.150  -0.246  -0.481  0.00  0.00    +0.000 A 
ATOM     16  C   UNL     1      -4.814   1.159   0.565  0.00  0.00    +0.000 A 
ATOM     17  C   UNL     1      -3.981   2.266   0.402  0.00  0.00    +0.000 A 
ATOM     18  C   UNL     1      -2.317   0.861  -0.645  0.00  0.00    +0.000 A 
ATOM     19  C   UNL     1      -2.733   2.117  -0.203  0.00  0.00    +0.000 A 
BRANCH  14  21
ATOM     20  O   UNL     1      -7.167  -3.216   0.659  0.00  0.00    +0.000 OA
ATOM     21  N   UNL     1      -5.248  -1.194   0.299  0.00  0.00    +0.000 N 
ATOM     22  C   UNL     1      -6.205  -1.508  -0.770  0.00  0.00    +0.000 C 
ATOM     23  C   UNL     1      -5.670  -1.583   1.649  0.00  0.00    +0.000 C 
ATOM     24  C   UNL     1      -6.655  -2.960  -0.649  0.00  0.00    +0.000 C 
ATOM     25  C   UNL     1      -6.149  -3.031   1.642  0.00  0.00    +0.000 C 
ENDBRANCH  14  21
BRANCH  15  27
ATOM     26  O   UNL     1      -0.583  -1.041  -1.822  0.00  0.00    +0.000 OA
ATOM     27  N   UNL     1      -2.713  -1.496  -0.931  0.00  0.00    +0.000 N 
ATOM     28  C   UNL     1      -1.498  -1.810  -1.553  0.00  0.00    +0.000 C 
ATOM     29  H   UNL     1      -3.372  -2.256  -0.776  0.00  0.00    +0.000 HD
BRANCH  28  30
ATOM     30  C   UNL     1      -1.411  -3.262  -1.882  0.00  0.00    +0.000 C 
ATOM     31  C   UNL     1      -0.324  -3.759  -2.481  0.00  0.00    +0.000 C 
ENDBRANCH  28  30
ENDBRANCH  15  27
BRANCH  17  32
ATOM     32  O   UNL     1      -4.405   3.485   0.841  0.00  0.00    +0.000 OA
ATOM     33  C   UNL     1      -4.083   3.836   2.185  0.00  0.00    +0.000 C 
ENDBRANCH  17  32
ENDBRANCH   1  19
BRANCH   7  34
ATOM     34  C   UNL     1       5.514  -0.217   0.011  0.00  0.00    +0.000 A 
ATOM     35  C   UNL     1       6.047  -1.099  -0.928  0.00  0.00    +0.000 A 
ATOM     36  C   UNL     1       6.342   0.361   0.974  0.00  0.00    +0.000 A 
ATOM     37  C   UNL     1       7.408  -1.404  -0.905  0.00  0.00    +0.000 A 
ATOM     38  C   UNL     1       7.703   0.056   0.997  0.00  0.00    +0.000 A 
ATOM     39  C   UNL     1       8.236  -0.826   0.057  0.00  0.00    +0.000 A 
ENDBRANCH   7  34
BRANCH   6  40
ATOM     40  C   UNL     1       3.081  -2.260   0.337  0.00  0.00    +0.000 C 
BRANCH  40  41
ATOM     41  N   UNL     1       3.819  -2.647   1.549  0.00  0.00    +0.000 NA
ATOM     42  C   UNL     1       4.237  -4.042   1.459  0.00  0.00    +0.000 C 
ATOM     43  C   UNL     1       2.993  -2.429   2.732  0.00  0.00    +0.000 C 
ENDBRANCH  40  41
ENDBRANCH   6  40
TORSDOF 8
