REMARK  Name = 72281
REMARK  6 active torsions:
REMARK  status: ('A' for Active; 'I' for Inactive)
REMARK    1  A    between atoms: O_3  and  C_15
REMARK    2  A    between atoms: O_4  and  C_21
REMARK    3  A    between atoms: O_4  and  C_22
REMARK    4  A    between atoms: O_5  and  C_17
REMARK    5  A    between atoms: O_6  and  C_19
REMARK    6  A    between atoms: C_7  and  C_9
REMARK                            x       y       z     vdW  Elec       q    Type
REMARK                         _______ _______ _______ _____ _____    ______ ____
ROOT
ATOM      1  O   UNL     1       0.514  -0.717  -0.042  0.00  0.00    +0.000 OA
ATOM      2  O   UNL     1       2.436   2.908  -0.096  0.00  0.00    +0.000 OA
ATOM      3  C   UNL     1      -0.107   0.452   0.515  0.00  0.00    +0.000 C 
ATOM      4  C   UNL     1       0.357   1.716  -0.206  0.00  0.00    +0.000 C 
ATOM      5  C   UNL     1       2.596   0.553  -0.026  0.00  0.00    +0.000 A 
ATOM      6  C   UNL     1       1.854   1.829  -0.086  0.00  0.00    +0.000 C 
ATOM      7  C   UNL     1       1.883  -0.650  -0.030  0.00  0.00    +0.000 A 
ATOM      8  C   UNL     1       3.993   0.545  -0.010  0.00  0.00    +0.000 A 
ATOM      9  C   UNL     1       2.571  -1.864  -0.052  0.00  0.00    +0.000 A 
ATOM     10  C   UNL     1       4.675  -0.672  -0.011  0.00  0.00    +0.000 A 
ATOM     11  C   UNL     1       3.966  -1.874  -0.037  0.00  0.00    +0.000 A 
ENDROOT
BRANCH   3  12
ATOM     12  C   UNL     1      -1.610   0.288   0.417  0.00  0.00    +0.000 A 
ATOM     13  C   UNL     1      -2.221   0.199  -0.833  0.00  0.00    +0.000 A 
ATOM     14  C   UNL     1      -2.381   0.228   1.577  0.00  0.00    +0.000 A 
ATOM     15  C   UNL     1      -3.605   0.049  -0.923  0.00  0.00    +0.000 A 
ATOM     16  C   UNL     1      -3.765   0.078   1.487  0.00  0.00    +0.000 A 
ATOM     17  C   UNL     1      -4.377  -0.011   0.237  0.00  0.00    +0.000 A 
BRANCH  17  18
ATOM     18  O   UNL     1      -5.729  -0.158   0.162  0.00  0.00    +0.000 OA
ATOM     19  C   UNL     1      -6.236  -1.491   0.151  0.00  0.00    +0.000 C 
ENDBRANCH  17  18
BRANCH  15  20
ATOM     20  O   UNL     1      -4.191  -0.039  -2.150  0.00  0.00    +0.000 OA
ATOM     21  H   UNL     1      -3.503   0.022  -2.835  0.00  0.00    +0.000 HD
ENDBRANCH  15  20
ENDBRANCH   3  12
BRANCH   8  22
ATOM     22  O   UNL     1       4.735   1.688  -0.001  0.00  0.00    +0.000 OA
ATOM     23  H   UNL     1       5.681   1.461   0.009  0.00  0.00    +0.000 HD
ENDBRANCH   8  22
BRANCH  11  24
ATOM     24  O   UNL     1       4.637  -3.058  -0.046  0.00  0.00    +0.000 OA
ATOM     25  H   UNL     1       5.593  -2.880  -0.033  0.00  0.00    +0.000 HD
ENDBRANCH  11  24
TORSDOF 5
