REMARK  Name = 2197
REMARK  3 active torsions:
REMARK  status: ('A' for Active; 'I' for Inactive)
REMARK    1  A    between atoms: O_3  and  C_18
REMARK    2  A    between atoms: O_3  and  C_19
REMARK    3  A    between atoms: C_4  and  C_9
REMARK                            x       y       z     vdW  Elec       q    Type
REMARK                         _______ _______ _______ _____ _____    ______ ____
ROOT
ATOM      1  O   UNL     1       0.847   2.378   0.841  0.00  0.00    +0.000 OA
ATOM      2  O   UNL     1       0.848  -2.367   0.870  0.00  0.00    +0.000 OA
ATOM      3  C   UNL     1       0.343   0.008   1.246  0.00  0.00    +0.000 C 
ATOM      4  C   UNL     1       1.132   1.201   0.726  0.00  0.00    +0.000 C 
ATOM      5  C   UNL     1       1.131  -1.191   0.741  0.00  0.00    +0.000 C 
ATOM      6  C   UNL     1       2.324   0.696   0.041  0.00  0.00    +0.000 A 
ATOM      7  C   UNL     1       2.323  -0.696   0.049  0.00  0.00    +0.000 A 
ATOM      8  C   UNL     1       3.336   1.418  -0.561  0.00  0.00    +0.000 A 
ATOM      9  C   UNL     1       3.336  -1.426  -0.542  0.00  0.00    +0.000 A 
ATOM     10  C   UNL     1       4.370   0.696  -1.163  0.00  0.00    +0.000 A 
ATOM     11  C   UNL     1       4.370  -0.712  -1.154  0.00  0.00    +0.000 A 
ENDROOT
BRANCH   3  12
ATOM     12  C   UNL     1      -1.057   0.005   0.744  0.00  0.00    +0.000 A 
ATOM     13  C   UNL     1      -2.125   0.012   1.645  0.00  0.00    +0.000 A 
ATOM     14  C   UNL     1      -1.310  -0.004  -0.630  0.00  0.00    +0.000 A 
ATOM     15  C   UNL     1      -3.438   0.008   1.174  0.00  0.00    +0.000 A 
ATOM     16  C   UNL     1      -2.623  -0.008  -1.100  0.00  0.00    +0.000 A 
ATOM     17  C   UNL     1      -3.687  -0.002  -0.198  0.00  0.00    +0.000 A 
BRANCH  17  18
ATOM     18  O   UNL     1      -4.969  -0.004  -0.656  0.00  0.00    +0.000 OA
ATOM     19  C   UNL     1      -5.152  -0.014  -2.071  0.00  0.00    +0.000 C 
ENDBRANCH  17  18
ENDBRANCH   3  12
TORSDOF 2
