REMARK  Name = 446611
REMARK  5 active torsions:
REMARK  status: ('A' for Active; 'I' for Inactive)
REMARK    1  A    between atoms: O_1  and  C_6
REMARK    2  A    between atoms: O_2  and  C_9
REMARK    3  A    between atoms: O_3  and  C_13
REMARK    4  A    between atoms: C_5  and  C_11
REMARK    5  A    between atoms: C_12  and  C_13
REMARK                            x       y       z     vdW  Elec       q    Type
REMARK                         _______ _______ _______ _____ _____    ______ ____
ROOT
ATOM      1  C   UNL     1      -0.308   0.155  -0.290  0.00  0.00    +0.000 A 
ATOM      2  C   UNL     1      -1.018  -1.029  -0.091  0.00  0.00    +0.000 A 
ATOM      3  C   UNL     1      -0.977   1.380  -0.273  0.00  0.00    +0.000 A 
ATOM      4  C   UNL     1      -2.395  -0.989   0.126  0.00  0.00    +0.000 A 
ATOM      5  C   UNL     1      -3.063   0.235   0.143  0.00  0.00    +0.000 A 
ATOM      6  C   UNL     1      -2.354   1.419  -0.057  0.00  0.00    +0.000 A 
ENDROOT
BRANCH   2   7
ATOM      7  O   UNL     1      -0.389  -2.239  -0.103  0.00  0.00    +0.000 OA
ATOM      8  H   UNL     1       0.555  -2.137  -0.302  0.00  0.00    +0.000 HD
ENDBRANCH   2   7
BRANCH   5   9
ATOM      9  O   UNL     1      -4.407   0.274   0.354  0.00  0.00    +0.000 OA
ATOM     10  H   UNL     1      -4.734  -0.634   0.472  0.00  0.00    +0.000 HD
ENDBRANCH   5   9
BRANCH   1  11
ATOM     11  C   UNL     1       1.130   0.141  -0.518  0.00  0.00    +0.000 C 
ATOM     12  C   UNL     1       2.073   0.190   0.447  0.00  0.00    +0.000 C 
BRANCH  12  14
ATOM     13  O   UNL     1       3.964   0.100  -1.043  0.00  0.00    +0.000 OA
ATOM     14  C   UNL     1       3.504   0.158   0.085  0.00  0.00    +0.000 C 
BRANCH  14  15
ATOM     15  O   UNL     1       4.240   0.206   1.220  0.00  0.00    +0.000 OA
ATOM     16  H   UNL     1       5.203   0.188   1.034  0.00  0.00    +0.000 HD
ENDBRANCH  14  15
ENDBRANCH  12  14
ENDBRANCH   1  11
TORSDOF 5
