REMARK  Name = 439246
REMARK  4 active torsions:
REMARK  status: ('A' for Active; 'I' for Inactive)
REMARK    1  A    between atoms: O_3  and  C_12
REMARK    2  A    between atoms: O_4  and  C_17
REMARK    3  A    between atoms: O_5  and  C_20
REMARK    4  A    between atoms: C_6  and  C_8
REMARK                            x       y       z     vdW  Elec       q    Type
REMARK                         _______ _______ _______ _____ _____    ______ ____
ROOT
ATOM      1  O   UNL     1       0.045  -0.789  -0.153  0.00  0.00    +0.000 OA
ATOM      2  O   UNL     1       1.754   2.939  -0.066  0.00  0.00    +0.000 OA
ATOM      3  C   UNL     1      -0.667   0.332   0.393  0.00  0.00    +0.000 C 
ATOM      4  C   UNL     1      -0.246   1.633  -0.287  0.00  0.00    +0.000 C 
ATOM      5  C   UNL     1       2.047   0.597  -0.025  0.00  0.00    +0.000 A 
ATOM      6  C   UNL     1       1.236   1.830  -0.098  0.00  0.00    +0.000 C 
ATOM      7  C   UNL     1       1.406  -0.644  -0.079  0.00  0.00    +0.000 A 
ATOM      8  C   UNL     1       3.440   0.669   0.054  0.00  0.00    +0.000 A 
ATOM      9  C   UNL     1       2.163  -1.816  -0.089  0.00  0.00    +0.000 A 
ATOM     10  C   UNL     1       4.191  -0.507   0.065  0.00  0.00    +0.000 A 
ATOM     11  C   UNL     1       3.555  -1.747  -0.012  0.00  0.00    +0.000 A 
ENDROOT
BRANCH   3  12
ATOM     12  C   UNL     1      -2.152   0.084   0.225  0.00  0.00    +0.000 A 
ATOM     13  C   UNL     1      -2.968  -0.041   1.349  0.00  0.00    +0.000 A 
ATOM     14  C   UNL     1      -2.701  -0.018  -1.052  0.00  0.00    +0.000 A 
ATOM     15  C   UNL     1      -4.335  -0.269   1.194  0.00  0.00    +0.000 A 
ATOM     16  C   UNL     1      -4.068  -0.247  -1.207  0.00  0.00    +0.000 A 
ATOM     17  C   UNL     1      -4.886  -0.372  -0.083  0.00  0.00    +0.000 A 
BRANCH  17  18
ATOM     18  O   UNL     1      -6.220  -0.595  -0.234  0.00  0.00    +0.000 OA
ATOM     19  H   UNL     1      -6.427  -0.638  -1.183  0.00  0.00    +0.000 HD
ENDBRANCH  17  18
ENDBRANCH   3  12
BRANCH   8  20
ATOM     20  O   UNL     1       4.114   1.851   0.114  0.00  0.00    +0.000 OA
ATOM     21  H   UNL     1       5.069   1.679   0.162  0.00  0.00    +0.000 HD
ENDBRANCH   8  20
BRANCH  11  22
ATOM     22  O   UNL     1       4.293  -2.891  -0.009  0.00  0.00    +0.000 OA
ATOM     23  H   UNL     1       5.236  -2.658   0.049  0.00  0.00    +0.000 HD
ENDBRANCH  11  22
TORSDOF 4
