REMARK  Name = 54682876
REMARK  8 active torsions:
REMARK  status: ('A' for Active; 'I' for Inactive)
REMARK    1  A    between atoms: O_4  and  C_13
REMARK    2  A    between atoms: O_5  and  C_15
REMARK    3  A    between atoms: O_5  and  C_29
REMARK    4  A    between atoms: N_8  and  C_18
REMARK    5  A    between atoms: N_9  and  C_19
REMARK    6  A    between atoms: N_9  and  C_22
REMARK    7  A    between atoms: C_12  and  C_16
REMARK    8  A    between atoms: C_25  and  C_28
REMARK                            x       y       z     vdW  Elec       q    Type
REMARK                         _______ _______ _______ _____ _____    ______ ____
ROOT
ATOM      1  O   UNL     1       1.128   2.842  -0.383  0.00  0.00    +0.000 OA
ATOM      2  N   UNL     1       3.263   2.003  -0.049  0.00  0.00    +0.000 N 
ATOM      3  C   UNL     1       4.115   0.865   0.093  0.00  0.00    +0.000 A 
ATOM      4  C   UNL     1       3.559  -0.421   0.027  0.00  0.00    +0.000 A 
ATOM      5  C   UNL     1       1.314   0.495  -0.325  0.00  0.00    +0.000 A 
ATOM      6  C   UNL     1       2.110  -0.581  -0.188  0.00  0.00    +0.000 A 
ATOM      7  C   UNL     1       1.889   1.880  -0.255  0.00  0.00    +0.000 A 
ATOM      8  C   UNL     1       4.402  -1.541   0.168  0.00  0.00    +0.000 A 
ATOM      9  C   UNL     1       5.502   1.001   0.299  0.00  0.00    +0.000 A 
ATOM     10  C   UNL     1       3.850   3.340   0.024  0.00  0.00    +0.000 C 
ATOM     11  C   UNL     1       5.772  -1.390   0.372  0.00  0.00    +0.000 A 
ATOM     12  C   UNL     1       6.322  -0.118   0.437  0.00  0.00    +0.000 A 
ENDROOT
BRANCH   5  15
ATOM     13  O   UNL     1      -0.507   0.279  -1.737  0.00  0.00    +0.000 OA
ATOM     14  N   UNL     1      -0.962   0.289   0.573  0.00  0.00    +0.000 N 
ATOM     15  C   UNL     1      -0.137   0.346  -0.564  0.00  0.00    +0.000 C 
ATOM     16  C   UNL     1      -0.404   0.381   1.933  0.00  0.00    +0.000 C 
BRANCH  14  17
ATOM     17  C   UNL     1      -2.397   0.136   0.403  0.00  0.00    +0.000 A 
ATOM     18  C   UNL     1      -3.024   0.650  -0.732  0.00  0.00    +0.000 A 
ATOM     19  C   UNL     1      -3.148  -0.525   1.375  0.00  0.00    +0.000 A 
ATOM     20  C   UNL     1      -5.152  -0.159   0.077  0.00  0.00    +0.000 A 
ATOM     21  C   UNL     1      -4.402   0.502  -0.895  0.00  0.00    +0.000 A 
ATOM     22  C   UNL     1      -4.525  -0.673   1.212  0.00  0.00    +0.000 A 
BRANCH  20  26
ATOM     23  F   UNL     1      -7.078   0.240  -1.259  0.00  0.00    +0.000 F 
ATOM     24  F   UNL     1      -7.035  -1.619  -0.133  0.00  0.00    +0.000 F 
ATOM     25  F   UNL     1      -7.359   0.262   0.896  0.00  0.00    +0.000 F 
ATOM     26  C   UNL     1      -6.625  -0.317  -0.099  0.00  0.00    +0.000 C 
ENDBRANCH  20  26
ENDBRANCH  14  17
ENDBRANCH   5  15
BRANCH   6  27
ATOM     27  O   UNL     1       1.655  -1.884  -0.221  0.00  0.00    +0.000 OA
ATOM     28  H   UNL     1       0.693  -1.882  -0.355  0.00  0.00    +0.000 HD
ENDBRANCH   6  27
BRANCH   8  29
ATOM     29  O   UNL     1       3.950  -2.830   0.116  0.00  0.00    +0.000 OA
ATOM     30  C   UNL     1       3.928  -3.452  -1.165  0.00  0.00    +0.000 C 
ENDBRANCH   8  29
TORSDOF 5
