REMARK  Name = 
REMARK  7 active torsions:
REMARK  status: ('A' for Active; 'I' for Inactive)
REMARK    1  A    between atoms: C_1  and  C_2
REMARK    2  A    between atoms: C_2  and  C_4
REMARK    3  A    between atoms: C_7  and  N_8
REMARK    4  A    between atoms: C_9  and  C_11
REMARK    5  A    between atoms: C_15  and  C_16
REMARK    6  A    between atoms: C_20  and  O_21
REMARK    7  A    between atoms: C_23  and  O_24
REMARK                            x       y       z     vdW  Elec       q    Type
REMARK                         _______ _______ _______ _____ _____    ______ ____
ROOT
ATOM      1  C   UNL     1      -0.272   0.954  -0.556  0.00  0.00    +0.000 A 
ATOM      2  C   UNL     1       0.411   2.163  -0.590  0.00  0.00    +0.000 A 
ATOM      3  N   UNL     1      -0.489   3.052  -1.032  0.00  0.00    +0.000 NA
ATOM      4  N   UNL     1      -1.661   2.610  -0.584  0.00  0.00    +0.000 N 
ATOM      5  C   UNL     1      -1.572   1.291  -0.288  0.00  0.00    +0.000 A 
ATOM      6  H   UNL     1      -2.471   3.160  -0.484  0.00  0.00    +0.000 HD
ENDROOT
BRANCH   5   7
ATOM      7  C   UNL     1      -2.701   0.361  -0.153  0.00  0.00    +0.000 A 
ATOM      8  C   UNL     1      -3.683   0.251  -1.129  0.00  0.00    +0.000 A 
ATOM      9  C   UNL     1      -5.019   0.045  -0.802  0.00  0.00    +0.000 A 
ATOM     10 CL   UNL     1      -6.271   0.439  -1.977  0.00  0.00    +0.000 Cl
ATOM     11  C   UNL     1      -5.423   0.072   0.527  0.00  0.00    +0.000 A 
ATOM     12  C   UNL     1      -4.430  -0.221   1.452  0.00  0.00    +0.000 A 
ATOM     13  C   UNL     1      -3.094  -0.034   1.121  0.00  0.00    +0.000 A 
BRANCH  11  14
ATOM     14  O   UNL     1      -6.609   0.715   0.894  0.00  0.00    +0.000 OA
ATOM     15  H   UNL     1      -7.262   0.900   0.247  0.00  0.00    +0.000 HD
ENDBRANCH  11  14
BRANCH  13  16
ATOM     16  O   UNL     1      -2.155  -0.072   2.154  0.00  0.00    +0.000 OA
ATOM     17  H   UNL     1      -2.415  -0.338   3.014  0.00  0.00    +0.000 HD
ENDBRANCH  13  16
ENDBRANCH   5   7
BRANCH   1  19
ATOM     18  N   UNL     1       0.916  -1.228  -1.055  0.00  0.00    +0.000 N 
ATOM     19  C   UNL     1       0.388  -0.282  -0.118  0.00  0.00    +0.000 C 
ATOM     20  O   UNL     1       1.024  -0.196   0.976  0.00  0.00    +0.000 OA
ATOM     21  H   UNL     1       0.343  -1.543  -1.791  0.00  0.00    +0.000 HD
BRANCH  18  25
ATOM     22  C   UNL     1       4.862  -1.197  -0.017  0.00  0.00    +0.000 A 
ATOM     23  C   UNL     1       4.510  -0.902  -1.316  0.00  0.00    +0.000 A 
ATOM     24  C   UNL     1       3.215  -1.133  -1.760  0.00  0.00    +0.000 A 
ATOM     25  C   UNL     1       2.255  -1.729  -0.952  0.00  0.00    +0.000 A 
ATOM     26  C   UNL     1       2.684  -2.057   0.330  0.00  0.00    +0.000 A 
ATOM     27  C   UNL     1       4.028  -2.032   0.681  0.00  0.00    +0.000 A 
BRANCH  22  29
ATOM     28  C   UNL     1       6.897   0.330  -0.158  0.00  0.00    +0.000 C 
ATOM     29  C   UNL     1       6.004  -0.552   0.626  0.00  0.00    +0.000 C 
ATOM     30  O   UNL     1       6.185  -0.651   1.858  0.00  0.00    +0.000 OA
ENDBRANCH  22  29
ENDBRANCH  18  25
ENDBRANCH   1  19
TORSDOF 6
