REMARK  Name = 16475583
REMARK  6 active torsions:
REMARK  status: ('A' for Active; 'I' for Inactive)
REMARK    1  A    between atoms: O_3  and  C_17
REMARK    2  A    between atoms: O_3  and  C_23
REMARK    3  A    between atoms: O_4  and  C_20
REMARK    4  A    between atoms: N_7  and  N_8
REMARK    5  A    between atoms: N_7  and  C_13
REMARK    6  A    between atoms: C_10  and  C_16
REMARK                            x       y       z     vdW  Elec       q    Type
REMARK                         _______ _______ _______ _____ _____    ______ ____
ROOT
ATOM      1  N   UNL     1      -0.384  -0.346  -0.425  0.00  0.00    +0.000 N 
ATOM      2  H   UNL     1      -0.677  -1.296  -0.615  0.00  0.00    +0.000 HD
ENDROOT
BRANCH   1   9
ATOM      3 BR   UNL     1      -5.515  -2.585  -0.508  0.00  0.00    +0.000 Br
ATOM      4 BR   UNL     1      -5.894   2.992   0.625  0.00  0.00    +0.000 Br
ATOM      5  O   UNL     1      -2.552  -1.833  -0.567  0.00  0.00    +0.000 OA
ATOM      6  C   UNL     1      -2.622   0.509  -0.098  0.00  0.00    +0.000 C 
ATOM      7  C   UNL     1      -3.231  -0.840  -0.323  0.00  0.00    +0.000 C 
ATOM      8  C   UNL     1      -3.483   1.635   0.186  0.00  0.00    +0.000 C 
ATOM      9  C   UNL     1      -1.288   0.627  -0.168  0.00  0.00    +0.000 C 
ATOM     10  C   UNL     1      -4.726  -0.909  -0.231  0.00  0.00    +0.000 C 
ATOM     11  C   UNL     1      -4.818   1.501   0.254  0.00  0.00    +0.000 C 
ATOM     12  C   UNL     1      -5.439   0.201   0.040  0.00  0.00    +0.000 C 
BRANCH  12  13
ATOM     13  O   UNL     1      -6.821   0.144   0.126  0.00  0.00    +0.000 OA
ATOM     14  H   UNL     1      -7.095  -0.775  -0.037  0.00  0.00    +0.000 HD
ENDBRANCH  12  13
ENDBRANCH   1   9
BRANCH   1  16
ATOM     15  O   UNL     1       1.439  -1.573   1.215  0.00  0.00    +0.000 OA
ATOM     16  N   UNL     1       0.965  -0.079  -0.491  0.00  0.00    +0.000 N 
ATOM     17  C   UNL     1       1.802  -0.750   0.379  0.00  0.00    +0.000 C 
ATOM     18  H   UNL     1       1.250   0.550  -1.233  0.00  0.00    +0.000 HD
BRANCH  17  19
ATOM     19  C   UNL     1       3.249  -0.436   0.247  0.00  0.00    +0.000 A 
ATOM     20  C   UNL     1       4.204  -1.383   0.617  0.00  0.00    +0.000 A 
ATOM     21  C   UNL     1       3.652   0.804  -0.246  0.00  0.00    +0.000 A 
ATOM     22  C   UNL     1       5.965   0.151   0.000  0.00  0.00    +0.000 A 
ATOM     23  C   UNL     1       5.562  -1.090   0.493  0.00  0.00    +0.000 A 
ATOM     24  C   UNL     1       5.010   1.098  -0.370  0.00  0.00    +0.000 A 
BRANCH  22  25
ATOM     25  O   UNL     1       7.290   0.437  -0.123  0.00  0.00    +0.000 OA
ATOM     26  C   UNL     1       7.632   1.724  -0.634  0.00  0.00    +0.000 C 
ENDBRANCH  22  25
ENDBRANCH  17  19
ENDBRANCH   1  16
TORSDOF 5
