REMARK  Name = 
REMARK  9 active torsions:
REMARK  status: ('A' for Active; 'I' for Inactive)
REMARK    1  A    between atoms: C_1  and  O_2
REMARK    2  A    between atoms: O_2  and  C_3
REMARK    3  A    between atoms: C_5  and  N_6
REMARK    4  A    between atoms: N_7  and  C_8
REMARK    5  A    between atoms: C_13  and  C_14
REMARK    6  A    between atoms: C_14  and  O_16
REMARK    7  A    between atoms: C_18  and  O_19
REMARK    8  A    between atoms: O_19  and  C_20
REMARK    9  A    between atoms: C_21  and  O_22
REMARK                            x       y       z     vdW  Elec       q    Type
REMARK                         _______ _______ _______ _____ _____    ______ ____
ROOT
ATOM      1  C   UNL     1       2.787  -1.438  -0.036  0.00  0.00    +0.000 A 
ATOM      2  C   UNL     1       1.445  -1.399  -0.388  0.00  0.00    +0.000 A 
ATOM      3  C   UNL     1       0.922  -0.387  -1.185  0.00  0.00    +0.000 A 
ATOM      4  C   UNL     1       1.676   0.780  -1.214  0.00  0.00    +0.000 A 
ATOM      5  C   UNL     1       3.033   0.787  -0.981  0.00  0.00    +0.000 A 
ATOM      6  C   UNL     1       3.577  -0.409  -0.528  0.00  0.00    +0.000 A 
ENDROOT
BRANCH   1   8
ATOM      7  C   UNL     1       2.628  -2.907   1.938  0.00  0.00    +0.000 C 
ATOM      8  O   UNL     1       3.308  -2.400   0.820  0.00  0.00    +0.000 OA
ENDBRANCH   1   8
BRANCH   3   9
ATOM      9  N   UNL     1      -0.497  -0.180  -1.160  0.00  0.00    +0.000 NA
ATOM     10  N   UNL     1      -1.099  -0.253  -0.059  0.00  0.00    +0.000 NA
BRANCH  10  11
ATOM     11  C   UNL     1      -2.126   0.619   0.373  0.00  0.00    +0.000 A 
ATOM     12  C   UNL     1      -1.833   1.847   0.956  0.00  0.00    +0.000 A 
ATOM     13  C   UNL     1      -2.776   2.407   1.808  0.00  0.00    +0.000 A 
ATOM     14  C   UNL     1      -3.857   1.676   2.277  0.00  0.00    +0.000 A 
ATOM     15  C   UNL     1      -4.263   0.606   1.496  0.00  0.00    +0.000 A 
ATOM     16  C   UNL     1      -3.423   0.137   0.495  0.00  0.00    +0.000 A 
BRANCH  16  17
ATOM     17  C   UNL     1      -3.845  -0.935  -0.417  0.00  0.00    +0.000 C 
ATOM     18  O   UNL     1      -3.530  -0.866  -1.641  0.00  0.00    +0.000 OA
BRANCH  17  19
ATOM     19  O   UNL     1      -4.199  -2.196   0.063  0.00  0.00    +0.000 OA
ATOM     20  H   UNL     1      -4.441  -2.305   0.962  0.00  0.00    +0.000 HD
ENDBRANCH  17  19
ENDBRANCH  16  17
ENDBRANCH  10  11
ENDBRANCH   3   9
BRANCH   5  21
ATOM     21  O   UNL     1       3.809   1.923  -0.956  0.00  0.00    +0.000 OA
ATOM     22  C   UNL     1       3.315   3.236  -0.990  0.00  0.00    +0.000 C 
ENDBRANCH   5  21
BRANCH   6  23
ATOM     23  O   UNL     1       4.946  -0.646  -0.671  0.00  0.00    +0.000 OA
ATOM     24  H   UNL     1       5.507   0.028  -1.001  0.00  0.00    +0.000 HD
ENDBRANCH   6  23
TORSDOF 7
