REMARK  Name = 
REMARK  6 active torsions:
REMARK  status: ('A' for Active; 'I' for Inactive)
REMARK    1  A    between atoms: C_1  and  O_2
REMARK    2  A    between atoms: O_2  and  C_3
REMARK    3  A    between atoms: C_7  and  C_8
REMARK    4  A    between atoms: N_9  and  C_10
REMARK    5  A    between atoms: C_13  and  C_14
REMARK    6  A    between atoms: C_17  and  O_18
REMARK                            x       y       z     vdW  Elec       q    Type
REMARK                         _______ _______ _______ _____ _____    ______ ____
ROOT
ATOM      1  C   UNL     1      -3.071   0.114   0.411  0.00  0.00    +0.000 A 
ATOM      2  C   UNL     1      -2.985  -0.550   1.629  0.00  0.00    +0.000 A 
ATOM      3  C   UNL     1      -2.249  -1.726   1.683  0.00  0.00    +0.000 A 
ATOM      4  C   UNL     1      -1.571  -2.127   0.555  0.00  0.00    +0.000 A 
ATOM      5  C   UNL     1      -1.430  -1.325  -0.571  0.00  0.00    +0.000 A 
ATOM      6  C   UNL     1      -2.105  -0.108  -0.564  0.00  0.00    +0.000 A 
ENDROOT
BRANCH   1   8
ATOM      7  C   UNL     1      -3.049   2.510   0.522  0.00  0.00    +0.000 C 
ATOM      8  O   UNL     1      -3.783   1.303   0.358  0.00  0.00    +0.000 OA
ENDBRANCH   1   8
BRANCH   5   9
ATOM      9  C   UNL     1      -0.127  -1.461  -1.243  0.00  0.00    +0.000 C 
ATOM     10  N   UNL     1       0.614  -0.476  -1.566  0.00  0.00    +0.000 NA
BRANCH  10  11
ATOM     11  C   UNL     1       1.989  -0.337  -1.217  0.00  0.00    +0.000 A 
ATOM     12  C   UNL     1       2.620  -1.103  -0.256  0.00  0.00    +0.000 A 
ATOM     13  C   UNL     1       3.428  -0.532   0.716  0.00  0.00    +0.000 A 
ATOM     14  C   UNL     1       3.668   0.838   0.730  0.00  0.00    +0.000 A 
ATOM     15  C   UNL     1       3.672   1.614   2.010  0.00  0.00    +0.000 C 
ATOM     16  C   UNL     1       3.407   1.487  -0.471  0.00  0.00    +0.000 A 
ATOM     17  C   UNL     1       2.578   0.905  -1.425  0.00  0.00    +0.000 A 
ENDBRANCH  10  11
ENDBRANCH   5   9
BRANCH   6  18
ATOM     18  O   UNL     1      -1.606   0.973  -1.301  0.00  0.00    +0.000 OA
ATOM     19  H   UNL     1      -0.955   0.830  -1.959  0.00  0.00    +0.000 HD
ENDBRANCH   6  18
TORSDOF 4
