REMARK  Name = 11171903
REMARK  5 active torsions:
REMARK  status: ('A' for Active; 'I' for Inactive)
REMARK    1  A    between atoms: O_1  and  C_7
REMARK    2  A    between atoms: O_2  and  C_13
REMARK    3  A    between atoms: C_3  and  C_4
REMARK    4  A    between atoms: C_3  and  C_5
REMARK    5  A    between atoms: C_3  and  C_6
REMARK                            x       y       z     vdW  Elec       q    Type
REMARK                         _______ _______ _______ _____ _____    ______ ____
ROOT
ATOM      1  C   UNL     1       0.828   0.385   0.366  0.00  0.00    +0.000 A 
ATOM      2  C   UNL     1       1.745   1.063  -0.397  0.00  0.00    +0.000 A 
ATOM      3  C   UNL     1       1.036  -0.889   0.836  0.00  0.00    +0.000 A 
ATOM      4  C   UNL     1       2.947   0.428  -0.712  0.00  0.00    +0.000 A 
ATOM      5  C   UNL     1       2.237  -1.524   0.522  0.00  0.00    +0.000 A 
ATOM      6  C   UNL     1       3.193  -0.866  -0.252  0.00  0.00    +0.000 A 
ENDROOT
BRANCH   2   7
ATOM      7  O   UNL     1       1.521   2.327  -0.854  0.00  0.00    +0.000 OA
ATOM      8  H   UNL     1       2.291   2.620  -1.371  0.00  0.00    +0.000 HD
ENDBRANCH   2   7
BRANCH   6   9
ATOM      9  O   UNL     1       4.365  -1.486  -0.559  0.00  0.00    +0.000 OA
ATOM     10  H   UNL     1       4.907  -0.886  -1.099  0.00  0.00    +0.000 HD
ENDBRANCH   6   9
BRANCH   1  11
ATOM     11  C   UNL     1      -0.502   1.069   0.723  0.00  0.00    +0.000 C 
ATOM     12  C   UNL     1      -0.494   1.363   2.245  0.00  0.00    +0.000 C 
BRANCH  11  13
ATOM     13  C   UNL     1      -1.696   0.355   0.184  0.00  0.00    +0.000 A 
ATOM     14  C   UNL     1      -2.110   0.581  -1.129  0.00  0.00    +0.000 A 
ATOM     15  C   UNL     1      -2.398  -0.538   0.993  0.00  0.00    +0.000 A 
ATOM     16  C   UNL     1      -3.227  -0.086  -1.632  0.00  0.00    +0.000 A 
ATOM     17  C   UNL     1      -3.515  -1.204   0.489  0.00  0.00    +0.000 A 
ATOM     18  C   UNL     1      -3.929  -0.978  -0.823  0.00  0.00    +0.000 A 
ENDBRANCH  11  13
ENDBRANCH   1  11
TORSDOF 4
