REMARK  Name = 5284571
REMARK  5 active torsions:
REMARK  status: ('A' for Active; 'I' for Inactive)
REMARK    1  A    between atoms: O_1  and  C_8
REMARK    2  A    between atoms: C_6  and  C_9
REMARK    3  A    between atoms: C_7  and  C_12
REMARK    4  A    between atoms: C_10  and  C_20
REMARK    5  A    between atoms: C_17  and  C_21
REMARK                            x       y       z     vdW  Elec       q    Type
REMARK                         _______ _______ _______ _____ _____    ______ ____
ROOT
ATOM      1  C   UNL     1      -1.819   0.210  -0.274  0.00  0.00    +0.000 A 
ATOM      2  C   UNL     1      -2.510  -0.961  -0.544  0.00  0.00    +0.000 A 
ATOM      3  C   UNL     1      -4.574   0.154   0.035  0.00  0.00    +0.000 A 
ATOM      4  C   UNL     1      -2.480   1.353   0.149  0.00  0.00    +0.000 A 
ATOM      5  C   UNL     1      -3.896  -0.989  -0.389  0.00  0.00    +0.000 A 
ATOM      6  C   UNL     1      -3.865   1.325   0.304  0.00  0.00    +0.000 A 
ENDROOT
BRANCH   3   9
ATOM      7  N   UNL     1      -6.724   1.250   0.621  0.00  0.00    +0.000 N 
ATOM      8  N   UNL     1      -6.686  -0.987  -0.053  0.00  0.00    +0.000 NA
ATOM      9  C   UNL     1      -6.019   0.124   0.198  0.00  0.00    +0.000 C 
ATOM     10  H   UNL     1      -7.732   1.209   0.729  0.00  0.00    +0.000 HD
ATOM     11  H   UNL     1      -6.291   2.140   0.834  0.00  0.00    +0.000 HD
ATOM     12  H   UNL     1      -7.683  -0.811   0.119  0.00  0.00    +0.000 HD
ENDBRANCH   3   9
BRANCH   2  13
ATOM     13  O   UNL     1      -1.872  -2.092  -0.961  0.00  0.00    +0.000 OA
ATOM     14  H   UNL     1      -0.921  -1.933  -1.067  0.00  0.00    +0.000 HD
ENDBRANCH   2  13
BRANCH   1  15
ATOM     15  C   UNL     1      -0.354   0.266  -0.430  0.00  0.00    +0.000 C 
ATOM     16  C   UNL     1       0.545  -0.057   0.529  0.00  0.00    +0.000 C 
BRANCH  16  17
ATOM     17  C   UNL     1       1.991  -0.020   0.370  0.00  0.00    +0.000 A 
ATOM     18  C   UNL     1       2.561   0.742  -0.650  0.00  0.00    +0.000 A 
ATOM     19  C   UNL     1       2.807  -0.747   1.236  0.00  0.00    +0.000 A 
ATOM     20  C   UNL     1       4.763   0.049   0.062  0.00  0.00    +0.000 A 
ATOM     21  C   UNL     1       3.946   0.776  -0.804  0.00  0.00    +0.000 A 
ATOM     22  C   UNL     1       4.193  -0.712   1.083  0.00  0.00    +0.000 A 
BRANCH  20  25
ATOM     23  N   UNL     1       6.807   0.836  -1.107  0.00  0.00    +0.000 N 
ATOM     24  N   UNL     1       6.978  -0.608   0.722  0.00  0.00    +0.000 NA
ATOM     25  C   UNL     1       6.208   0.085  -0.098  0.00  0.00    +0.000 C 
ATOM     26  H   UNL     1       7.817   0.848  -1.204  0.00  0.00    +0.000 HD
ATOM     27  H   UNL     1       6.292   1.394  -1.777  0.00  0.00    +0.000 HD
ATOM     28  H   UNL     1       7.956  -0.457   0.450  0.00  0.00    +0.000 HD
ENDBRANCH  20  25
ENDBRANCH  16  17
ENDBRANCH   1  15
TORSDOF 5
