REMARK  Name = 74989
REMARK  3 active torsions:
REMARK  status: ('A' for Active; 'I' for Inactive)
REMARK    1  A    between atoms: O_2  and  C_13
REMARK    2  A    between atoms: C_5  and  C_11
REMARK    3  A    between atoms: C_6  and  C_12
REMARK                            x       y       z     vdW  Elec       q    Type
REMARK                         _______ _______ _______ _____ _____    ______ ____
ROOT
ATOM      1  O   UNL     1      -1.167   2.087  -0.209  0.00  0.00    +0.000 OA
ATOM      2  O   UNL     1      -3.718   2.763  -0.215  0.00  0.00    +0.000 OA
ATOM      3  C   UNL     1      -1.631  -0.249   0.004  0.00  0.00    +0.000 C 
ATOM      4  C   UNL     1      -2.614  -1.169   0.084  0.00  0.00    +0.000 C 
ATOM      5  C   UNL     1      -1.994   1.191  -0.115  0.00  0.00    +0.000 C 
ATOM      6  C   UNL     1      -4.050  -0.812   0.070  0.00  0.00    +0.000 A 
ATOM      7  C   UNL     1      -3.441   1.577  -0.127  0.00  0.00    +0.000 C 
ATOM      8  C   UNL     1      -4.459   0.523  -0.032  0.00  0.00    +0.000 A 
ATOM      9  C   UNL     1      -5.052  -1.794   0.159  0.00  0.00    +0.000 A 
ATOM     10  C   UNL     1      -5.814   0.876  -0.046  0.00  0.00    +0.000 A 
ATOM     11  C   UNL     1      -6.407  -1.449   0.146  0.00  0.00    +0.000 A 
ATOM     12  C   UNL     1      -6.787  -0.115   0.044  0.00  0.00    +0.000 A 
ENDROOT
BRANCH   3  13
ATOM     13  C   UNL     1      -0.157  -0.518   0.033  0.00  0.00    +0.000 C 
ATOM     14  C   UNL     1       2.673   0.391  -0.039  0.00  0.00    +0.000 C 
ATOM     15  C   UNL     1       0.498   0.163   1.243  0.00  0.00    +0.000 C 
ATOM     16  C   UNL     1       0.506  -0.062  -1.274  0.00  0.00    +0.000 C 
ATOM     17  C   UNL     1       2.010  -0.066   1.271  0.00  0.00    +0.000 C 
ATOM     18  C   UNL     1       2.018  -0.291  -1.252  0.00  0.00    +0.000 C 
BRANCH  14  20
ATOM     19 CL   UNL     1       8.639  -0.444   0.049  0.00  0.00    +0.000 Cl
ATOM     20  C   UNL     1       4.176   0.180  -0.015  0.00  0.00    +0.000 A 
ATOM     21  C   UNL     1       5.011   1.191   0.455  0.00  0.00    +0.000 A 
ATOM     22  C   UNL     1       4.715  -1.023  -0.466  0.00  0.00    +0.000 A 
ATOM     23  C   UNL     1       6.392   0.998   0.475  0.00  0.00    +0.000 A 
ATOM     24  C   UNL     1       6.096  -1.216  -0.445  0.00  0.00    +0.000 A 
ATOM     25  C   UNL     1       6.935  -0.206   0.025  0.00  0.00    +0.000 A 
ENDBRANCH  14  20
ENDBRANCH   3  13
BRANCH   4  26
ATOM     26  O   UNL     1      -2.376  -2.527   0.178  0.00  0.00    +0.000 OA
ATOM     27  H   UNL     1      -1.426  -2.710   0.139  0.00  0.00    +0.000 HD
ENDBRANCH   4  26
TORSDOF 3
