REMARK  Name = 5289026
REMARK  6 active torsions:
REMARK  status: ('A' for Active; 'I' for Inactive)
REMARK    1  A    between atoms: O_1  and  C_13
REMARK    2  A    between atoms: O_5  and  C_23
REMARK    3  A    between atoms: O_5  and  C_28
REMARK    4  A    between atoms: O_6  and  C_24
REMARK    5  A    between atoms: C_12  and  C_23
REMARK    6  A    between atoms: C_15  and  C_22
REMARK                            x       y       z     vdW  Elec       q    Type
REMARK                         _______ _______ _______ _____ _____    ______ ____
ROOT
ATOM      1  O   UNL     1       2.063  -3.647  -0.140  0.00  0.00    +0.000 OA
ATOM      2  O   UNL     1      -2.694  -2.310  -0.184  0.00  0.00    +0.000 OA
ATOM      3  O   UNL     1      -1.265   2.818   0.257  0.00  0.00    +0.000 OA
ATOM      4  C   UNL     1       1.806  -0.056   0.108  0.00  0.00    +0.000 A 
ATOM      5  C   UNL     1       1.402  -1.395   0.010  0.00  0.00    +0.000 A 
ATOM      6  C   UNL     1      -0.940  -0.756  -0.014  0.00  0.00    +0.000 A 
ATOM      7  C   UNL     1      -0.566   0.579   0.100  0.00  0.00    +0.000 A 
ATOM      8  C   UNL     1       3.243   0.307   0.163  0.00  0.00    +0.000 C 
ATOM      9  C   UNL     1       0.043  -1.746  -0.056  0.00  0.00    +0.000 A 
ATOM     10  C   UNL     1       3.866  -2.120   0.164  0.00  0.00    +0.000 C 
ATOM     11  C   UNL     1       4.195  -0.651   0.180  0.00  0.00    +0.000 C 
ATOM     12  C   UNL     1       0.795   0.922   0.164  0.00  0.00    +0.000 A 
ATOM     13  C   UNL     1       2.409  -2.476  -0.007  0.00  0.00    +0.000 C 
ATOM     14  C   UNL     1      -2.366  -1.135  -0.083  0.00  0.00    +0.000 C 
ATOM     15  C   UNL     1      -1.591   1.642   0.157  0.00  0.00    +0.000 C 
ATOM     16  C   UNL     1      -3.393  -0.074  -0.027  0.00  0.00    +0.000 A 
ATOM     17  C   UNL     1      -3.019   1.266   0.089  0.00  0.00    +0.000 A 
ATOM     18  C   UNL     1       5.688  -0.406   0.194  0.00  0.00    +0.000 C 
ATOM     19  C   UNL     1      -4.748  -0.418  -0.090  0.00  0.00    +0.000 A 
ATOM     20  C   UNL     1      -4.000   2.263   0.142  0.00  0.00    +0.000 A 
ATOM     21  C   UNL     1      -5.723   0.578  -0.038  0.00  0.00    +0.000 A 
ATOM     22  C   UNL     1      -5.350   1.916   0.078  0.00  0.00    +0.000 A 
ENDROOT
BRANCH   9  23
ATOM     23  O   UNL     1      -0.319  -3.060  -0.152  0.00  0.00    +0.000 OA
ATOM     24  H   UNL     1       0.380  -3.569  -0.591  0.00  0.00    +0.000 HD
ENDBRANCH   9  23
BRANCH  19  25
ATOM     25  O   UNL     1      -5.185  -1.705  -0.203  0.00  0.00    +0.000 OA
ATOM     26  H   UNL     1      -4.438  -2.321  -0.231  0.00  0.00    +0.000 HD
ENDBRANCH  19  25
BRANCH   8  28
ATOM     27  O   UNL     1       3.834   2.310   1.254  0.00  0.00    +0.000 OA
ATOM     28  C   UNL     1       3.679   1.716   0.201  0.00  0.00    +0.000 C 
BRANCH  28  29
ATOM     29  O   UNL     1       3.853   2.141  -1.065  0.00  0.00    +0.000 OA
ATOM     30  C   UNL     1       4.284   3.498  -1.202  0.00  0.00    +0.000 C 
ENDBRANCH  28  29
ENDBRANCH   8  28
TORSDOF 4
