REMARK  Name = 54682463
REMARK  5 active torsions:
REMARK  status: ('A' for Active; 'I' for Inactive)
REMARK    1  A    between atoms: O_1  and  C_14
REMARK    2  A    between atoms: C_8  and  C_12
REMARK    3  A    between atoms: C_8  and  C_13
REMARK    4  A    between atoms: C_18  and  C_22
REMARK    5  A    between atoms: C_22  and  C_25
REMARK                            x       y       z     vdW  Elec       q    Type
REMARK                         _______ _______ _______ _____ _____    ______ ____
ROOT
ATOM      1  O   UNL     1      -3.782  -1.643   0.245  0.00  0.00    +0.000 OA
ATOM      2  N   UNL     1      -1.506  -1.037   0.200  0.00  0.00    +0.000 N 
ATOM      3  N   UNL     1       3.105   2.420  -0.754  0.00  0.00    +0.000 N 
ATOM      4  C   UNL     1       0.644  -1.531  -0.646  0.00  0.00    +0.000 C 
ATOM      5  C   UNL     1       0.288   0.019  -0.809  0.00  0.00    +0.000 C 
ATOM      6  C   UNL     1      -0.769  -2.167  -0.392  0.00  0.00    +0.000 C 
ATOM      7  C   UNL     1      -0.736   0.183   0.308  0.00  0.00    +0.000 C 
ATOM      8  C   UNL     1       1.702  -1.845   0.476  0.00  0.00    +0.000 C 
ATOM      9  C   UNL     1       1.500   0.874  -0.694  0.00  0.00    +0.000 A 
ATOM     10  C   UNL     1      -1.387  -2.563  -1.749  0.00  0.00    +0.000 C 
ATOM     11  C   UNL     1      -0.794  -3.385   0.533  0.00  0.00    +0.000 C 
ATOM     12  C   UNL     1      -1.833   1.186   0.258  0.00  0.00    +0.000 C 
ATOM     13  C   UNL     1       2.678   0.358  -0.117  0.00  0.00    +0.000 A 
ATOM     14  C   UNL     1       2.883  -0.915   0.422  0.00  0.00    +0.000 A 
ATOM     15  C   UNL     1      -2.873  -0.833   0.284  0.00  0.00    +0.000 C 
ATOM     16  C   UNL     1      -3.055   0.639   0.313  0.00  0.00    +0.000 C 
ATOM     17  C   UNL     1       1.791   2.160  -1.089  0.00  0.00    +0.000 A 
ATOM     18  C   UNL     1       3.673   1.316  -0.158  0.00  0.00    +0.000 A 
ATOM     19  C   UNL     1       4.149  -1.185   0.949  0.00  0.00    +0.000 A 
ATOM     20  C   UNL     1       4.948   1.059   0.347  0.00  0.00    +0.000 A 
ATOM     21  C   UNL     1       5.162  -0.215   0.903  0.00  0.00    +0.000 A 
ATOM     22  H   UNL     1       3.582   3.293  -0.931  0.00  0.00    +0.000 HD
ENDROOT
BRANCH  16  24
ATOM     23  O   UNL     1      -4.385   2.499   0.841  0.00  0.00    +0.000 OA
ATOM     24  C   UNL     1      -4.311   1.368   0.340  0.00  0.00    +0.000 C 
ATOM     25  C   UNL     1      -5.535   0.718  -0.268  0.00  0.00    +0.000 C 
ENDBRANCH  16  24
BRANCH  12  26
ATOM     26  O   UNL     1      -1.556   2.523   0.261  0.00  0.00    +0.000 OA
ATOM     27  H   UNL     1      -2.395   3.014   0.255  0.00  0.00    +0.000 HD
ENDBRANCH  12  26
TORSDOF 2
