REMARK  Name = 
REMARK  25 active torsions:
REMARK  status: ('A' for Active; 'I' for Inactive)
REMARK    1  A    between atoms: C_1  and  C_2
REMARK    2  A    between atoms: C_2  and  C_3
REMARK    3  A    between atoms: C_7  and  C_8
REMARK    4  A    between atoms: C_9  and  O_10
REMARK    5  A    between atoms: O_10  and  C_11
REMARK    6  A    between atoms: C_13  and  C_14
REMARK    7  A    between atoms: C_13  and  O_15
REMARK    8  A    between atoms: O_15  and  C_16
REMARK    9  A    between atoms: C_17  and  O_18
REMARK   10  A    between atoms: C_19  and  C_20
REMARK   11  A    between atoms: C_22  and  C_23
REMARK   12  A    between atoms: C_24  and  O_25
REMARK   13  A    between atoms: O_25  and  C_26
REMARK   14  A    between atoms: C_28  and  C_29
REMARK   15  A    between atoms: C_31  and  N_32
REMARK   16  A    between atoms: N_32  and  C_33
REMARK   17  A    between atoms: N_32  and  C_34
REMARK   18  A    between atoms: C_35  and  O_36
REMARK   19  A    between atoms: C_37  and  C_38
REMARK   20  A    between atoms: C_37  and  O_39
REMARK   21  A    between atoms: C_41  and  C_42
REMARK   22  A    between atoms: C_45  and  C_46
REMARK   23  A    between atoms: C_47  and  O_48
REMARK   24  A    between atoms: C_49  and  C_50
REMARK   25  A    between atoms: C_49  and  O_51
REMARK                            x       y       z     vdW  Elec       q    Type
REMARK                         _______ _______ _______ _____ _____    ______ ____
ROOT
ATOM      1  C   UNL     1      -2.978   2.551   0.143  0.00  0.00    +0.000 C 
ATOM      2  O   UNL     1      -1.583   2.128   0.639  0.00  0.00    +0.000 OA
ATOM      3  C   UNL     1      -1.857   1.163   1.619  0.00  0.00    +0.000 C 
ATOM      4  O   UNL     1      -1.185   1.146   2.656  0.00  0.00    +0.000 OA
ATOM      5  C   UNL     1      -2.270  -0.148   0.857  0.00  0.00    +0.000 C 
ATOM      6  C   UNL     1      -2.557  -0.860   2.309  0.00  0.00    +0.000 C 
ATOM      7  C   UNL     1      -0.768  -0.946   0.717  0.00  0.00    +0.000 C 
ATOM      8  C   UNL     1      -0.033   0.059  -0.427  0.00  0.00    +0.000 C 
ATOM      9  C   UNL     1       0.116  -0.977  -1.642  0.00  0.00    +0.000 C 
ATOM     10  C   UNL     1       1.535  -0.251   0.177  0.00  0.00    +0.000 C 
ATOM     11  C   UNL     1       1.885   1.310   0.470  0.00  0.00    +0.000 C 
ATOM     12  C   UNL     1       3.054   1.308   1.473  0.00  0.00    +0.000 C 
ATOM     13  C   UNL     1       1.959   2.169  -0.653  0.00  0.00    +0.000 C 
ATOM     14  C   UNL     1       2.316   3.610   0.063  0.00  0.00    +0.000 C 
ATOM     15  C   UNL     1       2.096   4.464  -1.330  0.00  0.00    +0.000 C 
ATOM     16  C   UNL     1       0.899   3.923   0.748  0.00  0.00    +0.000 C 
ATOM     17  O   UNL     1       1.119   4.580   1.743  0.00  0.00    +0.000 OA
ATOM     18  C   UNL     1      -0.292   4.370  -0.194  0.00  0.00    +0.000 C 
ATOM     19  C   UNL     1       0.233   5.916  -0.230  0.00  0.00    +0.000 C 
ATOM     20  C   UNL     1      -1.380   4.469   1.124  0.00  0.00    +0.000 C 
ATOM     21  C   UNL     1      -2.768   4.132   0.382  0.00  0.00    +0.000 C 
ATOM     22  C   UNL     1      -3.283   4.966  -0.595  0.00  0.00    +0.000 C 
ENDROOT
BRANCH   1  24
ATOM     23  C   UNL     1      -2.853   3.071  -1.864  0.00  0.00    +0.000 C 
ATOM     24  C   UNL     1      -2.539   2.664  -1.448  0.00  0.00    +0.000 C 
ENDBRANCH   1  24
BRANCH  11  25
ATOM     25  O   UNL     1       0.897   1.641   1.203  0.00  0.00    +0.000 OA
ATOM     26  H   UNL     1       0.851   1.050   1.971  0.00  0.00    +0.000 HD
ENDBRANCH  11  25
BRANCH  20  27
ATOM     27  O   UNL     1      -1.664   5.945   0.936  0.00  0.00    +0.000 OA
ATOM     28  H   UNL     1      -1.895   6.114   0.009  0.00  0.00    +0.000 HD
ENDBRANCH  20  27
BRANCH  21  29
ATOM     29  O   UNL     1      -3.542   4.165   1.574  0.00  0.00    +0.000 OA
ATOM     30  H   UNL     1      -3.560   5.070   1.923  0.00  0.00    +0.000 HD
ENDBRANCH  21  29
BRANCH   7  31
ATOM     31  O   UNL     1      -1.495  -1.826  -0.272  0.00  0.00    +0.000 OA
BRANCH  31  32
ATOM     32  C   UNL     1      -1.703  -3.099   0.534  0.00  0.00    +0.000 C 
ATOM     33  C   UNL     1      -3.366  -2.954   0.576  0.00  0.00    +0.000 C 
ATOM     34  C   UNL     1      -3.859  -4.337   0.523  0.00  0.00    +0.000 C 
ATOM     35  C   UNL     1      -2.897  -5.386   1.061  0.00  0.00    +0.000 C 
ATOM     36  C   UNL     1      -3.983  -4.601  -1.083  0.00  0.00    +0.000 C 
ATOM     37  C   UNL     1      -2.896  -3.318  -1.486  0.00  0.00    +0.000 C 
ATOM     38  C   UNL     1      -2.490  -4.063  -2.884  0.00  0.00    +0.000 C 
ATOM     39  O   UNL     1      -1.774  -3.968  -0.725  0.00  0.00    +0.000 OA
BRANCH  34  40
ATOM     40  O   UNL     1      -5.067  -4.576   1.106  0.00  0.00    +0.000 OA
ATOM     41  C   UNL     1      -5.720  -3.449   1.578  0.00  0.00    +0.000 C 
ENDBRANCH  34  40
BRANCH  36  42
ATOM     42  O   UNL     1      -5.160  -3.659  -1.170  0.00  0.00    +0.000 OA
ATOM     43  H   UNL     1      -4.957  -2.842  -0.689  0.00  0.00    +0.000 HD
ENDBRANCH  36  42
ENDBRANCH  31  32
ENDBRANCH   7  31
BRANCH  10  44
ATOM     44  O   UNL     1       2.268  -0.275  -1.141  0.00  0.00    +0.000 OA
BRANCH  44  45
ATOM     45  C   UNL     1       2.962  -1.637  -1.146  0.00  0.00    +0.000 C 
ATOM     46  O   UNL     1       3.091  -1.664   0.369  0.00  0.00    +0.000 OA
ATOM     47  C   UNL     1       3.633  -3.075   0.463  0.00  0.00    +0.000 C 
ATOM     48  C   UNL     1       3.297  -3.116   2.087  0.00  0.00    +0.000 C 
ATOM     49  C   UNL     1       5.176  -2.475   0.583  0.00  0.00    +0.000 C 
ATOM     50  C   UNL     1       5.379  -2.373  -1.044  0.00  0.00    +0.000 C 
ATOM     51  C   UNL     1       4.525  -0.905  -1.248  0.00  0.00    +0.000 C 
BRANCH  50  52
ATOM     52  N   UNL     1       6.716  -1.570  -0.980  0.00  0.00    +0.000 NA
ATOM     53  C   UNL     1       6.623  -0.595   0.032  0.00  0.00    +0.000 C 
ATOM     54  C   UNL     1       7.680  -2.571  -0.557  0.00  0.00    +0.000 C 
ENDBRANCH  50  52
BRANCH  51  55
ATOM     55  O   UNL     1       4.503  -1.075  -2.733  0.00  0.00    +0.000 OA
ATOM     56  H   UNL     1       4.225  -1.978  -2.951  0.00  0.00    +0.000 HD
ENDBRANCH  51  55
ENDBRANCH  44  45
ENDBRANCH  10  44
TORSDOF 12
