REMARK  Name = 5284447
REMARK  12 active torsions:
REMARK  status: ('A' for Active; 'I' for Inactive)
REMARK    1  A    between atoms: O_3  and  C_15
REMARK    2  A    between atoms: O_4  and  C_19
REMARK    3  A    between atoms: O_5  and  C_26
REMARK    4  A    between atoms: O_5  and  C_28
REMARK    5  A    between atoms: O_6  and  C_21
REMARK    6  A    between atoms: O_8  and  C_27
REMARK    7  A    between atoms: O_10  and  C_29
REMARK    8  A    between atoms: O_11  and  C_31
REMARK    9  A    between atoms: N_14  and  C_30
REMARK   10  A    between atoms: C_17  and  C_27
REMARK   11  A    between atoms: C_33  and  C_35
REMARK   12  A    between atoms: C_41  and  C_44
REMARK                            x       y       z     vdW  Elec       q    Type
REMARK                         _______ _______ _______ _____ _____    ______ ____
ROOT
ATOM      1  O   UNL     1       1.072  -2.437  -0.773  0.00  0.00    +0.000 OA
ATOM      2  O   UNL     1      -5.076  -1.393  -3.009  0.00  0.00    +0.000 OA
ATOM      3  O   UNL     1      -7.203   1.815   0.306  0.00  0.00    +0.000 OA
ATOM      4  O   UNL     1      -7.765   0.539   2.142  0.00  0.00    +0.000 OA
ATOM      5  C   UNL     1      -0.051  -3.193  -0.290  0.00  0.00    +0.000 C 
ATOM      6  C   UNL     1       2.326  -2.765  -0.167  0.00  0.00    +0.000 C 
ATOM      7  C   UNL     1       2.281  -2.510   1.346  0.00  0.00    +0.000 C 
ATOM      8  C   UNL     1      -0.199  -2.980   1.221  0.00  0.00    +0.000 C 
ATOM      9  C   UNL     1       1.100  -3.248   1.985  0.00  0.00    +0.000 C 
ATOM     10  C   UNL     1      -1.268  -2.650  -1.082  0.00  0.00    +0.000 C 
ATOM     11  C   UNL     1      -2.579  -3.446  -0.956  0.00  0.00    +0.000 C 
ATOM     12  C   UNL     1      -4.194  -1.725  -1.926  0.00  0.00    +0.000 C 
ATOM     13  C   UNL     1      -3.591  -3.095  -2.056  0.00  0.00    +0.000 C 
ATOM     14  C   UNL     1       3.435  -1.985  -0.907  0.00  0.00    +0.000 C 
ATOM     15  C   UNL     1      -5.686  -1.555  -1.718  0.00  0.00    +0.000 C 
ATOM     16  C   UNL     1       3.456  -0.456  -0.728  0.00  0.00    +0.000 C 
ATOM     17  C   UNL     1      -6.177  -0.409  -0.940  0.00  0.00    +0.000 C 
ATOM     18  C   UNL     1       2.202   0.211  -1.212  0.00  0.00    +0.000 C 
ATOM     19  C   UNL     1      -6.799  -0.495   0.246  0.00  0.00    +0.000 C 
ATOM     20  C   UNL     1       1.365   0.880  -0.404  0.00  0.00    +0.000 C 
ATOM     21  C   UNL     1      -7.311   0.663   1.013  0.00  0.00    +0.000 C 
ATOM     22  C   UNL     1       0.109   1.431  -0.854  0.00  0.00    +0.000 C 
ATOM     23  C   UNL     1      -0.758   2.030  -0.024  0.00  0.00    +0.000 C 
ATOM     24  C   UNL     1      -7.568   3.053   0.960  0.00  0.00    +0.000 C 
ATOM     25  C   UNL     1      -6.631   4.147   0.430  0.00  0.00    +0.000 C 
ATOM     26  C   UNL     1      -2.054   2.504  -0.452  0.00  0.00    +0.000 C 
ATOM     27  C   UNL     1      -9.021   3.363   0.623  0.00  0.00    +0.000 C 
ATOM     28  C   UNL     1      -5.212   3.861   0.838  0.00  0.00    +0.000 C 
ATOM     29  C   UNL     1      -2.948   3.040   0.393  0.00  0.00    +0.000 C 
ATOM     30  C   UNL     1      -4.277   3.426  -0.019  0.00  0.00    +0.000 C 
ENDROOT
BRANCH   5  31
ATOM     31  O   UNL     1       0.081  -4.578  -0.613  0.00  0.00    +0.000 OA
ATOM     32  H   UNL     1      -0.104  -4.689  -1.561  0.00  0.00    +0.000 HD
ENDBRANCH   5  31
BRANCH   9  33
ATOM     33  O   UNL     1       0.933  -2.828   3.339  0.00  0.00    +0.000 OA
ATOM     34  H   UNL     1       0.180  -3.321   3.708  0.00  0.00    +0.000 HD
ENDBRANCH   9  33
BRANCH  11  35
ATOM     35  O   UNL     1      -3.171  -3.272   0.326  0.00  0.00    +0.000 OA
ATOM     36  H   UNL     1      -3.986  -3.803   0.348  0.00  0.00    +0.000 HD
ENDBRANCH  11  35
BRANCH   7  38
ATOM     37  O   UNL     1       3.972  -4.132   1.947  0.00  0.00    +0.000 OA
ATOM     38  C   UNL     1       3.550  -2.986   1.991  0.00  0.00    +0.000 C 
BRANCH  38  39
ATOM     39  O   UNL     1       4.170  -1.968   2.636  0.00  0.00    +0.000 OA
ATOM     40  H   UNL     1       5.004  -2.259   3.064  0.00  0.00    +0.000 HD
ENDBRANCH  38  39
ENDBRANCH   7  38
BRANCH  16  41
ATOM     41  O   UNL     1       4.540   0.075  -1.494  0.00  0.00    +0.000 OA
BRANCH  41  43
ATOM     42  O   UNL     1       4.859   1.785   0.080  0.00  0.00    +0.000 OA
ATOM     43  C   UNL     1       5.487   0.736  -0.660  0.00  0.00    +0.000 C 
ATOM     44  C   UNL     1       6.643   1.288  -1.498  0.00  0.00    +0.000 C 
ATOM     45  C   UNL     1       7.651   2.009  -0.592  0.00  0.00    +0.000 C 
ATOM     46  C   UNL     1       6.946   3.042   0.303  0.00  0.00    +0.000 C 
ATOM     47  C   UNL     1       5.746   2.401   1.019  0.00  0.00    +0.000 C 
ATOM     48  C   UNL     1       4.939   3.436   1.798  0.00  0.00    +0.000 C 
BRANCH  45  49
ATOM     49  N   UNL     1       8.705   2.652  -1.380  0.00  0.00    +0.000 NA
ATOM     50  H   UNL     1       8.307   3.400  -1.946  0.00  0.00    +0.000 HD
ATOM     51  H   UNL     1       9.366   3.106  -0.750  0.00  0.00    +0.000 HD
ENDBRANCH  45  49
BRANCH  44  52
ATOM     52  O   UNL     1       6.113   2.191  -2.473  0.00  0.00    +0.000 OA
ATOM     53  H   UNL     1       6.845   2.448  -3.059  0.00  0.00    +0.000 HD
ENDBRANCH  44  52
BRANCH  46  54
ATOM     54  O   UNL     1       7.857   3.530   1.286  0.00  0.00    +0.000 OA
ATOM     55  H   UNL     1       7.468   4.327   1.682  0.00  0.00    +0.000 HD
ENDBRANCH  46  54
ENDBRANCH  41  43
ENDBRANCH  16  41
TORSDOF 10
