REMARK  Name = 4195
REMARK  10 active torsions:
REMARK  status: ('A' for Active; 'I' for Inactive)
REMARK    1  A    between atoms: O_1  and  C_7
REMARK    2  A    between atoms: O_2  and  C_10
REMARK    3  A    between atoms: O_2  and  C_17
REMARK    4  A    between atoms: O_3  and  C_12
REMARK    5  A    between atoms: O_3  and  C_18
REMARK    6  A    between atoms: N_5  and  C_9
REMARK    7  A    between atoms: N_6  and  C_16
REMARK    8  A    between atoms: C_7  and  C_8
REMARK    9  A    between atoms: C_7  and  C_9
REMARK   10  A    between atoms: C_15  and  C_16
REMARK                            x       y       z     vdW  Elec       q    Type
REMARK                         _______ _______ _______ _____ _____    ______ ____
ROOT
ATOM      1  C   UNL     1       0.470   0.028   0.690  0.00  0.00    +0.000 C 
ENDROOT
BRANCH   1   2
ATOM      2  C   UNL     1      -0.973  -0.153   0.279  0.00  0.00    +0.000 A 
ATOM      3  C   UNL     1      -1.484  -1.426   0.080  0.00  0.00    +0.000 A 
ATOM      4  C   UNL     1      -1.761   0.974   0.108  0.00  0.00    +0.000 A 
ATOM      5  C   UNL     1      -3.095   0.825  -0.271  0.00  0.00    +0.000 A 
ATOM      6  C   UNL     1      -2.818  -1.575  -0.299  0.00  0.00    +0.000 A 
ATOM      7  C   UNL     1      -3.624  -0.450  -0.475  0.00  0.00    +0.000 A 
BRANCH   3   8
ATOM      8  O   UNL     1      -0.711  -2.535   0.246  0.00  0.00    +0.000 OA
ATOM      9  C   UNL     1      -1.308  -3.797   0.024  0.00  0.00    +0.000 C 
ENDBRANCH   3   8
BRANCH   5  10
ATOM     10  O   UNL     1      -3.882   1.922  -0.441  0.00  0.00    +0.000 OA
ATOM     11  C   UNL     1      -3.303   3.193  -0.223  0.00  0.00    +0.000 C 
ENDBRANCH   5  10
ENDBRANCH   1   2
BRANCH   1  12
ATOM     12  O   UNL     1       0.500   0.627   1.985  0.00  0.00    +0.000 OA
ATOM     13  H   UNL     1       1.433   0.750   2.228  0.00  0.00    +0.000 HD
ENDBRANCH   1  12
BRANCH   1  14
ATOM     14  C   UNL     1       1.235   0.904  -0.302  0.00  0.00    +0.000 C 
BRANCH  14  16
ATOM     15  O   UNL     1       3.507  -0.749  -0.994  0.00  0.00    +0.000 OA
ATOM     16  N   UNL     1       2.609   1.087   0.108  0.00  0.00    +0.000 N 
ATOM     17  C   UNL     1       3.638   0.239  -0.275  0.00  0.00    +0.000 C 
ATOM     18  H   UNL     1       2.814   1.871   0.721  0.00  0.00    +0.000 HD
BRANCH  17  19
ATOM     19  C   UNL     1       4.965   0.652   0.327  0.00  0.00    +0.000 C 
BRANCH  19  20
ATOM     20  N   UNL     1       6.035   0.234  -0.567  0.00  0.00    +0.000 NA
ATOM     21  H   UNL     1       5.909   0.662  -1.484  0.00  0.00    +0.000 HD
ATOM     22  H   UNL     1       5.994  -0.775  -0.710  0.00  0.00    +0.000 HD
ENDBRANCH  19  20
ENDBRANCH  17  19
ENDBRANCH  14  16
ENDBRANCH   1  14
TORSDOF 8
