REMARK  Name = 
REMARK  18 active torsions:
REMARK  status: ('A' for Active; 'I' for Inactive)
REMARK    1  A    between atoms: C_2  and  C_3
REMARK    2  A    between atoms: C_3  and  C_4
REMARK    3  A    between atoms: C_6  and  C_7
REMARK    4  A    between atoms: C_9  and  C_10
REMARK    5  A    between atoms: C_12  and  O_13
REMARK    6  A    between atoms: O_13  and  C_14
REMARK    7  A    between atoms: C_17  and  O_18
REMARK    8  A    between atoms: C_32  and  C_33
REMARK    9  A    between atoms: C_33  and  C_34
REMARK   10  A    between atoms: C_35  and  C_36
REMARK   11  A    between atoms: C_39  and  O_40
REMARK   12  A    between atoms: C_41  and  O_42
REMARK   13  A    between atoms: O_42  and  C_43
REMARK   14  A    between atoms: C_45  and  C_46
REMARK   15  A    between atoms: C_47  and  O_48
REMARK   16  A    between atoms: C_52  and  C_53
REMARK   17  A    between atoms: C_55  and  O_56
REMARK   18  A    between atoms: O_56  and  C_57
REMARK                            x       y       z     vdW  Elec       q    Type
REMARK                         _______ _______ _______ _____ _____    ______ ____
ROOT
ATOM      1  C   UNL     1      -1.179   5.777   0.146  0.00  0.00    +0.000 C 
ATOM      2  C   UNL     1      -2.070   4.528  -0.352  0.00  0.00    +0.000 C 
ATOM      3  C   UNL     1      -3.274   4.383   0.085  0.00  0.00    +0.000 C 
ATOM      4  C   UNL     1      -4.495   4.634  -0.762  0.00  0.00    +0.000 C 
ATOM      5  C   UNL     1      -3.519   3.287   1.084  0.00  0.00    +0.000 C 
ATOM      6  C   UNL     1      -2.895   1.993   0.302  0.00  0.00    +0.000 C 
ATOM      7  C   UNL     1      -4.130   1.969  -0.768  0.00  0.00    +0.000 C 
ATOM      8  C   UNL     1      -3.449   0.906   1.378  0.00  0.00    +0.000 C 
ATOM      9  C   UNL     1      -4.855   0.359   0.772  0.00  0.00    +0.000 C 
ATOM     10  C   UNL     1      -4.088  -0.697  -0.353  0.00  0.00    +0.000 C 
ATOM     11  O   UNL     1      -3.290  -1.472   0.633  0.00  0.00    +0.000 OA
ATOM     12  C   UNL     1      -2.299  -2.085  -0.169  0.00  0.00    +0.000 C 
ATOM     13  C   UNL     1      -1.863  -3.094   0.701  0.00  0.00    +0.000 C 
ATOM     14  O   UNL     1      -2.711  -3.689   1.456  0.00  0.00    +0.000 OA
ATOM     15  C   UNL     1      -0.892  -4.091   0.203  0.00  0.00    +0.000 C 
ATOM     16  O   UNL     1      -0.956  -5.329   0.500  0.00  0.00    +0.000 OA
ATOM     17  N   UNL     1       0.065  -3.588  -0.750  0.00  0.00    +0.000 N 
ATOM     18  C   UNL     1       1.153  -4.529  -1.002  0.00  0.00    +0.000 C 
ATOM     19  C   UNL     1       1.537  -5.180   0.334  0.00  0.00    +0.000 C 
ATOM     20  C   UNL     1       1.520  -4.013   1.323  0.00  0.00    +0.000 C 
ATOM     21  C   UNL     1       1.721  -2.824   0.623  0.00  0.00    +0.000 C 
ATOM     22  C   UNL     1       0.464  -2.175  -0.192  0.00  0.00    +0.000 C 
ATOM     23  C   UNL     1       1.386  -1.825  -1.479  0.00  0.00    +0.000 C 
ATOM     24  O   UNL     1       0.809  -2.057  -2.588  0.00  0.00    +0.000 OA
ATOM     25  O   UNL     1       1.218  -0.652  -0.724  0.00  0.00    +0.000 OA
ATOM     26  C   UNL     1       2.019   0.516  -1.149  0.00  0.00    +0.000 C 
ATOM     27  C   UNL     1       0.697   1.567  -0.910  0.00  0.00    +0.000 C 
ATOM     28  C   UNL     1       0.507   1.773  -2.489  0.00  0.00    +0.000 C 
ATOM     29  C   UNL     1       1.567   2.984  -0.567  0.00  0.00    +0.000 C 
ATOM     30  C   UNL     1       0.298   3.928  -0.977  0.00  0.00    +0.000 C 
ATOM     31  C   UNL     1       0.244   5.024   0.024  0.00  0.00    +0.000 C 
ATOM     32  O   UNL     1       1.009   5.929  -0.332  0.00  0.00    +0.000 OA
ATOM     33  C   UNL     1      -3.112  -3.073  -1.228  0.00  0.00    +0.000 C 
ATOM     34  C   UNL     1      -3.480  -1.986  -2.399  0.00  0.00    +0.000 C 
ATOM     35  C   UNL     1      -4.545  -3.175  -0.523  0.00  0.00    +0.000 C 
ATOM     36  C   UNL     1      -5.370  -1.828  -0.253  0.00  0.00    +0.000 C 
ENDROOT
BRANCH  26  37
ATOM     37  C   UNL     1       2.777   0.853   0.264  0.00  0.00    +0.000 C 
ATOM     38  C   UNL     1       3.848   1.906   0.163  0.00  0.00    +0.000 C 
ATOM     39  C   UNL     1       3.324  -0.169   0.715  0.00  0.00    +0.000 C 
BRANCH  39  40
ATOM     40  C   UNL     1       4.723  -0.494   1.371  0.00  0.00    +0.000 C 
ATOM     41  C   UNL     1       5.356   0.995   1.141  0.00  0.00    +0.000 C 
ATOM     42  C   UNL     1       6.820   0.701   1.487  0.00  0.00    +0.000 C 
ATOM     43  C   UNL     1       7.492   0.065   0.140  0.00  0.00    +0.000 C 
ATOM     44  C   UNL     1       6.853  -1.493   0.496  0.00  0.00    +0.000 C 
ATOM     45  C   UNL     1       5.369  -1.051  -0.035  0.00  0.00    +0.000 C 
BRANCH  43  46
ATOM     46  O   UNL     1       8.767  -0.266   0.877  0.00  0.00    +0.000 OA
ATOM     47  H   UNL     1       8.550  -0.682   1.726  0.00  0.00    +0.000 HD
ENDBRANCH  43  46
BRANCH  44  48
ATOM     48  O   UNL     1       7.270  -1.992  -0.865  0.00  0.00    +0.000 OA
ATOM     49  C   UNL     1       7.636  -3.321  -0.700  0.00  0.00    +0.000 C 
ENDBRANCH  44  48
ENDBRANCH  39  40
ENDBRANCH  26  37
BRANCH   9  50
ATOM     50  O   UNL     1      -5.036  -0.655   1.873  0.00  0.00    +0.000 OA
ATOM     51  C   UNL     1      -4.717  -0.039   3.076  0.00  0.00    +0.000 C 
ENDBRANCH   9  50
BRANCH  12  52
ATOM     52  O   UNL     1      -1.913  -1.125  -0.886  0.00  0.00    +0.000 OA
ATOM     53  H   UNL     1      -1.422  -0.491  -0.340  0.00  0.00    +0.000 HD
ENDBRANCH  12  52
BRANCH  29  54
ATOM     54  O   UNL     1       2.224   3.185  -1.919  0.00  0.00    +0.000 OA
ATOM     55  H   UNL     1       1.562   3.074  -2.619  0.00  0.00    +0.000 HD
ENDBRANCH  29  54
BRANCH  36  56
ATOM     56  O   UNL     1      -5.747  -1.612  -1.706  0.00  0.00    +0.000 OA
ATOM     57  C   UNL     1      -7.068  -2.011  -1.761  0.00  0.00    +0.000 C 
ENDBRANCH  36  56
BRANCH   1  58
ATOM     58  C   UNL     1      -1.406   5.453   1.731  0.00  0.00    +0.000 C 
BRANCH  58  60
ATOM     59  C   UNL     1       0.030   4.271   2.690  0.00  0.00    +0.000 C 
ATOM     60  C   UNL     1      -0.342   4.599   2.248  0.00  0.00    +0.000 C 
ENDBRANCH  58  60
ENDBRANCH   1  58
TORSDOF 10
