REMARK  Name = 6741
REMARK  8 active torsions:
REMARK  status: ('A' for Active; 'I' for Inactive)
REMARK    1  A    between atoms: O_1  and  C_10
REMARK    2  A    between atoms: O_2  and  C_12
REMARK    3  A    between atoms: O_4  and  C_25
REMARK    4  A    between atoms: C_6  and  C_18
REMARK    5  A    between atoms: C_10  and  C_20
REMARK    6  A    between atoms: C_14  and  C_21
REMARK    7  A    between atoms: C_17  and  C_23
REMARK    8  A    between atoms: C_20  and  C_25
REMARK                            x       y       z     vdW  Elec       q    Type
REMARK                         _______ _______ _______ _____ _____    ______ ____
ROOT
ATOM      1  O   UNL     1      -5.897  -0.992   1.693  0.00  0.00    +0.000 OA
ATOM      2  C   UNL     1       2.024   0.014  -0.187  0.00  0.00    +0.000 C 
ATOM      3  C   UNL     1       1.006   1.088   0.255  0.00  0.00    +0.000 C 
ATOM      4  C   UNL     1      -0.364   0.954  -0.428  0.00  0.00    +0.000 C 
ATOM      5  C   UNL     1      -0.971  -0.445  -0.067  0.00  0.00    +0.000 C 
ATOM      6  C   UNL     1       3.261   0.486   0.626  0.00  0.00    +0.000 C 
ATOM      7  C   UNL     1       1.443  -1.361   0.201  0.00  0.00    +0.000 C 
ATOM      8  C   UNL     1       0.028  -1.607  -0.370  0.00  0.00    +0.000 C 
ATOM      9  C   UNL     1       1.782   2.394   0.104  0.00  0.00    +0.000 C 
ATOM     10  C   UNL     1      -2.435  -0.622  -0.634  0.00  0.00    +0.000 C 
ATOM     11  C   UNL     1       3.224   2.027   0.510  0.00  0.00    +0.000 C 
ATOM     12  C   UNL     1      -1.297   2.097   0.009  0.00  0.00    +0.000 C 
ATOM     13  C   UNL     1      -2.717   1.947  -0.554  0.00  0.00    +0.000 C 
ATOM     14  C   UNL     1       2.349   0.064  -1.705  0.00  0.00    +0.000 C 
ATOM     15  C   UNL     1      -3.269   0.582  -0.152  0.00  0.00    +0.000 C 
ATOM     16  C   UNL     1      -2.510  -0.681  -2.178  0.00  0.00    +0.000 C 
ATOM     17  C   UNL     1      -3.016  -1.940  -0.142  0.00  0.00    +0.000 C 
ATOM     18  C   UNL     1      -3.553   3.168  -0.145  0.00  0.00    +0.000 C 
ATOM     19  C   UNL     1      -4.378   0.439   0.596  0.00  0.00    +0.000 C 
ATOM     20  C   UNL     1      -4.117  -2.074   0.603  0.00  0.00    +0.000 C 
ATOM     21  C   UNL     1      -4.880  -0.886   1.017  0.00  0.00    +0.000 C 
ENDROOT
BRANCH   6  22
ATOM     22  O   UNL     1       3.152   0.113   1.996  0.00  0.00    +0.000 OA
ATOM     23  H   UNL     1       3.815   0.612   2.505  0.00  0.00    +0.000 HD
ENDBRANCH   6  22
BRANCH   8  24
ATOM     24  O   UNL     1       0.115  -1.861  -1.765  0.00  0.00    +0.000 OA
ATOM     25  H   UNL     1      -0.030  -1.038  -2.253  0.00  0.00    +0.000 HD
ENDBRANCH   8  24
BRANCH   6  27
ATOM     26  O   UNL     1       5.248   0.434  -0.687  0.00  0.00    +0.000 OA
ATOM     27  C   UNL     1       4.564  -0.105   0.181  0.00  0.00    +0.000 C 
BRANCH  27  28
ATOM     28  C   UNL     1       4.982  -1.393   0.859  0.00  0.00    +0.000 C 
BRANCH  28  29
ATOM     29  O   UNL     1       6.226  -1.837   0.362  0.00  0.00    +0.000 OA
ATOM     30  H   UNL     1       6.895  -1.178   0.616  0.00  0.00    +0.000 HD
ENDBRANCH  28  29
ENDBRANCH  27  28
ENDBRANCH   6  27
TORSDOF 5
