REMARK  Name = 5995
REMARK  6 active torsions:
REMARK  status: ('A' for Active; 'I' for Inactive)
REMARK    1  A    between atoms: O_1  and  C_11
REMARK    2  A    between atoms: O_1  and  C_23
REMARK    3  A    between atoms: C_5  and  C_16
REMARK    4  A    between atoms: C_8  and  C_19
REMARK    5  A    between atoms: C_23  and  C_24
REMARK    6  A    between atoms: C_24  and  C_25
REMARK                            x       y       z     vdW  Elec       q    Type
REMARK                         _______ _______ _______ _____ _____    ______ ____
ROOT
ATOM      1  O   UNL     1       6.695   0.230   1.249  0.00  0.00    +0.000 OA
ATOM      2  C   UNL     1      -0.771  -0.955   0.154  0.00  0.00    +0.000 C 
ATOM      3  C   UNL     1      -1.625   0.262  -0.250  0.00  0.00    +0.000 C 
ATOM      4  C   UNL     1       0.647  -0.899  -0.422  0.00  0.00    +0.000 C 
ATOM      5  C   UNL     1       1.353   0.391   0.103  0.00  0.00    +0.000 C 
ATOM      6  C   UNL     1       2.842   0.522  -0.400  0.00  0.00    +0.000 C 
ATOM      7  C   UNL     1      -0.966   1.519   0.332  0.00  0.00    +0.000 C 
ATOM      8  C   UNL     1       0.492   1.662  -0.140  0.00  0.00    +0.000 C 
ATOM      9  C   UNL     1      -2.957  -0.134   0.415  0.00  0.00    +0.000 C 
ATOM     10  C   UNL     1      -1.665  -2.145  -0.184  0.00  0.00    +0.000 C 
ATOM     11  C   UNL     1       1.459  -2.140  -0.031  0.00  0.00    +0.000 C 
ATOM     12  C   UNL     1      -3.088  -1.641   0.120  0.00  0.00    +0.000 C 
ATOM     13  C   UNL     1       3.584  -0.797  -0.152  0.00  0.00    +0.000 C 
ATOM     14  C   UNL     1      -1.817   0.439  -1.778  0.00  0.00    +0.000 C 
ATOM     15  C   UNL     1       2.879  -2.063  -0.578  0.00  0.00    +0.000 C 
ATOM     16  C   UNL     1       3.526   1.674   0.392  0.00  0.00    +0.000 C 
ATOM     17  C   UNL     1       2.917   0.840  -1.911  0.00  0.00    +0.000 C 
ATOM     18  C   UNL     1       5.043   1.671   0.287  0.00  0.00    +0.000 C 
ATOM     19  C   UNL     1       4.811  -0.879   0.391  0.00  0.00    +0.000 C 
ATOM     20  C   UNL     1       5.594   0.336   0.713  0.00  0.00    +0.000 C 
ENDROOT
BRANCH   9  21
ATOM     21  O   UNL     1      -4.062   0.595  -0.082  0.00  0.00    +0.000 OA
BRANCH  21  23
ATOM     22  O   UNL     1      -5.494  -0.625   1.254  0.00  0.00    +0.000 OA
ATOM     23  C   UNL     1      -5.292   0.250   0.423  0.00  0.00    +0.000 C 
BRANCH  23  24
ATOM     24  C   UNL     1      -6.357   1.117  -0.206  0.00  0.00    +0.000 C 
ATOM     25  C   UNL     1      -7.747   0.771   0.299  0.00  0.00    +0.000 C 
ENDBRANCH  23  24
ENDBRANCH  21  23
ENDBRANCH   9  21
TORSDOF 3
