REMARK  Name = 5281897
REMARK  12 active torsions:
REMARK  status: ('A' for Active; 'I' for Inactive)
REMARK    1  A    between atoms: O_2  and  C_13
REMARK    2  A    between atoms: O_2  and  C_22
REMARK    3  A    between atoms: O_3  and  C_11
REMARK    4  A    between atoms: O_4  and  C_12
REMARK    5  A    between atoms: O_7  and  C_23
REMARK    6  A    between atoms: O_7  and  C_33
REMARK    7  A    between atoms: O_8  and  C_24
REMARK    8  A    between atoms: O_8  and  C_34
REMARK    9  A    between atoms: C_9  and  C_16
REMARK   10  A    between atoms: C_14  and  C_17
REMARK   11  A    between atoms: C_15  and  C_19
REMARK   12  A    between atoms: C_25  and  C_30
REMARK                            x       y       z     vdW  Elec       q    Type
REMARK                         _______ _______ _______ _____ _____    ______ ____
ROOT
ATOM      1  O   UNL     1       0.228   1.662  -0.411  0.00  0.00    +0.000 OA
ATOM      2  O   UNL     1      -1.668  -0.503  -0.034  0.00  0.00    +0.000 OA
ATOM      3  O   UNL     1      -3.084   0.009   1.704  0.00  0.00    +0.000 OA
ATOM      4  C   UNL     1       1.794   3.537  -0.565  0.00  0.00    +0.000 C 
ATOM      5  C   UNL     1       1.633   2.005  -0.382  0.00  0.00    +0.000 C 
ATOM      6  C   UNL     1      -0.568   2.248   0.648  0.00  0.00    +0.000 C 
ATOM      7  C   UNL     1       1.022   4.269   0.544  0.00  0.00    +0.000 C 
ATOM      8  C   UNL     1      -0.429   3.798   0.632  0.00  0.00    +0.000 C 
ATOM      9  C   UNL     1       2.396   1.174  -1.461  0.00  0.00    +0.000 C 
ATOM     10  C   UNL     1      -2.054   1.806   0.424  0.00  0.00    +0.000 C 
ATOM     11  C   UNL     1       1.358   4.020  -1.958  0.00  0.00    +0.000 C 
ATOM     12  C   UNL     1       3.845   1.654  -1.667  0.00  0.00    +0.000 C 
ATOM     13  C   UNL     1       2.339  -0.317  -1.161  0.00  0.00    +0.000 C 
ATOM     14  C   UNL     1      -3.072   2.654   1.215  0.00  0.00    +0.000 C 
ATOM     15  C   UNL     1      -2.326   0.347   0.802  0.00  0.00    +0.000 C 
ATOM     16  C   UNL     1       3.352  -1.078  -0.708  0.00  0.00    +0.000 C 
ATOM     17  C   UNL     1       3.288  -2.570  -0.531  0.00  0.00    +0.000 C 
ATOM     18  C   UNL     1       3.281  -3.024   0.941  0.00  0.00    +0.000 C 
ATOM     19  C   UNL     1      -2.008  -1.920  -0.024  0.00  0.00    +0.000 C 
ATOM     20  C   UNL     1       2.096  -2.503   1.764  0.00  0.00    +0.000 C 
ATOM     21  C   UNL     1      -1.775  -2.601   1.346  0.00  0.00    +0.000 C 
ATOM     22  C   UNL     1       0.744  -2.896   1.175  0.00  0.00    +0.000 C 
ATOM     23  C   UNL     1      -0.411  -2.314   1.983  0.00  0.00    +0.000 C 
ENDROOT
BRANCH  19  24
ATOM     24  C   UNL     1      -3.407  -2.125  -0.514  0.00  0.00    +0.000 A 
ATOM     25  C   UNL     1      -4.008  -1.161  -1.320  0.00  0.00    +0.000 A 
ATOM     26  C   UNL     1      -4.102  -3.279  -0.161  0.00  0.00    +0.000 A 
ATOM     27  C   UNL     1      -5.312  -1.352  -1.776  0.00  0.00    +0.000 A 
ATOM     28  C   UNL     1      -5.407  -3.470  -0.617  0.00  0.00    +0.000 A 
ATOM     29  C   UNL     1      -6.011  -2.507  -1.424  0.00  0.00    +0.000 A 
ENDBRANCH  19  24
BRANCH   8  30
ATOM     30  O   UNL     1      -1.152   4.337  -0.473  0.00  0.00    +0.000 OA
ATOM     31  C   UNL     1      -1.127   5.756  -0.464  0.00  0.00    +0.000 C 
ENDBRANCH   8  30
BRANCH   6  32
ATOM     32  O   UNL     1      -0.116   1.825   1.941  0.00  0.00    +0.000 OA
ATOM     33  H   UNL     1      -0.494   0.956   2.144  0.00  0.00    +0.000 HD
ENDBRANCH   6  32
BRANCH   7  34
ATOM     34  O   UNL     1       1.680   4.088   1.798  0.00  0.00    +0.000 OA
ATOM     35  H   UNL     1       1.522   3.180   2.103  0.00  0.00    +0.000 HD
ENDBRANCH   7  34
BRANCH  17  36
ATOM     36  O   UNL     1       4.432  -3.128  -1.184  0.00  0.00    +0.000 OA
ATOM     37  C   UNL     1       4.438  -2.811  -2.566  0.00  0.00    +0.000 C 
ENDBRANCH  17  36
BRANCH  18  38
ATOM     38  O   UNL     1       4.481  -2.594   1.591  0.00  0.00    +0.000 OA
ATOM     39  C   UNL     1       5.631  -3.036   0.889  0.00  0.00    +0.000 C 
ENDBRANCH  18  38
TORSDOF 6
