REMARK  Name = 5997
REMARK  11 active torsions:
REMARK  status: ('A' for Active; 'I' for Inactive)
REMARK    1  A    between atoms: O_1  and  C_22
REMARK    2  A    between atoms: C_2  and  C_14
REMARK    3  A    between atoms: C_6  and  C_13
REMARK    4  A    between atoms: C_8  and  C_18
REMARK    5  A    between atoms: C_13  and  C_21
REMARK    6  A    between atoms: C_13  and  C_23
REMARK    7  A    between atoms: C_21  and  C_24
REMARK    8  A    between atoms: C_24  and  C_25
REMARK    9  A    between atoms: C_25  and  C_26
REMARK   10  A    between atoms: C_26  and  C_27
REMARK   11  A    between atoms: C_26  and  C_28
REMARK                            x       y       z     vdW  Elec       q    Type
REMARK                         _______ _______ _______ _____ _____    ______ ____
ROOT
ATOM      1  C   UNL     1      -0.818  -1.108  -0.203  0.00  0.00    +0.000 C 
ATOM      2  C   UNL     1      -0.119  -0.437   0.996  0.00  0.00    +0.000 C 
ATOM      3  C   UNL     1       1.407  -0.565   0.958  0.00  0.00    +0.000 C 
ATOM      4  C   UNL     1       1.948   0.060  -0.361  0.00  0.00    +0.000 C 
ATOM      5  C   UNL     1      -2.292  -0.844   0.189  0.00  0.00    +0.000 C 
ATOM      6  C   UNL     1      -0.351  -0.384  -1.473  0.00  0.00    +0.000 C 
ATOM      7  C   UNL     1       3.519  -0.082  -0.467  0.00  0.00    +0.000 C 
ATOM      8  C   UNL     1      -0.872  -0.982   2.206  0.00  0.00    +0.000 C 
ATOM      9  C   UNL     1       1.180  -0.433  -1.619  0.00  0.00    +0.000 C 
ATOM     10  C   UNL     1      -2.323  -1.129   1.709  0.00  0.00    +0.000 C 
ATOM     11  C   UNL     1       2.042   0.130   2.171  0.00  0.00    +0.000 C 
ATOM     12  C   UNL     1      -0.536  -2.626  -0.328  0.00  0.00    +0.000 C 
ATOM     13  C   UNL     1       4.190   0.269   0.869  0.00  0.00    +0.000 C 
ATOM     14  C   UNL     1       4.025   0.900  -1.565  0.00  0.00    +0.000 C 
ATOM     15  C   UNL     1       3.510   0.371   2.024  0.00  0.00    +0.000 C 
ATOM     16  C   UNL     1       3.930  -1.526  -0.843  0.00  0.00    +0.000 C 
ATOM     17  C   UNL     1       5.682   0.513   0.848  0.00  0.00    +0.000 C 
ATOM     18  C   UNL     1       5.542   1.079  -1.601  0.00  0.00    +0.000 C 
ATOM     19  C   UNL     1       6.080   1.507  -0.240  0.00  0.00    +0.000 C 
ENDROOT
BRANCH  19  20
ATOM     20  O   UNL     1       7.500   1.583  -0.320  0.00  0.00    +0.000 OA
ATOM     21  H   UNL     1       7.828   1.860   0.552  0.00  0.00    +0.000 HD
ENDBRANCH  19  20
BRANCH   5  22
ATOM     22  C   UNL     1      -3.351  -1.621  -0.581  0.00  0.00    +0.000 C 
ATOM     23  C   UNL     1      -3.211  -1.351  -2.084  0.00  0.00    +0.000 C 
BRANCH  22  24
ATOM     24  C   UNL     1      -4.787  -1.276  -0.134  0.00  0.00    +0.000 C 
BRANCH  24  25
ATOM     25  C   UNL     1      -5.186   0.203  -0.234  0.00  0.00    +0.000 C 
BRANCH  25  26
ATOM     26  C   UNL     1      -6.595   0.492   0.293  0.00  0.00    +0.000 C 
BRANCH  26  27
ATOM     27  C   UNL     1      -7.021   1.964   0.127  0.00  0.00    +0.000 C 
ATOM     28  C   UNL     1      -6.961   2.432  -1.328  0.00  0.00    +0.000 C 
ATOM     29  C   UNL     1      -6.132   2.861   0.992  0.00  0.00    +0.000 C 
ENDBRANCH  26  27
ENDBRANCH  25  26
ENDBRANCH  24  25
ENDBRANCH  22  24
ENDBRANCH   5  22
TORSDOF 6
