REMARK  Name = 440711
REMARK  12 active torsions:
REMARK  status: ('A' for Active; 'I' for Inactive)
REMARK    1  A    between atoms: O_1  and  C_14
REMARK    2  A    between atoms: O_2  and  C_23
REMARK    3  A    between atoms: C_3  and  C_15
REMARK    4  A    between atoms: C_7  and  C_14
REMARK    5  A    between atoms: C_10  and  C_19
REMARK    6  A    between atoms: C_14  and  C_21
REMARK    7  A    between atoms: C_14  and  C_24
REMARK    8  A    between atoms: C_21  and  C_25
REMARK    9  A    between atoms: C_25  and  C_26
REMARK   10  A    between atoms: C_26  and  C_27
REMARK   11  A    between atoms: C_27  and  C_28
REMARK   12  A    between atoms: C_27  and  C_29
REMARK                            x       y       z     vdW  Elec       q    Type
REMARK                         _______ _______ _______ _____ _____    ______ ____
ROOT
ATOM      1  C   UNL     1      -0.749  -0.877  -0.068  0.00  0.00    +0.000 C 
ATOM      2  C   UNL     1       0.446  -1.772   0.316  0.00  0.00    +0.000 C 
ATOM      3  C   UNL     1       1.785  -1.257  -0.220  0.00  0.00    +0.000 C 
ATOM      4  C   UNL     1       2.038   0.184   0.312  0.00  0.00    +0.000 C 
ATOM      5  C   UNL     1      -1.894  -1.707   0.562  0.00  0.00    +0.000 C 
ATOM      6  C   UNL     1      -0.521   0.498   0.577  0.00  0.00    +0.000 C 
ATOM      7  C   UNL     1      -0.012  -3.174  -0.075  0.00  0.00    +0.000 C 
ATOM      8  C   UNL     1       3.394   0.777  -0.244  0.00  0.00    +0.000 C 
ATOM      9  C   UNL     1       0.811   1.119   0.122  0.00  0.00    +0.000 C 
ATOM     10  C   UNL     1      -1.526  -3.167   0.207  0.00  0.00    +0.000 C 
ATOM     11  C   UNL     1       2.933  -2.185   0.203  0.00  0.00    +0.000 C 
ATOM     12  C   UNL     1      -0.952  -0.716  -1.595  0.00  0.00    +0.000 C 
ATOM     13  C   UNL     1       4.518  -0.266  -0.169  0.00  0.00    +0.000 C 
ATOM     14  C   UNL     1       3.782   2.009   0.627  0.00  0.00    +0.000 C 
ATOM     15  C   UNL     1       4.288  -1.573   0.045  0.00  0.00    +0.000 C 
ATOM     16  C   UNL     1       3.251   1.219  -1.721  0.00  0.00    +0.000 C 
ATOM     17  C   UNL     1       5.934   0.233  -0.338  0.00  0.00    +0.000 C 
ATOM     18  C   UNL     1       5.199   2.528   0.389  0.00  0.00    +0.000 C 
ATOM     19  C   UNL     1       6.231   1.421   0.573  0.00  0.00    +0.000 C 
ENDROOT
BRANCH  19  20
ATOM     20  O   UNL     1       7.518   1.949   0.265  0.00  0.00    +0.000 OA
ATOM     21  H   UNL     1       8.165   1.234   0.391  0.00  0.00    +0.000 HD
ENDBRANCH  19  20
BRANCH   5  22
ATOM     22  C   UNL     1      -3.311  -1.336   0.150  0.00  0.00    +0.000 C 
ATOM     23  C   UNL     1      -4.329  -2.243   0.850  0.00  0.00    +0.000 C 
BRANCH  22  24
ATOM     24  O   UNL     1      -3.412  -1.588  -1.261  0.00  0.00    +0.000 OA
ATOM     25  H   UNL     1      -4.345  -1.514  -1.522  0.00  0.00    +0.000 HD
ENDBRANCH  22  24
BRANCH  22  26
ATOM     26  C   UNL     1      -3.617   0.163   0.365  0.00  0.00    +0.000 C 
BRANCH  26  27
ATOM     27  C   UNL     1      -5.052   0.594   0.043  0.00  0.00    +0.000 C 
BRANCH  27  28
ATOM     28  C   UNL     1      -5.262   2.078   0.367  0.00  0.00    +0.000 C 
BRANCH  28  29
ATOM     29  C   UNL     1      -6.689   2.610   0.133  0.00  0.00    +0.000 C 
ATOM     30  C   UNL     1      -7.738   1.836   0.932  0.00  0.00    +0.000 C 
ATOM     31  C   UNL     1      -7.064   2.643  -1.349  0.00  0.00    +0.000 C 
ENDBRANCH  28  29
ENDBRANCH  27  28
ENDBRANCH  26  27
ENDBRANCH  22  26
ENDBRANCH   5  22
TORSDOF 7
