REMARK  Name = 473141
REMARK  12 active torsions:
REMARK  status: ('A' for Active; 'I' for Inactive)
REMARK    1  A    between atoms: O_1  and  C_13
REMARK    2  A    between atoms: O_2  and  C_23
REMARK    3  A    between atoms: C_3  and  C_15
REMARK    4  A    between atoms: C_7  and  C_14
REMARK    5  A    between atoms: C_9  and  C_19
REMARK    6  A    between atoms: C_14  and  C_22
REMARK    7  A    between atoms: C_14  and  C_24
REMARK    8  A    between atoms: C_22  and  C_25
REMARK    9  A    between atoms: C_25  and  C_26
REMARK   10  A    between atoms: C_26  and  C_27
REMARK   11  A    between atoms: C_27  and  C_28
REMARK   12  A    between atoms: C_27  and  C_29
REMARK                            x       y       z     vdW  Elec       q    Type
REMARK                         _______ _______ _______ _____ _____    ______ ____
ROOT
ATOM      1  C   UNL     1       0.885  -0.377   1.077  0.00  0.00    +0.000 C 
ATOM      2  C   UNL     1       0.170  -0.995  -0.143  0.00  0.00    +0.000 C 
ATOM      3  C   UNL     1      -1.363  -1.016  -0.005  0.00  0.00    +0.000 C 
ATOM      4  C   UNL     1      -1.875   0.439   0.214  0.00  0.00    +0.000 C 
ATOM      5  C   UNL     1       2.356  -0.561   0.628  0.00  0.00    +0.000 C 
ATOM      6  C   UNL     1       0.434   1.085   1.190  0.00  0.00    +0.000 C 
ATOM      7  C   UNL     1      -3.444   0.484   0.396  0.00  0.00    +0.000 C 
ATOM      8  C   UNL     1       0.922  -2.305  -0.368  0.00  0.00    +0.000 C 
ATOM      9  C   UNL     1      -1.093   1.193   1.324  0.00  0.00    +0.000 C 
ATOM     10  C   UNL     1       2.377  -1.980   0.016  0.00  0.00    +0.000 C 
ATOM     11  C   UNL     1      -2.024  -1.629  -1.256  0.00  0.00    +0.000 C 
ATOM     12  C   UNL     1       0.611  -1.117   2.409  0.00  0.00    +0.000 C 
ATOM     13  C   UNL     1      -4.136  -0.391  -0.657  0.00  0.00    +0.000 C 
ATOM     14  C   UNL     1      -3.913   1.960   0.225  0.00  0.00    +0.000 C 
ATOM     15  C   UNL     1      -3.481  -1.309  -1.388  0.00  0.00    +0.000 C 
ATOM     16  C   UNL     1      -3.866  -0.029   1.793  0.00  0.00    +0.000 C 
ATOM     17  C   UNL     1      -5.621  -0.189  -0.857  0.00  0.00    +0.000 C 
ATOM     18  C   UNL     1      -5.426   2.132   0.091  0.00  0.00    +0.000 C 
ATOM     19  C   UNL     1      -5.976   1.281  -1.048  0.00  0.00    +0.000 C 
ENDROOT
BRANCH  11  20
ATOM     20  O   UNL     1      -1.878  -3.048  -1.195  0.00  0.00    +0.000 OA
ATOM     21  H   UNL     1      -2.345  -3.367  -0.403  0.00  0.00    +0.000 HD
ENDBRANCH  11  20
BRANCH  19  22
ATOM     22  O   UNL     1      -7.395   1.403  -1.089  0.00  0.00    +0.000 OA
ATOM     23  H   UNL     1      -7.748   1.100  -0.236  0.00  0.00    +0.000 HD
ENDBRANCH  19  22
BRANCH   5  24
ATOM     24  C   UNL     1       3.424  -0.359   1.694  0.00  0.00    +0.000 C 
ATOM     25  C   UNL     1       3.293   1.039   2.310  0.00  0.00    +0.000 C 
BRANCH  24  26
ATOM     26  C   UNL     1       4.855  -0.542   1.147  0.00  0.00    +0.000 C 
BRANCH  26  27
ATOM     27  C   UNL     1       5.248   0.365  -0.027  0.00  0.00    +0.000 C 
BRANCH  27  28
ATOM     28  C   UNL     1       6.652   0.085  -0.573  0.00  0.00    +0.000 C 
BRANCH  28  29
ATOM     29  C   UNL     1       7.072   1.043  -1.704  0.00  0.00    +0.000 C 
ATOM     30  C   UNL     1       7.020   2.512  -1.280  0.00  0.00    +0.000 C 
ATOM     31  C   UNL     1       6.173   0.829  -2.925  0.00  0.00    +0.000 C 
ENDBRANCH  28  29
ENDBRANCH  27  28
ENDBRANCH  26  27
ENDBRANCH  24  26
ENDBRANCH   5  24
TORSDOF 7
