REMARK  Name = 54708748
REMARK  16 active torsions:
REMARK  status: ('A' for Active; 'I' for Inactive)
REMARK    1  A    between atoms: O_5  and  C_30
REMARK    2  A    between atoms: O_8  and  C_39
REMARK    3  A    between atoms: N_10  and  C_26
REMARK    4  A    between atoms: N_11  and  C_43
REMARK    5  A    between atoms: C_13  and  C_20
REMARK    6  A    between atoms: C_16  and  C_22
REMARK    7  A    between atoms: C_17  and  C_21
REMARK    8  A    between atoms: C_21  and  C_23
REMARK    9  A    between atoms: C_21  and  C_24
REMARK   10  A    between atoms: C_25  and  C_36
REMARK   11  A    between atoms: C_25  and  C_37
REMARK   12  A    between atoms: C_27  and  C_32
REMARK   13  A    between atoms: C_31  and  C_38
REMARK   14  A    between atoms: C_32  and  C_40
REMARK   15  A    between atoms: C_32  and  C_42
REMARK   16  A    between atoms: C_39  and  C_41
REMARK                            x       y       z     vdW  Elec       q    Type
REMARK                         _______ _______ _______ _____ _____    ______ ____
ROOT
ATOM      1  O   UNL     1      -3.183   2.585  -1.905  0.00  0.00    +0.000 OA
ATOM      2  O   UNL     1      -2.561  -1.702  -0.061  0.00  0.00    +0.000 OA
ATOM      3  N   UNL     1      -4.462  -0.393  -0.602  0.00  0.00    +0.000 N 
ATOM      4  C   UNL     1      -4.806   0.926  -1.162  0.00  0.00    +0.000 C 
ATOM      5  C   UNL     1      -3.427   1.489  -1.428  0.00  0.00    +0.000 C 
ATOM      6  C   UNL     1      -3.101  -0.695  -0.484  0.00  0.00    +0.000 C 
ATOM      7  C   UNL     1      -2.416   0.499  -1.008  0.00  0.00    +0.000 C 
ATOM      8  C   UNL     1      -1.088   0.659  -1.091  0.00  0.00    +0.000 C 
ENDROOT
BRANCH   3  10
ATOM      9  O   UNL     1      -6.253  -0.778   0.819  0.00  0.00    +0.000 OA
ATOM     10  C   UNL     1      -5.498  -1.331  -0.258  0.00  0.00    +0.000 C 
ATOM     11  C   UNL     1      -6.399  -1.617  -1.456  0.00  0.00    +0.000 C 
ATOM     12  C   UNL     1      -7.550  -2.536  -1.052  0.00  0.00    +0.000 C 
ATOM     13  C   UNL     1      -8.267  -2.003   0.188  0.00  0.00    +0.000 C 
ATOM     14  C   UNL     1      -7.261  -1.677   1.300  0.00  0.00    +0.000 C 
ATOM     15  C   UNL     1      -7.920  -1.017   2.506  0.00  0.00    +0.000 C 
BRANCH  13  16
ATOM     16  O   UNL     1      -8.989  -0.823  -0.163  0.00  0.00    +0.000 OA
ATOM     17  H   UNL     1      -9.628  -1.065  -0.855  0.00  0.00    +0.000 HD
ENDBRANCH  13  16
ENDBRANCH   3  10
BRANCH   8  18
ATOM     18  O   UNL     1      -0.526   1.815  -1.598  0.00  0.00    +0.000 OA
ATOM     19  H   UNL     1      -1.231   2.431  -1.856  0.00  0.00    +0.000 HD
ENDBRANCH   8  18
BRANCH   4  20
ATOM     20  C   UNL     1      -5.577   1.808  -0.197  0.00  0.00    +0.000 C 
ATOM     21  C   UNL     1      -6.198   2.999  -0.931  0.00  0.00    +0.000 C 
BRANCH  20  24
ATOM     22  O   UNL     1      -4.021   3.328   0.883  0.00  0.00    +0.000 OA
ATOM     23  N   UNL     1      -4.671   1.413   2.018  0.00  0.00    +0.000 N 
ATOM     24  C   UNL     1      -4.667   2.284   0.939  0.00  0.00    +0.000 C 
ATOM     25  C   UNL     1      -3.900   1.650   3.216  0.00  0.00    +0.000 C 
ATOM     26  H   UNL     1      -5.207   0.552   1.966  0.00  0.00    +0.000 HD
ENDBRANCH  20  24
ENDBRANCH   4  20
BRANCH   8  28
ATOM     27  C   UNL     1       1.188  -0.266  -0.712  0.00  0.00    +0.000 C 
ATOM     28  C   UNL     1      -0.152  -0.363  -0.657  0.00  0.00    +0.000 C 
BRANCH  27  30
ATOM     29  C   UNL     1       3.474  -1.007  -0.414  0.00  0.00    +0.000 C 
ATOM     30  C   UNL     1       2.158  -1.280  -0.282  0.00  0.00    +0.000 C 
ATOM     31  C   UNL     1       1.615  -2.566   0.284  0.00  0.00    +0.000 C 
BRANCH  29  32
ATOM     32  C   UNL     1       4.662  -1.874  -0.060  0.00  0.00    +0.000 C 
ATOM     33  C   UNL     1       5.038  -2.751  -1.256  0.00  0.00    +0.000 C 
BRANCH  32  42
ATOM     34  O   UNL     1       9.608   0.496  -1.171  0.00  0.00    +0.000 OA
ATOM     35  O   UNL     1       6.786   1.679   0.501  0.00  0.00    +0.000 OA
ATOM     36  O   UNL     1       6.207  -0.231  -0.801  0.00  0.00    +0.000 OA
ATOM     37  C   UNL     1       8.567   0.191  -0.225  0.00  0.00    +0.000 C 
ATOM     38  C   UNL     1       7.192   0.791  -0.560  0.00  0.00    +0.000 C 
ATOM     39  C   UNL     1       9.157  -0.860  -1.152  0.00  0.00    +0.000 C 
ATOM     40  C   UNL     1       6.631   0.969   1.742  0.00  0.00    +0.000 C 
ATOM     41  C   UNL     1       5.512  -0.075   1.549  0.00  0.00    +0.000 C 
ATOM     42  C   UNL     1       5.844  -1.001   0.354  0.00  0.00    +0.000 C 
ATOM     43  C   UNL     1       8.860   0.061   1.219  0.00  0.00    +0.000 C 
ATOM     44  C   UNL     1       7.963   0.397   2.157  0.00  0.00    +0.000 C 
ATOM     45  C   UNL     1       7.213   1.655  -1.824  0.00  0.00    +0.000 C 
ATOM     46  C   UNL     1       5.220  -0.848   2.835  0.00  0.00    +0.000 C 
ENDBRANCH  32  42
ENDBRANCH  29  32
ENDBRANCH  27  30
ENDBRANCH   8  28
TORSDOF 9
