REMARK  Name = 6915835
REMARK  12 active torsions:
REMARK  status: ('A' for Active; 'I' for Inactive)
REMARK    1  A    between atoms: O_1  and  C_23
REMARK    2  A    between atoms: O_2  and  C_24
REMARK    3  A    between atoms: O_3  and  C_27
REMARK    4  A    between atoms: C_4  and  C_12
REMARK    5  A    between atoms: C_5  and  C_10
REMARK    6  A    between atoms: C_10  and  C_15
REMARK    7  A    between atoms: C_10  and  C_16
REMARK    8  A    between atoms: C_15  and  C_19
REMARK    9  A    between atoms: C_17  and  C_18
REMARK   10  A    between atoms: C_25  and  C_27
REMARK   11  A    between atoms: C_27  and  C_28
REMARK   12  A    between atoms: C_27  and  C_29
REMARK                            x       y       z     vdW  Elec       q    Type
REMARK                         _______ _______ _______ _____ _____    ______ ____
ROOT
ATOM      1  C   UNL     1      -0.902   1.125   0.453  0.00  0.00    +0.000 C 
ATOM      2  C   UNL     1      -2.326   1.111  -0.200  0.00  0.00    +0.000 C 
ATOM      3  C   UNL     1       0.069   0.826  -0.741  0.00  0.00    +0.000 C 
ATOM      4  C   UNL     1      -2.073   1.304  -1.694  0.00  0.00    +0.000 C 
ATOM      5  C   UNL     1      -0.830   0.464  -1.930  0.00  0.00    +0.000 C 
ATOM      6  C   UNL     1      -0.806   0.057   1.574  0.00  0.00    +0.000 C 
ATOM      7  C   UNL     1       1.113  -0.220  -0.442  0.00  0.00    +0.000 C 
ATOM      8  C   UNL     1      -0.540   2.491   1.069  0.00  0.00    +0.000 C 
ATOM      9  C   UNL     1      -0.626  -1.358   1.024  0.00  0.00    +0.000 C 
ATOM     10  C   UNL     1       0.650  -1.506   0.193  0.00  0.00    +0.000 C 
ATOM     11  C   UNL     1       2.417   0.003  -0.672  0.00  0.00    +0.000 C 
ENDROOT
BRANCH  11  12
ATOM     12  C   UNL     1       3.450  -0.944  -0.340  0.00  0.00    +0.000 C 
ATOM     13  C   UNL     1       4.752  -0.722  -0.569  0.00  0.00    +0.000 C 
ATOM     14  C   UNL     1       5.815  -1.726  -0.214  0.00  0.00    +0.000 C 
ATOM     15  C   UNL     1       5.259   0.563  -1.178  0.00  0.00    +0.000 C 
ATOM     16  C   UNL     1       6.886  -1.092   0.674  0.00  0.00    +0.000 C 
ATOM     17  C   UNL     1       6.363   1.190  -0.319  0.00  0.00    +0.000 C 
ATOM     18  C   UNL     1       7.457   0.183   0.042  0.00  0.00    +0.000 C 
BRANCH  16  19
ATOM     19  O   UNL     1       7.934  -2.037   0.863  0.00  0.00    +0.000 OA
ATOM     20  H   UNL     1       7.548  -2.825   1.281  0.00  0.00    +0.000 HD
ENDBRANCH  16  19
BRANCH  17  21
ATOM     21  O   UNL     1       5.802   1.715   0.883  0.00  0.00    +0.000 OA
ATOM     22  H   UNL     1       6.522   2.132   1.386  0.00  0.00    +0.000 HD
ENDBRANCH  17  21
ENDBRANCH  11  12
BRANCH   2  23
ATOM     23  C   UNL     1      -3.345   2.105   0.345  0.00  0.00    +0.000 C 
ATOM     24  C   UNL     1      -3.506   1.934   1.857  0.00  0.00    +0.000 C 
BRANCH  23  25
ATOM     25  C   UNL     1      -4.688   2.030  -0.400  0.00  0.00    +0.000 C 
BRANCH  25  26
ATOM     26  C   UNL     1      -5.366   0.732  -0.266  0.00  0.00    +0.000 C 
ATOM     27  C   UNL     1      -5.918  -0.329  -0.154  0.00  0.00    +0.000 C 
BRANCH  27  28
ATOM     28  C   UNL     1      -6.587  -1.633  -0.011  0.00  0.00    +0.000 C 
ATOM     29  C   UNL     1      -6.047  -2.371   1.213  0.00  0.00    +0.000 C 
ATOM     30  C   UNL     1      -8.101  -1.454   0.096  0.00  0.00    +0.000 C 
BRANCH  28  31
ATOM     31  O   UNL     1      -6.304  -2.441  -1.154  0.00  0.00    +0.000 OA
ATOM     32  H   UNL     1      -6.691  -2.006  -1.934  0.00  0.00    +0.000 HD
ENDBRANCH  28  31
ENDBRANCH  27  28
ENDBRANCH  25  26
ENDBRANCH  23  25
ENDBRANCH   2  23
TORSDOF 8
