REMARK  Name = 9818024
REMARK  5 active torsions:
REMARK  status: ('A' for Active; 'I' for Inactive)
REMARK    1  A    between atoms: O_1  and  C_11
REMARK    2  A    between atoms: O_2  and  C_13
REMARK    3  A    between atoms: O_3  and  C_22
REMARK    4  A    between atoms: C_5  and  C_17
REMARK    5  A    between atoms: C_8  and  C_19
REMARK                            x       y       z     vdW  Elec       q    Type
REMARK                         _______ _______ _______ _____ _____    ______ ____
ROOT
ATOM      1  C   UNL     1       2.050  -0.571  -0.401  0.00  0.00    +0.000 C 
ATOM      2  C   UNL     1       2.790   0.710   0.029  0.00  0.00    +0.000 C 
ATOM      3  C   UNL     1       0.621  -0.658   0.161  0.00  0.00    +0.000 C 
ATOM      4  C   UNL     1      -0.188   0.591  -0.301  0.00  0.00    +0.000 C 
ATOM      5  C   UNL     1      -1.662   0.576   0.273  0.00  0.00    +0.000 C 
ATOM      6  C   UNL     1       2.027   1.911  -0.540  0.00  0.00    +0.000 C 
ATOM      7  C   UNL     1       0.568   1.926  -0.055  0.00  0.00    +0.000 C 
ATOM      8  C   UNL     1       4.156   0.451  -0.637  0.00  0.00    +0.000 C 
ATOM      9  C   UNL     1       3.051  -1.680  -0.087  0.00  0.00    +0.000 C 
ATOM     10  C   UNL     1      -0.084  -1.946  -0.309  0.00  0.00    +0.000 C 
ATOM     11  C   UNL     1       4.423  -1.043  -0.373  0.00  0.00    +0.000 C 
ATOM     12  C   UNL     1      -2.293  -0.812   0.110  0.00  0.00    +0.000 C 
ATOM     13  C   UNL     1      -2.505   1.619  -0.520  0.00  0.00    +0.000 C 
ATOM     14  C   UNL     1       2.958   0.873   1.560  0.00  0.00    +0.000 C 
ATOM     15  C   UNL     1      -1.574  -1.914  -0.165  0.00  0.00    +0.000 C 
ATOM     16  C   UNL     1      -1.685   0.936   1.778  0.00  0.00    +0.000 C 
ATOM     17  C   UNL     1      -3.793  -0.915   0.273  0.00  0.00    +0.000 C 
ATOM     18  C   UNL     1      -4.011   1.528  -0.281  0.00  0.00    +0.000 C 
ATOM     19  C   UNL     1      -4.530   0.124  -0.567  0.00  0.00    +0.000 C 
ENDROOT
BRANCH   8  20
ATOM     20  O   UNL     1       5.187   1.268  -0.118  0.00  0.00    +0.000 OA
ATOM     21  H   UNL     1       6.021   0.981  -0.528  0.00  0.00    +0.000 HD
ENDBRANCH   8  20
BRANCH  10  22
ATOM     22  O   UNL     1       0.413  -3.062   0.431  0.00  0.00    +0.000 OA
ATOM     23  H   UNL     1       0.228  -2.905   1.373  0.00  0.00    +0.000 HD
ENDBRANCH  10  22
BRANCH  19  24
ATOM     24  O   UNL     1      -5.920   0.087  -0.260  0.00  0.00    +0.000 OA
ATOM     25  H   UNL     1      -6.237  -0.812  -0.450  0.00  0.00    +0.000 HD
ENDBRANCH  19  24
TORSDOF 3
