REMARK  Name = 3033968
REMARK  4 active torsions:
REMARK  status: ('A' for Active; 'I' for Inactive)
REMARK    1  A    between atoms: O_1  and  C_10
REMARK    2  A    between atoms: C_3  and  C_12
REMARK    3  A    between atoms: C_10  and  C_21
REMARK    4  A    between atoms: C_12  and  C_18
REMARK                            x       y       z     vdW  Elec       q    Type
REMARK                         _______ _______ _______ _____ _____    ______ ____
ROOT
ATOM      1  O   UNL     1       6.198   0.138   0.887  0.00  0.00    +0.000 OA
ATOM      2  C   UNL     1      -2.174   0.343  -0.253  0.00  0.00    +0.000 C 
ATOM      3  C   UNL     1       0.063  -0.872  -0.489  0.00  0.00    +0.000 C 
ATOM      4  C   UNL     1      -1.355  -0.934   0.086  0.00  0.00    +0.000 C 
ATOM      5  C   UNL     1       0.800   0.342   0.158  0.00  0.00    +0.000 C 
ATOM      6  C   UNL     1      -1.494   1.525   0.458  0.00  0.00    +0.000 C 
ATOM      7  C   UNL     1      -0.013   1.661   0.051  0.00  0.00    +0.000 C 
ATOM      8  C   UNL     1       2.247   0.484  -0.407  0.00  0.00    +0.000 C 
ATOM      9  C   UNL     1      -3.606  -0.072   0.218  0.00  0.00    +0.000 C 
ATOM     10  C   UNL     1       0.855  -2.158  -0.213  0.00  0.00    +0.000 C 
ATOM     11  C   UNL     1      -2.334  -2.005  -0.289  0.00  0.00    +0.000 C 
ATOM     12  C   UNL     1       3.000  -0.838  -0.326  0.00  0.00    +0.000 C 
ATOM     13  C   UNL     1       2.259  -2.062  -0.802  0.00  0.00    +0.000 C 
ATOM     14  C   UNL     1      -3.588  -1.538  -0.162  0.00  0.00    +0.000 C 
ATOM     15  C   UNL     1       3.001   1.618   0.318  0.00  0.00    +0.000 C 
ATOM     16  C   UNL     1       4.494   1.596   0.042  0.00  0.00    +0.000 C 
ATOM     17  C   UNL     1       4.269  -0.950   0.100  0.00  0.00    +0.000 C 
ATOM     18  C   UNL     1       5.070   0.255   0.414  0.00  0.00    +0.000 C 
ENDROOT
BRANCH   9  19
ATOM     19  O   UNL     1      -4.619   0.625  -0.491  0.00  0.00    +0.000 OA
ATOM     20  H   UNL     1      -5.473   0.198  -0.304  0.00  0.00    +0.000 HD
ENDBRANCH   9  19
BRANCH   2  21
ATOM     21  C   UNL     1      -2.224   0.663  -1.786  0.00  0.00    +0.000 C 
ATOM     22  C   UNL     1      -2.980   1.941  -2.019  0.00  0.00    +0.000 C 
ENDBRANCH   2  21
BRANCH   9  23
ATOM     23  C   UNL     1      -3.840   0.063   1.663  0.00  0.00    +0.000 C 
ATOM     24  C   UNL     1      -4.032   0.173   2.843  0.00  0.00    +0.000 C 
ENDBRANCH   9  23
TORSDOF 3
