REMARK  Name = 4369567
REMARK  6 active torsions:
REMARK  status: ('A' for Active; 'I' for Inactive)
REMARK    1  A    between atoms: O_1  and  C_9
REMARK    2  A    between atoms: O_3  and  C_20
REMARK    3  A    between atoms: C_5  and  C_8
REMARK    4  A    between atoms: C_7  and  C_18
REMARK    5  A    between atoms: C_8  and  C_11
REMARK    6  A    between atoms: C_11  and  C_14
REMARK                            x       y       z     vdW  Elec       q    Type
REMARK                         _______ _______ _______ _____ _____    ______ ____
ROOT
ATOM      1  C   UNL     1      -1.270  -0.654  -0.172  0.00  0.00    +0.000 C 
ATOM      2  C   UNL     1      -2.449   0.170   0.426  0.00  0.00    +0.000 C 
ATOM      3  C   UNL     1      -1.505  -2.183   0.008  0.00  0.00    +0.000 C 
ATOM      4  C   UNL     1      -2.258   1.701   0.298  0.00  0.00    +0.000 C 
ATOM      5  C   UNL     1      -3.779  -0.284  -0.172  0.00  0.00    +0.000 C 
ATOM      6  C   UNL     1      -3.524   2.446   0.721  0.00  0.00    +0.000 C 
ATOM      7  C   UNL     1      -2.907  -2.567  -0.394  0.00  0.00    +0.000 C 
ATOM      8  C   UNL     1      -4.731   2.041  -0.124  0.00  0.00    +0.000 C 
ATOM      9  C   UNL     1      -3.919  -1.694  -0.486  0.00  0.00    +0.000 C 
ATOM     10  C   UNL     1      -4.789   0.571  -0.413  0.00  0.00    +0.000 C 
ATOM     11  C   UNL     1      -1.233  -2.711   1.420  0.00  0.00    +0.000 C 
ENDROOT
BRANCH   4  12
ATOM     12  O   UNL     1      -1.956   2.083  -1.044  0.00  0.00    +0.000 OA
ATOM     13  H   UNL     1      -1.818   3.045  -1.052  0.00  0.00    +0.000 HD
ENDBRANCH   4  12
BRANCH   1  14
ATOM     14  C   UNL     1       0.094  -0.233   0.389  0.00  0.00    +0.000 C 
BRANCH  14  15
ATOM     15  C   UNL     1       1.223  -0.992  -0.294  0.00  0.00    +0.000 C 
BRANCH  15  18
ATOM     16  O   UNL     1       2.709   0.862   0.009  0.00  0.00    +0.000 OA
ATOM     17  O   UNL     1       4.098   2.651   0.052  0.00  0.00    +0.000 OA
ATOM     18  C   UNL     1       2.578  -0.557   0.245  0.00  0.00    +0.000 C 
ATOM     19  C   UNL     1       3.718  -1.283  -0.459  0.00  0.00    +0.000 C 
ATOM     20  C   UNL     1       5.072  -0.772   0.033  0.00  0.00    +0.000 C 
ATOM     21  C   UNL     1       4.974   0.542   0.801  0.00  0.00    +0.000 C 
ATOM     22  C   UNL     1       3.912   1.453   0.238  0.00  0.00    +0.000 C 
BRANCH  20  23
ATOM     23  O   UNL     1       5.944  -0.591  -1.082  0.00  0.00    +0.000 OA
ATOM     24  H   UNL     1       5.569   0.108  -1.645  0.00  0.00    +0.000 HD
ENDBRANCH  20  23
ENDBRANCH  15  18
ENDBRANCH  14  15
ENDBRANCH   1  14
TORSDOF 5
