REMARK  Name = 
REMARK  26 active torsions:
REMARK  status: ('A' for Active; 'I' for Inactive)
REMARK    1  A    between atoms: C_1  and  O_2
REMARK    2  A    between atoms: O_2  and  C_3
REMARK    3  A    between atoms: C_4  and  O_5
REMARK    4  A    between atoms: C_10  and  C_11
REMARK    5  A    between atoms: C_17  and  O_18
REMARK    6  A    between atoms: C_19  and  C_20
REMARK    7  A    between atoms: C_22  and  C_23
REMARK    8  A    between atoms: C_23  and  C_24
REMARK    9  A    between atoms: C_26  and  O_27
REMARK   10  A    between atoms: O_27  and  C_28
REMARK   11  A    between atoms: C_30  and  C_31
REMARK   12  A    between atoms: C_32  and  O_33
REMARK   13  A    between atoms: O_33  and  C_34
REMARK   14  A    between atoms: C_36  and  C_37
REMARK   15  A    between atoms: C_36  and  O_38
REMARK   16  A    between atoms: C_39  and  O_40
REMARK   17  A    between atoms: O_40  and  C_41
REMARK   18  A    between atoms: C_41  and  C_43
REMARK   19  A    between atoms: C_43  and  C_44
REMARK   20  A    between atoms: C_44  and  C_45
REMARK   21  A    between atoms: C_44  and  C_46
REMARK   22  A    between atoms: C_47  and  C_48
REMARK   23  A    between atoms: C_50  and  N_51
REMARK   24  A    between atoms: N_51  and  C_52
REMARK   25  A    between atoms: N_51  and  C_53
REMARK   26  A    between atoms: C_54  and  O_55
REMARK                            x       y       z     vdW  Elec       q    Type
REMARK                         _______ _______ _______ _____ _____    ______ ____
ROOT
ATOM      1  C   UNL     1      -0.312  -0.803  -1.136  0.00  0.00    +0.000 C 
ATOM      2  O   UNL     1       0.587  -1.606  -0.229  0.00  0.00    +0.000 OA
ATOM      3  C   UNL     1       1.659  -1.114  -1.162  0.00  0.00    +0.000 C 
ATOM      4  C   UNL     1       2.487  -2.528  -1.096  0.00  0.00    +0.000 C 
ATOM      5  C   UNL     1       2.361  -0.439   0.211  0.00  0.00    +0.000 C 
ATOM      6  C   UNL     1       1.154   0.660   0.673  0.00  0.00    +0.000 C 
ATOM      7  C   UNL     1       0.053   0.777  -0.588  0.00  0.00    +0.000 C 
ENDROOT
BRANCH   6   8
ATOM      8  N   UNL     1       0.555  -0.376   1.639  0.00  0.00    +0.000 NA
ATOM      9  C   UNL     1      -0.552  -0.335   2.338  0.00  0.00    +0.000 C 
ATOM     10  C   UNL     1       1.347   0.327   2.730  0.00  0.00    +0.000 C 
ENDBRANCH   6   8
BRANCH   7  11
ATOM     11  O   UNL     1       1.094   1.068  -1.655  0.00  0.00    +0.000 OA
ATOM     12  H   UNL     1       1.770   0.371  -1.646  0.00  0.00    +0.000 HD
ENDBRANCH   7  11
BRANCH   1  13
ATOM     13  O   UNL     1      -1.479  -0.808  -0.157  0.00  0.00    +0.000 OA
BRANCH  13  32
ATOM     14  C   UNL     1      -3.509  -0.043   0.455  0.00  0.00    +0.000 C 
ATOM     15  C   UNL     1      -4.606   1.011  -0.340  0.00  0.00    +0.000 C 
ATOM     16  C   UNL     1      -4.841   1.950   0.992  0.00  0.00    +0.000 C 
ATOM     17  C   UNL     1      -4.712   3.375   0.510  0.00  0.00    +0.000 C 
ATOM     18  O   UNL     1      -3.549   3.863   0.316  0.00  0.00    +0.000 OA
ATOM     19  O   UNL     1      -5.659   3.495  -0.497  0.00  0.00    +0.000 OA
ATOM     20  C   UNL     1      -7.137   3.460  -0.083  0.00  0.00    +0.000 C 
ATOM     21  C   UNL     1      -6.944   2.538   1.265  0.00  0.00    +0.000 C 
ATOM     22  C   UNL     1      -7.451   2.153  -1.030  0.00  0.00    +0.000 C 
ATOM     23  C   UNL     1      -8.408   1.327  -0.418  0.00  0.00    +0.000 C 
ATOM     24  C   UNL     1      -8.605   0.155  -0.008  0.00  0.00    +0.000 C 
ATOM     25  C   UNL     1      -8.518  -0.993  -0.919  0.00  0.00    +0.000 C 
ATOM     26  C   UNL     1      -7.268  -1.167  -1.342  0.00  0.00    +0.000 C 
ATOM     27  C   UNL     1      -6.925  -2.732  -1.174  0.00  0.00    +0.000 C 
ATOM     28  C   UNL     1      -5.351  -2.587  -1.824  0.00  0.00    +0.000 C 
ATOM     29  C   UNL     1      -4.934  -4.009  -1.165  0.00  0.00    +0.000 C 
ATOM     30  C   UNL     1      -4.633  -1.687  -0.688  0.00  0.00    +0.000 C 
ATOM     31  C   UNL     1      -3.251  -1.666  -1.541  0.00  0.00    +0.000 C 
ATOM     32  C   UNL     1      -2.586  -0.207  -0.961  0.00  0.00    +0.000 C 
BRANCH  14  34
ATOM     33  C   UNL     1      -2.597   0.955   2.313  0.00  0.00    +0.000 C 
ATOM     34  O   UNL     1      -2.598   1.048   0.930  0.00  0.00    +0.000 OA
ENDBRANCH  14  34
BRANCH  15  35
ATOM     35  O   UNL     1      -3.609   1.917  -1.016  0.00  0.00    +0.000 OA
ATOM     36  H   UNL     1      -2.935   2.191  -0.375  0.00  0.00    +0.000 HD
ENDBRANCH  15  35
BRANCH  27  37
ATOM     37  O   UNL     1      -6.522  -2.591   0.273  0.00  0.00    +0.000 OA
ATOM     38  H   UNL     1      -5.923  -1.833   0.369  0.00  0.00    +0.000 HD
ENDBRANCH  27  37
BRANCH  31  39
ATOM     39  C   UNL     1      -2.497  -2.746  -0.622  0.00  0.00    +0.000 C 
BRANCH  39  40
ATOM     40  C   UNL     1      -2.797  -2.622   0.793  0.00  0.00    +0.000 C 
ATOM     41  O   UNL     1      -1.920  -3.077   1.531  0.00  0.00    +0.000 OA
ENDBRANCH  39  40
ENDBRANCH  31  39
ENDBRANCH  13  32
ENDBRANCH   1  13
BRANCH   5  42
ATOM     42  O   UNL     1       3.062   0.628  -0.567  0.00  0.00    +0.000 OA
BRANCH  42  43
ATOM     43  C   UNL     1       4.309   0.836   0.303  0.00  0.00    +0.000 C 
ATOM     44  C   UNL     1       4.608  -0.797   0.444  0.00  0.00    +0.000 C 
ATOM     45  C   UNL     1       6.038  -0.993   0.117  0.00  0.00    +0.000 C 
ATOM     46  C   UNL     1       6.572  -2.136   0.936  0.00  0.00    +0.000 C 
ATOM     47  C   UNL     1       6.650   0.343   0.825  0.00  0.00    +0.000 C 
ATOM     48  C   UNL     1       6.471   1.402  -0.516  0.00  0.00    +0.000 C 
ATOM     49  C   UNL     1       5.860   2.585   0.438  0.00  0.00    +0.000 C 
ATOM     50  O   UNL     1       5.128   0.930  -0.970  0.00  0.00    +0.000 OA
BRANCH  45  51
ATOM     51  O   UNL     1       6.409  -1.014  -1.169  0.00  0.00    +0.000 OA
ATOM     52  H   UNL     1       6.048  -1.807  -1.596  0.00  0.00    +0.000 HD
ENDBRANCH  45  51
BRANCH  47  53
ATOM     53  O   UNL     1       8.065  -0.022   0.380  0.00  0.00    +0.000 OA
BRANCH  53  54
ATOM     54  C   UNL     1       9.017   0.965   0.551  0.00  0.00    +0.000 C 
ATOM     55  O   UNL     1       8.851   1.699   1.548  0.00  0.00    +0.000 OA
BRANCH  54  56
ATOM     56  C   UNL     1      10.308   0.995  -0.211  0.00  0.00    +0.000 C 
BRANCH  56  57
ATOM     57  C   UNL     1      10.426  -0.029  -1.263  0.00  0.00    +0.000 C 
ATOM     58  C   UNL     1      11.280  -1.205  -0.999  0.00  0.00    +0.000 C 
ATOM     59  C   UNL     1       9.418  -0.128  -2.305  0.00  0.00    +0.000 C 
ENDBRANCH  56  57
ENDBRANCH  54  56
ENDBRANCH  53  54
ENDBRANCH  47  53
ENDBRANCH  42  43
ENDBRANCH   5  42
TORSDOF 16
