REMARK  Name = 5284587
REMARK  7 active torsions:
REMARK  status: ('A' for Active; 'I' for Inactive)
REMARK    1  A    between atoms: O_1  and  C_9
REMARK    2  A    between atoms: O_4  and  C_25
REMARK    3  A    between atoms: C_6  and  C_17
REMARK    4  A    between atoms: C_9  and  C_20
REMARK    5  A    between atoms: C_12  and  C_21
REMARK    6  A    between atoms: C_14  and  C_22
REMARK    7  A    between atoms: C_20  and  C_25
REMARK                            x       y       z     vdW  Elec       q    Type
REMARK                         _______ _______ _______ _____ _____    ______ ____
ROOT
ATOM      1  O   UNL     1       0.822   2.595  -0.748  0.00  0.00    +0.000 OA
ATOM      2  O   UNL     1       6.417  -0.036   1.480  0.00  0.00    +0.000 OA
ATOM      3  C   UNL     1      -1.691   0.279  -0.124  0.00  0.00    +0.000 C 
ATOM      4  C   UNL     1      -0.832  -0.970   0.198  0.00  0.00    +0.000 C 
ATOM      5  C   UNL     1       0.549  -0.944  -0.477  0.00  0.00    +0.000 C 
ATOM      6  C   UNL     1      -3.021  -0.110   0.587  0.00  0.00    +0.000 C 
ATOM      7  C   UNL     1       1.335   0.316   0.010  0.00  0.00    +0.000 C 
ATOM      8  C   UNL     1      -1.769  -2.128  -0.128  0.00  0.00    +0.000 C 
ATOM      9  C   UNL     1      -3.146  -1.655   0.400  0.00  0.00    +0.000 C 
ATOM     10  C   UNL     1      -0.947   1.503   0.426  0.00  0.00    +0.000 C 
ATOM     11  C   UNL     1       2.788   0.394  -0.579  0.00  0.00    +0.000 C 
ATOM     12  C   UNL     1       1.335  -2.230  -0.182  0.00  0.00    +0.000 C 
ATOM     13  C   UNL     1       0.448   1.568  -0.185  0.00  0.00    +0.000 C 
ATOM     14  C   UNL     1      -1.927   0.485  -1.647  0.00  0.00    +0.000 C 
ATOM     15  C   UNL     1       2.737  -2.184  -0.781  0.00  0.00    +0.000 C 
ATOM     16  C   UNL     1       3.470  -0.955  -0.307  0.00  0.00    +0.000 C 
ATOM     17  C   UNL     1      -4.266  -2.139  -0.516  0.00  0.00    +0.000 C 
ATOM     18  C   UNL     1       2.802   0.650  -2.103  0.00  0.00    +0.000 C 
ATOM     19  C   UNL     1       3.561   1.535   0.070  0.00  0.00    +0.000 C 
ATOM     20  C   UNL     1       4.629  -1.085   0.358  0.00  0.00    +0.000 C 
ATOM     21  C   UNL     1       4.715   1.409   0.735  0.00  0.00    +0.000 C 
ATOM     22  C   UNL     1       5.344   0.087   0.900  0.00  0.00    +0.000 C 
ENDROOT
BRANCH   6  23
ATOM     23  O   UNL     1      -2.905   0.161   1.991  0.00  0.00    +0.000 OA
ATOM     24  H   UNL     1      -2.388  -0.543   2.415  0.00  0.00    +0.000 HD
ENDBRANCH   6  23
BRANCH   6  26
ATOM     25  O   UNL     1      -4.128   1.590  -0.663  0.00  0.00    +0.000 OA
ATOM     26  C   UNL     1      -4.209   0.724   0.206  0.00  0.00    +0.000 C 
BRANCH  26  27
ATOM     27  C   UNL     1      -5.496   0.437   0.950  0.00  0.00    +0.000 C 
BRANCH  27  28
ATOM     28  O   UNL     1      -6.615   0.701   0.130  0.00  0.00    +0.000 OA
ATOM     29  H   UNL     1      -6.607   0.050  -0.592  0.00  0.00    +0.000 HD
ENDBRANCH  27  28
ENDBRANCH  26  27
ENDBRANCH   6  26
TORSDOF 4
