REMARK  Name = 72493
REMARK  20 active torsions:
REMARK  status: ('A' for Active; 'I' for Inactive)
REMARK    1  A    between atoms: O_2  and  C_17
REMARK    2  A    between atoms: O_2  and  C_26
REMARK    3  A    between atoms: O_3  and  C_21
REMARK    4  A    between atoms: O_3  and  C_35
REMARK    5  A    between atoms: O_7  and  C_24
REMARK    6  A    between atoms: O_9  and  C_29
REMARK    7  A    between atoms: O_11  and  C_40
REMARK    8  A    between atoms: O_11  and  C_48
REMARK    9  A    between atoms: O_12  and  C_41
REMARK   10  A    between atoms: N_13  and  C_30
REMARK   11  A    between atoms: N_13  and  C_45
REMARK   12  A    between atoms: N_13  and  C_46
REMARK   13  A    between atoms: C_16  and  C_23
REMARK   14  A    between atoms: C_19  and  C_27
REMARK   15  A    between atoms: C_22  and  C_31
REMARK   16  A    between atoms: C_25  and  C_37
REMARK   17  A    between atoms: C_28  and  C_39
REMARK   18  A    between atoms: C_32  and  C_43
REMARK   19  A    between atoms: C_34  and  C_44
REMARK   20  A    between atoms: C_42  and  C_47
REMARK                            x       y       z     vdW  Elec       q    Type
REMARK                         _______ _______ _______ _____ _____    ______ ____
ROOT
ATOM      1  O   UNL     1      -2.159   0.881   2.102  0.00  0.00    +0.000 OA
ATOM      2  O   UNL     1      -2.418   4.254   2.353  0.00  0.00    +0.000 OA
ATOM      3  O   UNL     1      -4.054   0.585  -1.334  0.00  0.00    +0.000 OA
ATOM      4  O   UNL     1      -3.881  -1.569  -0.521  0.00  0.00    +0.000 OA
ATOM      5  C   UNL     1      -1.456   2.129   2.006  0.00  0.00    +0.000 C 
ATOM      6  C   UNL     1      -0.054   2.078   1.425  0.00  0.00    +0.000 C 
ATOM      7  C   UNL     1       0.638   0.693   1.354  0.00  0.00    +0.000 C 
ATOM      8  C   UNL     1       1.217   0.378  -0.057  0.00  0.00    +0.000 C 
ATOM      9  C   UNL     1      -1.736   1.458   3.340  0.00  0.00    +0.000 C 
ATOM     10  C   UNL     1       0.171   0.285  -1.213  0.00  0.00    +0.000 C 
ATOM     11  C   UNL     1      -2.339   3.271   1.625  0.00  0.00    +0.000 C 
ATOM     12  C   UNL     1      -0.984  -0.708  -0.913  0.00  0.00    +0.000 C 
ATOM     13  C   UNL     1      -3.084   3.139   0.296  0.00  0.00    +0.000 C 
ATOM     14  C   UNL     1       1.767   0.631   2.399  0.00  0.00    +0.000 C 
ATOM     15  C   UNL     1      -4.596   3.015   0.598  0.00  0.00    +0.000 C 
ATOM     16  C   UNL     1      -2.137  -0.653  -1.947  0.00  0.00    +0.000 C 
ATOM     17  C   UNL     1       0.882  -0.063  -2.533  0.00  0.00    +0.000 C 
ATOM     18  C   UNL     1      -5.515   2.357  -0.474  0.00  0.00    +0.000 C 
ATOM     19  C   UNL     1      -2.671   4.331  -0.570  0.00  0.00    +0.000 C 
ATOM     20  C   UNL     1      -5.282   0.828  -0.617  0.00  0.00    +0.000 C 
ATOM     21  C   UNL     1      -3.456  -0.632  -1.186  0.00  0.00    +0.000 C 
ATOM     22  C   UNL     1      -2.179  -1.809  -2.946  0.00  0.00    +0.000 C 
ATOM     23  C   UNL     1      -5.490   3.086  -1.822  0.00  0.00    +0.000 C 
ATOM     24  C   UNL     1      -6.431   0.151  -1.368  0.00  0.00    +0.000 C 
ENDROOT
BRANCH  15  25
ATOM     25  O   UNL     1      -5.109   4.320   0.896  0.00  0.00    +0.000 OA
ATOM     26  H   UNL     1      -4.624   4.661   1.667  0.00  0.00    +0.000 HD
ENDBRANCH  15  25
BRANCH   8  27
ATOM     27  O   UNL     1       2.176   1.395  -0.370  0.00  0.00    +0.000 OA
BRANCH  27  29
ATOM     28  O   UNL     1       3.864   0.218   0.729  0.00  0.00    +0.000 OA
ATOM     29  C   UNL     1       3.487   0.845  -0.495  0.00  0.00    +0.000 C 
ATOM     30  C   UNL     1       4.447   1.989  -0.840  0.00  0.00    +0.000 C 
ATOM     31  C   UNL     1       5.902   1.501  -0.843  0.00  0.00    +0.000 C 
ATOM     32  C   UNL     1       6.211   0.732   0.444  0.00  0.00    +0.000 C 
ATOM     33  C   UNL     1       5.168  -0.364   0.669  0.00  0.00    +0.000 C 
ATOM     34  C   UNL     1       5.413  -1.092   1.984  0.00  0.00    +0.000 C 
BRANCH  31  35
ATOM     35  N   UNL     1       6.828   2.627  -0.975  0.00  0.00    +0.000 NA
ATOM     36  C   UNL     1       6.885   3.081  -2.363  0.00  0.00    +0.000 C 
ATOM     37  C   UNL     1       8.160   2.250  -0.504  0.00  0.00    +0.000 C 
ENDBRANCH  31  35
BRANCH  30  38
ATOM     38  O   UNL     1       4.097   2.482  -2.132  0.00  0.00    +0.000 OA
ATOM     39  H   UNL     1       4.198   1.755  -2.769  0.00  0.00    +0.000 HD
ENDBRANCH  30  38
ENDBRANCH  27  29
ENDBRANCH   8  27
BRANCH  12  40
ATOM     40  O   UNL     1      -0.490  -2.039  -0.789  0.00  0.00    +0.000 OA
BRANCH  40  42
ATOM     41  O   UNL     1       0.505  -2.825   1.219  0.00  0.00    +0.000 OA
ATOM     42  C   UNL     1      -0.712  -2.556   0.520  0.00  0.00    +0.000 C 
ATOM     43  C   UNL     1      -1.624  -3.780   0.505  0.00  0.00    +0.000 C 
ATOM     44  C   UNL     1      -0.904  -5.021  -0.018  0.00  0.00    +0.000 C 
ATOM     45  C   UNL     1       0.436  -5.206   0.695  0.00  0.00    +0.000 C 
ATOM     46  C   UNL     1       1.255  -3.910   0.666  0.00  0.00    +0.000 C 
ATOM     47  C   UNL     1       2.539  -4.040   1.480  0.00  0.00    +0.000 C 
BRANCH  44  48
ATOM     48  O   UNL     1      -1.714  -6.171   0.217  0.00  0.00    +0.000 OA
ATOM     49  C   UNL     1      -2.734  -6.294  -0.762  0.00  0.00    +0.000 C 
ENDBRANCH  44  48
BRANCH  45  50
ATOM     50  O   UNL     1       1.163  -6.260   0.070  0.00  0.00    +0.000 OA
ATOM     51  H   UNL     1       1.349  -5.993  -0.847  0.00  0.00    +0.000 HD
ENDBRANCH  45  50
ENDBRANCH  40  42
ENDBRANCH  12  40
TORSDOF 9
