REMARK  Name = 
REMARK  30 active torsions:
REMARK  status: ('A' for Active; 'I' for Inactive)
REMARK    1  A    between atoms: C_1  and  C_2
REMARK    2  A    between atoms: C_2  and  C_3
REMARK    3  A    between atoms: C_3  and  N_4
REMARK    4  A    between atoms: N_4  and  C_5
REMARK    5  A    between atoms: C_5  and  C_6
REMARK    6  A    between atoms: C_6  and  O_7
REMARK    7  A    between atoms: C_8  and  C_9
REMARK    8  A    between atoms: C_11  and  O_12
REMARK    9  A    between atoms: O_12  and  C_13
REMARK   10  A    between atoms: C_14  and  C_15
REMARK   11  A    between atoms: C_19  and  C_20
REMARK   12  A    between atoms: C_20  and  C_21
REMARK   13  A    between atoms: C_22  and  C_23
REMARK   14  A    between atoms: C_22  and  O_24
REMARK   15  A    between atoms: C_25  and  O_26
REMARK   16  A    between atoms: C_27  and  C_28
REMARK   17  A    between atoms: C_31  and  C_32
REMARK   18  A    between atoms: C_34  and  C_35
REMARK   19  A    between atoms: C_34  and  O_36
REMARK   20  A    between atoms: C_37  and  O_38
REMARK   21  A    between atoms: O_38  and  C_39
REMARK   22  A    between atoms: C_41  and  C_42
REMARK   23  A    between atoms: C_44  and  N_45
REMARK   24  A    between atoms: N_45  and  C_46
REMARK   25  A    between atoms: N_45  and  C_47
REMARK   26  A    between atoms: C_48  and  O_49
REMARK   27  A    between atoms: C_50  and  C_51
REMARK   28  A    between atoms: C_53  and  C_54
REMARK   29  A    between atoms: C_53  and  O_55
REMARK   30  A    between atoms: O_55  and  C_56
REMARK                            x       y       z     vdW  Elec       q    Type
REMARK                         _______ _______ _______ _____ _____    ______ ____
ROOT
ATOM      1  C   UNL     1       0.310  -0.672   0.352  0.00  0.00    +0.000 C 
ATOM      2  C   UNL     1       0.032  -1.959  -0.738  0.00  0.00    +0.000 C 
ATOM      3  C   UNL     1       1.448  -2.728  -0.546  0.00  0.00    +0.000 C 
ATOM      4  C   UNL     1      -0.616  -2.899   0.368  0.00  0.00    +0.000 C 
ATOM      5  O   UNL     1      -0.239  -2.821   1.545  0.00  0.00    +0.000 OA
ATOM      6  O   UNL     1      -1.736  -3.463  -0.109  0.00  0.00    +0.000 OA
ATOM      7  C   UNL     1      -1.679  -4.107  -1.503  0.00  0.00    +0.000 C 
ATOM      8  C   UNL     1      -2.562  -5.422  -1.135  0.00  0.00    +0.000 C 
ATOM      9  C   UNL     1      -3.747  -5.545  -1.945  0.00  0.00    +0.000 C 
ATOM     10  C   UNL     1      -2.912  -5.340   0.449  0.00  0.00    +0.000 C 
ATOM     11  C   UNL     1      -4.158  -4.184   0.178  0.00  0.00    +0.000 C 
ATOM     12  C   UNL     1      -5.446  -5.135   0.444  0.00  0.00    +0.000 C 
ATOM     13  N   UNL     1      -4.124  -3.690   1.664  0.00  0.00    +0.000 NA
ATOM     14  C   UNL     1      -4.521  -2.273   1.609  0.00  0.00    +0.000 C 
ATOM     15  C   UNL     1      -3.330  -1.472   2.402  0.00  0.00    +0.000 C 
ATOM     16  C   UNL     1      -4.384  -0.592   3.297  0.00  0.00    +0.000 C 
ATOM     17  C   UNL     1      -3.107  -0.267   1.305  0.00  0.00    +0.000 C 
ATOM     18  C   UNL     1      -2.076   0.524   1.976  0.00  0.00    +0.000 C 
ATOM     19  C   UNL     1      -2.581   1.481   2.984  0.00  0.00    +0.000 C 
ATOM     20  C   UNL     1      -1.050   1.294   0.970  0.00  0.00    +0.000 C 
ATOM     21  C   UNL     1      -1.113   0.067  -0.202  0.00  0.00    +0.000 C 
ATOM     22  C   UNL     1      -0.523   1.001  -1.359  0.00  0.00    +0.000 C 
ATOM     23  H   UNL     1      -3.185  -3.784   2.051  0.00  0.00    +0.000 HD
ENDROOT
BRANCH   7  24
ATOM     24  C   UNL     1      -2.975  -3.216  -2.005  0.00  0.00    +0.000 C 
ATOM     25  C   UNL     1      -2.972  -3.354  -3.516  0.00  0.00    +0.000 C 
ENDBRANCH   7  24
BRANCH   8  26
ATOM     26  O   UNL     1      -1.683  -6.497  -1.167  0.00  0.00    +0.000 OA
ATOM     27  H   UNL     1      -1.394  -6.652  -2.080  0.00  0.00    +0.000 HD
ENDBRANCH   8  26
BRANCH  10  28
ATOM     28  O   UNL     1      -3.748  -6.591   0.345  0.00  0.00    +0.000 OA
ATOM     29  H   UNL     1      -4.321  -6.533  -0.435  0.00  0.00    +0.000 HD
ENDBRANCH  10  28
BRANCH  18  30
ATOM     30  O   UNL     1      -1.096  -0.233   2.657  0.00  0.00    +0.000 OA
ATOM     31  H   UNL     1      -1.524  -0.785   3.330  0.00  0.00    +0.000 HD
ENDBRANCH  18  30
BRANCH   1  32
ATOM     32  O   UNL     1       1.300   0.049  -0.514  0.00  0.00    +0.000 OA
BRANCH  32  37
ATOM     33  C   UNL     1       5.181   0.764   0.191  0.00  0.00    +0.000 C 
ATOM     34  C   UNL     1       4.088   1.676   1.007  0.00  0.00    +0.000 C 
ATOM     35  C   UNL     1       3.779   0.504   2.130  0.00  0.00    +0.000 C 
ATOM     36  O   UNL     1       2.909   1.415   0.092  0.00  0.00    +0.000 OA
ATOM     37  C   UNL     1       2.518  -0.019   0.406  0.00  0.00    +0.000 C 
ATOM     38  C   UNL     1       3.474  -0.509  -0.866  0.00  0.00    +0.000 C 
ATOM     39  C   UNL     1       4.754  -0.574  -0.090  0.00  0.00    +0.000 C 
ATOM     40  C   UNL     1       4.824  -1.644   0.946  0.00  0.00    +0.000 C 
BRANCH  33  41
ATOM     41  O   UNL     1       5.460   1.459  -0.959  0.00  0.00    +0.000 OA
ATOM     42  H   UNL     1       5.746   2.358  -0.732  0.00  0.00    +0.000 HD
ENDBRANCH  33  41
BRANCH  39  43
ATOM     43  O   UNL     1       5.632  -1.031  -1.098  0.00  0.00    +0.000 OA
ATOM     44  C   UNL     1       5.349  -2.400  -1.230  0.00  0.00    +0.000 C 
ENDBRANCH  39  43
BRANCH  33  45
ATOM     45  C   UNL     1       6.380   0.707   1.131  0.00  0.00    +0.000 C 
BRANCH  45  46
ATOM     46  N   UNL     1       7.608   1.047   0.408  0.00  0.00    +0.000 NA
ATOM     47  H   UNL     1       8.431   0.793   0.954  0.00  0.00    +0.000 HD
BRANCH  46  48
ATOM     48  C   UNL     1       7.532   2.494   0.231  0.00  0.00    +0.000 C 
BRANCH  48  50
ATOM     49  C   UNL     1       9.387   2.595  -0.576  0.00  0.00    +0.000 C 
ATOM     50  C   UNL     1       8.782   2.972  -0.460  0.00  0.00    +0.000 C 
ENDBRANCH  48  50
ENDBRANCH  46  48
ENDBRANCH  45  46
ENDBRANCH  33  45
ENDBRANCH  32  37
ENDBRANCH   1  32
BRANCH  20  51
ATOM     51  O   UNL     1      -2.110   2.155   0.311  0.00  0.00    +0.000 OA
BRANCH  51  52
ATOM     52  C   UNL     1      -1.407   3.522   0.429  0.00  0.00    +0.000 C 
ATOM     53  O   UNL     1      -2.357   4.156   1.367  0.00  0.00    +0.000 OA
ATOM     54  C   UNL     1      -3.765   4.460   1.038  0.00  0.00    +0.000 C 
ATOM     55  C   UNL     1      -4.106   3.262  -0.063  0.00  0.00    +0.000 C 
ATOM     56  C   UNL     1      -3.596   5.602  -0.155  0.00  0.00    +0.000 C 
ATOM     57  C   UNL     1      -1.999   5.740  -0.332  0.00  0.00    +0.000 C 
ATOM     58  C   UNL     1      -2.035   4.184  -1.035  0.00  0.00    +0.000 C 
BRANCH  57  59
ATOM     59  N   UNL     1      -2.095   6.438  -1.728  0.00  0.00    +0.000 NA
ATOM     60  C   UNL     1      -3.242   7.246  -1.822  0.00  0.00    +0.000 C 
ATOM     61  C   UNL     1      -0.961   7.375  -1.780  0.00  0.00    +0.000 C 
ENDBRANCH  57  59
BRANCH  58  62
ATOM     62  O   UNL     1      -0.696   4.450  -1.635  0.00  0.00    +0.000 OA
ATOM     63  H   UNL     1      -0.119   4.856  -0.969  0.00  0.00    +0.000 HD
ENDBRANCH  58  62
ENDBRANCH  51  52
ENDBRANCH  20  51
TORSDOF 16
