REMARK  Name = 
REMARK  26 active torsions:
REMARK  status: ('A' for Active; 'I' for Inactive)
REMARK    1  A    between atoms: C_1  and  C_2
REMARK    2  A    between atoms: C_2  and  C_3
REMARK    3  A    between atoms: C_3  and  C_4
REMARK    4  A    between atoms: C_5  and  C_6
REMARK    5  A    between atoms: C_7  and  C_8
REMARK    6  A    between atoms: C_8  and  O_10
REMARK    7  A    between atoms: O_10  and  C_11
REMARK    8  A    between atoms: C_13  and  C_14
REMARK    9  A    between atoms: C_14  and  O_16
REMARK   10  A    between atoms: O_16  and  C_17
REMARK   11  A    between atoms: C_21  and  C_22
REMARK   12  A    between atoms: C_22  and  C_23
REMARK   13  A    between atoms: C_22  and  O_24
REMARK   14  A    between atoms: C_29  and  O_30
REMARK   15  A    between atoms: C_34  and  O_35
REMARK   16  A    between atoms: O_35  and  C_36
REMARK   17  A    between atoms: C_36  and  C_37
REMARK   18  A    between atoms: C_39  and  C_40
REMARK   19  A    between atoms: C_39  and  C_41
REMARK   20  A    between atoms: C_42  and  O_43
REMARK   21  A    between atoms: C_48  and  C_49
REMARK   22  A    between atoms: C_49  and  O_51
REMARK   23  A    between atoms: O_51  and  C_52
REMARK   24  A    between atoms: C_57  and  C_58
REMARK   25  A    between atoms: C_57  and  C_59
REMARK   26  A    between atoms: C_60  and  O_61
REMARK                            x       y       z     vdW  Elec       q    Type
REMARK                         _______ _______ _______ _____ _____    ______ ____
ROOT
ATOM      1  C   UNL     1       3.548   0.500  -1.993  0.00  0.00    +0.000 C 
ATOM      2  C   UNL     1       3.828  -1.103  -2.011  0.00  0.00    +0.000 C 
ATOM      3  C   UNL     1       4.929  -1.179  -2.791  0.00  0.00    +0.000 C 
ATOM      4  C   UNL     1       2.917  -2.060  -2.436  0.00  0.00    +0.000 C 
ATOM      5  C   UNL     1       1.368  -1.889  -1.932  0.00  0.00    +0.000 C 
ATOM      6  C   UNL     1       1.633  -2.936  -0.681  0.00  0.00    +0.000 C 
ATOM      7  C   UNL     1       0.156  -2.795   0.022  0.00  0.00    +0.000 C 
ATOM      8  O   UNL     1      -0.403  -4.038  -0.674  0.00  0.00    +0.000 OA
ATOM      9  C   UNL     1      -1.770  -4.189  -0.679  0.00  0.00    +0.000 C 
ATOM     10  O   UNL     1      -2.305  -5.340  -0.740  0.00  0.00    +0.000 OA
ATOM     11  C   UNL     1      -2.711  -3.133  -0.313  0.00  0.00    +0.000 C 
ATOM     12  C   UNL     1      -3.247  -2.504  -1.752  0.00  0.00    +0.000 C 
ATOM     13  C   UNL     1      -4.469  -1.577  -1.128  0.00  0.00    +0.000 C 
ATOM     14  C   UNL     1      -3.898  -1.237   0.377  0.00  0.00    +0.000 C 
ATOM     15  C   UNL     1      -5.345  -1.662   1.060  0.00  0.00    +0.000 C 
ATOM     16  C   UNL     1      -4.976  -1.387   2.645  0.00  0.00    +0.000 C 
ATOM     17  C   UNL     1      -5.080   0.245   2.448  0.00  0.00    +0.000 C 
ATOM     18  C   UNL     1      -5.441   0.862   3.676  0.00  0.00    +0.000 C 
ATOM     19  C   UNL     1      -6.317   0.530   1.577  0.00  0.00    +0.000 C 
ATOM     20  C   UNL     1      -3.955   0.635   1.612  0.00  0.00    +0.000 C 
ATOM     21  C   UNL     1      -3.791   2.143   1.736  0.00  0.00    +0.000 C 
ATOM     22  C   UNL     1      -2.229   2.329   2.287  0.00  0.00    +0.000 C 
ATOM     23  C   UNL     1      -2.109   3.909   1.810  0.00  0.00    +0.000 C 
ATOM     24  C   UNL     1      -2.884   4.096   0.603  0.00  0.00    +0.000 C 
ATOM     25  C   UNL     1      -2.909   5.354   0.203  0.00  0.00    +0.000 C 
ATOM     26  C   UNL     1      -2.512   3.156  -0.507  0.00  0.00    +0.000 C 
ATOM     27  C   UNL     1      -1.080   2.731   0.213  0.00  0.00    +0.000 C 
ATOM     28  C   UNL     1      -0.814   1.594  -0.928  0.00  0.00    +0.000 C 
ATOM     29  C   UNL     1       0.454   1.319  -0.542  0.00  0.00    +0.000 C 
ATOM     30  C   UNL     1       1.420   1.633  -1.581  0.00  0.00    +0.000 C 
ATOM     31  C   UNL     1       2.549   2.608  -1.295  0.00  0.00    +0.000 C 
ATOM     32  C   UNL     1       0.796   2.579  -2.560  0.00  0.00    +0.000 C 
ATOM     33  C   UNL     1       1.906   0.335  -2.043  0.00  0.00    +0.000 C 
ATOM     34  O   UNL     1       1.669  -0.656  -1.096  0.00  0.00    +0.000 OA
ATOM     35  O   UNL     1      -1.704   1.640   1.035  0.00  0.00    +0.000 OA
ATOM     36  O   UNL     1      -4.274   0.235   0.297  0.00  0.00    +0.000 OA
ENDROOT
BRANCH   3  37
ATOM     37  C   UNL     1       4.966  -1.945  -4.050  0.00  0.00    +0.000 C 
ATOM     38  O   UNL     1       5.062  -1.278  -5.148  0.00  0.00    +0.000 OA
BRANCH  37  39
ATOM     39  O   UNL     1       4.325  -3.164  -4.188  0.00  0.00    +0.000 OA
ATOM     40  C   UNL     1       3.549  -3.555  -5.295  0.00  0.00    +0.000 C 
ENDBRANCH  37  39
ENDBRANCH   3  37
BRANCH   7  41
ATOM     41  C   UNL     1       0.560  -3.654   1.467  0.00  0.00    +0.000 C 
ATOM     42  C   UNL     1       1.357  -4.874   0.708  0.00  0.00    +0.000 C 
BRANCH  41  43
ATOM     43  O   UNL     1       1.838  -2.879   1.687  0.00  0.00    +0.000 OA
ATOM     44  H   UNL     1       2.341  -2.845   0.859  0.00  0.00    +0.000 HD
ENDBRANCH  41  43
ENDBRANCH   7  41
BRANCH  12  45
ATOM     45  O   UNL     1      -2.259  -1.347  -1.706  0.00  0.00    +0.000 OA
ATOM     46  H   UNL     1      -2.294  -0.927  -0.833  0.00  0.00    +0.000 HD
ENDBRANCH  12  45
BRANCH  20  47
ATOM     47  O   UNL     1      -2.818  -0.093   2.009  0.00  0.00    +0.000 OA
ATOM     48  H   UNL     1      -2.571   0.160   2.913  0.00  0.00    +0.000 HD
ENDBRANCH  20  47
BRANCH  25  49
ATOM     49  C   UNL     1      -2.705   5.817  -1.166  0.00  0.00    +0.000 C 
ATOM     50  O   UNL     1      -1.762   6.640  -1.382  0.00  0.00    +0.000 OA
BRANCH  49  51
ATOM     51  O   UNL     1      -3.812   6.064  -1.983  0.00  0.00    +0.000 OA
ATOM     52  C   UNL     1      -3.972   7.269  -2.733  0.00  0.00    +0.000 C 
ENDBRANCH  49  51
ENDBRANCH  25  49
BRANCH  33  53
ATOM     53  O   UNL     1       1.593   0.070  -3.322  0.00  0.00    +0.000 OA
ATOM     54  H   UNL     1       0.632  -0.037  -3.404  0.00  0.00    +0.000 HD
ENDBRANCH  33  53
BRANCH   1  55
ATOM     55  O   UNL     1       3.535   0.643  -0.451  0.00  0.00    +0.000 OA
BRANCH  55  56
ATOM     56  C   UNL     1       4.693   0.300   0.131  0.00  0.00    +0.000 C 
ATOM     57  O   UNL     1       4.641  -0.955   0.183  0.00  0.00    +0.000 OA
BRANCH  56  59
ATOM     58  C   UNL     1       6.590   1.659   0.837  0.00  0.00    +0.000 C 
ATOM     59  C   UNL     1       5.397   1.168   1.038  0.00  0.00    +0.000 C 
BRANCH  58  61
ATOM     60  C   UNL     1       7.729   0.785   2.836  0.00  0.00    +0.000 C 
ATOM     61  C   UNL     1       7.740   1.462   1.721  0.00  0.00    +0.000 C 
BRANCH  60  62
ATOM     62  C   UNL     1       8.594  -0.385   3.137  0.00  0.00    +0.000 C 
BRANCH  62  64
ATOM     63  C   UNL     1      10.334   1.289   3.095  0.00  0.00    +0.000 C 
ATOM     64  C   UNL     1       9.832   0.091   3.884  0.00  0.00    +0.000 C 
ENDBRANCH  62  64
ENDBRANCH  60  62
ENDBRANCH  58  61
ENDBRANCH  56  59
ENDBRANCH  55  56
ENDBRANCH   1  55
BRANCH  16  65
ATOM     65  O   UNL     1      -6.461  -1.424   3.061  0.00  0.00    +0.000 OA
BRANCH  65  66
ATOM     66  C   UNL     1      -6.894  -2.503   3.755  0.00  0.00    +0.000 C 
ATOM     67  C   UNL     1      -8.111  -2.331   4.600  0.00  0.00    +0.000 C 
ATOM     68  O   UNL     1      -6.494  -3.622   3.358  0.00  0.00    +0.000 OA
ENDBRANCH  65  66
ENDBRANCH  16  65
TORSDOF 17
