REMARK  Name = 447994
REMARK  11 active torsions:
REMARK  status: ('A' for Active; 'I' for Inactive)
REMARK    1  A    between atoms: O_2  and  C_17
REMARK    2  A    between atoms: O_2  and  C_19
REMARK    3  A    between atoms: O_4  and  C_23
REMARK    4  A    between atoms: O_5  and  C_28
REMARK    5  A    between atoms: O_5  and  C_30
REMARK    6  A    between atoms: O_7  and  C_29
REMARK    7  A    between atoms: C_10  and  C_13
REMARK    8  A    between atoms: C_11  and  C_16
REMARK    9  A    between atoms: C_19  and  C_21
REMARK   10  A    between atoms: C_20  and  C_28
REMARK   11  A    between atoms: C_27  and  C_29
REMARK                            x       y       z     vdW  Elec       q    Type
REMARK                         _______ _______ _______ _____ _____    ______ ____
ROOT
ATOM      1  F   UNL     1       4.365   2.461  -1.133  0.00  0.00    +0.000 F 
ATOM      2  C   UNL     1       3.152   0.738  -0.031  0.00  0.00    +0.000 A 
ATOM      3  C   UNL     1       0.802   1.067   0.423  0.00  0.00    +0.000 A 
ATOM      4  C   UNL     1       1.946   0.273   0.493  0.00  0.00    +0.000 A 
ATOM      5  C   UNL     1       3.214   1.999  -0.625  0.00  0.00    +0.000 A 
ATOM      6  C   UNL     1       0.864   2.328  -0.171  0.00  0.00    +0.000 A 
ATOM      7  C   UNL     1       2.070   2.794  -0.695  0.00  0.00    +0.000 A 
ENDROOT
BRANCH   2  10
ATOM      8  O   UNL     1       4.109  -1.422   0.019  0.00  0.00    +0.000 OA
ATOM      9  N   UNL     1       5.328  -2.085   0.096  0.00  0.00    +0.000 NA
ATOM     10  C   UNL     1       4.333  -0.087   0.043  0.00  0.00    +0.000 A 
ATOM     11  C   UNL     1       5.670   0.166   0.133  0.00  0.00    +0.000 A 
ATOM     12  C   UNL     1       6.245  -1.116   0.163  0.00  0.00    +0.000 A 
BRANCH  12  14
ATOM     13  O   UNL     1       8.093  -2.606   0.275  0.00  0.00    +0.000 OA
ATOM     14  C   UNL     1       7.636  -1.452   0.252  0.00  0.00    +0.000 C 
BRANCH  14  15
ATOM     15  O   UNL     1       8.490  -0.379   0.316  0.00  0.00    +0.000 OA
ATOM     16  H   UNL     1       9.427  -0.665   0.376  0.00  0.00    +0.000 HD
ENDBRANCH  14  15
ENDBRANCH  12  14
ENDBRANCH   2  10
BRANCH   3  17
ATOM     17  C   UNL     1      -0.456   0.582   0.969  0.00  0.00    +0.000 C 
ATOM     18  C   UNL     1      -1.517   1.346   1.315  0.00  0.00    +0.000 C 
BRANCH  18  19
ATOM     19  C   UNL     1      -2.797   0.799   1.860  0.00  0.00    +0.000 C 
BRANCH  19  20
ATOM     20  O   UNL     1      -3.852   1.136   0.971  0.00  0.00    +0.000 OA
BRANCH  20  21
ATOM     21  C   UNL     1      -4.905   0.261   0.899  0.00  0.00    +0.000 A 
ATOM     22  C   UNL     1      -5.237  -0.354  -0.303  0.00  0.00    +0.000 A 
ATOM     23  C   UNL     1      -6.311  -1.241  -0.353  0.00  0.00    +0.000 A 
ATOM     24  C   UNL     1      -5.636  -0.002   2.053  0.00  0.00    +0.000 A 
ATOM     25  C   UNL     1      -7.048  -1.510   0.800  0.00  0.00    +0.000 A 
ATOM     26  C   UNL     1      -6.710  -0.890   2.003  0.00  0.00    +0.000 A 
BRANCH  23  27
ATOM     27  O   UNL     1      -6.657  -1.859  -1.518  0.00  0.00    +0.000 OA
ATOM     28  H   UNL     1      -6.064  -1.588  -2.237  0.00  0.00    +0.000 HD
ENDBRANCH  23  27
BRANCH  22  30
ATOM     29  O   UNL     1      -4.726   0.833  -2.308  0.00  0.00    +0.000 OA
ATOM     30  C   UNL     1      -4.465  -0.074  -1.510  0.00  0.00    +0.000 C 
BRANCH  30  31
ATOM     31  O   UNL     1      -3.418  -0.941  -1.644  0.00  0.00    +0.000 OA
ATOM     32  C   UNL     1      -2.582  -0.766  -2.793  0.00  0.00    +0.000 C 
ENDBRANCH  30  31
ENDBRANCH  22  30
ENDBRANCH  20  21
ENDBRANCH  19  20
ENDBRANCH  18  19
ENDBRANCH   3  17
TORSDOF 10
