REMARK  Name = 68952
REMARK  7 active torsions:
REMARK  status: ('A' for Active; 'I' for Inactive)
REMARK    1  A    between atoms: O_1  and  C_10
REMARK    2  A    between atoms: O_1  and  C_23
REMARK    3  A    between atoms: O_2  and  C_21
REMARK    4  A    between atoms: C_6  and  C_16
REMARK    5  A    between atoms: C_23  and  C_24
REMARK    6  A    between atoms: C_24  and  C_25
REMARK    7  A    between atoms: C_25  and  C_26
REMARK                            x       y       z     vdW  Elec       q    Type
REMARK                         _______ _______ _______ _____ _____    ______ ____
ROOT
ATOM      1  O   UNL     1      -8.248  -1.059   0.818  0.00  0.00    +0.000 OA
ATOM      2  C   UNL     1      -0.926   1.089   0.100  0.00  0.00    +0.000 C 
ATOM      3  C   UNL     1       0.072  -0.061  -0.143  0.00  0.00    +0.000 C 
ATOM      4  C   UNL     1      -2.303   0.805  -0.502  0.00  0.00    +0.000 C 
ATOM      5  C   UNL     1      -2.883  -0.480   0.156  0.00  0.00    +0.000 C 
ATOM      6  C   UNL     1      -0.466  -1.313   0.560  0.00  0.00    +0.000 C 
ATOM      7  C   UNL     1       1.325   0.558   0.510  0.00  0.00    +0.000 C 
ATOM      8  C   UNL     1      -0.156   2.330  -0.347  0.00  0.00    +0.000 C 
ATOM      9  C   UNL     1      -1.887  -1.667   0.084  0.00  0.00    +0.000 C 
ATOM     10  C   UNL     1      -4.282  -0.833  -0.440  0.00  0.00    +0.000 C 
ATOM     11  C   UNL     1       1.301   2.029   0.050  0.00  0.00    +0.000 C 
ATOM     12  C   UNL     1      -3.270   1.976  -0.298  0.00  0.00    +0.000 C 
ATOM     13  C   UNL     1       0.335  -0.383  -1.636  0.00  0.00    +0.000 C 
ATOM     14  C   UNL     1      -4.627   1.666  -0.921  0.00  0.00    +0.000 C 
ATOM     15  C   UNL     1      -5.221   0.372  -0.406  0.00  0.00    +0.000 C 
ATOM     16  C   UNL     1      -4.878  -2.053   0.290  0.00  0.00    +0.000 C 
ATOM     17  C   UNL     1      -6.349  -2.249  -0.018  0.00  0.00    +0.000 C 
ATOM     18  C   UNL     1      -6.503   0.309   0.002  0.00  0.00    +0.000 C 
ATOM     19  C   UNL     1      -7.117  -1.004   0.339  0.00  0.00    +0.000 C 
ENDROOT
BRANCH  18  20
ATOM     20  O   UNL     1      -7.316   1.422   0.056  0.00  0.00    +0.000 OA
ATOM     21  H   UNL     1      -8.197   1.128   0.344  0.00  0.00    +0.000 HD
ENDBRANCH  18  20
BRANCH   7  22
ATOM     22  O   UNL     1       2.535  -0.091   0.173  0.00  0.00    +0.000 OA
BRANCH  22  24
ATOM     23  O   UNL     1       3.728   1.448   1.411  0.00  0.00    +0.000 OA
ATOM     24  C   UNL     1       3.682   0.458   0.693  0.00  0.00    +0.000 C 
BRANCH  24  25
ATOM     25  C   UNL     1       4.878  -0.347   0.240  0.00  0.00    +0.000 C 
BRANCH  25  26
ATOM     26  C   UNL     1       6.189   0.231   0.766  0.00  0.00    +0.000 C 
BRANCH  26  27
ATOM     27  C   UNL     1       7.380  -0.605   0.332  0.00  0.00    +0.000 C 
ATOM     28  C   UNL     1       7.553  -0.665  -1.183  0.00  0.00    +0.000 C 
ATOM     29  C   UNL     1       8.717  -0.029   0.788  0.00  0.00    +0.000 C 
ATOM     30  C   UNL     1       8.994  -1.127  -1.374  0.00  0.00    +0.000 C 
ATOM     31  C   UNL     1       9.741  -0.728  -0.101  0.00  0.00    +0.000 C 
ENDBRANCH  26  27
ENDBRANCH  25  26
ENDBRANCH  24  25
ENDBRANCH  22  24
ENDBRANCH   7  22
TORSDOF 6
