REMARK  Name = 9978336
REMARK  14 active torsions:
REMARK  status: ('A' for Active; 'I' for Inactive)
REMARK    1  A    between atoms: O_1  and  C_9
REMARK    2  A    between atoms: O_3  and  C_16
REMARK    3  A    between atoms: O_4  and  C_17
REMARK    4  A    between atoms: O_4  and  C_21
REMARK    5  A    between atoms: O_5  and  C_25
REMARK    6  A    between atoms: O_5  and  C_29
REMARK    7  A    between atoms: C_7  and  C_13
REMARK    8  A    between atoms: C_8  and  C_12
REMARK    9  A    between atoms: C_12  and  C_15
REMARK   10  A    between atoms: C_14  and  C_16
REMARK   11  A    between atoms: C_16  and  C_17
REMARK   12  A    between atoms: C_19  and  C_20
REMARK   13  A    between atoms: C_20  and  C_22
REMARK   14  A    between atoms: C_22  and  C_25
REMARK                            x       y       z     vdW  Elec       q    Type
REMARK                         _______ _______ _______ _____ _____    ______ ____
ROOT
ATOM      1  O   UNL     1       4.507   2.378   1.643  0.00  0.00    +0.000 OA
ATOM      2  C   UNL     1       3.182  -0.502   0.080  0.00  0.00    +0.000 C 
ATOM      3  C   UNL     1       3.022   0.502   1.233  0.00  0.00    +0.000 C 
ATOM      4  C   UNL     1       4.689  -0.790   0.049  0.00  0.00    +0.000 C 
ATOM      5  C   UNL     1       5.345   0.567   0.294  0.00  0.00    +0.000 C 
ATOM      6  C   UNL     1       4.311   1.288   1.119  0.00  0.00    +0.000 C 
ENDROOT
BRANCH   4   7
ATOM      7  O   UNL     1       5.087  -1.286  -1.220  0.00  0.00    +0.000 OA
ATOM      8  H   UNL     1       6.054  -1.382  -1.204  0.00  0.00    +0.000 HD
ENDBRANCH   4   7
BRANCH   2   9
ATOM      9  C   UNL     1       2.366  -1.741   0.268  0.00  0.00    +0.000 C 
ATOM     10  C   UNL     1       1.443  -2.167  -0.607  0.00  0.00    +0.000 C 
BRANCH  10  11
ATOM     11  C   UNL     1       0.623  -3.412  -0.415  0.00  0.00    +0.000 C 
BRANCH  11  12
ATOM     12  O   UNL     1       0.936  -4.303  -1.482  0.00  0.00    +0.000 OA
ATOM     13  H   UNL     1       1.880  -4.527  -1.414  0.00  0.00    +0.000 HD
ENDBRANCH  11  12
BRANCH  11  14
ATOM     14  C   UNL     1      -0.873  -3.110  -0.440  0.00  0.00    +0.000 C 
BRANCH  14  15
ATOM     15  O   UNL     1      -1.202  -2.207   0.606  0.00  0.00    +0.000 OA
BRANCH  15  16
ATOM     16  C   UNL     1      -2.515  -1.826   0.706  0.00  0.00    +0.000 A 
ATOM     17  C   UNL     1      -3.446  -2.324  -0.198  0.00  0.00    +0.000 A 
ATOM     18  C   UNL     1      -2.901  -0.944   1.708  0.00  0.00    +0.000 A 
ATOM     19  C   UNL     1      -4.782  -1.936  -0.098  0.00  0.00    +0.000 A 
ATOM     20  C   UNL     1      -4.237  -0.556   1.809  0.00  0.00    +0.000 A 
ATOM     21  C   UNL     1      -5.177  -1.051   0.906  0.00  0.00    +0.000 A 
ENDBRANCH  15  16
ENDBRANCH  14  15
ENDBRANCH  11  14
ENDBRANCH  10  11
ENDBRANCH   2   9
BRANCH   3  22
ATOM     22  C   UNL     1       1.790   1.380   1.099  0.00  0.00    +0.000 C 
BRANCH  22  23
ATOM     23  C   UNL     1       1.787   2.129  -0.199  0.00  0.00    +0.000 C 
ATOM     24  C   UNL     1       0.845   2.053  -1.093  0.00  0.00    +0.000 C 
ATOM     25  C   UNL     1      -0.086   1.992  -2.001  0.00  0.00    +0.000 C 
BRANCH  25  26
ATOM     26  C   UNL     1      -1.326   1.151  -1.895  0.00  0.00    +0.000 C 
BRANCH  26  27
ATOM     27  C   UNL     1      -2.601   1.987  -1.953  0.00  0.00    +0.000 C 
BRANCH  27  29
ATOM     28  O   UNL     1      -2.796   4.197  -0.996  0.00  0.00    +0.000 OA
ATOM     29  C   UNL     1      -2.686   2.989  -0.826  0.00  0.00    +0.000 C 
BRANCH  29  30
ATOM     30  O   UNL     1      -2.619   2.348   0.376  0.00  0.00    +0.000 OA
ATOM     31  C   UNL     1      -2.685   3.192   1.529  0.00  0.00    +0.000 C 
ENDBRANCH  29  30
ENDBRANCH  27  29
ENDBRANCH  26  27
ENDBRANCH  25  26
ENDBRANCH  22  23
ENDBRANCH   3  22
TORSDOF 13
