REMARK  Name = 10246085
REMARK  5 active torsions:
REMARK  status: ('A' for Active; 'I' for Inactive)
REMARK    1  A    between atoms: O_1  and  C_9
REMARK    2  A    between atoms: O_1  and  C_23
REMARK    3  A    between atoms: C_5  and  C_16
REMARK    4  A    between atoms: C_12  and  C_19
REMARK    5  A    between atoms: C_23  and  C_24
REMARK                            x       y       z     vdW  Elec       q    Type
REMARK                         _______ _______ _______ _____ _____    ______ ____
ROOT
ATOM      1  O   UNL     1       6.495   0.390   0.805  0.00  0.00    +0.000 OA
ATOM      2  C   UNL     1      -1.053  -0.799   0.078  0.00  0.00    +0.000 C 
ATOM      3  C   UNL     1      -1.891   0.454  -0.250  0.00  0.00    +0.000 C 
ATOM      4  C   UNL     1       0.371  -0.718  -0.482  0.00  0.00    +0.000 C 
ATOM      5  C   UNL     1       1.086   0.525   0.135  0.00  0.00    +0.000 C 
ATOM      6  C   UNL     1      -1.226   1.660   0.423  0.00  0.00    +0.000 C 
ATOM      7  C   UNL     1      -3.233   0.026   0.376  0.00  0.00    +0.000 C 
ATOM      8  C   UNL     1       0.240   1.818  -0.018  0.00  0.00    +0.000 C 
ATOM      9  C   UNL     1      -1.956  -1.951  -0.352  0.00  0.00    +0.000 C 
ATOM     10  C   UNL     1       1.197  -2.012  -0.282  0.00  0.00    +0.000 C 
ATOM     11  C   UNL     1       2.526   0.699  -0.443  0.00  0.00    +0.000 C 
ATOM     12  C   UNL     1      -3.376  -1.456  -0.024  0.00  0.00    +0.000 C 
ATOM     13  C   UNL     1       2.579  -1.827  -0.924  0.00  0.00    +0.000 C 
ATOM     14  C   UNL     1      -2.071   0.740  -1.763  0.00  0.00    +0.000 C 
ATOM     15  C   UNL     1       3.306  -0.607  -0.412  0.00  0.00    +0.000 C 
ATOM     16  C   UNL     1       3.268   1.828   0.302  0.00  0.00    +0.000 C 
ATOM     17  C   UNL     1       1.329  -2.472   1.175  0.00  0.00    +0.000 C 
ATOM     18  C   UNL     1       4.759   1.840   0.011  0.00  0.00    +0.000 C 
ATOM     19  C   UNL     1       4.582  -0.710  -0.005  0.00  0.00    +0.000 C 
ATOM     20  C   UNL     1       5.362   0.500   0.341  0.00  0.00    +0.000 C 
ENDROOT
BRANCH   7  21
ATOM     21  O   UNL     1      -4.327   0.800  -0.077  0.00  0.00    +0.000 OA
BRANCH  21  23
ATOM     22  O   UNL     1      -5.787  -0.494   1.161  0.00  0.00    +0.000 OA
ATOM     23  C   UNL     1      -5.561   0.432   0.394  0.00  0.00    +0.000 C 
ATOM     24  C   UNL     1      -6.618   1.335  -0.167  0.00  0.00    +0.000 C 
ENDBRANCH  21  23
ENDBRANCH   7  21
TORSDOF 2
