REMARK  Name = 66359
REMARK  4 active torsions:
REMARK  status: ('A' for Active; 'I' for Inactive)
REMARK    1  A    between atoms: O_1  and  C_7
REMARK    2  A    between atoms: O_1  and  C_21
REMARK    3  A    between atoms: C_5  and  C_13
REMARK    4  A    between atoms: C_21  and  C_23
REMARK                            x       y       z     vdW  Elec       q    Type
REMARK                         _______ _______ _______ _____ _____    ______ ____
ROOT
ATOM      1  O   UNL     1      -6.450   0.484  -0.946  0.00  0.00    +0.000 OA
ATOM      2  C   UNL     1       0.920  -0.844  -0.159  0.00  0.00    +0.000 C 
ATOM      3  C   UNL     1       1.819   0.215   0.521  0.00  0.00    +0.000 C 
ATOM      4  C   UNL     1      -0.427  -0.970   0.551  0.00  0.00    +0.000 C 
ATOM      5  C   UNL     1       3.046   0.106  -0.404  0.00  0.00    +0.000 C 
ATOM      6  C   UNL     1       1.839  -2.049  -0.305  0.00  0.00    +0.000 C 
ATOM      7  C   UNL     1       3.206  -1.415  -0.628  0.00  0.00    +0.000 C 
ATOM      8  C   UNL     1      -1.155   0.390   0.469  0.00  0.00    +0.000 C 
ATOM      9  C   UNL     1      -1.266  -2.123  -0.009  0.00  0.00    +0.000 C 
ATOM     10  C   UNL     1       1.068   1.519   0.525  0.00  0.00    +0.000 C 
ATOM     11  C   UNL     1       2.205  -0.087   1.989  0.00  0.00    +0.000 C 
ATOM     12  C   UNL     1      -0.278   1.572   0.522  0.00  0.00    +0.000 C 
ATOM     13  C   UNL     1      -2.504   0.460   0.326  0.00  0.00    +0.000 C 
ATOM     14  C   UNL     1      -2.665  -2.068   0.591  0.00  0.00    +0.000 C 
ATOM     15  C   UNL     1      -3.328  -0.759   0.239  0.00  0.00    +0.000 C 
ATOM     16  C   UNL     1      -3.309   1.746   0.269  0.00  0.00    +0.000 C 
ATOM     17  C   UNL     1      -4.609  -0.755  -0.164  0.00  0.00    +0.000 C 
ATOM     18  C   UNL     1      -4.396   1.711  -0.798  0.00  0.00    +0.000 C 
ATOM     19  C   UNL     1      -5.261   0.489  -0.634  0.00  0.00    +0.000 C 
ENDROOT
BRANCH   5  20
ATOM     20  O   UNL     1       4.217   0.666   0.161  0.00  0.00    +0.000 OA
BRANCH  20  22
ATOM     21  O   UNL     1       5.452  -0.005  -1.672  0.00  0.00    +0.000 OA
ATOM     22  C   UNL     1       5.362   0.541  -0.581  0.00  0.00    +0.000 C 
ATOM     23  C   UNL     1       6.513   1.177   0.137  0.00  0.00    +0.000 C 
ENDBRANCH  20  22
ENDBRANCH   5  20
TORSDOF 2
