REMARK  Name = 16126905
REMARK  17 active torsions:
REMARK  status: ('A' for Active; 'I' for Inactive)
REMARK    1  A    between atoms: O_6  and  C_31
REMARK    2  A    between atoms: O_6  and  C_36
REMARK    3  A    between atoms: O_7  and  C_36
REMARK    4  A    between atoms: O_7  and  C_39
REMARK    5  A    between atoms: O_9  and  C_43
REMARK    6  A    between atoms: O_9  and  C_45
REMARK    7  A    between atoms: C_11  and  C_23
REMARK    8  A    between atoms: C_15  and  C_22
REMARK    9  A    between atoms: C_17  and  C_27
REMARK   10  A    between atoms: C_22  and  C_30
REMARK   11  A    between atoms: C_22  and  C_32
REMARK   12  A    between atoms: C_30  and  C_33
REMARK   13  A    between atoms: C_33  and  C_34
REMARK   14  A    between atoms: C_34  and  C_35
REMARK   15  A    between atoms: C_35  and  C_37
REMARK   16  A    between atoms: C_35  and  C_38
REMARK   17  A    between atoms: C_42  and  C_44
REMARK                            x       y       z     vdW  Elec       q    Type
REMARK                         _______ _______ _______ _____ _____    ______ ____
ROOT
ATOM      1  C   UNL     1      -5.541  -1.204  -0.146  0.00  0.00    +0.000 C 
ATOM      2  C   UNL     1      -4.764  -0.607   1.045  0.00  0.00    +0.000 C 
ATOM      3  C   UNL     1      -3.389  -1.250   1.255  0.00  0.00    +0.000 C 
ATOM      4  C   UNL     1      -2.538  -1.091  -0.039  0.00  0.00    +0.000 C 
ATOM      5  C   UNL     1      -6.852  -0.390  -0.020  0.00  0.00    +0.000 C 
ATOM      6  C   UNL     1      -4.727  -0.919  -1.416  0.00  0.00    +0.000 C 
ATOM      7  C   UNL     1      -1.120  -1.774   0.114  0.00  0.00    +0.000 C 
ATOM      8  C   UNL     1      -5.773  -0.639   2.188  0.00  0.00    +0.000 C 
ATOM      9  C   UNL     1      -3.310  -1.510  -1.321  0.00  0.00    +0.000 C 
ATOM     10  C   UNL     1      -7.126  -0.372   1.503  0.00  0.00    +0.000 C 
ATOM     11  C   UNL     1      -2.665  -0.607   2.446  0.00  0.00    +0.000 C 
ATOM     12  C   UNL     1      -5.813  -2.724  -0.023  0.00  0.00    +0.000 C 
ATOM     13  C   UNL     1      -0.497  -1.439   1.476  0.00  0.00    +0.000 C 
ATOM     14  C   UNL     1      -0.195  -1.234  -1.017  0.00  0.00    +0.000 C 
ATOM     15  C   UNL     1      -1.201  -0.908   2.491  0.00  0.00    +0.000 C 
ATOM     16  C   UNL     1      -1.222  -3.314   0.001  0.00  0.00    +0.000 C 
ATOM     17  C   UNL     1       0.977  -1.723   1.649  0.00  0.00    +0.000 C 
ATOM     18  C   UNL     1       1.282  -1.590  -0.846  0.00  0.00    +0.000 C 
ATOM     19  C   UNL     1       1.806  -1.134   0.511  0.00  0.00    +0.000 C 
ENDROOT
BRANCH   5  20
ATOM     20  C   UNL     1      -8.041  -0.886  -0.830  0.00  0.00    +0.000 C 
ATOM     21  C   UNL     1      -7.678  -0.931  -2.318  0.00  0.00    +0.000 C 
BRANCH  20  22
ATOM     22  C   UNL     1      -9.275   0.003  -0.558  0.00  0.00    +0.000 C 
BRANCH  22  23
ATOM     23  C   UNL     1      -9.045   1.487  -0.860  0.00  0.00    +0.000 C 
BRANCH  23  24
ATOM     24  C   UNL     1     -10.250   2.375  -0.520  0.00  0.00    +0.000 C 
BRANCH  24  25
ATOM     25  C   UNL     1     -10.110   3.870  -0.863  0.00  0.00    +0.000 C 
ATOM     26  C   UNL     1     -11.377   4.664  -0.546  0.00  0.00    +0.000 C 
ATOM     27  C   UNL     1      -8.922   4.464  -0.101  0.00  0.00    +0.000 C 
ENDBRANCH  24  25
ENDBRANCH  23  24
ENDBRANCH  22  23
ENDBRANCH  20  22
ENDBRANCH   5  20
BRANCH  19  28
ATOM     28  O   UNL     1       3.159  -1.560   0.636  0.00  0.00    +0.000 OA
BRANCH  28  30
ATOM     29  O   UNL     1       3.876   0.395  -0.352  0.00  0.00    +0.000 OA
ATOM     30  C   UNL     1       4.103  -0.693   0.161  0.00  0.00    +0.000 C 
BRANCH  30  31
ATOM     31  O   UNL     1       5.351  -1.266   0.363  0.00  0.00    +0.000 OA
BRANCH  31  35
ATOM     32 CL   UNL     1       6.441   0.635   2.392  0.00  0.00    +0.000 Cl
ATOM     33 CL   UNL     1       6.153  -1.721  -2.483  0.00  0.00    +0.000 Cl
ATOM     34  N   UNL     1       8.501   1.144  -0.994  0.00  0.00    +0.000 NA
ATOM     35  C   UNL     1       6.401  -0.462  -0.089  0.00  0.00    +0.000 A 
ATOM     36  C   UNL     1       6.990   0.463   0.766  0.00  0.00    +0.000 A 
ATOM     37  C   UNL     1       6.860  -0.585  -1.395  0.00  0.00    +0.000 A 
ATOM     38  C   UNL     1       8.028   1.235   0.269  0.00  0.00    +0.000 A 
ATOM     39  C   UNL     1       7.903   0.234  -1.795  0.00  0.00    +0.000 A 
BRANCH  38  43
ATOM     40 CL   UNL     1       9.462   1.465   2.574  0.00  0.00    +0.000 Cl
ATOM     41 CL   UNL     1      10.042   3.178   0.330  0.00  0.00    +0.000 Cl
ATOM     42 CL   UNL     1       7.528   3.486   1.712  0.00  0.00    +0.000 Cl
ATOM     43  C   UNL     1       8.712   2.250   1.127  0.00  0.00    +0.000 C 
ENDBRANCH  38  43
BRANCH  39  44
ATOM     44  O   UNL     1       8.393   0.153  -3.073  0.00  0.00    +0.000 OA
ATOM     45  C   UNL     1       9.464   1.028  -3.405  0.00  0.00    +0.000 C 
ENDBRANCH  39  44
ENDBRANCH  31  35
ENDBRANCH  30  31
ENDBRANCH  28  30
ENDBRANCH  19  28
TORSDOF 11
