REMARK  Name = 
REMARK  24 active torsions:
REMARK  status: ('A' for Active; 'I' for Inactive)
REMARK    1  A    between atoms: C_1  and  C_2
REMARK    2  A    between atoms: C_2  and  O_3
REMARK    3  A    between atoms: O_3  and  C_4
REMARK    4  A    between atoms: C_4  and  C_5
REMARK    5  A    between atoms: C_5  and  O_6
REMARK    6  A    between atoms: O_6  and  C_7
REMARK    7  A    between atoms: C_10  and  C_11
REMARK    8  A    between atoms: C_11  and  C_12
REMARK    9  A    between atoms: C_12  and  C_13
REMARK   10  A    between atoms: C_12  and  C_14
REMARK   11  A    between atoms: C_18  and  C_19
REMARK   12  A    between atoms: C_21  and  C_22
REMARK   13  A    between atoms: C_23  and  O_24
REMARK   14  A    between atoms: C_25  and  O_26
REMARK   15  A    between atoms: O_26  and  C_27
REMARK   16  A    between atoms: C_30  and  C_31
REMARK   17  A    between atoms: C_33  and  C_34
REMARK   18  A    between atoms: C_40  and  C_41
REMARK   19  A    between atoms: C_42  and  O_43
REMARK   20  A    between atoms: O_43  and  C_44
REMARK   21  A    between atoms: C_49  and  C_50
REMARK   22  A    between atoms: C_51  and  O_52
REMARK   23  A    between atoms: C_68  and  O_69
REMARK   24  A    between atoms: O_69  and  C_70
REMARK                            x       y       z     vdW  Elec       q    Type
REMARK                         _______ _______ _______ _____ _____    ______ ____
ROOT
ATOM      1  C   UNL     1       2.114   0.146   0.201  0.00  0.00    +0.000 C 
ATOM      2  C   UNL     1       1.690   1.608   0.812  0.00  0.00    +0.000 C 
ATOM      3  C   UNL     1       1.534   2.561  -0.322  0.00  0.00    +0.000 C 
ATOM      4  O   UNL     1       1.911   2.247  -1.455  0.00  0.00    +0.000 OA
ATOM      5  C   UNL     1       0.047   3.135  -0.593  0.00  0.00    +0.000 C 
ATOM      6  C   UNL     1       0.645   4.460  -1.361  0.00  0.00    +0.000 C 
ATOM      7  C   UNL     1      -0.048   3.918   0.810  0.00  0.00    +0.000 C 
ATOM      8  C   UNL     1      -1.212   4.567   1.016  0.00  0.00    +0.000 C 
ATOM      9  C   UNL     1      -1.060   5.390   2.278  0.00  0.00    +0.000 C 
ATOM     10  C   UNL     1      -1.564   5.521  -0.240  0.00  0.00    +0.000 C 
ATOM     11  C   UNL     1      -2.938   6.241   0.535  0.00  0.00    +0.000 C 
ATOM     12  C   UNL     1      -3.741   4.864   0.798  0.00  0.00    +0.000 C 
ATOM     13  O   UNL     1      -4.033   4.869   1.983  0.00  0.00    +0.000 OA
ATOM     14  C   UNL     1      -4.965   4.688  -0.229  0.00  0.00    +0.000 C 
ATOM     15  C   UNL     1      -5.769   5.973   0.394  0.00  0.00    +0.000 C 
ATOM     16  C   UNL     1      -5.796   3.607   0.682  0.00  0.00    +0.000 C 
ATOM     17  C   UNL     1      -6.455   2.905  -0.646  0.00  0.00    +0.000 C 
ATOM     18  C   UNL     1      -7.749   3.905  -0.610  0.00  0.00    +0.000 C 
ATOM     19  C   UNL     1      -7.203   1.779   0.219  0.00  0.00    +0.000 C 
ATOM     20  C   UNL     1      -7.329   0.703  -0.562  0.00  0.00    +0.000 C 
ATOM     21  C   UNL     1      -6.212  -0.244  -0.662  0.00  0.00    +0.000 C 
ATOM     22  C   UNL     1      -5.629  -0.572   0.465  0.00  0.00    +0.000 C 
ATOM     23  C   UNL     1      -5.716  -1.935   0.910  0.00  0.00    +0.000 C 
ATOM     24  C   UNL     1      -6.037  -2.999   0.164  0.00  0.00    +0.000 C 
ATOM     25  C   UNL     1      -7.196  -3.732   0.798  0.00  0.00    +0.000 C 
ATOM     26  C   UNL     1      -4.634  -3.838   0.119  0.00  0.00    +0.000 C 
ATOM     27  C   UNL     1      -4.609  -3.920  -1.535  0.00  0.00    +0.000 C 
ATOM     28  C   UNL     1      -3.025  -3.544  -1.820  0.00  0.00    +0.000 C 
ATOM     29  C   UNL     1      -2.902  -4.647  -3.042  0.00  0.00    +0.000 C 
ATOM     30  C   UNL     1      -1.463  -5.011  -3.213  0.00  0.00    +0.000 C 
ATOM     31  C   UNL     1      -1.024  -5.776  -1.829  0.00  0.00    +0.000 C 
ATOM     32  C   UNL     1       0.568  -5.617  -2.137  0.00  0.00    +0.000 C 
ATOM     33  C   UNL     1      -1.090  -4.430  -0.874  0.00  0.00    +0.000 C 
ATOM     34  O   UNL     1      -2.512  -4.527  -0.780  0.00  0.00    +0.000 OA
ATOM     35  C   UNL     1      -0.623  -4.778   0.431  0.00  0.00    +0.000 C 
ATOM     36  O   UNL     1      -0.976  -5.935   0.872  0.00  0.00    +0.000 OA
ATOM     37  C   UNL     1      -0.695  -3.667   1.402  0.00  0.00    +0.000 C 
ATOM     38  O   UNL     1      -1.054  -3.798   2.607  0.00  0.00    +0.000 OA
ATOM     39  N   UNL     1      -0.554  -2.332   0.925  0.00  0.00    +0.000 N 
ATOM     40  C   UNL     1      -0.910  -1.148   1.548  0.00  0.00    +0.000 C 
ATOM     41  C   UNL     1      -1.813  -0.398   0.584  0.00  0.00    +0.000 C 
ATOM     42  C   UNL     1      -1.112  -0.487  -0.739  0.00  0.00    +0.000 C 
ATOM     43  C   UNL     1       0.295  -0.824  -0.715  0.00  0.00    +0.000 C 
ATOM     44  C   UNL     1       0.551  -2.364  -0.191  0.00  0.00    +0.000 C 
ATOM     45  C   UNL     1       1.718  -1.980   0.859  0.00  0.00    +0.000 C 
ATOM     46  O   UNL     1       2.062  -3.010   1.506  0.00  0.00    +0.000 OA
ATOM     47  O   UNL     1       1.623  -0.699   1.386  0.00  0.00    +0.000 OA
ENDROOT
BRANCH   1  48
ATOM     48  C   UNL     1       3.699   0.129   0.877  0.00  0.00    +0.000 C 
ATOM     49  C   UNL     1       3.321   0.743   2.330  0.00  0.00    +0.000 C 
BRANCH  48  50
ATOM     50  C   UNL     1       4.172   1.560   0.311  0.00  0.00    +0.000 C 
BRANCH  50  54
ATOM     51  C   UNL     1       7.184  -1.325   0.152  0.00  0.00    +0.000 C 
ATOM     52  C   UNL     1       6.707  -0.653  -1.263  0.00  0.00    +0.000 C 
ATOM     53  C   UNL     1       5.349  -0.137  -0.901  0.00  0.00    +0.000 C 
ATOM     54  C   UNL     1       5.704   1.287  -0.183  0.00  0.00    +0.000 C 
ATOM     55  C   UNL     1       6.145   0.563   1.214  0.00  0.00    +0.000 C 
ATOM     56  C   UNL     1       7.678   0.212   0.752  0.00  0.00    +0.000 C 
BRANCH  56  57
ATOM     57  O   UNL     1       8.025  -0.372   2.098  0.00  0.00    +0.000 OA
ATOM     58  C   UNL     1       7.037  -1.228   2.471  0.00  0.00    +0.000 C 
ENDBRANCH  56  57
BRANCH  51  59
ATOM     59  O   UNL     1       8.571  -1.620  -0.360  0.00  0.00    +0.000 OA
BRANCH  59  60
ATOM     60  C   UNL     1       9.030  -0.521  -1.023  0.00  0.00    +0.000 C 
BRANCH  60  61
ATOM     61  C   UNL     1      10.196   0.146  -0.345  0.00  0.00    +0.000 C 
BRANCH  61  62
ATOM     62  O   UNL     1      10.835   0.980  -1.247  0.00  0.00    +0.000 OA
BRANCH  62  64
ATOM     63  C   UNL     1      11.178   2.926  -0.061  0.00  0.00    +0.000 C 
ATOM     64  C   UNL     1      10.471   2.306  -1.053  0.00  0.00    +0.000 C 
ENDBRANCH  62  64
ENDBRANCH  61  62
ENDBRANCH  60  61
ENDBRANCH  59  60
ENDBRANCH  51  59
ENDBRANCH  50  54
ENDBRANCH  48  50
ENDBRANCH   1  48
BRANCH  10  65
ATOM     65  O   UNL     1      -2.335   4.443  -0.971  0.00  0.00    +0.000 OA
ATOM     66  H   UNL     1      -2.948   4.010  -0.356  0.00  0.00    +0.000 HD
ENDBRANCH  10  65
BRANCH  11  67
ATOM     67  O   UNL     1      -3.508   6.561  -0.824  0.00  0.00    +0.000 OA
ATOM     68  C   UNL     1      -3.044   7.809  -1.159  0.00  0.00    +0.000 C 
ENDBRANCH  11  67
BRANCH  26  69
ATOM     69  O   UNL     1      -5.276  -5.206   0.289  0.00  0.00    +0.000 OA
ATOM     70  C   UNL     1      -5.425  -5.862  -0.823  0.00  0.00    +0.000 C 
ENDBRANCH  26  69
BRANCH  33  71
ATOM     71  O   UNL     1      -0.827  -3.617  -1.764  0.00  0.00    +0.000 OA
ATOM     72  H   UNL     1      -1.431  -3.749  -2.512  0.00  0.00    +0.000 HD
ENDBRANCH  33  71
TORSDOF 13
