REMARK  Name = 
REMARK  9 active torsions:
REMARK  status: ('A' for Active; 'I' for Inactive)
REMARK    1  A    between atoms: C_1  and  C_31
REMARK    2  A    between atoms: C_2  and  C_30
REMARK    3  A    between atoms: C_8  and  C_19
REMARK    4  A    between atoms: C_10  and  O_12
REMARK    5  A    between atoms: C_25  and  C_27
REMARK    6  A    between atoms: C_25  and  C_28
REMARK    7  A    between atoms: C_31  and  C_33
REMARK    8  A    between atoms: C_33  and  O_34
REMARK    9  A    between atoms: O_34  and  P_35
REMARK                            x       y       z     vdW  Elec       q    Type
REMARK                         _______ _______ _______ _____ _____    ______ ____
ROOT
ATOM      1  C   UNL     1      -0.128  -0.648   0.000  0.00  0.00    +0.000 C 
ATOM      2  C   UNL     1      -0.943  -0.901   0.000  0.00  0.00    +0.000 C 
ATOM      3  C   UNL     1      -0.943  -1.731   0.000  0.00  0.00    +0.000 C 
ATOM      4  C   UNL     1      -1.657  -2.128   0.000  0.00  0.00    +0.000 C 
ATOM      5  C   UNL     1      -1.657  -2.954   0.000  0.00  0.00    +0.000 C 
ATOM      6  C   UNL     1      -2.370  -3.366   0.000  0.00  0.00    +0.000 C 
ATOM      7  C   UNL     1      -3.079  -2.949   0.000  0.00  0.00    +0.000 C 
ATOM      8  C   UNL     1      -3.079  -2.124   0.000  0.00  0.00    +0.000 C 
ATOM      9  C   UNL     1      -2.365  -1.716   0.000  0.00  0.00    +0.000 C 
ATOM     10  C   UNL     1      -2.365  -0.876   0.000  0.00  0.00    +0.000 C 
ATOM     11  C   UNL     1      -1.633  -0.478   0.000  0.00  0.00    +0.000 C 
ATOM     12  C   UNL     1      -3.797  -1.701   0.000  0.00  0.00    +0.000 C 
ATOM     13  C   UNL     1      -4.506  -2.124   0.000  0.00  0.00    +0.000 C 
ATOM     14  C   UNL     1      -4.506  -2.949   0.000  0.00  0.00    +0.000 C 
ATOM     15  O   UNL     1      -5.224  -3.361   0.000  0.00  0.00    +0.000 OA
ATOM     16  C   UNL     1      -3.797  -3.356   0.000  0.00  0.00    +0.000 C 
ATOM     17  C   UNL     1      -3.079  -1.304   0.000  0.00  0.00    +0.000 C 
ATOM     18  C   UNL     1      -0.152  -1.993   0.000  0.00  0.00    +0.000 C 
ATOM     19  C   UNL     1       0.347  -1.328   0.000  0.00  0.00    +0.000 C 
ATOM     20  O   UNL     1       1.139  -1.080   0.000  0.00  0.00    +0.000 OA
ATOM     21  C   UNL     1       1.139  -0.260   0.000  0.00  0.00    +0.000 C 
ATOM     22  O   UNL     1       0.362   0.002   0.000  0.00  0.00    +0.000 OA
ATOM     23  C   UNL     1       1.959  -0.260   0.000  0.00  0.00    +0.000 C 
ATOM     24  C   UNL     1       1.546   0.458   0.000  0.00  0.00    +0.000 C 
ATOM     25  C   UNL     1      -0.943  -0.075   0.000  0.00  0.00    +0.000 C 
ENDROOT
BRANCH  10  26
ATOM     26  O   UNL     1      -3.079  -0.469   0.000  0.00  0.00    +0.000 OA
ATOM     27  H   UNL     1      -3.083   0.501   0.000  0.00  0.00    +0.000 HD
ENDBRANCH  10  26
BRANCH   1  28
ATOM     28  C   UNL     1      -0.128   0.172   0.000  0.00  0.00    +0.000 C 
ATOM     29  O   UNL     1      -0.856   0.579   0.000  0.00  0.00    +0.000 OA
BRANCH  28  30
ATOM     30  C   UNL     1       0.576   0.579   0.000  0.00  0.00    +0.000 C 
BRANCH  30  31
ATOM     31  O   UNL     1       0.576   1.405   0.000  0.00  0.00    +0.000 OA
BRANCH  31  32
ATOM     32  P   UNL     1       1.709   2.058   0.000  0.00  0.00    +0.000 P 
ATOM     33  O   UNL     1       1.709   3.366   0.000  0.00  0.00    +0.000 OA
ATOM     34  O   UNL     1       0.576   2.712   0.000  0.00  0.00    +0.000 OA
ATOM     35  O   UNL     1       2.970   2.400   0.000  0.00  0.00    +0.000 OA
ENDBRANCH  31  32
ENDBRANCH  30  31
ENDBRANCH  28  30
ENDBRANCH   1  28
TORSDOF 5
REMARK  Name = 
REMARK  9 active torsions:
REMARK  status: ('A' for Active; 'I' for Inactive)
REMARK    1  A    between atoms: C_1  and  C_31
REMARK    2  A    between atoms: C_2  and  C_30
REMARK    3  A    between atoms: C_8  and  C_19
REMARK    4  A    between atoms: C_10  and  O_12
REMARK    5  A    between atoms: C_25  and  C_27
REMARK    6  A    between atoms: C_25  and  C_28
REMARK    7  A    between atoms: C_31  and  C_33
REMARK    8  A    between atoms: C_33  and  O_34
REMARK    9  A    between atoms: O_34  and  P_35
REMARK                            x       y       z     vdW  Elec       q    Type
REMARK                         _______ _______ _______ _____ _____    ______ ____
ROOT
ATOM      1 NA   UNL     1       4.954   2.930   0.000  0.00  0.00    +0.000 Na
ENDROOT
TORSDOF 0
REMARK  Name = 
REMARK  9 active torsions:
REMARK  status: ('A' for Active; 'I' for Inactive)
REMARK    1  A    between atoms: C_1  and  C_31
REMARK    2  A    between atoms: C_2  and  C_30
REMARK    3  A    between atoms: C_8  and  C_19
REMARK    4  A    between atoms: C_10  and  O_12
REMARK    5  A    between atoms: C_25  and  C_27
REMARK    6  A    between atoms: C_25  and  C_28
REMARK    7  A    between atoms: C_31  and  C_33
REMARK    8  A    between atoms: C_33  and  O_34
REMARK    9  A    between atoms: O_34  and  P_35
REMARK                            x       y       z     vdW  Elec       q    Type
REMARK                         _______ _______ _______ _____ _____    ______ ____
ROOT
ATOM      1 NA   UNL     1      -0.053   4.188   0.000  0.00  0.00    +0.000 Na
ENDROOT
TORSDOF 0
