REMARK  Name = 155202
REMARK  13 active torsions:
REMARK  status: ('A' for Active; 'I' for Inactive)
REMARK    1  A    between atoms: O_1  and  C_11
REMARK    2  A    between atoms: O_2  and  C_14
REMARK    3  A    between atoms: O_4  and  C_25
REMARK    4  A    between atoms: O_4  and  C_28
REMARK    5  A    between atoms: C_7  and  C_18
REMARK    6  A    between atoms: C_11  and  C_21
REMARK    7  A    between atoms: C_15  and  C_22
REMARK    8  A    between atoms: C_21  and  C_25
REMARK    9  A    between atoms: C_28  and  C_29
REMARK   10  A    between atoms: C_29  and  C_30
REMARK   11  A    between atoms: C_30  and  C_31
REMARK   12  A    between atoms: C_31  and  C_32
REMARK   13  A    between atoms: C_32  and  C_33
REMARK                            x       y       z     vdW  Elec       q    Type
REMARK                         _______ _______ _______ _____ _____    ______ ____
ROOT
ATOM      1  O   UNL     1       7.477  -2.538  -1.623  0.00  0.00    +0.000 OA
ATOM      2  C   UNL     1       0.326   1.068   0.252  0.00  0.00    +0.000 C 
ATOM      3  C   UNL     1       1.628   1.724  -0.257  0.00  0.00    +0.000 C 
ATOM      4  C   UNL     1       2.896   1.174   0.413  0.00  0.00    +0.000 C 
ATOM      5  C   UNL     1       2.995  -0.365   0.119  0.00  0.00    +0.000 C 
ATOM      6  C   UNL     1      -0.709   1.888  -0.567  0.00  0.00    +0.000 C 
ATOM      7  C   UNL     1       0.408  -0.437  -0.073  0.00  0.00    +0.000 C 
ATOM      8  C   UNL     1       1.332   3.218  -0.162  0.00  0.00    +0.000 C 
ATOM      9  C   UNL     1       1.677  -1.114   0.493  0.00  0.00    +0.000 C 
ATOM     10  C   UNL     1       4.332  -0.994   0.677  0.00  0.00    +0.000 C 
ATOM     11  C   UNL     1      -0.162   3.333  -0.530  0.00  0.00    +0.000 C 
ATOM     12  C   UNL     1       4.142   1.919  -0.100  0.00  0.00    +0.000 C 
ATOM     13  C   UNL     1       0.080   1.289   1.771  0.00  0.00    +0.000 C 
ATOM     14  C   UNL     1       5.436   1.323   0.438  0.00  0.00    +0.000 C 
ATOM     15  C   UNL     1       5.494  -0.153   0.137  0.00  0.00    +0.000 C 
ATOM     16  C   UNL     1       4.426  -1.008   2.220  0.00  0.00    +0.000 C 
ATOM     17  C   UNL     1       4.451  -2.445   0.232  0.00  0.00    +0.000 C 
ATOM     18  C   UNL     1       6.497  -0.653  -0.602  0.00  0.00    +0.000 C 
ATOM     19  C   UNL     1       5.446  -2.948  -0.505  0.00  0.00    +0.000 C 
ATOM     20  C   UNL     1       6.549  -2.084  -0.962  0.00  0.00    +0.000 C 
ENDROOT
BRANCH   6  21
ATOM     21  O   UNL     1      -0.771   1.440  -1.917  0.00  0.00    +0.000 OA
ATOM     22  H   UNL     1      -1.241   2.110  -2.443  0.00  0.00    +0.000 HD
ENDBRANCH   6  21
BRANCH   9  23
ATOM     23  O   UNL     1       1.549  -1.263   1.900  0.00  0.00    +0.000 OA
ATOM     24  H   UNL     1       0.742  -1.777   2.072  0.00  0.00    +0.000 HD
ENDBRANCH   9  23
BRANCH   6  26
ATOM     25  O   UNL     1      -2.561   2.555   0.775  0.00  0.00    +0.000 OA
ATOM     26  C   UNL     1      -2.120   1.782  -0.074  0.00  0.00    +0.000 C 
BRANCH  26  27
ATOM     27  C   UNL     1      -2.960   0.677  -0.680  0.00  0.00    +0.000 C 
BRANCH  27  28
ATOM     28  O   UNL     1      -4.266   0.693  -0.144  0.00  0.00    +0.000 OA
BRANCH  28  30
ATOM     29  O   UNL     1      -4.848  -1.115  -1.453  0.00  0.00    +0.000 OA
ATOM     30  C   UNL     1      -5.129  -0.267  -0.618  0.00  0.00    +0.000 C 
BRANCH  30  31
ATOM     31  C   UNL     1      -6.467  -0.136   0.076  0.00  0.00    +0.000 C 
BRANCH  31  32
ATOM     32  C   UNL     1      -7.462  -1.225  -0.323  0.00  0.00    +0.000 C 
BRANCH  32  33
ATOM     33  C   UNL     1      -8.813  -1.072   0.381  0.00  0.00    +0.000 C 
BRANCH  33  34
ATOM     34  C   UNL     1      -9.773  -2.194  -0.013  0.00  0.00    +0.000 C 
ATOM     35  C   UNL     1     -11.102  -2.073   0.717  0.00  0.00    +0.000 C 
ENDBRANCH  33  34
ENDBRANCH  32  33
ENDBRANCH  31  32
ENDBRANCH  30  31
ENDBRANCH  28  30
ENDBRANCH  27  28
ENDBRANCH  26  27
ENDBRANCH   6  26
TORSDOF 10
