REMARK  Name = 126573394
REMARK  13 active torsions:
REMARK  status: ('A' for Active; 'I' for Inactive)
REMARK    1  A    between atoms: O_3  and  C_13
REMARK    2  A    between atoms: O_3  and  C_21
REMARK    3  A    between atoms: O_4  and  C_16
REMARK    4  A    between atoms: O_4  and  C_22
REMARK    5  A    between atoms: N_8  and  C_30
REMARK    6  A    between atoms: C_9  and  C_11
REMARK    7  A    between atoms: C_11  and  C_18
REMARK    8  A    between atoms: C_12  and  C_19
REMARK    9  A    between atoms: C_19  and  C_20
REMARK   10  A    between atoms: C_23  and  C_28
REMARK   11  A    between atoms: C_23  and  C_29
REMARK   12  A    between atoms: C_24  and  C_27
REMARK   13  A    between atoms: C_27  and  C_30
REMARK                            x       y       z     vdW  Elec       q    Type
REMARK                         _______ _______ _______ _____ _____    ______ ____
ROOT
ATOM      1  O   UNL     1       4.369   1.830  -2.129  0.00  0.00    +0.000 OA
ATOM      2  C   UNL     1       3.028   0.851  -0.265  0.00  0.00    +0.000 C 
ATOM      3  C   UNL     1       3.107   1.273  -1.730  0.00  0.00    +0.000 C 
ATOM      4  C   UNL     1       2.644   2.079   0.601  0.00  0.00    +0.000 C 
ATOM      5  C   UNL     1       4.007   0.577  -2.731  0.00  0.00    +0.000 C 
ATOM      6  C   UNL     1       1.918   2.025  -2.267  0.00  0.00    +0.000 C 
ATOM      7  C   UNL     1       1.397   2.802   0.073  0.00  0.00    +0.000 C 
ATOM      8  C   UNL     1       1.582   3.224  -1.383  0.00  0.00    +0.000 C 
ENDROOT
BRANCH   2  10
ATOM      9  O   UNL     1       4.091  -0.467   1.523  0.00  0.00    +0.000 OA
ATOM     10  C   UNL     1       4.286   0.197   0.270  0.00  0.00    +0.000 C 
ATOM     11  C   UNL     1       4.312  -1.310   0.385  0.00  0.00    +0.000 C 
ATOM     12  C   UNL     1       5.534   1.008   0.182  0.00  0.00    +0.000 C 
BRANCH  11  13
ATOM     13  C   UNL     1       5.571  -2.099   0.429  0.00  0.00    +0.000 C 
BRANCH  13  14
ATOM     14  C   UNL     1       5.404  -3.531   0.869  0.00  0.00    +0.000 C 
ATOM     15  C   UNL     1       5.190  -4.611   0.094  0.00  0.00    +0.000 C 
ATOM     16  C   UNL     1       5.032  -6.017   0.599  0.00  0.00    +0.000 C 
ATOM     17  C   UNL     1       5.076  -4.468  -1.401  0.00  0.00    +0.000 C 
ENDBRANCH  13  14
ENDBRANCH  11  13
ENDBRANCH   2  10
BRANCH   4  18
ATOM     18  O   UNL     1       2.365   1.685   1.944  0.00  0.00    +0.000 OA
ATOM     19  C   UNL     1       2.464   2.785   2.832  0.00  0.00    +0.000 C 
ENDBRANCH   4  18
BRANCH   7  20
ATOM     20  O   UNL     1       0.265   1.931   0.174  0.00  0.00    +0.000 OA
BRANCH  20  23
ATOM     21  O   UNL     1      -1.098   3.756   0.478  0.00  0.00    +0.000 OA
ATOM     22  N   UNL     1      -1.954   1.627   0.462  0.00  0.00    +0.000 N 
ATOM     23  C   UNL     1      -0.941   2.542   0.379  0.00  0.00    +0.000 C 
ATOM     24  C   UNL     1      -3.390   0.239   0.920  0.00  0.00    +0.000 C 
ATOM     25  C   UNL     1      -1.951   0.182   0.370  0.00  0.00    +0.000 C 
ATOM     26  C   UNL     1      -3.389   1.750   0.617  0.00  0.00    +0.000 C 
BRANCH  24  27
ATOM     27  C   UNL     1      -4.424  -0.594   0.187  0.00  0.00    +0.000 C 
BRANCH  27  28
ATOM     28  C   UNL     1      -5.803  -0.413   0.822  0.00  0.00    +0.000 C 
BRANCH  28  30
ATOM     29  O   UNL     1      -9.410  -1.701  -0.892  0.00  0.00    +0.000 OA
ATOM     30  N   UNL     1      -6.798  -1.236   0.138  0.00  0.00    +0.000 NA
ATOM     31  C   UNL     1      -7.934  -1.526   1.024  0.00  0.00    +0.000 C 
ATOM     32  C   UNL     1      -7.271  -0.573  -1.085  0.00  0.00    +0.000 C 
ATOM     33  C   UNL     1      -8.963  -2.375   0.285  0.00  0.00    +0.000 C 
ATOM     34  C   UNL     1      -8.317  -1.444  -1.775  0.00  0.00    +0.000 C 
ENDBRANCH  28  30
ENDBRANCH  27  28
ENDBRANCH  24  27
ENDBRANCH  20  23
ENDBRANCH   7  20
TORSDOF 9
