REMARK  Name = 689043
REMARK  5 active torsions:
REMARK  status: ('A' for Active; 'I' for Inactive)
REMARK    1  A    between atoms: O_1  and  C_8
REMARK    2  A    between atoms: O_2  and  C_9
REMARK    3  A    between atoms: O_3  and  C_13
REMARK    4  A    between atoms: C_5  and  C_11
REMARK    5  A    between atoms: C_12  and  C_13
REMARK                            x       y       z     vdW  Elec       q    Type
REMARK                         _______ _______ _______ _____ _____    ______ ____
ROOT
ATOM      1  C   UNL     1       0.072  -0.125  -0.107  0.00  0.00    +0.000 A 
ATOM      2  C   UNL     1       1.035  -1.127   0.018  0.00  0.00    +0.000 A 
ATOM      3  C   UNL     1       0.463   1.212  -0.178  0.00  0.00    +0.000 A 
ATOM      4  C   UNL     1       2.388  -0.792   0.070  0.00  0.00    +0.000 A 
ATOM      5  C   UNL     1       2.778   0.545  -0.001  0.00  0.00    +0.000 A 
ATOM      6  C   UNL     1       1.816   1.547  -0.125  0.00  0.00    +0.000 A 
ENDROOT
BRANCH   4   7
ATOM      7  O   UNL     1       3.319  -1.778   0.194  0.00  0.00    +0.000 OA
ATOM      8  H   UNL     1       4.200  -1.367   0.215  0.00  0.00    +0.000 HD
ENDBRANCH   4   7
BRANCH   5   9
ATOM      9  O   UNL     1       4.096   0.885   0.051  0.00  0.00    +0.000 OA
ATOM     10  H   UNL     1       4.177   1.852  -0.012  0.00  0.00    +0.000 HD
ENDBRANCH   5   9
BRANCH   1  11
ATOM     11  C   UNL     1      -1.338  -0.475  -0.163  0.00  0.00    +0.000 C 
ATOM     12  C   UNL     1      -2.308   0.395   0.105  0.00  0.00    +0.000 C 
BRANCH  12  14
ATOM     13  O   UNL     1      -4.090  -1.187  -0.260  0.00  0.00    +0.000 OA
ATOM     14  C   UNL     1      -3.709  -0.067   0.036  0.00  0.00    +0.000 C 
BRANCH  14  15
ATOM     15  O   UNL     1      -4.523   0.966   0.359  0.00  0.00    +0.000 OA
ATOM     16  H   UNL     1      -5.470   0.711   0.329  0.00  0.00    +0.000 HD
ENDBRANCH  14  15
ENDBRANCH  12  14
ENDBRANCH   1  11
TORSDOF 5
