REMARK  Name = 5496627
REMARK  9 active torsions:
REMARK  status: ('A' for Active; 'I' for Inactive)
REMARK    1  A    between atoms: O_1  and  C_12
REMARK    2  A    between atoms: O_2  and  C_14
REMARK    3  A    between atoms: C_7  and  C_8
REMARK    4  A    between atoms: C_7  and  C_9
REMARK    5  A    between atoms: C_7  and  C_12
REMARK    6  A    between atoms: C_8  and  C_10
REMARK    7  A    between atoms: C_8  and  C_14
REMARK    8  A    between atoms: C_9  and  C_11
REMARK    9  A    between atoms: C_10  and  C_13
REMARK                            x       y       z     vdW  Elec       q    Type
REMARK                         _______ _______ _______ _____ _____    ______ ____
ROOT
ATOM      1  C   UNL     1       0.162  -1.774  -0.482  0.00  0.00    +0.000 C 
ENDROOT
BRANCH   1   3
ATOM      2  O   UNL     1       0.848  -3.958   0.316  0.00  0.00    +0.000 OA
ATOM      3  C   UNL     1       0.861  -3.124  -0.582  0.00  0.00    +0.000 C 
BRANCH   3   4
ATOM      4  O   UNL     1       1.496  -3.325  -1.763  0.00  0.00    +0.000 OA
ATOM      5  H   UNL     1       1.935  -4.202  -1.798  0.00  0.00    +0.000 HD
ENDBRANCH   3   4
ENDBRANCH   1   3
BRANCH   1   6
ATOM      6  C   UNL     1       1.107  -0.662   0.055  0.00  0.00    +0.000 C 
BRANCH   6   8
ATOM      7  O   UNL     1       2.146  -1.982   1.820  0.00  0.00    +0.000 OA
ATOM      8  C   UNL     1       1.523  -0.981   1.488  0.00  0.00    +0.000 C 
BRANCH   8   9
ATOM      9  O   UNL     1       1.151  -0.020   2.371  0.00  0.00    +0.000 OA
ATOM     10  H   UNL     1       1.436  -0.233   3.285  0.00  0.00    +0.000 HD
ENDBRANCH   8   9
ENDBRANCH   6   8
BRANCH   6  11
ATOM     11  C   UNL     1       2.400  -0.522  -0.784  0.00  0.00    +0.000 C 
BRANCH  11  12
ATOM     12  C   UNL     1       3.092   0.810  -0.600  0.00  0.00    +0.000 A 
ATOM     13  C   UNL     1       2.759   1.867  -1.430  0.00  0.00    +0.000 A 
ATOM     14  C   UNL     1       4.045   0.946   0.396  0.00  0.00    +0.000 A 
ATOM     15  C   UNL     1       3.397   3.095  -1.260  0.00  0.00    +0.000 A 
ATOM     16  C   UNL     1       4.683   2.175   0.566  0.00  0.00    +0.000 A 
ATOM     17  C   UNL     1       4.359   3.249  -0.262  0.00  0.00    +0.000 A 
ENDBRANCH  11  12
ENDBRANCH   6  11
ENDBRANCH   1   6
BRANCH   1  18
ATOM     18  C   UNL     1      -1.122  -1.965   0.363  0.00  0.00    +0.000 C 
BRANCH  18  21
ATOM     19  O   UNL     1      -3.535   2.279   1.102  0.00  0.00    +0.000 OA
ATOM     20  O   UNL     1      -5.181   1.770  -0.583  0.00  0.00    +0.000 OA
ATOM     21  C   UNL     1      -2.231  -0.980   0.082  0.00  0.00    +0.000 A 
ATOM     22  C   UNL     1      -2.281   0.206   0.802  0.00  0.00    +0.000 A 
ATOM     23  C   UNL     1      -3.179  -1.288  -0.898  0.00  0.00    +0.000 A 
ATOM     24  C   UNL     1      -3.313   1.074   0.509  0.00  0.00    +0.000 A 
ATOM     25  C   UNL     1      -4.253   0.784  -0.453  0.00  0.00    +0.000 A 
ATOM     26  C   UNL     1      -4.213  -0.391  -1.175  0.00  0.00    +0.000 A 
ATOM     27  C   UNL     1      -4.720   2.715   0.405  0.00  0.00    +0.000 C 
ENDBRANCH  18  21
ENDBRANCH   1  18
TORSDOF 9
