REMARK  Name = 5281783
REMARK  7 active torsions:
REMARK  status: ('A' for Active; 'I' for Inactive)
REMARK    1  A    between atoms: O_1  and  C_7
REMARK    2  A    between atoms: O_1  and  C_15
REMARK    3  A    between atoms: O_2  and  C_12
REMARK    4  A    between atoms: O_2  and  C_13
REMARK    5  A    between atoms: C_4  and  C_10
REMARK    6  A    between atoms: C_11  and  C_13
REMARK    7  A    between atoms: C_12  and  C_14
REMARK                            x       y       z     vdW  Elec       q    Type
REMARK                         _______ _______ _______ _____ _____    ______ ____
ROOT
ATOM      1  C   UNL     1       0.846  -0.586   0.061  0.00  0.00    +0.000 A 
ATOM      2  C   UNL     1       1.276   0.726   0.261  0.00  0.00    +0.000 A 
ATOM      3  C   UNL     1       1.776  -1.592  -0.205  0.00  0.00    +0.000 A 
ATOM      4  C   UNL     1       3.565   0.027  -0.073  0.00  0.00    +0.000 A 
ATOM      5  C   UNL     1       2.635   1.032   0.194  0.00  0.00    +0.000 A 
ATOM      6  C   UNL     1       3.135  -1.285  -0.273  0.00  0.00    +0.000 A 
ENDROOT
BRANCH   4   7
ATOM      7  O   UNL     1       4.891   0.326  -0.138  0.00  0.00    +0.000 OA
ATOM      8  C   UNL     1       5.261   1.687   0.076  0.00  0.00    +0.000 C 
ENDBRANCH   4   7
BRANCH   1   9
ATOM      9  C   UNL     1      -0.570  -0.906   0.133  0.00  0.00    +0.000 C 
ATOM     10  C   UNL     1      -1.579  -0.016   0.002  0.00  0.00    +0.000 C 
BRANCH  10  12
ATOM     11  O   UNL     1      -3.351  -1.617   0.276  0.00  0.00    +0.000 OA
ATOM     12  C   UNL     1      -2.987  -0.468   0.083  0.00  0.00    +0.000 C 
BRANCH  12  13
ATOM     13  O   UNL     1      -3.780   0.623  -0.094  0.00  0.00    +0.000 OA
BRANCH  13  14
ATOM     14  C   UNL     1      -5.189   0.373  -0.045  0.00  0.00    +0.000 C 
ATOM     15  C   UNL     1      -5.928   1.676  -0.257  0.00  0.00    +0.000 C 
ENDBRANCH  13  14
ENDBRANCH  12  13
ENDBRANCH  10  12
ENDBRANCH   1   9
TORSDOF 5
