REMARK  Name = 6992098
REMARK  6 active torsions:
REMARK  status: ('A' for Active; 'I' for Inactive)
REMARK    1  A    between atoms: N_4  and  CA_8
REMARK    2  A    between atoms: N_5  and  C_10
REMARK    3  A    between atoms: C_7  and  CA_8
REMARK    4  A    between atoms: C_7  and  C_9
REMARK    5  A    between atoms: CA_8  and  C_11
REMARK    6  A    between atoms: C_9  and  C_10
REMARK                            x       y       z     vdW  Elec       q    Type
REMARK                         _______ _______ _______ _____ _____    ______ ____
ROOT
ATOM      1  C   UNL     1      -0.763  -0.896   0.743  0.00  0.00    +0.000 C 
ENDROOT
BRANCH   1   2
ATOM      2  CA  UNL     1      -2.212  -0.409   0.609  0.00  0.00    +0.000 C 
BRANCH   2   3
ATOM      3  N   UNL     1      -2.982  -1.479  -0.101  0.00  0.00    +0.000 N 
ATOM      4  H1  UNL     1      -3.991  -1.279  -0.077  0.00  0.00    +0.000 HD
ATOM      5  H2  UNL     1      -2.846  -2.402   0.333  0.00  0.00    +0.000 HD
ATOM      6  H3  UNL     1      -2.714  -1.554  -1.091  0.00  0.00    +0.000 HD
ENDBRANCH   2   3
BRANCH   2   9
ATOM      7  O   UNL     1      -3.469   1.205  -0.604  0.00  0.00    +0.000 OA
ATOM      8  OXT UNL     1      -1.433   1.798   0.235  0.00  0.00    +0.000 OA
ATOM      9  C   UNL     1      -2.387   0.999   0.013  0.00  0.00    +0.000 C 
ENDBRANCH   2   9
ENDBRANCH   1   2
BRANCH   1  10
ATOM     10  C   UNL     1      -0.011  -1.024  -0.589  0.00  0.00    +0.000 C 
BRANCH  10  11
ATOM     11  C   UNL     1       1.403  -1.561  -0.398  0.00  0.00    +0.000 C 
BRANCH  11  13
ATOM     12  O   UNL     1       3.062   0.661  -1.245  0.00  0.00    +0.000 OA
ATOM     13  N   UNL     1       2.202  -0.683   0.445  0.00  0.00    +0.000 N 
ATOM     14  N   UNL     1       3.626   1.034   0.949  0.00  0.00    +0.000 N 
ATOM     15  C   UNL     1       2.964   0.355  -0.058  0.00  0.00    +0.000 C 
ATOM     16  H   UNL     1       2.195  -0.843   1.448  0.00  0.00    +0.000 HD
ATOM     17  H   UNL     1       3.533   0.767   1.923  0.00  0.00    +0.000 HD
ATOM     18  H   UNL     1       4.228   1.824   0.742  0.00  0.00    +0.000 HD
ENDBRANCH  11  13
ENDBRANCH  10  11
ENDBRANCH   1  10
TORSDOF 6
