REMARK  Name = 6306
REMARK  7 active torsions:
REMARK  status: ('A' for Active; 'I' for Inactive)
REMARK    1  A    between atoms: O_1  and  C_9
REMARK    2  A    between atoms: N_3  and  CA_5
REMARK    3  A    between atoms: CB_4  and  CA_5
REMARK    4  A    between atoms: CB_4  and  CG1_6
REMARK    5  A    between atoms: CB_4  and  CG2_7
REMARK    6  A    between atoms: CA_5  and  C_9
REMARK    7  A    between atoms: CG1_6  and  CD1_8
REMARK                            x       y       z     vdW  Elec       q    Type
REMARK                         _______ _______ _______ _____ _____    ______ ____
ROOT
ATOM      1  CA  ILE A   1       0.560  -0.801  -0.293  0.00  0.00    +0.000 C 
ENDROOT
BRANCH   1   2
ATOM      2  N   ILE A   1       0.628  -1.611   0.926  0.00  0.00    +0.000 NA
ATOM      3  H1  ILE A   1       0.473  -1.033   1.750  0.00  0.00    +0.000 HD
ATOM      4  H2  ILE A   1       1.563  -2.006   1.026  0.00  0.00    +0.000 HD
ENDBRANCH   1   2
BRANCH   1   6
ATOM      5  OXT ILE A   1       2.259   0.478   0.901  0.00  0.00    +0.000 OA
ATOM      6  C   ILE A   1       1.595   0.301  -0.112  0.00  0.00    +0.000 C 
BRANCH   6   7
ATOM      7  O   ILE A   1       1.732   1.071  -1.223  0.00  0.00    +0.000 OA
ATOM      8  H   ILE A   1       2.408   1.771  -1.101  0.00  0.00    +0.000 HD
ENDBRANCH   6   7
ENDBRANCH   1   6
BRANCH   1   9
ATOM      9  CB  ILE A   1      -0.850  -0.197  -0.511  0.00  0.00    +0.000 C 
ATOM     10  CG2 ILE A   1      -1.891  -1.295  -0.779  0.00  0.00    +0.000 C 
BRANCH   9  11
ATOM     11  CG1 ILE A   1      -1.328   0.716   0.642  0.00  0.00    +0.000 C 
ATOM     12  CD1 ILE A   1      -2.705   1.337   0.449  0.00  0.00    +0.000 C 
ENDBRANCH   9  11
ENDBRANCH   1   9
TORSDOF 5
