REMARK  Name = 99288
REMARK  7 active torsions:
REMARK  status: ('A' for Active; 'I' for Inactive)
REMARK    1  A    between atoms: O_1  and  C_9
REMARK    2  A    between atoms: N_3  and  CA_5
REMARK    3  A    between atoms: CB_4  and  CA_5
REMARK    4  A    between atoms: CB_4  and  CG1_6
REMARK    5  A    between atoms: CB_4  and  CG2_7
REMARK    6  A    between atoms: CA_5  and  C_9
REMARK    7  A    between atoms: CG1_6  and  CD1_8
REMARK                            x       y       z     vdW  Elec       q    Type
REMARK                         _______ _______ _______ _____ _____    ______ ____
ROOT
ATOM      1  CA  ILE A   1       0.181   0.022   0.590  0.00  0.00    +0.000 C 
ENDROOT
BRANCH   1   2
ATOM      2  N   ILE A   1       0.221   1.400   1.091  0.00  0.00    +0.000 NA
ATOM      3  H1  ILE A   1       0.584   2.030   0.378  0.00  0.00    +0.000 HD
ATOM      4  H2  ILE A   1       0.862   1.461   1.881  0.00  0.00    +0.000 HD
ENDBRANCH   1   2
BRANCH   1   6
ATOM      5  OXT ILE A   1       2.539   0.494   0.176  0.00  0.00    +0.000 OA
ATOM      6  C   ILE A   1       1.607  -0.300   0.164  0.00  0.00    +0.000 C 
BRANCH   6   7
ATOM      7  O   ILE A   1       1.753  -1.596  -0.217  0.00  0.00    +0.000 OA
ATOM      8  H   ILE A   1       2.676  -1.797  -0.480  0.00  0.00    +0.000 HD
ENDBRANCH   6   7
ENDBRANCH   1   6
BRANCH   1   9
ATOM      9  CB  ILE A   1      -0.795  -0.135  -0.602  0.00  0.00    +0.000 C 
ATOM     10  CG2 ILE A   1      -0.371   0.746  -1.788  0.00  0.00    +0.000 C 
BRANCH   9  11
ATOM     11  CG1 ILE A   1      -2.277   0.135  -0.248  0.00  0.00    +0.000 C 
ATOM     12  CD1 ILE A   1      -2.858  -0.765   0.835  0.00  0.00    +0.000 C 
ENDBRANCH   9  11
ENDBRANCH   1   9
TORSDOF 5
