REMARK  Name = 11862103
REMARK  6 active torsions:
REMARK  status: ('A' for Active; 'I' for Inactive)
REMARK    1  A    between atoms: S_1  and  C_8
REMARK    2  A    between atoms: S_1  and  C_10
REMARK    3  A    between atoms: N_5  and  CA_7
REMARK    4  A    between atoms: C_6  and  CA_7
REMARK    5  A    between atoms: C_6  and  C_8
REMARK    6  A    between atoms: CA_7  and  C_9
REMARK                            x       y       z     vdW  Elec       q    Type
REMARK                         _______ _______ _______ _____ _____    ______ ____
ROOT
ATOM      1  CA  UNL     1       1.486  -0.567  -0.621  0.00  0.00    +0.000 C 
ENDROOT
BRANCH   1   2
ATOM      2  N   UNL     1       1.773  -1.874   0.050  0.00  0.00    +0.000 N 
ATOM      3  H1  UNL     1       2.785  -2.011   0.169  0.00  0.00    +0.000 HD
ATOM      4  H2  UNL     1       1.422  -2.671  -0.498  0.00  0.00    +0.000 HD
ATOM      5  H3  UNL     1       1.349  -1.926   0.986  0.00  0.00    +0.000 HD
ENDBRANCH   1   2
BRANCH   1   8
ATOM      6  O   UNL     1       3.047   0.454   0.855  0.00  0.00    +0.000 OA
ATOM      7  OXT UNL     1       1.432   1.746  -0.108  0.00  0.00    +0.000 OA
ATOM      8  C   UNL     1       2.039   0.661   0.122  0.00  0.00    +0.000 C 
ENDBRANCH   1   8
BRANCH   1   9
ATOM      9  C   UNL     1      -0.016  -0.529  -0.933  0.00  0.00    +0.000 C 
BRANCH   9  10
ATOM     10  C   UNL     1      -0.904  -0.355   0.297  0.00  0.00    +0.000 C 
BRANCH  10  11
ATOM     11  S   UNL     1      -2.662  -0.353  -0.183  0.00  0.00    +0.000 S 
ATOM     12  O   UNL     1      -2.900   0.898  -0.969  0.00  0.00    +0.000 OA
ATOM     13  C   UNL     1      -3.293  -0.082   1.489  0.00  0.00    +0.000 C 
ENDBRANCH  10  11
ENDBRANCH   9  10
ENDBRANCH   1   9
TORSDOF 5
