REMARK  Name = 448124
REMARK  10 active torsions:
REMARK  status: ('A' for Active; 'I' for Inactive)
REMARK    1  A    between atoms: O_2  and  C_13
REMARK    2  A    between atoms: N_4  and  C_10
REMARK    3  A    between atoms: C_5  and  C_6
REMARK    4  A    between atoms: C_5  and  C_7
REMARK    5  A    between atoms: C_6  and  C_8
REMARK    6  A    between atoms: C_7  and  C_9
REMARK    7  A    between atoms: C_8  and  C_11
REMARK    8  A    between atoms: C_9  and  C_10
REMARK    9  A    between atoms: C_10  and  C_12
REMARK   10  A    between atoms: C_11  and  C_13
REMARK                            x       y       z     vdW  Elec       q    Type
REMARK                         _______ _______ _______ _____ _____    ______ ____
ROOT
ATOM      1  C   UNL     1      -0.351   0.219  -0.056  0.00  0.00    +0.000 C 
ENDROOT
BRANCH   1   2
ATOM      2  C   UNL     1       0.890  -0.649   0.158  0.00  0.00    +0.000 C 
BRANCH   2   3
ATOM      3  C   UNL     1       2.174   0.156  -0.059  0.00  0.00    +0.000 C 
BRANCH   3   4
ATOM      4  C   UNL     1       3.434  -0.676   0.180  0.00  0.00    +0.000 C 
BRANCH   4   6
ATOM      5  O   UNL     1       4.785   1.275  -0.369  0.00  0.00    +0.000 OA
ATOM      6  C   UNL     1       4.714   0.100  -0.036  0.00  0.00    +0.000 C 
BRANCH   6   7
ATOM      7  O   UNL     1       5.808  -0.667   0.209  0.00  0.00    +0.000 OA
ATOM      8  H   UNL     1       6.642  -0.167   0.081  0.00  0.00    +0.000 HD
ENDBRANCH   6   7
ENDBRANCH   4   6
ENDBRANCH   3   4
ENDBRANCH   2   3
ENDBRANCH   1   2
BRANCH   1   9
ATOM      9  C   UNL     1      -1.633  -0.570   0.205  0.00  0.00    +0.000 C 
BRANCH   9  11
ATOM     10  O   UNL     1      -2.830   1.467  -0.281  0.00  0.00    +0.000 OA
ATOM     11  C   UNL     1      -2.886   0.279   0.037  0.00  0.00    +0.000 C 
BRANCH  11  12
ATOM     12  C   UNL     1      -4.213  -0.442   0.252  0.00  0.00    +0.000 C 
ATOM     13  C   UNL     1      -4.732  -1.004  -1.064  0.00  0.00    +0.000 C 
BRANCH  12  14
ATOM     14  N   UNL     1      -5.159   0.513   0.824  0.00  0.00    +0.000 NA
ATOM     15  H   UNL     1      -4.834   0.807   1.744  0.00  0.00    +0.000 HD
ATOM     16  H   UNL     1      -6.058   0.056   0.974  0.00  0.00    +0.000 HD
ENDBRANCH  12  14
ENDBRANCH  11  12
ENDBRANCH   9  11
ENDBRANCH   1   9
TORSDOF 9
