REMARK  Name = 445032
REMARK  6 active torsions:
REMARK  status: ('A' for Active; 'I' for Inactive)
REMARK    1  A    between atoms: N_2  and  C_10
REMARK    2  A    between atoms: N_3  and  C_9
REMARK    3  A    between atoms: C_7  and  C_8
REMARK    4  A    between atoms: C_7  and  C_9
REMARK    5  A    between atoms: C_8  and  C_10
REMARK    6  A    between atoms: C_9  and  C_11
REMARK                            x       y       z     vdW  Elec       q    Type
REMARK                         _______ _______ _______ _____ _____    ______ ____
ROOT
ATOM      1  C   UNL     1      -0.104  -0.719  -0.460  0.00  0.00    +0.000 C 
ENDROOT
BRANCH   1   2
ATOM      2  C   UNL     1      -0.704   0.530   0.201  0.00  0.00    +0.000 C 
BRANCH   2   3
ATOM      3  C   UNL     1      -2.135   0.804  -0.282  0.00  0.00    +0.000 C 
BRANCH   3   6
ATOM      4  O   UNL     1      -3.272  -0.777   1.167  0.00  0.00    +0.000 OA
ATOM      5  N   UNL     1      -3.679  -0.877  -1.092  0.00  0.00    +0.000 N 
ATOM      6  C   UNL     1      -3.081  -0.347   0.032  0.00  0.00    +0.000 C 
ATOM      7  H   UNL     1      -4.326  -1.655  -1.017  0.00  0.00    +0.000 HD
ATOM      8  H   UNL     1      -3.506  -0.520  -2.026  0.00  0.00    +0.000 HD
ENDBRANCH   3   6
BRANCH   3   9
ATOM      9  N   UNL     1      -2.671   1.966   0.429  0.00  0.00    +0.000 NA
ATOM     10  H   UNL     1      -2.699   1.784   1.432  0.00  0.00    +0.000 HD
ATOM     11  H   UNL     1      -3.631   2.142   0.136  0.00  0.00    +0.000 HD
ENDBRANCH   3   9
ENDBRANCH   2   3
ENDBRANCH   1   2
BRANCH   1  12
ATOM     12  C   UNL     1       1.325  -0.984   0.003  0.00  0.00    +0.000 C 
BRANCH  12  13
ATOM     13  N   UNL     1       2.222   0.119  -0.333  0.00  0.00    +0.000 N 
ATOM     14  N   UNL     1       4.418   1.166  -0.332  0.00  0.00    +0.000 N 
ATOM     15  N   UNL     1       4.104  -0.991   0.670  0.00  0.00    +0.000 N 
ATOM     16  C   UNL     1       3.578   0.107  -0.003  0.00  0.00    +0.000 C 
ATOM     17  H   UNL     1       1.874   0.928  -0.845  0.00  0.00    +0.000 HD
ATOM     18  H   UNL     1       4.065   1.984  -0.823  0.00  0.00    +0.000 HD
ATOM     19  H   UNL     1       5.406   1.151  -0.088  0.00  0.00    +0.000 HD
ATOM     20  H   UNL     1       3.536  -1.792   0.933  0.00  0.00    +0.000 HD
ATOM     21  H   UNL     1       5.089  -1.023   0.921  0.00  0.00    +0.000 HD
ENDBRANCH  12  13
ENDBRANCH   1  12
TORSDOF 6
