REMARK  Name = 448254
REMARK  9 active torsions:
REMARK  status: ('A' for Active; 'I' for Inactive)
REMARK    1  A    between atoms: S_1  and  N_8
REMARK    2  A    between atoms: S_1  and  C_9
REMARK    3  A    between atoms: S_2  and  C_10
REMARK    4  A    between atoms: S_2  and  C_11
REMARK    5  A    between atoms: O_5  and  C_13
REMARK    6  A    between atoms: N_7  and  C_12
REMARK    7  A    between atoms: C_9  and  C_10
REMARK    8  A    between atoms: C_11  and  C_12
REMARK    9  A    between atoms: C_12  and  C_13
REMARK                            x       y       z     vdW  Elec       q    Type
REMARK                         _______ _______ _______ _____ _____    ______ ____
ROOT
ATOM      1  S   UNK     1       0.455  -0.307   0.731  0.00  0.00    +0.000 S 
ENDROOT
BRANCH   1   2
ATOM      2  C   UNK     1      -1.102   0.336   0.079  0.00  0.00    +0.000 C 
BRANCH   2   3
ATOM      3  C   UNK     1      -2.252  -0.583   0.448  0.00  0.00    +0.000 C 
BRANCH   3   4
ATOM      4  S   UNK     1      -3.787   0.053  -0.152  0.00  0.00    +0.000 S 
ATOM      5  O   UNK     1      -4.074   1.287   0.559  0.00  0.00    +0.000 OA
ATOM      6  O   UNK     1      -3.755   0.019  -1.603  0.00  0.00    +0.000 OA
BRANCH   4   7
ATOM      7  N   UNK     1      -4.843  -1.163   0.405  0.00  0.00    +0.000 NA
ATOM      8  H   UNK     1      -4.804  -2.080  -0.057  0.00  0.00    +0.000 HD
ATOM      9  H   UNK     1      -5.022  -1.216   1.416  0.00  0.00    +0.000 HD
ENDBRANCH   4   7
ENDBRANCH   3   4
ENDBRANCH   2   3
ENDBRANCH   1   2
BRANCH   1  10
ATOM     10  C   UNK     1       1.563   0.980   0.073  0.00  0.00    +0.000 C 
BRANCH  10  11
ATOM     11  C   UNK     1       3.030   0.693   0.397  0.00  0.00    +0.000 C 
BRANCH  11  12
ATOM     12  N   UNK     1       3.883   1.739  -0.172  0.00  0.00    +0.000 NA
ATOM     13  H   UNK     1       4.845   1.599   0.134  0.00  0.00    +0.000 HD
ATOM     14  H   UNK     1       3.598   2.647   0.192  0.00  0.00    +0.000 HD
ENDBRANCH  11  12
BRANCH  11  16
ATOM     15  O   UNK     1       3.436  -0.917  -1.362  0.00  0.00    +0.000 OA
ATOM     16  C   UNK     1       3.495  -0.635  -0.171  0.00  0.00    +0.000 C 
BRANCH  16  17
ATOM     17  O   UNK     1       3.952  -1.501   0.768  0.00  0.00    +0.000 OA
ATOM     18  H   UNK     1       4.230  -2.356   0.374  0.00  0.00    +0.000 HD
ENDBRANCH  16  17
ENDBRANCH  11  16
ENDBRANCH  10  11
ENDBRANCH   1  10
TORSDOF 9
