REMARK  Name = 445858
REMARK  6 active torsions:
REMARK  status: ('A' for Active; 'I' for Inactive)
REMARK    1  A    between atoms: O_1  and  C_6
REMARK    2  A    between atoms: O_1  and  C_13
REMARK    3  A    between atoms: O_2  and  C_9
REMARK    4  A    between atoms: O_3  and  C_14
REMARK    5  A    between atoms: C_5  and  C_11
REMARK    6  A    between atoms: C_12  and  C_14
REMARK                            x       y       z     vdW  Elec       q    Type
REMARK                         _______ _______ _______ _____ _____    ______ ____
ROOT
ATOM      1  C   UNL     1       0.165  -0.690  -0.053  0.00  0.00    +0.000 A 
ATOM      2  C   UNL     1      -1.925   0.501  -0.275  0.00  0.00    +0.000 A 
ATOM      3  C   UNL     1      -0.530   0.494  -0.299  0.00  0.00    +0.000 A 
ATOM      4  C   UNL     1      -0.533  -1.866   0.217  0.00  0.00    +0.000 A 
ATOM      5  C   UNL     1      -2.624  -0.676  -0.005  0.00  0.00    +0.000 A 
ATOM      6  C   UNL     1      -1.928  -1.859   0.241  0.00  0.00    +0.000 A 
ENDROOT
BRANCH   2   7
ATOM      7  O   UNL     1      -2.594   1.663  -0.518  0.00  0.00    +0.000 OA
ATOM      8  C   UNL     1      -2.890   2.487   0.608  0.00  0.00    +0.000 C 
ENDBRANCH   2   7
BRANCH   5   9
ATOM      9  O   UNL     1      -3.986  -0.682   0.020  0.00  0.00    +0.000 OA
ATOM     10  H   UNL     1      -4.295  -1.582   0.223  0.00  0.00    +0.000 HD
ENDBRANCH   5   9
BRANCH   1  11
ATOM     11  C   UNL     1       1.619  -0.697  -0.077  0.00  0.00    +0.000 C 
ATOM     12  C   UNL     1       2.409   0.392   0.056  0.00  0.00    +0.000 C 
BRANCH  12  14
ATOM     13  O   UNL     1       4.503  -0.787  -0.127  0.00  0.00    +0.000 OA
ATOM     14  C   UNL     1       3.878   0.250   0.024  0.00  0.00    +0.000 C 
BRANCH  14  15
ATOM     15  O   UNL     1       4.436   1.472   0.190  0.00  0.00    +0.000 OA
ATOM     16  H   UNL     1       5.416   1.433   0.176  0.00  0.00    +0.000 HD
ENDBRANCH  14  15
ENDBRANCH  12  14
ENDBRANCH   1  11
TORSDOF 5
