REMARK  Name = 46936619
REMARK  9 active torsions:
REMARK  status: ('A' for Active; 'I' for Inactive)
REMARK    1  A    between atoms: O_1  and  C_12
REMARK    2  A    between atoms: N_4  and  C_8
REMARK    3  A    between atoms: N_5  and  CA_9
REMARK    4  A    between atoms: N_6  and  C_13
REMARK    5  A    between atoms: C_7  and  C_8
REMARK    6  A    between atoms: C_7  and  CA_9
REMARK    7  A    between atoms: CA_9  and  C_12
REMARK    8  A    between atoms: C_10  and  C_11
REMARK    9  A    between atoms: C_10  and  C_13
REMARK                            x       y       z     vdW  Elec       q    Type
REMARK                         _______ _______ _______ _____ _____    ______ ____
ROOT
ATOM      1  C   UNL     1       0.399  -0.739  -1.012  0.00  0.00    +0.000 C 
ENDROOT
BRANCH   1   3
ATOM      2  O   UNL     1      -1.498   1.183  -0.055  0.00  0.00    +0.000 OA
ATOM      3  N   UNL     1      -0.995  -0.974  -0.748  0.00  0.00    +0.000 N 
ATOM      4  C   UNL     1      -1.841   0.026  -0.283  0.00  0.00    +0.000 C 
ATOM      5  H   UNL     1      -1.362  -1.909  -0.901  0.00  0.00    +0.000 HD
BRANCH   4   6
ATOM      6  C   UNL     1      -3.259  -0.479  -0.086  0.00  0.00    +0.000 C 
BRANCH   6   7
ATOM      7  C   UNL     1      -4.196   0.611   0.424  0.00  0.00    +0.000 C 
BRANCH   7   8
ATOM      8  N   UNL     1      -5.540   0.077   0.612  0.00  0.00    +0.000 NA
ATOM      9  H   UNL     1      -5.900  -0.265  -0.278  0.00  0.00    +0.000 HD
ATOM     10  H   UNL     1      -6.164   0.829   0.903  0.00  0.00    +0.000 HD
ENDBRANCH   7   8
ENDBRANCH   6   7
ENDBRANCH   4   6
ENDBRANCH   1   3
BRANCH   1  11
ATOM     11  C   UNL     1       1.256  -1.004   0.224  0.00  0.00    +0.000 C 
BRANCH  11  12
ATOM     12  CA  UNL     1       2.746  -0.745  -0.019  0.00  0.00    +0.000 C 
BRANCH  12  13
ATOM     13  N   UNL     1       3.533  -1.383   1.039  0.00  0.00    +0.000 NA
ATOM     14  H1  UNL     1       4.527  -1.272   0.839  0.00  0.00    +0.000 HD
ATOM     15  H2  UNL     1       3.357  -2.387   1.039  0.00  0.00    +0.000 HD
ENDBRANCH  12  13
BRANCH  12  17
ATOM     16  OXT UNL     1       3.322   1.365   1.057  0.00  0.00    +0.000 OA
ATOM     17  C   UNL     1       3.064   0.738   0.036  0.00  0.00    +0.000 C 
BRANCH  17  18
ATOM     18  O   UNL     1       3.007   1.323  -1.189  0.00  0.00    +0.000 OA
ATOM     19  H   UNL     1       3.200   2.284  -1.144  0.00  0.00    +0.000 HD
ENDBRANCH  17  18
ENDBRANCH  12  17
ENDBRANCH  11  12
ENDBRANCH   1  11
TORSDOF 9
