REMARK  Name = 
REMARK  8 active torsions:
REMARK  status: ('A' for Active; 'I' for Inactive)
REMARK    1  A    between atoms: N_1  and  C_2
REMARK    2  A    between atoms: C_2  and  C_3
REMARK    3  A    between atoms: C_2  and  C_9
REMARK    4  A    between atoms: C_3  and  S_4
REMARK    5  A    between atoms: S_4  and  AS_5
REMARK    6  A    between atoms: AS_5  and  O_6
REMARK    7  A    between atoms: AS_5  and  O_7
REMARK    8  A    between atoms: C_9  and  O_10
REMARK                            x       y       z     vdW  Elec       q    Type
REMARK                         _______ _______ _______ _____ _____    ______ ____
ROOT
ATOM      1  C   UNK     1       4.618   1.841   0.000  0.00  0.00    +0.000 C 
ENDROOT
BRANCH   1   2
ATOM      2  N   UNK     1       4.618   2.666   0.000  0.00  0.00    +0.000 NA
ATOM      3  H   UNK     1       5.502   3.176   0.000  0.00  0.00    +0.000 HD
ATOM      4  H   UNK     1       3.735   3.176   0.000  0.00  0.00    +0.000 HD
ENDBRANCH   1   2
BRANCH   1   5
ATOM      5  C   UNK     1       5.333   1.429   0.000  0.00  0.00    +0.000 C 
ATOM      6  O   UNK     1       5.333   0.604   0.000  0.00  0.00    +0.000 OA
BRANCH   5   7
ATOM      7  O   UNK     1       6.047   1.841   0.000  0.00  0.00    +0.000 OA
ATOM      8  H   UNK     1       6.859   1.373   0.000  0.00  0.00    +0.000 HD
ENDBRANCH   5   7
ENDBRANCH   1   5
BRANCH   1   9
ATOM      9  C   UNK     1       3.904   1.429   0.000  0.00  0.00    +0.000 C 
BRANCH   9  10
ATOM     10  S   UNK     1       3.189   1.841   0.000  0.00  0.00    +0.000 S 
BRANCH  10  11
ATOM     11 AS   UNK     1       2.475   1.429   0.000  0.00  0.00    +0.000 As
ATOM     12  O   UNK     1       2.062   2.143   0.000  0.00  0.00    +0.000 OA
BRANCH  11  13
ATOM     13  O   UNK     1       1.760   1.016   0.000  0.00  0.00    +0.000 OA
ATOM     14  H   UNK     1       0.920   1.501   0.000  0.00  0.00    +0.000 HD
ENDBRANCH  11  13
BRANCH  11  15
ATOM     15  O   UNK     1       2.888   0.715   0.000  0.00  0.00    +0.000 OA
ATOM     16  H   UNK     1       2.403  -0.126   0.000  0.00  0.00    +0.000 HD
ENDBRANCH  11  15
ENDBRANCH  10  11
ENDBRANCH   9  10
ENDBRANCH   1   9
TORSDOF 8
