REMARK  Name = 193344
REMARK  10 active torsions:
REMARK  status: ('A' for Active; 'I' for Inactive)
REMARK    1  A    between atoms: O_1  and  C_12
REMARK    2  A    between atoms: N_3  and  C_8
REMARK    3  A    between atoms: N_3  and  C_10
REMARK    4  A    between atoms: N_3  and  C_11
REMARK    5  A    between atoms: N_4  and  C_9
REMARK    6  A    between atoms: C_5  and  C_6
REMARK    7  A    between atoms: C_5  and  C_7
REMARK    8  A    between atoms: C_6  and  C_8
REMARK    9  A    between atoms: C_7  and  C_9
REMARK   10  A    between atoms: C_9  and  C_12
REMARK                            x       y       z     vdW  Elec       q    Type
REMARK                         _______ _______ _______ _____ _____    ______ ____
ROOT
ATOM      1  C   UNK     1       2.400  -0.545  -0.427  0.00  0.00    +0.000 C 
ENDROOT
BRANCH   1   2
ATOM      2  N   UNK     1       3.633  -1.141   0.095  0.00  0.00    +0.000 NA
ATOM      3  H   UNK     1       4.437  -0.726  -0.376  0.00  0.00    +0.000 HD
ATOM      4  H   UNK     1       3.655  -2.134  -0.132  0.00  0.00    +0.000 HD
ENDBRANCH   1   2
BRANCH   1   6
ATOM      5  O   UNK     1       2.915   1.392   0.959  0.00  0.00    +0.000 OA
ATOM      6  C   UNK     1       2.420   0.928  -0.061  0.00  0.00    +0.000 C 
BRANCH   6   7
ATOM      7  O   UNK     1       1.796   1.698  -0.989  0.00  0.00    +0.000 OA
ATOM      8  H   UNK     1       1.800   2.647  -0.740  0.00  0.00    +0.000 HD
ENDBRANCH   6   7
ENDBRANCH   1   6
BRANCH   1   9
ATOM      9  C   UNK     1       1.191  -1.260   0.191  0.00  0.00    +0.000 C 
BRANCH   9  10
ATOM     10  C   UNK     1      -0.145  -0.702  -0.310  0.00  0.00    +0.000 C 
BRANCH  10  11
ATOM     11  C   UNK     1      -1.378  -1.424   0.251  0.00  0.00    +0.000 C 
BRANCH  11  12
ATOM     12  C   UNK     1      -2.711  -0.965  -0.336  0.00  0.00    +0.000 C 
BRANCH  12  13
ATOM     13  N   UNK     1      -2.946   0.432  -0.070  0.00  0.00    +0.000 NA
ATOM     14  C   UNK     1      -2.971   0.701   1.375  0.00  0.00    +0.000 C 
ATOM     15  C   UNK     1      -4.204   0.885  -0.678  0.00  0.00    +0.000 C 
ENDBRANCH  12  13
ENDBRANCH  11  12
ENDBRANCH  10  11
ENDBRANCH   9  10
ENDBRANCH   1   9
TORSDOF 8
