REMARK  Name = 6971091
REMARK  6 active torsions:
REMARK  status: ('A' for Active; 'I' for Inactive)
REMARK    1  A    between atoms: N_5  and  CA_7
REMARK    2  A    between atoms: C_6  and  CA_7
REMARK    3  A    between atoms: C_6  and  C_8
REMARK    4  A    between atoms: CA_7  and  C_10
REMARK    5  A    between atoms: C_8  and  C_9
REMARK    6  A    between atoms: C_8  and  C_11
REMARK                            x       y       z     vdW  Elec       q    Type
REMARK                         _______ _______ _______ _____ _____    ______ ____
ROOT
ATOM      1  CA  UNL     1      -0.998   0.322   0.323  0.00  0.00    +0.000 C 
ENDROOT
BRANCH   1   2
ATOM      2  N   UNL     1      -0.985   0.358   1.814  0.00  0.00    +0.000 N 
ATOM      3  H1  UNL     1      -0.057   0.601   2.186  0.00  0.00    +0.000 HD
ATOM      4  H2  UNL     1      -1.260  -0.546   2.220  0.00  0.00    +0.000 HD
ATOM      5  H3  UNL     1      -1.643   1.065   2.169  0.00  0.00    +0.000 HD
ENDBRANCH   1   2
BRANCH   1   8
ATOM      6  O   UNL     1      -2.956  -0.984   0.022  0.00  0.00    +0.000 OA
ATOM      7  OXT UNL     1      -2.806   1.053  -1.006  0.00  0.00    +0.000 OA
ATOM      8  C   UNL     1      -2.391   0.106  -0.279  0.00  0.00    +0.000 C 
ENDBRANCH   1   8
BRANCH   1   9
ATOM      9  C   UNL     1      -0.107  -0.833  -0.160  0.00  0.00    +0.000 C 
BRANCH   9  10
ATOM     10  C   UNL     1       1.356  -0.740   0.293  0.00  0.00    +0.000 C 
ATOM     11  C   UNL     1       2.178  -1.869  -0.328  0.00  0.00    +0.000 C 
BRANCH  10  14
ATOM     12  O   UNL     1       2.079   0.806  -1.371  0.00  0.00    +0.000 OA
ATOM     13  O   UNL     1       2.560   1.223   0.823  0.00  0.00    +0.000 OA
ATOM     14  C   UNL     1       2.069   0.557  -0.133  0.00  0.00    +0.000 C 
ENDBRANCH  10  14
ENDBRANCH   9  10
ENDBRANCH   1   9
TORSDOF 5
