REMARK  Name = 146719
REMARK  5 active torsions:
REMARK  status: ('A' for Active; 'I' for Inactive)
REMARK    1  A    between atoms: O_2  and  C_9
REMARK    2  A    between atoms: N_4  and  CA_6
REMARK    3  A    between atoms: C_5  and  CA_6
REMARK    4  A    between atoms: C_5  and  C_7
REMARK    5  A    between atoms: CA_6  and  C_9
REMARK                            x       y       z     vdW  Elec       q    Type
REMARK                         _______ _______ _______ _____ _____    ______ ____
ROOT
ATOM      1  CA  UNL     1      -1.550   0.662  -0.404  0.00  0.00    +0.000 C 
ENDROOT
BRANCH   1   2
ATOM      2  N   UNL     1      -2.812   1.342  -0.104  0.00  0.00    +0.000 NA
ATOM      3  H1  UNL     1      -3.046   1.232   0.882  0.00  0.00    +0.000 HD
ATOM      4  H2  UNL     1      -3.571   0.915  -0.634  0.00  0.00    +0.000 HD
ENDBRANCH   1   2
BRANCH   1   6
ATOM      5  OXT UNL     1      -2.462  -1.248   0.816  0.00  0.00    +0.000 OA
ATOM      6  C   UNL     1      -1.756  -0.804  -0.078  0.00  0.00    +0.000 C 
BRANCH   6   7
ATOM      7  O   UNL     1      -1.061  -1.587  -0.942  0.00  0.00    +0.000 OA
ATOM      8  H   UNL     1      -1.188  -2.541  -0.754  0.00  0.00    +0.000 HD
ENDBRANCH   6   7
ENDBRANCH   1   6
BRANCH   1   9
ATOM      9  C   UNL     1      -0.425   1.269   0.445  0.00  0.00    +0.000 C 
BRANCH   9  11
ATOM     10  S   UNL     1       1.735  -0.099   1.482  0.00  0.00    +0.000 S 
ATOM     11  C   UNL     1       0.916   0.622   0.183  0.00  0.00    +0.000 A 
ATOM     12  C   UNL     1       1.575   0.539  -1.001  0.00  0.00    +0.000 A 
ATOM     13  C   UNL     1       2.814  -0.147  -0.848  0.00  0.00    +0.000 A 
ATOM     14  C   UNL     1       3.026  -0.549   0.452  0.00  0.00    +0.000 A 
ENDBRANCH   9  11
ENDBRANCH   1   9
TORSDOF 5
