REMARK  Name = 5289554
REMARK  10 active torsions:
REMARK  status: ('A' for Active; 'I' for Inactive)
REMARK    1  A    between atoms: O_1  and  C_13
REMARK    2  A    between atoms: N_3  and  C_8
REMARK    3  A    between atoms: N_4  and  CA_9
REMARK    4  A    between atoms: C_6  and  C_7
REMARK    5  A    between atoms: C_6  and  C_8
REMARK    6  A    between atoms: C_7  and  CA_9
REMARK    7  A    between atoms: CA_9  and  C_13
REMARK    8  A    between atoms: C_10  and  C_11
REMARK    9  A    between atoms: C_10  and  C_12
REMARK   10  A    between atoms: C_12  and  C_14
REMARK                            x       y       z     vdW  Elec       q    Type
REMARK                         _______ _______ _______ _____ _____    ______ ____
ROOT
ATOM      1  C   UNL     1       0.778  -0.084  -0.289  0.00  0.00    +0.000 C 
ENDROOT
BRANCH   1   2
ATOM      2  C   UNL     1       1.649   1.122   0.098  0.00  0.00    +0.000 C 
BRANCH   2   3
ATOM      3  CA  UNL     1       3.142   0.978  -0.238  0.00  0.00    +0.000 C 
BRANCH   3   4
ATOM      4  N   UNL     1       3.372   0.898  -1.680  0.00  0.00    +0.000 NA
ATOM      5  H1  UNL     1       2.956   0.048  -2.057  0.00  0.00    +0.000 HD
ATOM      6  H2  UNL     1       4.372   0.836  -1.867  0.00  0.00    +0.000 HD
ENDBRANCH   3   4
BRANCH   3   8
ATOM      7  OXT UNL     1       4.287  -1.177  -0.170  0.00  0.00    +0.000 OA
ATOM      8  C   UNL     1       3.762  -0.242   0.421  0.00  0.00    +0.000 C 
BRANCH   8   9
ATOM      9  O   UNL     1       3.670  -0.191   1.776  0.00  0.00    +0.000 OA
ATOM     10  H   UNL     1       4.069  -0.981   2.199  0.00  0.00    +0.000 HD
ENDBRANCH   8   9
ENDBRANCH   3   8
ENDBRANCH   2   3
ENDBRANCH   1   2
BRANCH   1  11
ATOM     11  C   UNL     1      -0.677   0.104   0.122  0.00  0.00    +0.000 C 
BRANCH  11  12
ATOM     12  N   UNL     1      -1.459  -1.058  -0.300  0.00  0.00    +0.000 N 
ATOM     13  N   UNL     1      -3.540  -2.195  -0.418  0.00  0.00    +0.000 N 
ATOM     14  C   UNL     1      -2.767  -1.173  -0.069  0.00  0.00    +0.000 C 
ATOM     15  H   UNL     1      -1.019  -1.830  -0.792  0.00  0.00    +0.000 HD
ATOM     16  H   UNL     1      -3.146  -2.989  -0.910  0.00  0.00    +0.000 HD
ATOM     17  H   UNL     1      -4.531  -2.202  -0.204  0.00  0.00    +0.000 HD
BRANCH  14  18
ATOM     18  C   UNL     1      -3.428  -0.054   0.650  0.00  0.00    +0.000 C 
BRANCH  18  19
ATOM     19  C   UNL     1      -4.029   0.972  -0.310  0.00  0.00    +0.000 C 
ATOM     20  C   UNL     1      -4.761   2.097   0.408  0.00  0.00    +0.000 C 
ENDBRANCH  18  19
ENDBRANCH  14  18
ENDBRANCH  11  12
ENDBRANCH   1  11
TORSDOF 9
