REMARK  Name = 17753922
REMARK  8 active torsions:
REMARK  status: ('A' for Active; 'I' for Inactive)
REMARK    1  A    between atoms: S_1  and  C_7
REMARK    2  A    between atoms: S_1  and  C_8
REMARK    3  A    between atoms: O_2  and  C_9
REMARK    4  A    between atoms: N_5  and  C_6
REMARK    5  A    between atoms: C_6  and  C_7
REMARK    6  A    between atoms: C_6  and  C_9
REMARK    7  A    between atoms: C_8  and  C_10
REMARK    8  A    between atoms: C_10  and  C_11
REMARK                            x       y       z     vdW  Elec       q    Type
REMARK                         _______ _______ _______ _____ _____    ______ ____
ROOT
ATOM      1  C   UNK     1      -1.608   0.641  -0.236  0.00  0.00    +0.000 C 
ENDROOT
BRANCH   1   2
ATOM      2  N   UNK     1      -2.428   1.848  -0.363  0.00  0.00    +0.000 NA
ATOM      3  H   UNK     1      -2.907   1.843  -1.264  0.00  0.00    +0.000 HD
ATOM      4  H   UNK     1      -1.827   2.671  -0.368  0.00  0.00    +0.000 HD
ENDBRANCH   1   2
BRANCH   1   6
ATOM      5  O   UNK     1      -3.677  -0.535   0.197  0.00  0.00    +0.000 OA
ATOM      6  C   UNK     1      -2.544  -0.553  -0.271  0.00  0.00    +0.000 C 
BRANCH   6   7
ATOM      7  O   UNK     1      -1.999  -1.659  -0.838  0.00  0.00    +0.000 OA
ATOM      8  H   UNK     1      -2.621  -2.417  -0.831  0.00  0.00    +0.000 HD
ENDBRANCH   6   7
ENDBRANCH   1   6
BRANCH   1   9
ATOM      9  C   UNK     1      -0.790   0.699   1.055  0.00  0.00    +0.000 C 
BRANCH   9  10
ATOM     10  S   UNK     1       0.623  -0.450   1.017  0.00  0.00    +0.000 S 
BRANCH  10  11
ATOM     11  C   UNK     1       1.780   0.597   0.107  0.00  0.00    +0.000 C 
BRANCH  11  13
ATOM     12  O   UNK     1       3.377  -1.222   0.287  0.00  0.00    +0.000 OA
ATOM     13  C   UNK     1       3.116  -0.086  -0.106  0.00  0.00    +0.000 C 
ATOM     14  C   UNK     1       4.150   0.721  -0.851  0.00  0.00    +0.000 C 
ENDBRANCH  11  13
ENDBRANCH  10  11
ENDBRANCH   9  10
ENDBRANCH   1   9
TORSDOF 7
