REMARK  Name = 449171
REMARK  11 active torsions:
REMARK  status: ('A' for Active; 'I' for Inactive)
REMARK    1  A    between atoms: O_1  and  C_22
REMARK    2  A    between atoms: C_3  and  C_9
REMARK    3  A    between atoms: C_3  and  C_10
REMARK    4  A    between atoms: C_6  and  C_11
REMARK    5  A    between atoms: C_8  and  C_12
REMARK    6  A    between atoms: C_13  and  C_14
REMARK    7  A    between atoms: C_14  and  C_15
REMARK    8  A    between atoms: C_16  and  C_17
REMARK    9  A    between atoms: C_18  and  C_19
REMARK   10  A    between atoms: C_19  and  C_20
REMARK   11  A    between atoms: C_21  and  C_22
REMARK                            x       y       z     vdW  Elec       q    Type
REMARK                         _______ _______ _______ _____ _____    ______ ____
ROOT
ATOM      1  C   UNL     1       0.208   2.219   0.329  0.00  0.00    +0.000 C 
ATOM      2  C   UNL     1       0.836   3.584   0.491  0.00  0.00    +0.000 C 
ATOM      3  C   UNL     1      -1.139   2.134   0.268  0.00  0.00    +0.000 C 
ENDROOT
BRANCH   1   5
ATOM      4  C   UNL     1       2.450   1.105   0.303  0.00  0.00    +0.000 C 
ATOM      5  C   UNL     1       1.109   1.069   0.247  0.00  0.00    +0.000 C 
BRANCH   4   9
ATOM      6  C   UNL     1       4.561   0.058  -0.645  0.00  0.00    +0.000 C 
ATOM      7  C   UNL     1       5.520  -1.148  -0.446  0.00  0.00    +0.000 C 
ATOM      8  C   UNL     1       4.784  -2.476  -0.458  0.00  0.00    +0.000 C 
ATOM      9  C   UNL     1       3.282  -0.084   0.214  0.00  0.00    +0.000 C 
ATOM     10  C   UNL     1       3.761  -2.516   0.667  0.00  0.00    +0.000 C 
ATOM     11  C   UNL     1       2.946  -1.248   0.824  0.00  0.00    +0.000 C 
ATOM     12  C   UNL     1       4.172   0.149  -2.139  0.00  0.00    +0.000 C 
ATOM     13  C   UNL     1       5.378   1.319  -0.271  0.00  0.00    +0.000 C 
ATOM     14  C   UNL     1       1.748  -1.460   1.722  0.00  0.00    +0.000 C 
ENDBRANCH   4   9
ENDBRANCH   1   5
BRANCH   3  15
ATOM     15  C   UNL     1      -1.964   0.948   0.118  0.00  0.00    +0.000 C 
ATOM     16  C   UNL     1      -3.307   1.003   0.071  0.00  0.00    +0.000 C 
BRANCH  16  17
ATOM     17  C   UNL     1      -4.230  -0.129  -0.071  0.00  0.00    +0.000 C 
ATOM     18  C   UNL     1      -3.622  -1.502  -0.202  0.00  0.00    +0.000 C 
ATOM     19  C   UNL     1      -5.552   0.135  -0.098  0.00  0.00    +0.000 C 
BRANCH  19  21
ATOM     20  O   UNL     1      -6.610  -2.028   0.128  0.00  0.00    +0.000 OA
ATOM     21  C   UNL     1      -6.633  -0.866  -0.234  0.00  0.00    +0.000 C 
BRANCH  21  22
ATOM     22  O   UNL     1      -7.697  -0.266  -0.821  0.00  0.00    +0.000 OA
ATOM     23  H   UNL     1      -8.453  -0.882  -0.929  0.00  0.00    +0.000 HD
ENDBRANCH  21  22
ENDBRANCH  19  21
ENDBRANCH  16  17
ENDBRANCH   3  15
TORSDOF 6
