REMARK  Name = 3083542
REMARK  14 active torsions:
REMARK  status: ('A' for Active; 'I' for Inactive)
REMARK    1  A    between atoms: O_2  and  C_17
REMARK    2  A    between atoms: O_3  and  C_24
REMARK    3  A    between atoms: C_7  and  C_12
REMARK    4  A    between atoms: C_7  and  C_13
REMARK    5  A    between atoms: C_14  and  C_24
REMARK    6  A    between atoms: C_16  and  C_18
REMARK    7  A    between atoms: C_16  and  C_21
REMARK    8  A    between atoms: C_16  and  C_22
REMARK    9  A    between atoms: C_16  and  C_23
REMARK   10  A    between atoms: C_21  and  C_25
REMARK   11  A    between atoms: C_25  and  C_26
REMARK   12  A    between atoms: C_26  and  C_27
REMARK   13  A    between atoms: C_27  and  C_28
REMARK   14  A    between atoms: C_28  and  C_29
REMARK                            x       y       z     vdW  Elec       q    Type
REMARK                         _______ _______ _______ _____ _____    ______ ____
ROOT
ATOM      1  O   UNL     1      -0.745  -1.776   1.709  0.00  0.00    +0.000 OA
ATOM      2  C   UNL     1      -2.849  -1.321   0.530  0.00  0.00    +0.000 C 
ATOM      3  C   UNL     1      -2.181  -0.260  -0.371  0.00  0.00    +0.000 C 
ATOM      4  C   UNL     1      -1.824  -2.395   0.977  0.00  0.00    +0.000 C 
ATOM      5  C   UNL     1      -4.114  -1.880  -0.154  0.00  0.00    +0.000 C 
ATOM      6  C   UNL     1      -0.851   0.162   0.215  0.00  0.00    +0.000 A 
ATOM      7  C   UNL     1      -3.165   0.913  -0.598  0.00  0.00    +0.000 C 
ATOM      8  C   UNL     1      -0.228  -0.614   1.203  0.00  0.00    +0.000 A 
ATOM      9  C   UNL     1      -2.467  -3.368   1.980  0.00  0.00    +0.000 C 
ATOM     10  C   UNL     1      -1.218  -3.224  -0.169  0.00  0.00    +0.000 C 
ATOM     11  C   UNL     1      -4.556   0.452  -0.917  0.00  0.00    +0.000 C 
ATOM     12  C   UNL     1      -4.985  -0.805  -0.740  0.00  0.00    +0.000 C 
ATOM     13  C   UNL     1      -0.183   1.308  -0.247  0.00  0.00    +0.000 A 
ATOM     14  C   UNL     1       1.631   0.935   1.301  0.00  0.00    +0.000 A 
ATOM     15  C   UNL     1       0.997  -0.219   1.754  0.00  0.00    +0.000 A 
ATOM     16  C   UNL     1       1.044   1.695   0.295  0.00  0.00    +0.000 A 
ENDROOT
BRANCH  14  17
ATOM     17  C   UNL     1       2.940   1.346   1.883  0.00  0.00    +0.000 C 
ATOM     18  C   UNL     1       2.801   2.740   2.582  0.00  0.00    +0.000 C 
ATOM     19  C   UNL     1       3.509   0.402   2.999  0.00  0.00    +0.000 C 
BRANCH  17  20
ATOM     20  C   UNL     1       4.075   1.507   0.793  0.00  0.00    +0.000 C 
BRANCH  20  21
ATOM     21  C   UNL     1       4.412   0.213   0.037  0.00  0.00    +0.000 C 
BRANCH  21  22
ATOM     22  C   UNL     1       5.547   0.387  -0.980  0.00  0.00    +0.000 C 
BRANCH  22  23
ATOM     23  C   UNL     1       5.872  -0.893  -1.755  0.00  0.00    +0.000 C 
BRANCH  23  24
ATOM     24  C   UNL     1       7.003  -0.660  -2.757  0.00  0.00    +0.000 C 
ATOM     25  C   UNL     1       7.309  -1.919  -3.553  0.00  0.00    +0.000 C 
ENDBRANCH  23  24
ENDBRANCH  22  23
ENDBRANCH  21  22
ENDBRANCH  20  21
ENDBRANCH  17  20
ENDBRANCH  14  17
BRANCH  13  26
ATOM     26  O   UNL     1      -0.645   2.066  -1.282  0.00  0.00    +0.000 OA
ATOM     27  H   UNL     1      -0.035   2.804  -1.453  0.00  0.00    +0.000 HD
ENDBRANCH  13  26
BRANCH  11  29
ATOM     28  O   UNL     1      -6.403   1.137  -2.248  0.00  0.00    +0.000 OA
ATOM     29  C   UNL     1      -5.504   1.419  -1.477  0.00  0.00    +0.000 C 
BRANCH  29  30
ATOM     30  O   UNL     1      -5.222   2.652  -1.007  0.00  0.00    +0.000 OA
ATOM     31  H   UNL     1      -5.835   3.331  -1.361  0.00  0.00    +0.000 HD
ENDBRANCH  29  30
ENDBRANCH  11  29
TORSDOF 9
