REMARK  Name = 9929901
REMARK  15 active torsions:
REMARK  status: ('A' for Active; 'I' for Inactive)
REMARK    1  A    between atoms: O_2  and  C_15
REMARK    2  A    between atoms: C_3  and  C_5
REMARK    3  A    between atoms: C_3  and  C_7
REMARK    4  A    between atoms: C_5  and  C_9
REMARK    5  A    between atoms: C_9  and  C_11
REMARK    6  A    between atoms: C_14  and  C_17
REMARK    7  A    between atoms: C_14  and  C_19
REMARK    8  A    between atoms: C_17  and  C_18
REMARK    9  A    between atoms: C_18  and  C_20
REMARK   10  A    between atoms: C_21  and  C_22
REMARK   11  A    between atoms: C_21  and  C_24
REMARK   12  A    between atoms: C_22  and  C_23
REMARK   13  A    between atoms: C_23  and  C_25
REMARK   14  A    between atoms: C_26  and  C_27
REMARK   15  A    between atoms: C_26  and  C_28
REMARK                            x       y       z     vdW  Elec       q    Type
REMARK                         _______ _______ _______ _____ _____    ______ ____
ROOT
ATOM      1  C   UNL     1      -1.824  -2.201  -1.113  0.00  0.00    +0.000 C 
ENDROOT
BRANCH   1   2
ATOM      2  C   UNL     1      -2.922  -1.179  -1.204  0.00  0.00    +0.000 C 
ATOM      3  C   UNL     1      -4.061  -1.120  -0.485  0.00  0.00    +0.000 C 
ATOM      4  C   UNL     1      -4.347  -2.170   0.559  0.00  0.00    +0.000 C 
BRANCH   3   5
ATOM      5  C   UNL     1      -5.148  -0.082  -0.665  0.00  0.00    +0.000 C 
BRANCH   5   6
ATOM      6  C   UNL     1      -5.030   1.114   0.288  0.00  0.00    +0.000 C 
BRANCH   6   7
ATOM      7  C   UNL     1      -3.805   1.948   0.032  0.00  0.00    +0.000 C 
ATOM      8  C   UNL     1      -2.807   2.224   0.893  0.00  0.00    +0.000 C 
ATOM      9  C   UNL     1      -2.837   1.676   2.295  0.00  0.00    +0.000 C 
BRANCH   8  10
ATOM     10  C   UNL     1      -1.619   3.100   0.567  0.00  0.00    +0.000 C 
BRANCH  10  11
ATOM     11  C   UNL     1      -0.298   2.331   0.643  0.00  0.00    +0.000 C 
BRANCH  11  12
ATOM     12  C   UNL     1       0.862   3.213   0.277  0.00  0.00    +0.000 C 
ATOM     13  C   UNL     1       1.432   3.354  -0.935  0.00  0.00    +0.000 C 
ATOM     14  C   UNL     1       2.615   4.265  -1.122  0.00  0.00    +0.000 C 
ATOM     15  C   UNL     1       0.968   2.670  -2.189  0.00  0.00    +0.000 C 
ENDBRANCH  11  12
ENDBRANCH  10  11
ENDBRANCH   8  10
ENDBRANCH   6   7
ENDBRANCH   5   6
ENDBRANCH   3   5
ENDBRANCH   1   2
BRANCH   1  16
ATOM     16  C   UNL     1      -0.760  -1.775  -0.100  0.00  0.00    +0.000 C 
BRANCH  16  18
ATOM     17  O   UNL     1       1.237  -2.447   1.096  0.00  0.00    +0.000 OA
ATOM     18  C   UNL     1       0.353  -2.826   0.025  0.00  0.00    +0.000 C 
ATOM     19  C   UNL     1       1.115  -3.043  -1.293  0.00  0.00    +0.000 C 
ATOM     20  C   UNL     1       1.891  -1.798  -1.697  0.00  0.00    +0.000 C 
ATOM     21  C   UNL     1      -0.280  -4.158   0.455  0.00  0.00    +0.000 C 
ATOM     22  C   UNL     1       2.624  -1.239  -0.515  0.00  0.00    +0.000 A 
ATOM     23  C   UNL     1       2.256  -1.583   0.791  0.00  0.00    +0.000 A 
ATOM     24  C   UNL     1       3.675  -0.333  -0.712  0.00  0.00    +0.000 A 
ATOM     25  C   UNL     1       2.954  -1.055   1.881  0.00  0.00    +0.000 A 
ATOM     26  C   UNL     1       4.364   0.200   0.378  0.00  0.00    +0.000 A 
ATOM     27  C   UNL     1       4.006  -0.164   1.674  0.00  0.00    +0.000 A 
BRANCH  26  28
ATOM     28  O   UNL     1       5.385   1.077   0.175  0.00  0.00    +0.000 OA
ATOM     29  H   UNL     1       5.492   1.221  -0.781  0.00  0.00    +0.000 HD
ENDBRANCH  26  28
ENDBRANCH  16  18
ENDBRANCH   1  16
TORSDOF 10
