REMARK  Name = 6437836
REMARK  15 active torsions:
REMARK  status: ('A' for Active; 'I' for Inactive)
REMARK    1  A    between atoms: O_1  and  C_22
REMARK    2  A    between atoms: C_3  and  C_4
REMARK    3  A    between atoms: C_3  and  C_7
REMARK    4  A    between atoms: C_4  and  C_10
REMARK    5  A    between atoms: C_5  and  C_6
REMARK    6  A    between atoms: C_5  and  C_8
REMARK    7  A    between atoms: C_6  and  C_9
REMARK    8  A    between atoms: C_7  and  C_11
REMARK    9  A    between atoms: C_9  and  C_13
REMARK   10  A    between atoms: C_12  and  C_15
REMARK   11  A    between atoms: C_12  and  C_16
REMARK   12  A    between atoms: C_14  and  C_17
REMARK   13  A    between atoms: C_18  and  C_19
REMARK   14  A    between atoms: C_19  and  C_20
REMARK   15  A    between atoms: C_21  and  C_22
REMARK                            x       y       z     vdW  Elec       q    Type
REMARK                         _______ _______ _______ _____ _____    ______ ____
ROOT
ATOM      1  C   UNL     1       1.119   2.547  -0.102  0.00  0.00    +0.000 C 
ATOM      2  C   UNL     1       1.238   2.583  -1.605  0.00  0.00    +0.000 C 
ATOM      3  C   UNL     1       0.001   2.052   0.468  0.00  0.00    +0.000 C 
ENDROOT
BRANCH   3   4
ATOM      4  C   UNL     1      -1.164   1.521  -0.210  0.00  0.00    +0.000 C 
ATOM      5  C   UNL     1      -2.235   1.048   0.450  0.00  0.00    +0.000 C 
BRANCH   5   6
ATOM      6  C   UNL     1      -3.471   0.523  -0.141  0.00  0.00    +0.000 C 
ATOM      7  C   UNL     1      -3.576   0.538  -1.645  0.00  0.00    +0.000 C 
ATOM      8  C   UNL     1      -4.436   0.093   0.696  0.00  0.00    +0.000 C 
BRANCH   8  10
ATOM      9  O   UNL     1      -6.003  -1.077  -0.727  0.00  0.00    +0.000 OA
ATOM     10  C   UNL     1      -5.746  -0.467   0.295  0.00  0.00    +0.000 C 
BRANCH  10  11
ATOM     11  O   UNL     1      -6.638  -0.210   1.281  0.00  0.00    +0.000 OA
ATOM     12  H   UNL     1      -7.528  -0.568   1.074  0.00  0.00    +0.000 HD
ENDBRANCH  10  11
ENDBRANCH   8  10
ENDBRANCH   5   6
ENDBRANCH   3   4
BRANCH   1  13
ATOM     13  C   UNL     1       2.301   3.129   0.648  0.00  0.00    +0.000 C 
BRANCH  13  14
ATOM     14  C   UNL     1       3.624   2.383   0.417  0.00  0.00    +0.000 C 
BRANCH  14  16
ATOM     15  C   UNL     1       4.248  -0.098   0.305  0.00  0.00    +0.000 C 
ATOM     16  C   UNL     1       3.557   0.936   0.823  0.00  0.00    +0.000 C 
ATOM     17  C   UNL     1       5.247   0.025  -0.813  0.00  0.00    +0.000 C 
BRANCH  15  18
ATOM     18  C   UNL     1       4.083  -1.490   0.889  0.00  0.00    +0.000 C 
BRANCH  18  19
ATOM     19  C   UNL     1       3.657  -2.570  -0.114  0.00  0.00    +0.000 C 
BRANCH  19  20
ATOM     20  C   UNL     1       2.285  -2.352  -0.691  0.00  0.00    +0.000 C 
ATOM     21  C   UNL     1       1.118  -2.847  -0.239  0.00  0.00    +0.000 C 
ATOM     22  C   UNL     1       0.964  -3.741   0.959  0.00  0.00    +0.000 C 
ATOM     23  C   UNL     1      -0.173  -2.526  -0.943  0.00  0.00    +0.000 C 
ENDBRANCH  19  20
ENDBRANCH  18  19
ENDBRANCH  15  18
ENDBRANCH  14  16
ENDBRANCH  13  14
ENDBRANCH   1  13
TORSDOF 10
