REMARK  Name = 11319053
REMARK  5 active torsions:
REMARK  status: ('A' for Active; 'I' for Inactive)
REMARK    1  A    between atoms: N_10  and  C_15
REMARK    2  A    between atoms: N_11  and  C_29
REMARK    3  A    between atoms: N_12  and  C_21
REMARK    4  A    between atoms: C_18  and  C_27
REMARK    5  A    between atoms: C_29  and  C_35
REMARK                            x       y       z     vdW  Elec       q    Type
REMARK                         _______ _______ _______ _____ _____    ______ ____
ROOT
ATOM      1  O   UNL     1      -0.321  -0.587  -2.245  0.00  0.00    +0.000 OA
ATOM      2  N   UNL     1      -2.066  -1.447  -0.983  0.00  0.00    +0.000 N 
ATOM      3  N   UNL     1       0.118  -1.250  -0.095  0.00  0.00    +0.000 N 
ATOM      4  C   UNL     1      -4.839  -0.937  -0.342  0.00  0.00    +0.000 C 
ATOM      5  C   UNL     1      -3.786  -1.159   0.750  0.00  0.00    +0.000 C 
ATOM      6  C   UNL     1      -4.194  -0.399  -1.625  0.00  0.00    +0.000 C 
ATOM      7  C   UNL     1      -2.642  -2.030   0.237  0.00  0.00    +0.000 C 
ATOM      8  C   UNL     1      -3.030  -1.281  -2.074  0.00  0.00    +0.000 C 
ATOM      9  C   UNL     1      -0.729  -1.064  -1.180  0.00  0.00    +0.000 C 
ATOM     10  H   UNL     1      -0.253  -1.474   0.818  0.00  0.00    +0.000 HD
ENDROOT
BRANCH   4  12
ATOM     11  O   UNL     1      -4.691   1.961   0.567  0.00  0.00    +0.000 OA
ATOM     12  N   UNL     1      -5.877  -0.050   0.124  0.00  0.00    +0.000 N 
ATOM     13  N   UNL     1      -7.021   1.740   0.901  0.00  0.00    +0.000 N 
ATOM     14  N   UNL     1      -9.248   0.711   0.959  0.00  0.00    +0.000 NA
ATOM     15  C   UNL     1      -7.224  -0.406   0.245  0.00  0.00    +0.000 A 
ATOM     16  C   UNL     1      -5.719   1.300   0.532  0.00  0.00    +0.000 A 
ATOM     17  C   UNL     1      -7.930   0.690   0.722  0.00  0.00    +0.000 A 
ATOM     18  C   UNL     1      -7.877  -1.589  -0.022  0.00  0.00    +0.000 A 
ATOM     19  C   UNL     1      -9.251  -1.615   0.209  0.00  0.00    +0.000 A 
ATOM     20  C   UNL     1      -9.878  -0.461   0.692  0.00  0.00    +0.000 A 
ATOM     21  H   UNL     1      -7.270   2.660   1.242  0.00  0.00    +0.000 HD
ENDBRANCH   4  12
BRANCH   3  25
ATOM     22  O   UNL     1       0.650   1.182   0.708  0.00  0.00    +0.000 OA
ATOM     23  N   UNL     1       2.885   1.152   0.102  0.00  0.00    +0.000 N 
ATOM     24  C   UNL     1       4.600  -0.620   0.457  0.00  0.00    +0.000 C 
ATOM     25  C   UNL     1       1.520  -0.898  -0.144  0.00  0.00    +0.000 C 
ATOM     26  C   UNL     1       3.796  -1.932   0.398  0.00  0.00    +0.000 C 
ATOM     27  C   UNL     1       2.325  -1.794   0.797  0.00  0.00    +0.000 C 
ATOM     28  C   UNL     1       4.034   0.457  -0.485  0.00  0.00    +0.000 C 
ATOM     29  C   UNL     1       1.623   0.574   0.255  0.00  0.00    +0.000 C 
BRANCH  24  32
ATOM     30  F   UNL     1       6.694  -0.185   2.323  0.00  0.00    +0.000 F 
ATOM     31  F   UNL     1       9.313  -0.690   1.760  0.00  0.00    +0.000 F 
ATOM     32  C   UNL     1       6.064  -0.899   0.148  0.00  0.00    +0.000 A 
ATOM     33  C   UNL     1       7.034  -0.660   1.117  0.00  0.00    +0.000 A 
ATOM     34  C   UNL     1       6.421  -1.393  -1.102  0.00  0.00    +0.000 A 
ATOM     35  C   UNL     1       8.375  -0.918   0.832  0.00  0.00    +0.000 A 
ATOM     36  C   UNL     1       7.762  -1.651  -1.387  0.00  0.00    +0.000 A 
ATOM     37  C   UNL     1       8.739  -1.413  -0.421  0.00  0.00    +0.000 A 
ENDBRANCH  24  32
BRANCH  23  38
ATOM     38  C   UNL     1       3.116   2.520   0.549  0.00  0.00    +0.000 C 
BRANCH  38  42
ATOM     39  F   UNL     1       3.090   4.774  -0.115  0.00  0.00    +0.000 F 
ATOM     40  F   UNL     1       3.694   3.301  -1.605  0.00  0.00    +0.000 F 
ATOM     41  F   UNL     1       1.599   3.454  -1.003  0.00  0.00    +0.000 F 
ATOM     42  C   UNL     1       2.871   3.516  -0.556  0.00  0.00    +0.000 C 
ENDBRANCH  38  42
ENDBRANCH  23  38
ENDBRANCH   3  25
TORSDOF 5
