MODEL 1
REMARK VINA RESULT:    -2.545      0.000      0.000
REMARK INTER + INTRA:          -3.592
REMARK INTER:                  -2.844
REMARK INTRA:                  -0.748
REMARK CONF_INDEPENDENT:        0.298
REMARK UNBOUND:                 0.748
REMARK  Name = 4091
REMARK  3 active torsions:
REMARK  status: ('A' for Active; 'I' for Inactive)
REMARK    1  A    between atoms: N_1  and  C_6
REMARK    2  A    between atoms: N_1  and  C_7
REMARK    3  A    between atoms: N_2  and  C_8
REMARK                            x       y       z     vdW  Elec       q    Type
REMARK                         _______ _______ _______ _____ _____    ______ ____
ROOT
ATOM      1  N   UNL     1      -2.366  -7.158   2.442  0.00  0.00    +0.000 NA
ATOM      2  N   UNL     1      -3.386  -6.546   4.449  0.00  0.00    +0.000 N 
ATOM      3  N   UNL     1      -2.008  -5.012   3.467  0.00  0.00    +0.000 N 
ATOM      4  C   UNL     1      -2.559  -6.272   3.386  0.00  0.00    +0.000 C 
ATOM      5  H   UNL     1      -3.545  -5.868   5.186  0.00  0.00    +0.000 HD
ATOM      6  H   UNL     1      -3.863  -7.438   4.525  0.00  0.00    +0.000 HD
ATOM      7  H   UNL     1      -1.376  -4.656   2.758  0.00  0.00    +0.000 HD
ATOM      8  H   UNL     1      -2.222  -4.395   4.244  0.00  0.00    +0.000 HD
ENDROOT
BRANCH   1  13
ATOM      9  N   UNL     1      -1.931  -6.930   0.071  0.00  0.00    +0.000 N 
ATOM     10  N   UNL     1      -0.359  -6.369   1.787  0.00  0.00    +0.000 NA
ATOM     11  C   UNL     1      -3.250  -7.438  -0.289  0.00  0.00    +0.000 C 
ATOM     12  C   UNL     1      -1.106  -6.442  -1.029  0.00  0.00    +0.000 C 
ATOM     13  C   UNL     1      -1.520  -6.814   1.404  0.00  0.00    +0.000 C 
ATOM     14  H   UNL     1       0.218  -6.128   0.978  0.00  0.00    +0.000 HD
ENDBRANCH   1  13
TORSDOF 1
ENDMDL
MODEL 2
REMARK VINA RESULT:    -2.528      1.997      2.626
REMARK INTER + INTRA:          -3.580
REMARK INTER:                  -2.826
REMARK INTRA:                  -0.754
REMARK CONF_INDEPENDENT:        0.298
REMARK UNBOUND:                 0.754
REMARK  Name = 4091
REMARK  3 active torsions:
REMARK  status: ('A' for Active; 'I' for Inactive)
REMARK    1  A    between atoms: N_1  and  C_6
REMARK    2  A    between atoms: N_1  and  C_7
REMARK    3  A    between atoms: N_2  and  C_8
REMARK                            x       y       z     vdW  Elec       q    Type
REMARK                         _______ _______ _______ _____ _____    ______ ____
ROOT
ATOM      1  N   UNL     1      -0.688  -5.348   2.897  0.00  0.00    +0.000 NA
ATOM      2  N   UNL     1       0.453  -4.726   4.835  0.00  0.00    +0.000 N 
ATOM      3  N   UNL     1       1.648  -5.821   3.225  0.00  0.00    +0.000 N 
ATOM      4  C   UNL     1       0.420  -5.314   3.592  0.00  0.00    +0.000 C 
ATOM      5  H   UNL     1       1.304  -4.692   5.383  0.00  0.00    +0.000 HD
ATOM      6  H   UNL     1      -0.379  -4.309   5.237  0.00  0.00    +0.000 HD
ATOM      7  H   UNL     1       1.791  -6.285   2.335  0.00  0.00    +0.000 HD
ATOM      8  H   UNL     1       2.452  -5.744   3.839  0.00  0.00    +0.000 HD
ENDROOT
BRANCH   1  13
ATOM      9  N   UNL     1      -1.616  -6.892   1.278  0.00  0.00    +0.000 N 
ATOM     10  N   UNL     1       0.339  -5.563   0.902  0.00  0.00    +0.000 NA
ATOM     11  C   UNL     1      -2.696  -7.288   2.175  0.00  0.00    +0.000 C 
ATOM     12  C   UNL     1      -1.668  -7.438  -0.073  0.00  0.00    +0.000 C 
ATOM     13  C   UNL     1      -0.646  -5.956   1.655  0.00  0.00    +0.000 C 
ATOM     14  H   UNL     1       0.314  -6.043  -0.001  0.00  0.00    +0.000 HD
ENDBRANCH   1  13
TORSDOF 1
ENDMDL
MODEL 3
REMARK VINA RESULT:    -2.525      1.554      2.891
REMARK INTER + INTRA:          -3.577
REMARK INTER:                  -2.823
REMARK INTRA:                  -0.754
REMARK CONF_INDEPENDENT:        0.298
REMARK UNBOUND:                 0.754
REMARK  Name = 4091
REMARK  3 active torsions:
REMARK  status: ('A' for Active; 'I' for Inactive)
REMARK    1  A    between atoms: N_1  and  C_6
REMARK    2  A    between atoms: N_1  and  C_7
REMARK    3  A    between atoms: N_2  and  C_8
REMARK                            x       y       z     vdW  Elec       q    Type
REMARK                         _______ _______ _______ _____ _____    ______ ____
ROOT
ATOM      1  N   UNL     1      -2.027  -5.705   4.229  0.00  0.00    +0.000 NA
ATOM      2  N   UNL     1      -1.437  -5.889   6.479  0.00  0.00    +0.000 N 
ATOM      3  N   UNL     1      -3.241  -7.097   5.769  0.00  0.00    +0.000 N 
ATOM      4  C   UNL     1      -2.244  -6.215   5.414  0.00  0.00    +0.000 C 
ATOM      5  H   UNL     1      -1.595  -6.278   7.402  0.00  0.00    +0.000 HD
ATOM      6  H   UNL     1      -0.660  -5.248   6.368  0.00  0.00    +0.000 HD
ATOM      7  H   UNL     1      -3.920  -7.438   5.097  0.00  0.00    +0.000 HD
ATOM      8  H   UNL     1      -3.326  -7.438   6.721  0.00  0.00    +0.000 HD
ENDROOT
BRANCH   1  13
ATOM      9  N   UNL     1      -2.380  -6.567   1.994  0.00  0.00    +0.000 N 
ATOM     10  N   UNL     1      -4.143  -5.946   3.490  0.00  0.00    +0.000 NA
ATOM     11  C   UNL     1      -0.948  -6.687   1.742  0.00  0.00    +0.000 C 
ATOM     12  C   UNL     1      -3.263  -7.094   0.959  0.00  0.00    +0.000 C 
ATOM     13  C   UNL     1      -2.880  -6.077   3.206  0.00  0.00    +0.000 C 
ATOM     14  H   UNL     1      -4.721  -6.240   2.699  0.00  0.00    +0.000 HD
ENDBRANCH   1  13
TORSDOF 1
ENDMDL
MODEL 4
REMARK VINA RESULT:    -2.311      2.109      4.917
REMARK INTER + INTRA:          -3.363
REMARK INTER:                  -2.610
REMARK INTRA:                  -0.753
REMARK CONF_INDEPENDENT:        0.298
REMARK UNBOUND:                 0.753
REMARK  Name = 4091
REMARK  3 active torsions:
REMARK  status: ('A' for Active; 'I' for Inactive)
REMARK    1  A    between atoms: N_1  and  C_6
REMARK    2  A    between atoms: N_1  and  C_7
REMARK    3  A    between atoms: N_2  and  C_8
REMARK                            x       y       z     vdW  Elec       q    Type
REMARK                         _______ _______ _______ _____ _____    ______ ____
ROOT
ATOM      1  N   UNL     1      -2.353  -6.192   3.892  0.00  0.00    +0.000 NA
ATOM      2  N   UNL     1      -1.276  -6.986   1.980  0.00  0.00    +0.000 N 
ATOM      3  N   UNL     1      -3.560  -6.973   1.963  0.00  0.00    +0.000 N 
ATOM      4  C   UNL     1      -2.420  -6.688   2.682  0.00  0.00    +0.000 C 
ATOM      5  H   UNL     1      -1.314  -7.369   1.043  0.00  0.00    +0.000 HD
ATOM      6  H   UNL     1      -0.359  -6.829   2.383  0.00  0.00    +0.000 HD
ATOM      7  H   UNL     1      -4.487  -6.808   2.341  0.00  0.00    +0.000 HD
ATOM      8  H   UNL     1      -3.507  -7.357   1.026  0.00  0.00    +0.000 HD
ENDROOT
BRANCH   1  13
ATOM      9  N   UNL     1      -3.762  -6.337   5.856  0.00  0.00    +0.000 N 
ATOM     10  N   UNL     1      -4.394  -5.239   3.825  0.00  0.00    +0.000 NA
ATOM     11  C   UNL     1      -2.763  -7.097   6.599  0.00  0.00    +0.000 C 
ATOM     12  C   UNL     1      -4.952  -5.938   6.599  0.00  0.00    +0.000 C 
ATOM     13  C   UNL     1      -3.544  -5.918   4.538  0.00  0.00    +0.000 C 
ATOM     14  H   UNL     1      -5.250  -5.064   4.356  0.00  0.00    +0.000 HD
ENDBRANCH   1  13
TORSDOF 1
ENDMDL
MODEL 5
REMARK VINA RESULT:    -2.270      2.087      3.733
REMARK INTER + INTRA:          -3.316
REMARK INTER:                  -2.568
REMARK INTRA:                  -0.748
REMARK CONF_INDEPENDENT:        0.298
REMARK UNBOUND:                 0.748
REMARK  Name = 4091
REMARK  3 active torsions:
REMARK  status: ('A' for Active; 'I' for Inactive)
REMARK    1  A    between atoms: N_1  and  C_6
REMARK    2  A    between atoms: N_1  and  C_7
REMARK    3  A    between atoms: N_2  and  C_8
REMARK                            x       y       z     vdW  Elec       q    Type
REMARK                         _______ _______ _______ _____ _____    ______ ____
ROOT
ATOM      1  N   UNL     1       0.408  -5.563   1.812  0.00  0.00    +0.000 NA
ATOM      2  N   UNL     1       2.739  -5.561   1.902  0.00  0.00    +0.000 N 
ATOM      3  N   UNL     1       1.617  -5.517   3.891  0.00  0.00    +0.000 N 
ATOM      4  C   UNL     1       1.510  -5.547   2.518  0.00  0.00    +0.000 C 
ATOM      5  H   UNL     1       3.600  -5.550   2.436  0.00  0.00    +0.000 HD
ATOM      6  H   UNL     1       2.817  -5.583   0.891  0.00  0.00    +0.000 HD
ATOM      7  H   UNL     1       0.801  -5.506   4.492  0.00  0.00    +0.000 HD
ATOM      8  H   UNL     1       2.524  -5.508   4.346  0.00  0.00    +0.000 HD
ENDROOT
BRANCH   1  13
ATOM      9  N   UNL     1      -1.812  -6.454   2.190  0.00  0.00    +0.000 N 
ATOM     10  N   UNL     1      -0.857  -4.648   3.438  0.00  0.00    +0.000 NA
ATOM     11  C   UNL     1      -1.672  -7.438   1.122  0.00  0.00    +0.000 C 
ATOM     12  C   UNL     1      -3.026  -6.544   2.993  0.00  0.00    +0.000 C 
ATOM     13  C   UNL     1      -0.792  -5.547   2.499  0.00  0.00    +0.000 C 
ATOM     14  H   UNL     1      -1.763  -4.688   3.911  0.00  0.00    +0.000 HD
ENDBRANCH   1  13
TORSDOF 1
ENDMDL
MODEL 6
REMARK VINA RESULT:    -2.224      1.973      3.264
REMARK INTER + INTRA:          -3.280
REMARK INTER:                  -2.522
REMARK INTRA:                  -0.758
REMARK CONF_INDEPENDENT:        0.298
REMARK UNBOUND:                 0.758
REMARK  Name = 4091
REMARK  3 active torsions:
REMARK  status: ('A' for Active; 'I' for Inactive)
REMARK    1  A    between atoms: N_1  and  C_6
REMARK    2  A    between atoms: N_1  and  C_7
REMARK    3  A    between atoms: N_2  and  C_8
REMARK                            x       y       z     vdW  Elec       q    Type
REMARK                         _______ _______ _______ _____ _____    ______ ____
ROOT
ATOM      1  N   UNL     1      -3.432  -7.222   0.229  0.00  0.00    +0.000 NA
ATOM      2  N   UNL     1      -5.564  -6.878  -0.653  0.00  0.00    +0.000 N 
ATOM      3  N   UNL     1      -5.155  -6.061   1.440  0.00  0.00    +0.000 N 
ATOM      4  C   UNL     1      -4.642  -6.739   0.357  0.00  0.00    +0.000 C 
ATOM      5  H   UNL     1      -6.504  -6.508  -0.567  0.00  0.00    +0.000 HD
ATOM      6  H   UNL     1      -5.328  -7.358  -1.515  0.00  0.00    +0.000 HD
ATOM      7  H   UNL     1      -4.600  -5.873   2.267  0.00  0.00    +0.000 HD
ATOM      8  H   UNL     1      -6.112  -5.723   1.442  0.00  0.00    +0.000 HD
ENDROOT
BRANCH   1  13
ATOM      9  N   UNL     1      -1.278  -6.516   1.081  0.00  0.00    +0.000 N 
ATOM     10  N   UNL     1      -3.042  -7.391   2.443  0.00  0.00    +0.000 NA
ATOM     11  C   UNL     1      -0.798  -6.150  -0.246  0.00  0.00    +0.000 C 
ATOM     12  C   UNL     1      -0.396  -6.194   2.197  0.00  0.00    +0.000 C 
ATOM     13  C   UNL     1      -2.558  -7.046   1.286  0.00  0.00    +0.000 C 
ATOM     14  H   UNL     1      -2.353  -7.234   3.182  0.00  0.00    +0.000 HD
ENDBRANCH   1  13
TORSDOF 1
ENDMDL
MODEL 7
REMARK VINA RESULT:    -2.183      1.281      2.430
REMARK INTER + INTRA:          -3.235
REMARK INTER:                  -2.481
REMARK INTRA:                  -0.754
REMARK CONF_INDEPENDENT:        0.298
REMARK UNBOUND:                 0.754
REMARK  Name = 4091
REMARK  3 active torsions:
REMARK  status: ('A' for Active; 'I' for Inactive)
REMARK    1  A    between atoms: N_1  and  C_6
REMARK    2  A    between atoms: N_1  and  C_7
REMARK    3  A    between atoms: N_2  and  C_8
REMARK                            x       y       z     vdW  Elec       q    Type
REMARK                         _______ _______ _______ _____ _____    ______ ____
ROOT
ATOM      1  N   UNL     1      -0.929  -6.791   1.550  0.00  0.00    +0.000 NA
ATOM      2  N   UNL     1       0.810  -5.877   2.809  0.00  0.00    +0.000 N 
ATOM      3  N   UNL     1      -1.322  -5.448   3.507  0.00  0.00    +0.000 N 
ATOM      4  C   UNL     1      -0.529  -6.075   2.570  0.00  0.00    +0.000 C 
ATOM      5  H   UNL     1       1.133  -5.326   3.596  0.00  0.00    +0.000 HD
ATOM      6  H   UNL     1       1.515  -6.280   2.201  0.00  0.00    +0.000 HD
ATOM      7  H   UNL     1      -2.334  -5.499   3.472  0.00  0.00    +0.000 HD
ATOM      8  H   UNL     1      -0.913  -4.914   4.266  0.00  0.00    +0.000 HD
ENDROOT
BRANCH   1  13
ATOM      9  N   UNL     1      -2.882  -6.744   0.119  0.00  0.00    +0.000 N 
ATOM     10  N   UNL     1      -2.932  -7.306   2.445  0.00  0.00    +0.000 NA
ATOM     11  C   UNL     1      -2.102  -6.340  -1.046  0.00  0.00    +0.000 C 
ATOM     12  C   UNL     1      -4.290  -7.038  -0.120  0.00  0.00    +0.000 C 
ATOM     13  C   UNL     1      -2.291  -6.946   1.372  0.00  0.00    +0.000 C 
ATOM     14  H   UNL     1      -3.931  -7.409   2.249  0.00  0.00    +0.000 HD
ENDBRANCH   1  13
TORSDOF 1
ENDMDL
MODEL 8
REMARK VINA RESULT:    -1.840      2.547      3.791
REMARK INTER + INTRA:          -2.890
REMARK INTER:                  -2.139
REMARK INTRA:                  -0.752
REMARK CONF_INDEPENDENT:        0.298
REMARK UNBOUND:                 0.752
REMARK  Name = 4091
REMARK  3 active torsions:
REMARK  status: ('A' for Active; 'I' for Inactive)
REMARK    1  A    between atoms: N_1  and  C_6
REMARK    2  A    between atoms: N_1  and  C_7
REMARK    3  A    between atoms: N_2  and  C_8
REMARK                            x       y       z     vdW  Elec       q    Type
REMARK                         _______ _______ _______ _____ _____    ______ ____
ROOT
ATOM      1  N   UNL     1       0.970  -5.231   1.296  0.00  0.00    +0.000 NA
ATOM      2  N   UNL     1       2.997  -4.817   2.374  0.00  0.00    +0.000 N 
ATOM      3  N   UNL     1       1.235  -5.464   3.676  0.00  0.00    +0.000 N 
ATOM      4  C   UNL     1       1.672  -5.181   2.400  0.00  0.00    +0.000 C 
ATOM      5  H   UNL     1       3.552  -4.775   3.222  0.00  0.00    +0.000 HD
ATOM      6  H   UNL     1       3.458  -4.579   1.503  0.00  0.00    +0.000 HD
ATOM      7  H   UNL     1       0.281  -5.750   3.864  0.00  0.00    +0.000 HD
ATOM      8  H   UNL     1       1.861  -5.396   4.471  0.00  0.00    +0.000 HD
ENDROOT
BRANCH   1  13
ATOM      9  N   UNL     1      -1.364  -4.866   0.766  0.00  0.00    +0.000 N 
ATOM     10  N   UNL     1      -0.556  -6.683   2.098  0.00  0.00    +0.000 NA
ATOM     11  C   UNL     1      -1.070  -3.663  -0.005  0.00  0.00    +0.000 C 
ATOM     12  C   UNL     1      -2.750  -5.322   0.745  0.00  0.00    +0.000 C 
ATOM     13  C   UNL     1      -0.357  -5.605   1.398  0.00  0.00    +0.000 C 
ATOM     14  H   UNL     1      -1.553  -6.910   2.133  0.00  0.00    +0.000 HD
ENDBRANCH   1  13
TORSDOF 1
ENDMDL
MODEL 9
REMARK VINA RESULT:    -1.829      2.505      4.459
REMARK INTER + INTRA:          -2.884
REMARK INTER:                  -2.127
REMARK INTRA:                  -0.756
REMARK CONF_INDEPENDENT:        0.298
REMARK UNBOUND:                 0.756
REMARK  Name = 4091
REMARK  3 active torsions:
REMARK  status: ('A' for Active; 'I' for Inactive)
REMARK    1  A    between atoms: N_1  and  C_6
REMARK    2  A    between atoms: N_1  and  C_7
REMARK    3  A    between atoms: N_2  and  C_8
REMARK                            x       y       z     vdW  Elec       q    Type
REMARK                         _______ _______ _______ _____ _____    ______ ____
ROOT
ATOM      1  N   UNL     1      -2.586  -6.313   3.249  0.00  0.00    +0.000 NA
ATOM      2  N   UNL     1      -3.882  -6.409   1.312  0.00  0.00    +0.000 N 
ATOM      3  N   UNL     1      -4.870  -5.562   3.189  0.00  0.00    +0.000 N 
ATOM      4  C   UNL     1      -3.724  -6.098   2.642  0.00  0.00    +0.000 C 
ATOM      5  H   UNL     1      -4.758  -6.246   0.829  0.00  0.00    +0.000 HD
ATOM      6  H   UNL     1      -3.122  -6.812   0.775  0.00  0.00    +0.000 HD
ATOM      7  H   UNL     1      -4.917  -5.278   4.161  0.00  0.00    +0.000 HD
ATOM      8  H   UNL     1      -5.707  -5.434   2.631  0.00  0.00    +0.000 HD
ENDROOT
BRANCH   1  13
ATOM      9  N   UNL     1      -1.439  -5.200   5.069  0.00  0.00    +0.000 N 
ATOM     10  N   UNL     1      -3.482  -6.424   5.314  0.00  0.00    +0.000 NA
ATOM     11  C   UNL     1      -0.368  -4.731   4.197  0.00  0.00    +0.000 C 
ATOM     12  C   UNL     1      -1.406  -4.719   6.446  0.00  0.00    +0.000 C 
ATOM     13  C   UNL     1      -2.500  -5.977   4.588  0.00  0.00    +0.000 C 
ATOM     14  H   UNL     1      -3.366  -6.140   6.290  0.00  0.00    +0.000 HD
ENDBRANCH   1  13
TORSDOF 1
ENDMDL
