MODEL 1
REMARK VINA RESULT:    -1.618      0.000      0.000
REMARK INTER + INTRA:          -2.672
REMARK INTER:                  -1.917
REMARK INTRA:                  -0.755
REMARK CONF_INDEPENDENT:        0.298
REMARK UNBOUND:                 0.755
REMARK  Name = 4091
REMARK  3 active torsions:
REMARK  status: ('A' for Active; 'I' for Inactive)
REMARK    1  A    between atoms: N_1  and  C_6
REMARK    2  A    between atoms: N_1  and  C_7
REMARK    3  A    between atoms: N_2  and  C_8
REMARK                            x       y       z     vdW  Elec       q    Type
REMARK                         _______ _______ _______ _____ _____    ______ ____
ROOT
ATOM      1  N   UNL     1      -4.741  -5.933  -2.652  0.00  0.00    +0.000 NA
ATOM      2  N   UNL     1      -6.141  -5.934  -4.519  0.00  0.00    +0.000 N 
ATOM      3  N   UNL     1      -6.220  -4.104  -3.154  0.00  0.00    +0.000 N 
ATOM      4  C   UNL     1      -5.649  -5.336  -3.382  0.00  0.00    +0.000 C 
ATOM      5  H   UNL     1      -6.843  -5.483  -5.093  0.00  0.00    +0.000 HD
ATOM      6  H   UNL     1      -5.812  -6.847  -4.813  0.00  0.00    +0.000 HD
ATOM      7  H   UNL     1      -5.963  -3.533  -2.357  0.00  0.00    +0.000 HD
ATOM      8  H   UNL     1      -6.920  -3.726  -3.784  0.00  0.00    +0.000 HD
ENDROOT
BRANCH   1  13
ATOM      9  N   UNL     1      -4.236  -5.921  -0.284  0.00  0.00    +0.000 N 
ATOM     10  N   UNL     1      -3.926  -4.042  -1.735  0.00  0.00    +0.000 NA
ATOM     11  C   UNL     1      -4.665  -7.305  -0.117  0.00  0.00    +0.000 C 
ATOM     12  C   UNL     1      -3.637  -5.287   0.885  0.00  0.00    +0.000 C 
ATOM     13  C   UNL     1      -4.292  -5.272  -1.523  0.00  0.00    +0.000 C 
ATOM     14  H   UNL     1      -3.601  -3.610  -0.866  0.00  0.00    +0.000 HD
ENDBRANCH   1  13
TORSDOF 1
ENDMDL
MODEL 2
REMARK VINA RESULT:    -1.556      1.388      4.110
REMARK INTER + INTRA:          -2.610
REMARK INTER:                  -1.854
REMARK INTRA:                  -0.756
REMARK CONF_INDEPENDENT:        0.298
REMARK UNBOUND:                 0.756
REMARK  Name = 4091
REMARK  3 active torsions:
REMARK  status: ('A' for Active; 'I' for Inactive)
REMARK    1  A    between atoms: N_1  and  C_6
REMARK    2  A    between atoms: N_1  and  C_7
REMARK    3  A    between atoms: N_2  and  C_8
REMARK                            x       y       z     vdW  Elec       q    Type
REMARK                         _______ _______ _______ _____ _____    ______ ____
ROOT
ATOM      1  N   UNL     1      -4.460  -4.859  -2.026  0.00  0.00    +0.000 NA
ATOM      2  N   UNL     1      -3.855  -4.787   0.226  0.00  0.00    +0.000 N 
ATOM      3  N   UNL     1      -3.662  -6.796  -0.844  0.00  0.00    +0.000 N 
ATOM      4  C   UNL     1      -4.016  -5.469  -0.956  0.00  0.00    +0.000 C 
ATOM      5  H   UNL     1      -3.512  -5.247   1.061  0.00  0.00    +0.000 HD
ATOM      6  H   UNL     1      -4.077  -3.800   0.295  0.00  0.00    +0.000 HD
ATOM      7  H   UNL     1      -3.721  -7.435  -1.629  0.00  0.00    +0.000 HD
ATOM      8  H   UNL     1      -3.325  -7.176   0.035  0.00  0.00    +0.000 HD
ENDROOT
BRANCH   1  13
ATOM      9  N   UNL     1      -5.778  -5.564  -3.932  0.00  0.00    +0.000 N 
ATOM     10  N   UNL     1      -3.548  -6.312  -3.487  0.00  0.00    +0.000 NA
ATOM     11  C   UNL     1      -6.920  -4.752  -3.528  0.00  0.00    +0.000 C 
ATOM     12  C   UNL     1      -5.889  -6.237  -5.221  0.00  0.00    +0.000 C 
ATOM     13  C   UNL     1      -4.598  -5.609  -3.180  0.00  0.00    +0.000 C 
ATOM     14  H   UNL     1      -3.708  -6.839  -4.349  0.00  0.00    +0.000 HD
ENDBRANCH   1  13
TORSDOF 1
ENDMDL
MODEL 3
REMARK VINA RESULT:    -1.503      1.809      4.457
REMARK INTER + INTRA:          -2.562
REMARK INTER:                  -1.802
REMARK INTRA:                  -0.761
REMARK CONF_INDEPENDENT:        0.298
REMARK UNBOUND:                 0.761
REMARK  Name = 4091
REMARK  3 active torsions:
REMARK  status: ('A' for Active; 'I' for Inactive)
REMARK    1  A    between atoms: N_1  and  C_6
REMARK    2  A    between atoms: N_1  and  C_7
REMARK    3  A    between atoms: N_2  and  C_8
REMARK                            x       y       z     vdW  Elec       q    Type
REMARK                         _______ _______ _______ _____ _____    ______ ____
ROOT
ATOM      1  N   UNL     1      -5.725  -5.434  -2.733  0.00  0.00    +0.000 NA
ATOM      2  N   UNL     1      -4.255  -6.044  -1.027  0.00  0.00    +0.000 N 
ATOM      3  N   UNL     1      -3.440  -6.052  -3.161  0.00  0.00    +0.000 N 
ATOM      4  C   UNL     1      -4.534  -5.821  -2.354  0.00  0.00    +0.000 C 
ATOM      5  H   UNL     1      -3.336  -6.343  -0.721  0.00  0.00    +0.000 HD
ATOM      6  H   UNL     1      -4.965  -5.915  -0.315  0.00  0.00    +0.000 HD
ATOM      7  H   UNL     1      -3.481  -5.930  -4.166  0.00  0.00    +0.000 HD
ATOM      8  H   UNL     1      -2.554  -6.351  -2.768  0.00  0.00    +0.000 HD
ENDROOT
BRANCH   1  13
ATOM      9  N   UNL     1      -6.500  -4.040  -4.555  0.00  0.00    +0.000 N 
ATOM     10  N   UNL     1      -5.540  -6.214  -4.839  0.00  0.00    +0.000 NA
ATOM     11  C   UNL     1      -6.919  -2.975  -3.650  0.00  0.00    +0.000 C 
ATOM     12  C   UNL     1      -6.598  -3.750  -5.981  0.00  0.00    +0.000 C 
ATOM     13  C   UNL     1      -5.933  -5.230  -4.085  0.00  0.00    +0.000 C 
ATOM     14  H   UNL     1      -5.716  -6.003  -5.824  0.00  0.00    +0.000 HD
ENDBRANCH   1  13
TORSDOF 1
ENDMDL
MODEL 4
REMARK VINA RESULT:    -1.431      0.950      1.888
REMARK INTER + INTRA:          -2.487
REMARK INTER:                  -1.730
REMARK INTRA:                  -0.757
REMARK CONF_INDEPENDENT:        0.298
REMARK UNBOUND:                 0.757
REMARK  Name = 4091
REMARK  3 active torsions:
REMARK  status: ('A' for Active; 'I' for Inactive)
REMARK    1  A    between atoms: N_1  and  C_6
REMARK    2  A    between atoms: N_1  and  C_7
REMARK    3  A    between atoms: N_2  and  C_8
REMARK                            x       y       z     vdW  Elec       q    Type
REMARK                         _______ _______ _______ _____ _____    ______ ____
ROOT
ATOM      1  N   UNL     1      -4.506  -4.454  -1.942  0.00  0.00    +0.000 NA
ATOM      2  N   UNL     1      -6.091  -3.313  -3.218  0.00  0.00    +0.000 N 
ATOM      3  N   UNL     1      -5.882  -5.559  -3.576  0.00  0.00    +0.000 N 
ATOM      4  C   UNL     1      -5.436  -4.468  -2.862  0.00  0.00    +0.000 C 
ATOM      5  H   UNL     1      -6.814  -3.311  -3.929  0.00  0.00    +0.000 HD
ATOM      6  H   UNL     1      -5.868  -2.428  -2.776  0.00  0.00    +0.000 HD
ATOM      7  H   UNL     1      -5.501  -6.487  -3.430  0.00  0.00    +0.000 HD
ATOM      8  H   UNL     1      -6.614  -5.467  -4.273  0.00  0.00    +0.000 HD
ENDROOT
BRANCH   1  13
ATOM      9  N   UNL     1      -3.770  -6.085  -0.310  0.00  0.00    +0.000 N 
ATOM     10  N   UNL     1      -3.469  -6.316  -2.674  0.00  0.00    +0.000 NA
ATOM     11  C   UNL     1      -4.265  -5.290   0.808  0.00  0.00    +0.000 C 
ATOM     12  C   UNL     1      -3.250  -7.407   0.020  0.00  0.00    +0.000 C 
ATOM     13  C   UNL     1      -3.889  -5.653  -1.636  0.00  0.00    +0.000 C 
ATOM     14  H   UNL     1      -3.027  -7.193  -2.385  0.00  0.00    +0.000 HD
ENDBRANCH   1  13
TORSDOF 1
ENDMDL
MODEL 5
REMARK VINA RESULT:    -1.423      1.893      4.069
REMARK INTER + INTRA:          -2.477
REMARK INTER:                  -1.721
REMARK INTRA:                  -0.756
REMARK CONF_INDEPENDENT:        0.298
REMARK UNBOUND:                 0.756
REMARK  Name = 4091
REMARK  3 active torsions:
REMARK  status: ('A' for Active; 'I' for Inactive)
REMARK    1  A    between atoms: N_1  and  C_6
REMARK    2  A    between atoms: N_1  and  C_7
REMARK    3  A    between atoms: N_2  and  C_8
REMARK                            x       y       z     vdW  Elec       q    Type
REMARK                         _______ _______ _______ _____ _____    ______ ____
ROOT
ATOM      1  N   UNL     1      -3.435  -5.952  -1.590  0.00  0.00    +0.000 NA
ATOM      2  N   UNL     1      -3.203  -6.526   0.659  0.00  0.00    +0.000 N 
ATOM      3  N   UNL     1      -5.182  -7.049  -0.354  0.00  0.00    +0.000 N 
ATOM      4  C   UNL     1      -3.935  -6.484  -0.504  0.00  0.00    +0.000 C 
ATOM      5  H   UNL     1      -3.578  -6.936   1.507  0.00  0.00    +0.000 HD
ATOM      6  H   UNL     1      -2.264  -6.146   0.700  0.00  0.00    +0.000 HD
ATOM      7  H   UNL     1      -5.844  -7.098  -1.121  0.00  0.00    +0.000 HD
ATOM      8  H   UNL     1      -5.478  -7.438   0.535  0.00  0.00    +0.000 HD
ENDROOT
BRANCH   1  13
ATOM      9  N   UNL     1      -3.748  -6.434  -3.943  0.00  0.00    +0.000 N 
ATOM     10  N   UNL     1      -5.425  -5.469  -2.533  0.00  0.00    +0.000 NA
ATOM     11  C   UNL     1      -2.392  -6.953  -4.086  0.00  0.00    +0.000 C 
ATOM     12  C   UNL     1      -4.614  -6.563  -5.110  0.00  0.00    +0.000 C 
ATOM     13  C   UNL     1      -4.228  -5.943  -2.723  0.00  0.00    +0.000 C 
ATOM     14  H   UNL     1      -5.963  -5.493  -3.402  0.00  0.00    +0.000 HD
ENDBRANCH   1  13
TORSDOF 1
ENDMDL
MODEL 6
REMARK VINA RESULT:    -1.389      1.856      4.094
REMARK INTER + INTRA:          -2.448
REMARK INTER:                  -1.687
REMARK INTRA:                  -0.761
REMARK CONF_INDEPENDENT:        0.298
REMARK UNBOUND:                 0.761
REMARK  Name = 4091
REMARK  3 active torsions:
REMARK  status: ('A' for Active; 'I' for Inactive)
REMARK    1  A    between atoms: N_1  and  C_6
REMARK    2  A    between atoms: N_1  and  C_7
REMARK    3  A    between atoms: N_2  and  C_8
REMARK                            x       y       z     vdW  Elec       q    Type
REMARK                         _______ _______ _______ _____ _____    ______ ____
ROOT
ATOM      1  N   UNL     1      -3.327  -5.937  -3.269  0.00  0.00    +0.000 NA
ATOM      2  N   UNL     1      -1.681  -6.924  -1.943  0.00  0.00    +0.000 N 
ATOM      3  N   UNL     1      -3.740  -6.622  -1.000  0.00  0.00    +0.000 N 
ATOM      4  C   UNL     1      -2.962  -6.460  -2.126  0.00  0.00    +0.000 C 
ATOM      5  H   UNL     1      -1.386  -7.332  -1.063  0.00  0.00    +0.000 HD
ATOM      6  H   UNL     1      -0.994  -6.871  -2.687  0.00  0.00    +0.000 HD
ATOM      7  H   UNL     1      -4.711  -6.332  -0.974  0.00  0.00    +0.000 HD
ATOM      8  H   UNL     1      -3.361  -7.042  -0.158  0.00  0.00    +0.000 HD
ENDROOT
BRANCH   1  13
ATOM      9  N   UNL     1      -5.436  -5.879  -4.458  0.00  0.00    +0.000 N 
ATOM     10  N   UNL     1      -5.016  -4.720  -2.407  0.00  0.00    +0.000 NA
ATOM     11  C   UNL     1      -4.938  -6.748  -5.519  0.00  0.00    +0.000 C 
ATOM     12  C   UNL     1      -6.851  -5.533  -4.520  0.00  0.00    +0.000 C 
ATOM     13  C   UNL     1      -4.631  -5.490  -3.381  0.00  0.00    +0.000 C 
ATOM     14  H   UNL     1      -5.987  -4.426  -2.543  0.00  0.00    +0.000 HD
ENDBRANCH   1  13
TORSDOF 1
ENDMDL
MODEL 7
REMARK VINA RESULT:    -1.385      1.687      2.730
REMARK INTER + INTRA:          -2.441
REMARK INTER:                  -1.683
REMARK INTRA:                  -0.758
REMARK CONF_INDEPENDENT:        0.298
REMARK UNBOUND:                 0.758
REMARK  Name = 4091
REMARK  3 active torsions:
REMARK  status: ('A' for Active; 'I' for Inactive)
REMARK    1  A    between atoms: N_1  and  C_6
REMARK    2  A    between atoms: N_1  and  C_7
REMARK    3  A    between atoms: N_2  and  C_8
REMARK                            x       y       z     vdW  Elec       q    Type
REMARK                         _______ _______ _______ _____ _____    ______ ____
ROOT
ATOM      1  N   UNL     1      -3.281  -5.776  -0.854  0.00  0.00    +0.000 NA
ATOM      2  N   UNL     1      -3.065  -5.389  -3.145  0.00  0.00    +0.000 N 
ATOM      3  N   UNL     1      -5.142  -5.938  -2.369  0.00  0.00    +0.000 N 
ATOM      4  C   UNL     1      -3.822  -5.712  -2.044  0.00  0.00    +0.000 C 
ATOM      5  H   UNL     1      -3.472  -5.336  -4.071  0.00  0.00    +0.000 HD
ATOM      6  H   UNL     1      -2.073  -5.196  -3.059  0.00  0.00    +0.000 HD
ATOM      7  H   UNL     1      -5.832  -6.184  -1.668  0.00  0.00    +0.000 HD
ATOM      8  H   UNL     1      -5.466  -5.862  -3.327  0.00  0.00    +0.000 HD
ENDROOT
BRANCH   1  13
ATOM      9  N   UNL     1      -4.131  -5.325   1.368  0.00  0.00    +0.000 N 
ATOM     10  N   UNL     1      -4.832  -7.166   0.007  0.00  0.00    +0.000 NA
ATOM     11  C   UNL     1      -3.285  -4.148   1.526  0.00  0.00    +0.000 C 
ATOM     12  C   UNL     1      -5.091  -5.577   2.438  0.00  0.00    +0.000 C 
ATOM     13  C   UNL     1      -4.104  -6.107   0.207  0.00  0.00    +0.000 C 
ATOM     14  H   UNL     1      -5.420  -7.356   0.822  0.00  0.00    +0.000 HD
ENDBRANCH   1  13
TORSDOF 1
ENDMDL
MODEL 8
REMARK VINA RESULT:    -1.377     10.329     10.943
REMARK INTER + INTRA:          -2.424
REMARK INTER:                  -1.675
REMARK INTRA:                  -0.749
REMARK CONF_INDEPENDENT:        0.298
REMARK UNBOUND:                 0.749
REMARK  Name = 4091
REMARK  3 active torsions:
REMARK  status: ('A' for Active; 'I' for Inactive)
REMARK    1  A    between atoms: N_1  and  C_6
REMARK    2  A    between atoms: N_1  and  C_7
REMARK    3  A    between atoms: N_2  and  C_8
REMARK                            x       y       z     vdW  Elec       q    Type
REMARK                         _______ _______ _______ _____ _____    ______ ____
ROOT
ATOM      1  N   UNL     1       4.385  -5.898  -5.846  0.00  0.00    +0.000 NA
ATOM      2  N   UNL     1       2.303  -6.933  -5.657  0.00  0.00    +0.000 N 
ATOM      3  N   UNL     1       3.640  -6.931  -3.806  0.00  0.00    +0.000 N 
ATOM      4  C   UNL     1       3.510  -6.550  -5.123  0.00  0.00    +0.000 C 
ATOM      5  H   UNL     1       1.616  -7.438  -5.108  0.00  0.00    +0.000 HD
ATOM      6  H   UNL     1       2.066  -6.722  -6.620  0.00  0.00    +0.000 HD
ATOM      7  H   UNL     1       4.473  -6.721  -3.267  0.00  0.00    +0.000 HD
ATOM      8  H   UNL     1       2.900  -7.435  -3.330  0.00  0.00    +0.000 HD
ENDROOT
BRANCH   1  13
ATOM      9  N   UNL     1       6.806  -5.840  -5.847  0.00  0.00    +0.000 N 
ATOM     10  N   UNL     1       5.439  -4.918  -4.112  0.00  0.00    +0.000 NA
ATOM     11  C   UNL     1       6.890  -6.549  -7.119  0.00  0.00    +0.000 C 
ATOM     12  C   UNL     1       8.066  -5.354  -5.296  0.00  0.00    +0.000 C 
ATOM     13  C   UNL     1       5.578  -5.545  -5.243  0.00  0.00    +0.000 C 
ATOM     14  H   UNL     1       6.353  -4.680  -3.718  0.00  0.00    +0.000 HD
ENDBRANCH   1  13
TORSDOF 1
ENDMDL
MODEL 9
REMARK VINA RESULT:    -1.340      3.248      4.380
REMARK INTER + INTRA:          -2.386
REMARK INTER:                  -1.638
REMARK INTRA:                  -0.748
REMARK CONF_INDEPENDENT:        0.298
REMARK UNBOUND:                 0.748
REMARK  Name = 4091
REMARK  3 active torsions:
REMARK  status: ('A' for Active; 'I' for Inactive)
REMARK    1  A    between atoms: N_1  and  C_6
REMARK    2  A    between atoms: N_1  and  C_7
REMARK    3  A    between atoms: N_2  and  C_8
REMARK                            x       y       z     vdW  Elec       q    Type
REMARK                         _______ _______ _______ _____ _____    ______ ____
ROOT
ATOM      1  N   UNL     1      -5.591  -3.691  -4.683  0.00  0.00    +0.000 NA
ATOM      2  N   UNL     1      -5.758  -5.747  -5.773  0.00  0.00    +0.000 N 
ATOM      3  N   UNL     1      -6.650  -5.600  -3.675  0.00  0.00    +0.000 N 
ATOM      4  C   UNL     1      -5.987  -4.938  -4.685  0.00  0.00    +0.000 C 
ATOM      5  H   UNL     1      -6.061  -6.714  -5.787  0.00  0.00    +0.000 HD
ATOM      6  H   UNL     1      -5.278  -5.395  -6.594  0.00  0.00    +0.000 HD
ATOM      7  H   UNL     1      -6.896  -5.142  -2.805  0.00  0.00    +0.000 HD
ATOM      8  H   UNL     1      -6.917  -6.574  -3.774  0.00  0.00    +0.000 HD
ENDROOT
BRANCH   1  13
ATOM      9  N   UNL     1      -6.506  -1.702  -3.648  0.00  0.00    +0.000 N 
ATOM     10  N   UNL     1      -5.465  -3.488  -2.442  0.00  0.00    +0.000 NA
ATOM     11  C   UNL     1      -6.916  -1.141  -4.931  0.00  0.00    +0.000 C 
ATOM     12  C   UNL     1      -6.916  -0.960  -2.461  0.00  0.00    +0.000 C 
ATOM     13  C   UNL     1      -5.854  -2.937  -3.554  0.00  0.00    +0.000 C 
ATOM     14  H   UNL     1      -5.691  -2.887  -1.645  0.00  0.00    +0.000 HD
ENDBRANCH   1  13
TORSDOF 1
ENDMDL
