REMARK  Name = 5311447
REMARK  13 active torsions:
REMARK  status: ('A' for Active; 'I' for Inactive)
REMARK    1  A    between atoms: O_4  and  C_17
REMARK    2  A    between atoms: O_6  and  C_23
REMARK    3  A    between atoms: O_6  and  C_27
REMARK    4  A    between atoms: N_9  and  C_18
REMARK    5  A    between atoms: N_9  and  C_19
REMARK    6  A    between atoms: C_12  and  C_17
REMARK    7  A    between atoms: C_14  and  C_18
REMARK    8  A    between atoms: C_18  and  C_20
REMARK    9  A    between atoms: C_19  and  C_21
REMARK   10  A    between atoms: C_19  and  C_23
REMARK   11  A    between atoms: C_21  and  C_22
REMARK   12  A    between atoms: C_22  and  C_24
REMARK   13  A    between atoms: C_27  and  C_31
REMARK                            x       y       z     vdW  Elec       q    Type
REMARK                         _______ _______ _______ _____ _____    ______ ____
ROOT
ATOM      1  C   UNK A   1       0.447  -0.328  -1.665  0.00  0.00    +0.000 C 
ATOM      2  C   UNK A   1       0.955  -0.086  -3.072  0.00  0.00    +0.000 C 
ENDROOT
BRANCH   1  11
ATOM      3  S   UNK A   1       5.416   0.890  -0.433  0.00  0.00    +0.000 S 
ATOM      4  S   UNK A   1       4.958  -1.410   1.410  0.00  0.00    +0.000 S 
ATOM      5  O   UNK A   1       0.035   1.799  -0.679  0.00  0.00    +0.000 OA
ATOM      6  N   UNK A   1       2.024   0.748  -0.127  0.00  0.00    +0.000 N 
ATOM      7  C   UNK A   1       4.172   0.034   0.619  0.00  0.00    +0.000 C 
ATOM      8  C   UNK A   1       3.559   0.985   1.662  0.00  0.00    +0.000 C 
ATOM      9  C   UNK A   1       2.420   1.685   0.916  0.00  0.00    +0.000 C 
ATOM     10  C   UNK A   1       2.960  -0.376  -0.223  0.00  0.00    +0.000 C 
ATOM     11  C   UNK A   1       0.803   0.840  -0.780  0.00  0.00    +0.000 C 
ATOM     12  C   UNK A   1       6.852  -0.104   0.046  0.00  0.00    +0.000 C 
ATOM     13  C   UNK A   1       6.375  -1.519   0.292  0.00  0.00    +0.000 C 
BRANCH   9  15
ATOM     14  O   UNK A   1       2.889   3.188  -0.920  0.00  0.00    +0.000 OA
ATOM     15  C   UNK A   1       2.866   2.970   0.282  0.00  0.00    +0.000 C 
BRANCH  15  16
ATOM     16  O   UNK A   1       3.247   3.864   1.227  0.00  0.00    +0.000 OA
ATOM     17  H   UNK A   1       3.545   4.710   0.831  0.00  0.00    +0.000 HD
ENDBRANCH  15  16
ENDBRANCH   9  15
ENDBRANCH   1  11
BRANCH   1  18
ATOM     18  N   UNK A   1      -1.001  -0.446  -1.646  0.00  0.00    +0.000 NA
ATOM     19  H   UNK A   1      -1.345  -0.936  -2.471  0.00  0.00    +0.000 HD
BRANCH  18  20
ATOM     20  C   UNK A   0      -1.457  -1.117  -0.434  0.00  0.00    +0.000 C 
BRANCH  20  22
ATOM     21  O   UNK A   0      -1.405  -3.195  -1.715  0.00  0.00    +0.000 OA
ATOM     22  C   UNK A   0      -1.284  -2.612  -0.646  0.00  0.00    +0.000 C 
BRANCH  22  23
ATOM     23  O   UNK A   0      -0.964  -3.199   0.547  0.00  0.00    +0.000 OA
BRANCH  23  24
ATOM     24  C   UNK A   0      -0.760  -4.615   0.504  0.00  0.00    +0.000 C 
ATOM     25  C   UNK A   0      -0.415  -5.106   1.893  0.00  0.00    +0.000 C 
ENDBRANCH  23  24
ENDBRANCH  22  23
ENDBRANCH  20  22
BRANCH  20  26
ATOM     26  C   UNK A   0      -2.932  -0.806  -0.133  0.00  0.00    +0.000 C 
BRANCH  26  27
ATOM     27  C   UNK A   0      -3.263   0.682   0.056  0.00  0.00    +0.000 C 
BRANCH  27  28
ATOM     28  C   UNK A   0      -4.728   0.954   0.288  0.00  0.00    +0.000 A 
ATOM     29  C   UNK A   0      -5.574   1.193  -0.795  0.00  0.00    +0.000 A 
ATOM     30  C   UNK A   0      -5.237   0.967   1.587  0.00  0.00    +0.000 A 
ATOM     31  C   UNK A   0      -6.928   1.445  -0.580  0.00  0.00    +0.000 A 
ATOM     32  C   UNK A   0      -6.592   1.218   1.802  0.00  0.00    +0.000 A 
ATOM     33  C   UNK A   0      -7.438   1.457   0.719  0.00  0.00    +0.000 A 
ENDBRANCH  27  28
ENDBRANCH  26  27
ENDBRANCH  20  26
ENDBRANCH  18  20
ENDBRANCH   1  18
TORSDOF 11
