REMARK  Name = 97535
REMARK  16 active torsions:
REMARK  status: ('A' for Active; 'I' for Inactive)
REMARK    1  A    between atoms: SG_1  and  CB_20
REMARK    2  A    between atoms: SG_1  and  C_24
REMARK    3  A    between atoms: O_4  and  C_25
REMARK    4  A    between atoms: O_6  and  C_32
REMARK    5  A    between atoms: N_12  and  CA_17
REMARK    6  A    between atoms: N_13  and  CA_27
REMARK    7  A    between atoms: N_14  and  CA_21
REMARK    8  A    between atoms: N_15  and  C_26
REMARK    9  A    between atoms: N_16  and  C_30
REMARK   10  A    between atoms: CA_17  and  CB_20
REMARK   11  A    between atoms: CA_17  and  C_23
REMARK   12  A    between atoms: C_18  and  C_19
REMARK   13  A    between atoms: C_18  and  CA_21
REMARK   14  A    between atoms: C_19  and  C_22
REMARK   15  A    between atoms: CA_21  and  C_25
REMARK   16  A    between atoms: CA_27  and  C_32
REMARK                            x       y       z     vdW  Elec       q    Type
REMARK                         _______ _______ _______ _____ _____    ______ ____
ROOT
ATOM      1  CA  UNL     1       2.182   1.129   1.060  0.00  0.00    +0.000 C 
ENDROOT
BRANCH   1   3
ATOM      2  O   UNL     1      -0.212   2.423   2.021  0.00  0.00    +0.000 OA
ATOM      3  N   UNL     1       0.963   1.362   0.321  0.00  0.00    +0.000 N 
ATOM      4  C   UNL     1      -0.142   1.996   0.872  0.00  0.00    +0.000 C 
ATOM      5  H   UNL     1       0.915   1.037  -0.641  0.00  0.00    +0.000 HD
BRANCH   4   6
ATOM      6  C   UNL     1      -1.283   2.097  -0.126  0.00  0.00    +0.000 C 
BRANCH   6   7
ATOM      7  C   UNL     1      -2.512   2.794   0.462  0.00  0.00    +0.000 C 
BRANCH   7   8
ATOM      8  CA  UNL     1      -3.643   2.966  -0.558  0.00  0.00    +0.000 C 
BRANCH   8   9
ATOM      9  N   UNL     1      -4.779   3.637   0.079  0.00  0.00    +0.000 NA
ATOM     10  H1  UNL     1      -4.483   4.546   0.433  0.00  0.00    +0.000 HD
ATOM     11  H2  UNL     1      -5.498   3.826  -0.618  0.00  0.00    +0.000 HD
ENDBRANCH   8   9
BRANCH   8  13
ATOM     12  OXT UNL     1      -5.015   0.953  -0.498  0.00  0.00    +0.000 OA
ATOM     13  C   UNL     1      -4.152   1.623  -1.050  0.00  0.00    +0.000 C 
BRANCH  13  14
ATOM     14  O   UNL     1      -3.519   1.216  -2.181  0.00  0.00    +0.000 OA
ATOM     15  H   UNL     1      -3.839   0.339  -2.483  0.00  0.00    +0.000 HD
ENDBRANCH  13  14
ENDBRANCH   8  13
ENDBRANCH   7   8
ENDBRANCH   6   7
ENDBRANCH   4   6
ENDBRANCH   1   3
BRANCH   1  18
ATOM     16  O   UNL     1       3.241   1.408  -1.106  0.00  0.00    +0.000 OA
ATOM     17  N   UNL     1       4.585   1.152   0.768  0.00  0.00    +0.000 N 
ATOM     18  C   ACE A   1       3.369   1.255   0.107  0.00  0.00    +0.000 C 
ATOM     19  H   UNL     1       4.604   1.049   1.778  0.00  0.00    +0.000 HD
BRANCH  17  20
ATOM     20  CA  UNL     1       5.853   1.215   0.080  0.00  0.00    +0.000 C 
BRANCH  20  22
ATOM     21  OXT UNL     1       7.403  -0.302  -0.964  0.00  0.00    +0.000 OA
ATOM     22  C   UNL     1       6.345  -0.136  -0.370  0.00  0.00    +0.000 C 
BRANCH  22  23
ATOM     23  O   UNL     1       5.503  -1.149  -0.058  0.00  0.00    +0.000 OA
ATOM     24  H   UNL     1       5.845  -2.017  -0.363  0.00  0.00    +0.000 HD
ENDBRANCH  22  23
ENDBRANCH  20  22
ENDBRANCH  17  20
ENDBRANCH   1  18
BRANCH   1  25
ATOM     25  CB  UNL     1       2.155  -0.196   1.825  0.00  0.00    +0.000 C 
BRANCH  25  26
ATOM     26  SG  UNL     1       2.030  -1.663   0.749  0.00  0.00    +0.000 S 
BRANCH  26  27
ATOM     27  C   UNL     1       0.257  -1.857   0.630  0.00  0.00    +0.000 A 
ATOM     28  C   UNL     1      -0.418  -1.802  -0.589  0.00  0.00    +0.000 A 
ATOM     29  C   UNL     1      -0.454  -2.068   1.812  0.00  0.00    +0.000 A 
ATOM     30  C   UNL     1      -1.803  -1.958  -0.627  0.00  0.00    +0.000 A 
ATOM     31  C   UNL     1      -2.514  -2.169   0.554  0.00  0.00    +0.000 A 
ATOM     32  C   UNL     1      -1.839  -2.224   1.774  0.00  0.00    +0.000 A 
BRANCH  28  35
ATOM     33  O   UNL     1       0.433  -0.415  -2.224  0.00  0.00    +0.000 OA
ATOM     34  O   UNL     1       0.683  -2.584  -2.459  0.00  0.00    +0.000 OA
ATOM     35  N   UNL     1       0.267  -1.590  -1.820  0.00  0.00    +0.000 N 
ENDBRANCH  28  35
BRANCH  31  38
ATOM     36  O   UNL     1      -4.545  -2.514   1.592  0.00  0.00    +0.000 OA
ATOM     37  O   UNL     1      -4.514  -2.274  -0.590  0.00  0.00    +0.000 OA
ATOM     38  N   UNL     1      -3.925  -2.327   0.517  0.00  0.00    +0.000 N 
ENDBRANCH  31  38
ENDBRANCH  26  27
ENDBRANCH  25  26
ENDBRANCH   1  25
TORSDOF 16
