REMARK  Name = 
REMARK  21 active torsions:
REMARK  status: ('A' for Active; 'I' for Inactive)
REMARK    1  A    between atoms: N_1  and  C_2
REMARK    2  A    between atoms: C_2  and  C_3
REMARK    3  A    between atoms: C_3  and  C_4
REMARK    4  A    between atoms: C_4  and  C_5
REMARK    5  A    between atoms: C_5  and  N_6
REMARK    6  A    between atoms: N_6  and  C_7
REMARK    7  A    between atoms: C_7  and  C_8
REMARK    8  A    between atoms: C_8  and  C_9
REMARK    9  A    between atoms: C_9  and  N_10
REMARK   10  A    between atoms: C_11  and  C_13
REMARK   11  A    between atoms: C_13  and  N_14
REMARK   12  A    between atoms: C_15  and  C_17
REMARK   13  A    between atoms: C_17  and  C_18
REMARK   14  A    between atoms: C_17  and  N_20
REMARK   15  A    between atoms: C_18  and  S_19
REMARK   16  A    between atoms: C_21  and  C_23
REMARK   17  A    between atoms: C_23  and  C_24
REMARK   18  A    between atoms: C_24  and  C_25
REMARK   19  A    between atoms: C_25  and  N_26
REMARK   20  A    between atoms: C_25  and  C_27
REMARK   21  A    between atoms: C_27  and  O_29
REMARK                            x       y       z     vdW  Elec       q    Type
REMARK                         _______ _______ _______ _____ _____    ______ ____
ROOT
ATOM      1  N   UNK     1       0.600  -1.429   0.153  0.00  0.00    +0.000 N 
ATOM      2  C   UNK     1       1.300  -0.639  -0.829  0.00  0.00    +0.000 C 
ATOM      3  O   UNK     1       0.501  -0.219  -1.698  0.00  0.00    +0.000 OA
ATOM      4  H   UNK     1       0.913  -1.413   1.086  0.00  0.00    +0.000 HD
ENDROOT
BRANCH   1   5
ATOM      5  C   UNK     1      -0.549  -2.244  -0.182  0.00  0.00    +0.000 C 
BRANCH   5   7
ATOM      6  N   UNK     1      -2.941  -2.522   0.441  0.00  0.00    +0.000 N 
ATOM      7  C   UNK     1      -1.824  -1.659   0.300  0.00  0.00    +0.000 C 
ATOM      8  O   UNK     1      -2.034  -0.431   0.099  0.00  0.00    +0.000 OA
ATOM      9  H   UNK     1      -2.902  -3.461   0.146  0.00  0.00    +0.000 HD
BRANCH   6  10
ATOM     10  C   UNK     1      -4.136  -1.972   1.031  0.00  0.00    +0.000 C 
BRANCH  10  11
ATOM     11  C   UNK     1      -4.366  -0.616   0.384  0.00  0.00    +0.000 C 
BRANCH  11  12
ATOM     12  C   UNK     1      -5.104  -0.753  -0.937  0.00  0.00    +0.000 C 
BRANCH  12  13
ATOM     13  N   UNK     1      -6.265  -1.613  -0.810  0.00  0.00    +0.000 NA
ATOM     14  H   UNK     1      -6.983  -1.291  -1.459  0.00  0.00    +0.000 HD
BRANCH  13  15
ATOM     15  C   UNK     1      -6.813  -1.611   0.522  0.00  0.00    +0.000 C 
BRANCH  15  16
ATOM     16  C   UNK     1      -8.078  -0.812   0.644  0.00  0.00    +0.000 C 
BRANCH  16  17
ATOM     17  C   UNK     1      -8.040   0.492  -0.099  0.00  0.00    +0.000 C 
BRANCH  17  18
ATOM     18  C   UNK     1      -7.605   1.564   0.860  0.00  0.00    +0.000 C 
BRANCH  18  19
ATOM     19  N   UNK     1      -8.133   2.821   0.467  0.00  0.00    +0.000 NA
ATOM     20  H   UNK     1      -7.830   3.538   1.126  0.00  0.00    +0.000 HD
ATOM     21  H   UNK     1      -9.152   2.774   0.461  0.00  0.00    +0.000 HD
ENDBRANCH  18  19
ENDBRANCH  17  18
ENDBRANCH  16  17
ENDBRANCH  15  16
ENDBRANCH  13  15
ENDBRANCH  12  13
ENDBRANCH  11  12
ENDBRANCH  10  11
ENDBRANCH   6  10
ENDBRANCH   5   7
ENDBRANCH   1   5
BRANCH   2  22
ATOM     22  C   UNK     1       2.033   0.553   0.035  0.00  0.00    +0.000 C 
BRANCH  22  23
ATOM     23  N   UNK     1       3.480  -0.106  -0.186  0.00  0.00    +0.000 N 
ATOM     24  C   UNK     1       3.910  -0.585   1.093  0.00  0.00    +0.000 C 
ATOM     25  O   UNK     1       3.225  -1.557   1.537  0.00  0.00    +0.000 OA
ATOM     26  H   UNK     1       3.974  -0.169  -1.035  0.00  0.00    +0.000 HD
BRANCH  24  27
ATOM     27  C   UNK     1       5.283  -0.492   1.610  0.00  0.00    +0.000 C 
BRANCH  27  28
ATOM     28  C   UNK     1       5.847   0.900   1.589  0.00  0.00    +0.000 C 
BRANCH  28  29
ATOM     29  C   UNK     1       6.074   1.223  -0.038  0.00  0.00    +0.000 C 
BRANCH  29  30
ATOM     30  N   UNK     1       6.877  -0.151  -0.244  0.00  0.00    +0.000 NA
ATOM     31  H   UNK     1       7.554  -0.266   0.510  0.00  0.00    +0.000 HD
ATOM     32  H   UNK     1       7.365  -0.130  -1.139  0.00  0.00    +0.000 HD
ENDBRANCH  29  30
BRANCH  29  33
ATOM     33  C   UNK     1       7.468   2.034   0.280  0.00  0.00    +0.000 C 
ATOM     34  O   UNK     1       7.153   3.177   0.733  0.00  0.00    +0.000 OA
BRANCH  33  35
ATOM     35  O   UNK     1       8.356   1.978  -0.792  0.00  0.00    +0.000 OA
ATOM     36  H   UNK     1       8.607   1.149  -1.149  0.00  0.00    +0.000 HD
ENDBRANCH  33  35
ENDBRANCH  29  33
ENDBRANCH  28  29
ENDBRANCH  27  28
ENDBRANCH  24  27
ENDBRANCH  22  23
BRANCH  22  37
ATOM     37  C   UNK     1       2.249   1.542  -1.302  0.00  0.00    +0.000 C 
BRANCH  37  38
ATOM     38  S   UNK     1       1.535   3.128  -0.747  0.00  0.00    +0.000 S 
ATOM     39  H   UNK     1       0.242   2.938  -0.373  0.00  0.00    +0.000 HD
ENDBRANCH  37  38
ENDBRANCH  22  37
ENDBRANCH   2  22
TORSDOF 21
