REMARK  Name = 447108
REMARK  15 active torsions:
REMARK  status: ('A' for Active; 'I' for Inactive)
REMARK    1  A    between atoms: SG_2  and  CB_15
REMARK    2  A    between atoms: SG_2  and  C_19
REMARK    3  A    between atoms: O_5  and  C_20
REMARK    4  A    between atoms: O_7  and  C_27
REMARK    5  A    between atoms: N_9  and  CA_12
REMARK    6  A    between atoms: N_10  and  CA_22
REMARK    7  A    between atoms: N_11  and  CA_16
REMARK    8  A    between atoms: CA_12  and  CB_15
REMARK    9  A    between atoms: CA_12  and  C_18
REMARK   10  A    between atoms: C_13  and  C_14
REMARK   11  A    between atoms: C_13  and  CA_16
REMARK   12  A    between atoms: C_14  and  C_17
REMARK   13  A    between atoms: CA_16  and  C_20
REMARK   14  A    between atoms: C_19  and  C_21
REMARK   15  A    between atoms: CA_22  and  C_27
REMARK                            x       y       z     vdW  Elec       q    Type
REMARK                         _______ _______ _______ _____ _____    ______ ____
ROOT
ATOM      1  CA  UNL     1       0.739   1.421   0.899  0.00  0.00    +0.000 C 
ENDROOT
BRANCH   1   3
ATOM      2  O   UNL     1       1.475  -0.486  -1.137  0.00  0.00    +0.000 OA
ATOM      3  N   UNL     1       0.988   0.009   1.079  0.00  0.00    +0.000 N 
ATOM      4  C   UNL     1       1.338  -0.832   0.034  0.00  0.00    +0.000 C 
ATOM      5  H   UNL     1       0.961  -0.363   2.025  0.00  0.00    +0.000 HD
BRANCH   4   6
ATOM      6  C   UNL     1       1.528  -2.263   0.508  0.00  0.00    +0.000 C 
BRANCH   6   7
ATOM      7  C   UNL     1       1.916  -3.208  -0.631  0.00  0.00    +0.000 C 
BRANCH   7   8
ATOM      8  CA  UNL     1       2.181  -4.640  -0.152  0.00  0.00    +0.000 C 
BRANCH   8   9
ATOM      9  N   UNL     1       2.544  -5.480  -1.296  0.00  0.00    +0.000 NA
ATOM     10  H1  UNL     1       3.375  -5.100  -1.748  0.00  0.00    +0.000 HD
ATOM     11  H2  UNL     1       2.800  -6.410  -0.969  0.00  0.00    +0.000 HD
ENDBRANCH   8   9
BRANCH   8  13
ATOM     12  OXT UNL     1       0.057  -5.836  -0.162  0.00  0.00    +0.000 OA
ATOM     13  C   UNL     1       0.937  -5.256   0.462  0.00  0.00    +0.000 C 
BRANCH  13  14
ATOM     14  O   UNL     1       0.882  -5.072   1.807  0.00  0.00    +0.000 OA
ATOM     15  H   UNL     1       0.070  -5.460   2.196  0.00  0.00    +0.000 HD
ENDBRANCH  13  14
ENDBRANCH   8  13
ENDBRANCH   7   8
ENDBRANCH   6   7
ENDBRANCH   4   6
ENDBRANCH   1   3
BRANCH   1  18
ATOM     16  O   UNL     1       2.986   1.841   1.716  0.00  0.00    +0.000 OA
ATOM     17  N   UNL     1       2.101   3.259   0.107  0.00  0.00    +0.000 N 
ATOM     18  C   ACE A   1       2.069   2.169   0.966  0.00  0.00    +0.000 C 
ATOM     19  H   UNL     1       1.299   3.458  -0.482  0.00  0.00    +0.000 HD
BRANCH  17  20
ATOM     20  CA  UNL     1       3.243   4.138   0.007  0.00  0.00    +0.000 C 
BRANCH  20  22
ATOM     21  OXT UNL     1       5.278   4.295  -1.269  0.00  0.00    +0.000 OA
ATOM     22  C   UNL     1       4.237   3.693  -1.034  0.00  0.00    +0.000 C 
BRANCH  22  23
ATOM     23  O   UNL     1       3.870   2.564  -1.684  0.00  0.00    +0.000 OA
ATOM     24  H   UNL     1       4.533   2.295  -2.356  0.00  0.00    +0.000 HD
ENDBRANCH  22  23
ENDBRANCH  20  22
ENDBRANCH  17  20
ENDBRANCH   1  18
BRANCH   1  25
ATOM     25  CB  UNL     1      -0.308   1.958   1.878  0.00  0.00    +0.000 C 
BRANCH  25  26
ATOM     26  SG  UNL     1      -1.909   1.090   1.790  0.00  0.00    +0.000 S 
BRANCH  26  27
ATOM     27  C   UNL     1      -2.539   1.869   0.286  0.00  0.00    +0.000 C 
BRANCH  27  29
ATOM     28  I   UNL     1      -2.467  -0.794  -1.739  0.00  0.00    +0.000 I 
ATOM     29  C   UNL     1      -3.903   1.358  -0.089  0.00  0.00    +0.000 A 
ATOM     30  C   UNL     1      -4.084   0.256  -0.924  0.00  0.00    +0.000 A 
ATOM     31  C   UNL     1      -5.010   2.029   0.430  0.00  0.00    +0.000 A 
ATOM     32  C   UNL     1      -5.372  -0.175  -1.242  0.00  0.00    +0.000 A 
ATOM     33  C   UNL     1      -6.298   1.598   0.113  0.00  0.00    +0.000 A 
ATOM     34  C   UNL     1      -6.479   0.496  -0.723  0.00  0.00    +0.000 A 
ENDBRANCH  27  29
ENDBRANCH  26  27
ENDBRANCH  25  26
ENDBRANCH   1  25
TORSDOF 15
