REMARK  Name = 160139
REMARK  11 active torsions:
REMARK  status: ('A' for Active; 'I' for Inactive)
REMARK    1  A    between atoms: O_4  and  C_21
REMARK    2  A    between atoms: O_6  and  C_24
REMARK    3  A    between atoms: N_9  and  CA_12
REMARK    4  A    between atoms: N_10  and  CA_23
REMARK    5  A    between atoms: CA_14  and  C_21
REMARK    6  A    between atoms: C_16  and  C_19
REMARK    7  A    between atoms: C_17  and  C_18
REMARK    8  A    between atoms: C_18  and  C_20
REMARK    9  A    between atoms: C_20  and  C_22
REMARK   10  A    between atoms: C_22  and  CA_23
REMARK   11  A    between atoms: CA_23  and  C_24
REMARK                            x       y       z     vdW  Elec       q    Type
REMARK                         _______ _______ _______ _____ _____    ______ ____
ROOT
ATOM      1  O   UNL     1       1.432   3.135  -0.778  0.00  0.00    +0.000 OA
ATOM      2  N   UNL     1       0.568   1.153   0.063  0.00  0.00    +0.000 N 
ATOM      3  C   UNL     1       1.448   2.228   0.050  0.00  0.00    +0.000 C 
ATOM      4  H   UNL     1       0.646   0.473   0.814  0.00  0.00    +0.000 HD
ENDROOT
BRANCH   2   9
ATOM      5  S   UNL     1      -0.520  -1.714  -0.035  0.00  0.00    +0.000 S 
ATOM      6  O   UNL     1      -2.371   2.550  -0.140  0.00  0.00    +0.000 OA
ATOM      7  N   UNL     1      -2.314   0.208  -0.409  0.00  0.00    +0.000 N 
ATOM      8  C   UNL     1      -1.170  -0.387  -1.076  0.00  0.00    +0.000 C 
ATOM      9  CA  UNL     1      -0.499   0.991  -0.941  0.00  0.00    +0.000 C 
ATOM     10  C   UNL     1      -1.883   1.487  -0.447  0.00  0.00    +0.000 C 
ATOM     11  CA  UNL     1      -3.382  -0.503   0.036  0.00  0.00    +0.000 C 
ATOM     12  C   UNL     1      -2.072  -2.673  -0.095  0.00  0.00    +0.000 C 
ATOM     13  C   UNL     1      -3.334  -1.851   0.155  0.00  0.00    +0.000 C 
ATOM     14  C   UNL     1      -4.502  -2.717   0.563  0.00  0.00    +0.000 C 
BRANCH  11  16
ATOM     15  OXT UNL     1      -4.743   0.714   1.558  0.00  0.00    +0.000 OA
ATOM     16  C   UNL     1      -4.569   0.263   0.444  0.00  0.00    +0.000 C 
BRANCH  16  17
ATOM     17  O   UNL     1      -5.410   0.375  -0.603  0.00  0.00    +0.000 OA
ATOM     18  H   UNL     1      -6.219   0.880  -0.374  0.00  0.00    +0.000 HD
ENDBRANCH  16  17
ENDBRANCH  11  16
ENDBRANCH   2   9
BRANCH   3  19
ATOM     19  C   UNL     1       2.465   2.139   1.176  0.00  0.00    +0.000 C 
BRANCH  19  20
ATOM     20  C   UNL     1       3.334   0.881   1.120  0.00  0.00    +0.000 C 
BRANCH  20  21
ATOM     21  C   UNL     1       4.135   0.789  -0.188  0.00  0.00    +0.000 C 
BRANCH  21  22
ATOM     22  CA  UNL     1       5.077  -0.421  -0.285  0.00  0.00    +0.000 C 
BRANCH  22  23
ATOM     23  N   UNL     1       6.080  -0.445   0.779  0.00  0.00    +0.000 NA
ATOM     24  H1  UNL     1       6.572   0.447   0.804  0.00  0.00    +0.000 HD
ATOM     25  H2  UNL     1       5.629  -0.543   1.688  0.00  0.00    +0.000 HD
ENDBRANCH  22  23
BRANCH  22  27
ATOM     26  OXT UNL     1       4.466  -2.619   0.586  0.00  0.00    +0.000 OA
ATOM     27  C   UNL     1       4.323  -1.738  -0.253  0.00  0.00    +0.000 C 
BRANCH  27  28
ATOM     28  O   UNL     1       3.440  -1.845  -1.281  0.00  0.00    +0.000 OA
ATOM     29  H   UNL     1       2.950  -2.694  -1.256  0.00  0.00    +0.000 HD
ENDBRANCH  27  28
ENDBRANCH  22  27
ENDBRANCH  21  22
ENDBRANCH  20  21
ENDBRANCH  19  20
ENDBRANCH   3  19
TORSDOF 10
