REMARK  Name = 449123
REMARK  13 active torsions:
REMARK  status: ('A' for Active; 'I' for Inactive)
REMARK    1  A    between atoms: O_1  and  C_25
REMARK    2  A    between atoms: O_7  and  C_45
REMARK    3  A    between atoms: N_17  and  C_41
REMARK    4  A    between atoms: C_27  and  C_32
REMARK    5  A    between atoms: C_31  and  C_34
REMARK    6  A    between atoms: C_32  and  C_37
REMARK    7  A    between atoms: C_34  and  C_39
REMARK    8  A    between atoms: C_35  and  C_38
REMARK    9  A    between atoms: C_38  and  C_40
REMARK   10  A    between atoms: C_39  and  C_41
REMARK   11  A    between atoms: C_40  and  C_43
REMARK   12  A    between atoms: C_43  and  C_45
REMARK   13  A    between atoms: C_47  and  C_48
REMARK                            x       y       z     vdW  Elec       q    Type
REMARK                         _______ _______ _______ _____ _____    ______ ____
ROOT
ATOM      1  O   UNK A   2      -3.987   0.839   1.874  0.00  0.00    +0.000 OA
ATOM      2  O   PRO A   1      -3.121   4.131  -1.762  0.00  0.00    +0.000 OA
ATOM      3  O   UNK A   5       0.357   2.138  -1.763  0.00  0.00    +0.000 OA
ATOM      4  O   UNK A   3      -2.202  -3.771   0.806  0.00  0.00    +0.000 OA
ATOM      5  O   UNK A   4       1.792  -0.758   2.098  0.00  0.00    +0.000 OA
ATOM      6  N   PRO A   1      -0.072   3.436   0.093  0.00  0.00    +0.000 N 
ATOM      7  N   UNK A   3      -3.709  -0.574   0.009  0.00  0.00    +0.000 N 
ATOM      8  N   UNK A   2      -2.626   2.458  -0.242  0.00  0.00    +0.000 N 
ATOM      9  N   UNK A   5       0.741   0.184   0.254  0.00  0.00    +0.000 N 
ATOM     10  N   UNK A   4      -1.268  -1.658   0.818  0.00  0.00    +0.000 N 
ATOM     11  CA  PRO A   1      -1.042   4.304  -0.576  0.00  0.00    +0.000 C 
ATOM     12  C   UNK A   2      -3.877   1.740  -0.377  0.00  0.00    +0.000 C 
ATOM     13  CB  PRO A   1      -1.347   5.404   0.447  0.00  0.00    +0.000 C 
ATOM     14  C   UNK A   2      -4.045   0.983  -1.698  0.00  0.00    +0.000 C 
ATOM     15  CG  PRO A   1      -0.115   5.430   1.335  0.00  0.00    +0.000 C 
ATOM     16  C   UNK A   2      -3.480  -0.400  -1.415  0.00  0.00    +0.000 C 
ATOM     17  CD  PRO A   1       0.289   3.967   1.403  0.00  0.00    +0.000 C 
ATOM     18  C   UNK A   3      -3.700  -1.878   0.681  0.00  0.00    +0.000 C 
ATOM     19  C   UNK A   2      -3.895   0.646   0.670  0.00  0.00    +0.000 C 
ATOM     20  C   PRO A   1      -2.348   3.608  -0.959  0.00  0.00    +0.000 C 
ATOM     21  C   UNK A   5       0.555   2.390  -0.570  0.00  0.00    +0.000 C 
ATOM     22  C   UNK A   5       1.427   1.468   0.276  0.00  0.00    +0.000 C 
ATOM     23  C   UNK A   3      -2.323  -2.549   0.719  0.00  0.00    +0.000 C 
ATOM     24  C   UNK A   4       0.124  -2.063   0.958  0.00  0.00    +0.000 C 
ATOM     25  C   UNK A   4       0.953  -0.808   1.200  0.00  0.00    +0.000 C 
ATOM     26  H   UNK A   2      -1.946   2.128   0.437  0.00  0.00    +0.000 HD
ATOM     27  H   UNK A   5       0.073   0.009  -0.493  0.00  0.00    +0.000 HD
ATOM     28  H   UNK A   4      -1.480  -0.664   0.815  0.00  0.00    +0.000 HD
ENDROOT
BRANCH  16  29
ATOM     29  O   UNK A   2      -2.088  -0.419  -1.691  0.00  0.00    +0.000 OA
ATOM     30  H   UNK A   2      -1.976  -0.247  -2.642  0.00  0.00    +0.000 HD
ENDBRANCH  16  29
BRANCH  18  31
ATOM     31  C   UNK A   3      -4.764  -2.813   0.112  0.00  0.00    +0.000 C 
BRANCH  31  34
ATOM     32  N   UNK A   3      -7.119  -2.465  -0.716  0.00  0.00    +0.000 N 
ATOM     33  N   UNK A   3      -8.013  -1.061   0.754  0.00  0.00    +0.000 NA
ATOM     34  C   UNK A   3      -6.137  -2.205   0.198  0.00  0.00    +0.000 A 
ATOM     35  C   UNK A   3      -6.713  -1.336   1.095  0.00  0.00    +0.000 A 
ATOM     36  C   UNK A   3      -8.226  -1.756  -0.341  0.00  0.00    +0.000 A 
ATOM     37  H   UNK A   3      -7.044  -3.070  -1.523  0.00  0.00    +0.000 HD
ENDBRANCH  31  34
ENDBRANCH  18  31
BRANCH  22  38
ATOM     38  C   UNK A   5       2.822   1.364  -0.324  0.00  0.00    +0.000 C 
BRANCH  38  39
ATOM     39  C   UNK A   5       3.664   2.597   0.007  0.00  0.00    +0.000 C 
BRANCH  39  40
ATOM     40  C   UNK A   5       5.073   2.512  -0.571  0.00  0.00    +0.000 C 
BRANCH  40  42
ATOM     41  O   UNK A   5       6.097  -0.916   1.555  0.00  0.00    +0.000 OA
ATOM     42  N   UNK A   5       5.774   1.361  -0.002  0.00  0.00    +0.000 NA
ATOM     43  N   UNK A   5       7.697   0.090   0.163  0.00  0.00    +0.000 N 
ATOM     44  N   UNK A   5       7.743   1.950  -1.232  0.00  0.00    +0.000 N 
ATOM     45  C   UNK A   5       7.000   1.183  -0.366  0.00  0.00    +0.000 C 
ATOM     46  C   UNK A   5       7.222  -0.869   1.066  0.00  0.00    +0.000 C 
ATOM     47  C   UNK A   5       8.273  -1.899   1.387  0.00  0.00    +0.000 C 
ATOM     48  H   UNK A   5       8.658  -0.011  -0.153  0.00  0.00    +0.000 HD
ATOM     49  H   UNK A   5       7.363   2.770  -1.690  0.00  0.00    +0.000 HD
ATOM     50  H   UNK A   5       8.706   1.713  -1.446  0.00  0.00    +0.000 HD
ENDBRANCH  40  42
ENDBRANCH  39  40
ENDBRANCH  38  39
ENDBRANCH  22  38
BRANCH  24  51
ATOM     51  C   UNK A   4       0.644  -2.805  -0.270  0.00  0.00    +0.000 C 
BRANCH  51  52
ATOM     52  C   UNK A   4       2.097  -3.258  -0.134  0.00  0.00    +0.000 C 
BRANCH  52  53
ATOM     53  C   UNK A   4       2.609  -4.028  -1.351  0.00  0.00    +0.000 C 
BRANCH  53  55
ATOM     54  O   UNK A   4       4.740  -4.248  -0.193  0.00  0.00    +0.000 OA
ATOM     55  C   UNK A   4       4.043  -4.473  -1.173  0.00  0.00    +0.000 C 
BRANCH  55  56
ATOM     56  O   UNK A   4       4.483  -5.175  -2.250  0.00  0.00    +0.000 OA
ATOM     57  H   UNK A   4       5.412  -5.469  -2.140  0.00  0.00    +0.000 HD
ENDBRANCH  55  56
ENDBRANCH  53  55
ENDBRANCH  52  53
ENDBRANCH  51  52
ENDBRANCH  24  51
TORSDOF 12
