REMARK  Name = 5388929
REMARK  14 active torsions:
REMARK  status: ('A' for Active; 'I' for Inactive)
REMARK    1  A    between atoms: O_1  and  C_11
REMARK    2  A    between atoms: O_1  and  C_26
REMARK    3  A    between atoms: N_6  and  C_17
REMARK    4  A    between atoms: N_7  and  C_13
REMARK    5  A    between atoms: N_8  and  C_30
REMARK    6  A    between atoms: N_8  and  C_39
REMARK    7  A    between atoms: C_9  and  C_16
REMARK    8  A    between atoms: C_13  and  C_14
REMARK    9  A    between atoms: C_13  and  C_15
REMARK   10  A    between atoms: C_14  and  C_20
REMARK   11  A    between atoms: C_14  and  C_21
REMARK   12  A    between atoms: C_14  and  C_22
REMARK   13  A    between atoms: C_27  and  C_30
REMARK   14  A    between atoms: C_30  and  C_35
REMARK                            x       y       z     vdW  Elec       q    Type
REMARK                         _______ _______ _______ _____ _____    ______ ____
ROOT
ATOM      1  O   UNL     1      -1.641   3.868  -0.507  0.00  0.00    +0.000 OA
ATOM      2  N   UNL     1      -0.129   2.172  -0.930  0.00  0.00    +0.000 N 
ATOM      3  C   UNL     1       0.228   0.818  -1.343  0.00  0.00    +0.000 C 
ATOM      4  C   UNL     1       1.658   0.937  -1.869  0.00  0.00    +0.000 C 
ATOM      5  C   UNL     1       2.236   2.124  -1.101  0.00  0.00    +0.000 C 
ATOM      6  C   UNL     1       1.041   3.045  -0.902  0.00  0.00    +0.000 C 
ATOM      7  C   UNL     1      -1.403   2.677  -0.724  0.00  0.00    +0.000 C 
ENDROOT
BRANCH   3  10
ATOM      8  O   UNL     1      -0.167   0.333   0.961  0.00  0.00    +0.000 OA
ATOM      9  N   UNL     1       0.554  -1.376  -0.444  0.00  0.00    +0.000 N 
ATOM     10  C   UNL     1       0.170  -0.082  -0.144  0.00  0.00    +0.000 C 
ATOM     11  H   UNL     1       0.817  -1.605  -1.399  0.00  0.00    +0.000 HD
BRANCH   9  12
ATOM     12  C   UNL     1       0.607  -2.433   0.542  0.00  0.00    +0.000 C 
ATOM     13  C   UNL     1       1.944  -2.400   1.292  0.00  0.00    +0.000 C 
ATOM     14  C   UNL     1       0.326  -3.773  -0.102  0.00  0.00    +0.000 A 
ATOM     15  C   UNL     1       3.062  -3.004   0.447  0.00  0.00    +0.000 C 
ATOM     16  C   UNL     1       2.766  -4.469   0.137  0.00  0.00    +0.000 C 
ATOM     17  C   UNL     1       1.351  -4.713  -0.326  0.00  0.00    +0.000 A 
ATOM     18  C   UNL     1      -0.982  -4.074  -0.517  0.00  0.00    +0.000 A 
ATOM     19  C   UNL     1       1.042  -5.937  -0.940  0.00  0.00    +0.000 A 
ATOM     20  C   UNL     1      -1.273  -5.290  -1.134  0.00  0.00    +0.000 A 
ATOM     21  C   UNL     1      -0.261  -6.221  -1.345  0.00  0.00    +0.000 A 
ENDBRANCH   9  12
ENDBRANCH   3  10
BRANCH   5  22
ATOM     22  O   UNL     1       2.735   1.685   0.157  0.00  0.00    +0.000 OA
BRANCH  22  23
ATOM     23  C   UNL     1       4.053   1.947   0.425  0.00  0.00    +0.000 A 
ATOM     24  C   UNL     1       4.511   3.264   0.449  0.00  0.00    +0.000 A 
ATOM     25  C   UNL     1       4.937   0.897   0.672  0.00  0.00    +0.000 A 
ATOM     26  C   UNL     1       5.853   3.531   0.720  0.00  0.00    +0.000 A 
ATOM     27  C   UNL     1       6.279   1.164   0.944  0.00  0.00    +0.000 A 
ATOM     28  C   UNL     1       6.736   2.481   0.968  0.00  0.00    +0.000 A 
ENDBRANCH  22  23
ENDBRANCH   5  22
BRANCH   7  29
ATOM     29  C   UNL     1      -2.530   1.677  -0.775  0.00  0.00    +0.000 C 
BRANCH  29  31
ATOM     30  O   UNL     1      -3.493  -0.633   0.647  0.00  0.00    +0.000 OA
ATOM     31  N   UNL     1      -3.028   1.640   0.573  0.00  0.00    +0.000 N 
ATOM     32  C   UNL     1      -3.476   0.472   1.185  0.00  0.00    +0.000 C 
ATOM     33  H   UNL     1      -3.063   2.509   1.098  0.00  0.00    +0.000 HD
BRANCH  32  34
ATOM     34  C   UNL     1      -3.963   0.716   2.608  0.00  0.00    +0.000 C 
ATOM     35  C   UNL     1      -2.821   0.520   3.598  0.00  0.00    +0.000 C 
BRANCH  34  36
ATOM     36  N   UNL     1      -5.044  -0.225   2.890  0.00  0.00    +0.000 NA
ATOM     37  C   UNL     1      -6.295   0.235   2.307  0.00  0.00    +0.000 C 
ATOM     38  H   UNL     1      -5.171  -0.306   3.899  0.00  0.00    +0.000 HD
ENDBRANCH  34  36
ENDBRANCH  32  34
ENDBRANCH  29  31
BRANCH  29  39
ATOM     39  C   UNL     1      -3.603   2.014  -1.839  0.00  0.00    +0.000 C 
ATOM     40  C   UNL     1      -3.020   2.098  -3.262  0.00  0.00    +0.000 C 
ATOM     41  C   UNL     1      -4.713   0.944  -1.821  0.00  0.00    +0.000 C 
ATOM     42  C   UNL     1      -4.248   3.373  -1.496  0.00  0.00    +0.000 C 
ENDBRANCH  29  39
ENDBRANCH   7  29
TORSDOF 9
