REMARK  Name = 
REMARK  17 active torsions:
REMARK  status: ('A' for Active; 'I' for Inactive)
REMARK    1  A    between atoms: C_1  and  O_2
REMARK    2  A    between atoms: O_2  and  C_3
REMARK    3  A    between atoms: C_3  and  C_4
REMARK    4  A    between atoms: C_4  and  C_5
REMARK    5  A    between atoms: C_5  and  C_6
REMARK    6  A    between atoms: C_6  and  N_7
REMARK    7  A    between atoms: C_6  and  B_36
REMARK    8  A    between atoms: C_8  and  C_10
REMARK    9  A    between atoms: C_15  and  C_17
REMARK   10  A    between atoms: C_17  and  C_18
REMARK   11  A    between atoms: C_17  and  N_25
REMARK   12  A    between atoms: C_18  and  C_19
REMARK   13  A    between atoms: C_26  and  O_28
REMARK   14  A    between atoms: O_28  and  C_29
REMARK   15  A    between atoms: C_29  and  C_30
REMARK   16  A    between atoms: B_36  and  O_37
REMARK   17  A    between atoms: B_36  and  O_38
REMARK                            x       y       z     vdW  Elec       q    Type
REMARK                         _______ _______ _______ _____ _____    ______ ____
ROOT
ATOM      1  C   UNL     1      -2.425  -1.413   0.427  0.00  0.00    +0.000 C 
ATOM      2  C   UNL     1      -2.479  -0.043   1.389  0.00  0.00    +0.000 C 
ATOM      3  C   UNL     1      -2.133   0.995   0.390  0.00  0.00    +0.000 C 
ATOM      4  C   UNL     1      -1.255   0.376  -0.643  0.00  0.00    +0.000 C 
ATOM      5  N   UNL     1      -1.021  -0.960  -0.204  0.00  0.00    +0.000 N 
ATOM      6  C   UNL     1       0.179  -1.545   0.353  0.00  0.00    +0.000 C 
ATOM      7  O   UNL     1       0.084  -2.811   0.469  0.00  0.00    +0.000 OA
ENDROOT
BRANCH   1   9
ATOM      8  N   UNL     1      -4.462  -0.050  -0.355  0.00  0.00    +0.000 N 
ATOM      9  C   UNL     1      -3.301  -0.707  -0.776  0.00  0.00    +0.000 C 
ATOM     10  O   UNL     1      -3.328  -1.551  -1.720  0.00  0.00    +0.000 OA
ATOM     11  H   UNL     1      -4.443   0.598   0.386  0.00  0.00    +0.000 HD
BRANCH   8  12
ATOM     12  C   UNL     1      -5.808  -0.389  -1.117  0.00  0.00    +0.000 C 
BRANCH  12  13
ATOM     13  C   UNL     1      -6.484   1.063  -0.690  0.00  0.00    +0.000 C 
BRANCH  13  14
ATOM     14  C   UNL     1      -6.267   1.194   0.787  0.00  0.00    +0.000 C 
BRANCH  14  15
ATOM     15  C   UNL     1      -6.765   0.013   1.571  0.00  0.00    +0.000 C 
BRANCH  15  17
ATOM     16  C   UNL     1      -7.235   0.311   3.705  0.00  0.00    +0.000 C 
ATOM     17  O   UNL     1      -7.582   0.530   2.575  0.00  0.00    +0.000 OA
ENDBRANCH  15  17
ENDBRANCH  14  15
ENDBRANCH  13  14
ENDBRANCH  12  13
BRANCH  12  18
ATOM     18  B   UNL     1      -5.287   0.241  -2.637  0.00  0.00    +0.000 B 
BRANCH  18  19
ATOM     19  O   UNL     1      -6.037  -0.217  -3.786  0.00  0.00    +0.000 OA
ATOM     20  H   UNL     1      -6.791  -0.750  -3.488  0.00  0.00    +0.000 HD
ENDBRANCH  18  19
BRANCH  18  21
ATOM     21  O   UNL     1      -4.132   1.040  -2.720  0.00  0.00    +0.000 OA
ATOM     22  H   UNL     1      -3.801   1.223  -1.826  0.00  0.00    +0.000 HD
ENDBRANCH  18  21
ENDBRANCH  12  18
ENDBRANCH   8  12
ENDBRANCH   1   9
BRANCH   6  23
ATOM     23  C   UNL     1       1.266  -1.393  -0.878  0.00  0.00    +0.000 C 
BRANCH  23  24
ATOM     24  N   UNL     1       2.516  -1.760   0.051  0.00  0.00    +0.000 N 
ATOM     25  C   UNL     1       2.728  -1.002   1.189  0.00  0.00    +0.000 C 
ATOM     26  O   UNL     1       2.074   0.039   1.419  0.00  0.00    +0.000 OA
ATOM     27  H   UNL     1       3.117  -2.504  -0.180  0.00  0.00    +0.000 HD
BRANCH  25  28
ATOM     28  O   UNL     1       3.813  -1.337   2.003  0.00  0.00    +0.000 OA
BRANCH  28  29
ATOM     29  C   UNL     1       4.143  -0.457   3.075  0.00  0.00    +0.000 C 
BRANCH  29  30
ATOM     30  C   UNL     1       5.421   0.235   2.764  0.00  0.00    +0.000 A 
ATOM     31  C   UNL     1       6.420   0.406   3.709  0.00  0.00    +0.000 A 
ATOM     32  C   UNL     1       7.757   0.357   3.399  0.00  0.00    +0.000 A 
ATOM     33  C   UNL     1       8.113   0.461   2.077  0.00  0.00    +0.000 A 
ATOM     34  C   UNL     1       7.121   0.719   1.139  0.00  0.00    +0.000 A 
ATOM     35  C   UNL     1       5.807   0.446   1.446  0.00  0.00    +0.000 A 
ENDBRANCH  29  30
ENDBRANCH  28  29
ENDBRANCH  25  28
ENDBRANCH  23  24
BRANCH  23  36
ATOM     36  C   UNL     1       1.427   0.254  -0.616  0.00  0.00    +0.000 C 
BRANCH  36  37
ATOM     37  C   UNL     1       2.161   0.697  -1.818  0.00  0.00    +0.000 A 
ATOM     38  C   UNL     1       1.752   1.729  -2.636  0.00  0.00    +0.000 A 
ATOM     39  C   UNL     1       2.257   1.777  -3.913  0.00  0.00    +0.000 A 
ATOM     40  C   UNL     1       3.479   1.221  -4.169  0.00  0.00    +0.000 A 
ATOM     41  C   UNL     1       4.143   0.612  -3.119  0.00  0.00    +0.000 A 
ATOM     42  C   UNL     1       3.337   0.044  -2.141  0.00  0.00    +0.000 A 
ENDBRANCH  36  37
ENDBRANCH  23  36
ENDBRANCH   6  23
TORSDOF 16
