REMARK  Name = 
REMARK  29 active torsions:
REMARK  status: ('A' for Active; 'I' for Inactive)
REMARK    1  A    between atoms: N_1  and  C_2
REMARK    2  A    between atoms: C_2  and  C_3
REMARK    3  A    between atoms: C_2  and  C_10
REMARK    4  A    between atoms: C_3  and  O_4
REMARK    5  A    between atoms: C_3  and  O_7
REMARK    6  A    between atoms: O_4  and  C_5
REMARK    7  A    between atoms: C_5  and  C_6
REMARK    8  A    between atoms: O_7  and  C_8
REMARK    9  A    between atoms: C_8  and  C_9
REMARK   10  A    between atoms: C_10  and  C_11
REMARK   11  A    between atoms: C_11  and  C_12
REMARK   12  A    between atoms: C_12  and  N_13
REMARK   13  A    between atoms: C_17  and  C_18
REMARK   14  A    between atoms: C_18  and  N_19
REMARK   15  A    between atoms: C_18  and  C_37
REMARK   16  A    between atoms: C_20  and  C_22
REMARK   17  A    between atoms: C_22  and  C_23
REMARK   18  A    between atoms: C_23  and  C_24
REMARK   19  A    between atoms: N_26  and  C_27
REMARK   20  A    between atoms: C_27  and  C_28
REMARK   21  A    between atoms: C_27  and  C_32
REMARK   22  A    between atoms: C_28  and  C_29
REMARK   23  A    between atoms: C_32  and  N_33
REMARK   24  A    between atoms: N_33  and  C_34
REMARK   25  A    between atoms: N_33  and  C_35
REMARK   26  A    between atoms: N_33  and  C_36
REMARK   27  A    between atoms: C_37  and  C_38
REMARK   28  A    between atoms: C_38  and  C_39
REMARK   29  A    between atoms: C_38  and  C_40
REMARK                            x       y       z     vdW  Elec       q    Type
REMARK                         _______ _______ _______ _____ _____    ______ ____
ROOT
ATOM      1  C   UNL     1       1.747   0.349   0.000  0.00  0.00    +0.000 C 
ENDROOT
BRANCH   1   3
ATOM      2  N   UNL     1       0.616  -0.520   0.000  0.00  0.00    +0.000 N 
ATOM      3  C   UNL     1       1.434  -0.411   0.000  0.00  0.00    +0.000 C 
ATOM      4  O   UNL     1       1.938  -1.065   0.000  0.00  0.00    +0.000 OA
ATOM      5  H   UNL     1       0.015   0.259   0.000  0.00  0.00    +0.000 HD
BRANCH   2   6
ATOM      6  C   UNL     1       0.302  -1.285   0.000  0.00  0.00    +0.000 C 
BRANCH   6   7
ATOM      7  C   UNL     1      -0.515  -1.395   0.000  0.00  0.00    +0.000 C 
BRANCH   7   8
ATOM      8  O   UNL     1      -0.829  -2.154   0.000  0.00  0.00    +0.000 OA
BRANCH   8   9
ATOM      9  C   UNL     1      -0.616  -2.951   0.000  0.00  0.00    +0.000 C 
ATOM     10  C   UNL     1      -1.031  -3.668   0.000  0.00  0.00    +0.000 C 
ENDBRANCH   8   9
ENDBRANCH   7   8
BRANCH   7  11
ATOM     11  O   UNL     1      -1.232  -0.980   0.000  0.00  0.00    +0.000 OA
BRANCH  11  12
ATOM     12  C   UNL     1      -2.025  -1.192   0.000  0.00  0.00    +0.000 C 
ATOM     13  C   UNL     1      -2.742  -0.782   0.000  0.00  0.00    +0.000 C 
ENDBRANCH  11  12
ENDBRANCH   7  11
ENDBRANCH   6   7
BRANCH   6  14
ATOM     14  C   UNL     1       0.806  -1.939   0.000  0.00  0.00    +0.000 C 
BRANCH  14  15
ATOM     15  C   UNL     1       1.624  -1.829   0.000  0.00  0.00    +0.000 C 
BRANCH  15  16
ATOM     16  C   UNL     1       2.128  -2.483   0.000  0.00  0.00    +0.000 C 
BRANCH  16  17
ATOM     17  N   UNL     1       2.945  -2.373   0.000  0.00  0.00    +0.000 N 
ATOM     18  C   UNL     1       3.449  -3.027   0.000  0.00  0.00    +0.000 C 
ATOM     19  N   UNL     1       4.262  -2.918   0.000  0.00  0.00    +0.000 NA
ATOM     20  N   UNL     1       3.131  -3.787   0.000  0.00  0.00    +0.000 N 
ATOM     21  H   UNL     1       3.320  -1.463   0.000  0.00  0.00    +0.000 HD
ATOM     22  H   UNL     1       4.864  -3.697   0.000  0.00  0.00    +0.000 HD
ATOM     23  H   UNL     1       2.154  -3.911   0.000  0.00  0.00    +0.000 HD
ATOM     24  H   UNL     1       3.727  -4.571   0.000  0.00  0.00    +0.000 HD
ENDBRANCH  16  17
ENDBRANCH  15  16
ENDBRANCH  14  15
ENDBRANCH   6  14
ENDBRANCH   2   6
ENDBRANCH   1   3
BRANCH   1  25
ATOM     25  N   UNL     1       1.248   1.007   0.000  0.00  0.00    +0.000 N 
ATOM     26  C   UNL     1       0.430   0.897   0.000  0.00  0.00    +0.000 C 
ATOM     27  O   UNL     1      -0.073   1.547   0.000  0.00  0.00    +0.000 OA
ATOM     28  H   UNL     1       1.626   1.916   0.000  0.00  0.00    +0.000 HD
BRANCH  26  29
ATOM     29  C   UNL     1       0.112   0.168   0.000  0.00  0.00    +0.000 C 
BRANCH  29  30
ATOM     30  C   UNL     1      -0.711   0.168   0.000  0.00  0.00    +0.000 C 
BRANCH  30  31
ATOM     31  C   UNL     1      -1.095   0.898   0.000  0.00  0.00    +0.000 C 
ATOM     32  O   UNL     1      -0.650   1.595   0.000  0.00  0.00    +0.000 OA
ATOM     33  N   UNL     1      -1.918   0.898   0.000  0.00  0.00    +0.000 N 
ATOM     34  H   UNL     1      -2.435   0.060   0.000  0.00  0.00    +0.000 HD
BRANCH  33  35
ATOM     35  C   UNL     1      -2.301   1.663   0.000  0.00  0.00    +0.000 C 
BRANCH  35  36
ATOM     36  C   UNL     1      -1.856   2.360   0.000  0.00  0.00    +0.000 C 
BRANCH  36  37
ATOM     37  C   UNL     1      -2.240   3.095   0.000  0.00  0.00    +0.000 C 
ATOM     38  O   UNL     1      -1.795   3.787   0.000  0.00  0.00    +0.000 OA
ATOM     39  O   UNL     1      -3.063   3.095   0.000  0.00  0.00    +0.000 OA
ENDBRANCH  36  37
ENDBRANCH  35  36
BRANCH  35  40
ATOM     40  C   UNL     1      -3.125   1.663   0.000  0.00  0.00    +0.000 C 
BRANCH  40  41
ATOM     41  N   UNL     1      -3.566   1.004   0.000  0.00  0.00    +0.000 N 
ATOM     42  C   UNL     1      -4.262   1.445   0.000  0.00  0.00    +0.000 C 
ATOM     43  C   UNL     1      -2.869   0.559   0.000  0.00  0.00    +0.000 C 
ATOM     44  C   UNL     1      -4.006   0.308   0.000  0.00  0.00    +0.000 C 
ENDBRANCH  40  41
ENDBRANCH  35  40
ENDBRANCH  33  35
ENDBRANCH  30  31
ENDBRANCH  29  30
ENDBRANCH  26  29
ENDBRANCH   1  25
BRANCH   1  45
ATOM     45  C   UNL     1       2.565   0.458   0.000  0.00  0.00    +0.000 C 
BRANCH  45  46
ATOM     46  C   UNL     1       2.883   1.222   0.000  0.00  0.00    +0.000 C 
ATOM     47  C   UNL     1       3.701   1.332   0.000  0.00  0.00    +0.000 C 
ATOM     48  C   UNL     1       2.380   1.877   0.000  0.00  0.00    +0.000 C 
ENDBRANCH  45  46
ENDBRANCH   1  45
TORSDOF 22
