REMARK  Name = 9828911
REMARK  15 active torsions:
REMARK  status: ('A' for Active; 'I' for Inactive)
REMARK    1  A    between atoms: N_5  and  N_6
REMARK    2  A    between atoms: N_5  and  C_23
REMARK    3  A    between atoms: N_6  and  C_28
REMARK    4  A    between atoms: N_6  and  C_29
REMARK    5  A    between atoms: N_7  and  C_19
REMARK    6  A    between atoms: N_9  and  C_31
REMARK    7  A    between atoms: C_10  and  C_14
REMARK    8  A    between atoms: C_10  and  C_16
REMARK    9  A    between atoms: C_14  and  C_18
REMARK   10  A    between atoms: C_17  and  C_19
REMARK   11  A    between atoms: C_19  and  C_20
REMARK   12  A    between atoms: C_20  and  C_24
REMARK   13  A    between atoms: C_25  and  C_31
REMARK   14  A    between atoms: C_31  and  C_35
REMARK   15  A    between atoms: C_31  and  C_36
REMARK                            x       y       z     vdW  Elec       q    Type
REMARK                         _______ _______ _______ _____ _____    ______ ____
ROOT
ATOM      1  O   UNL     1      -0.894  -1.935  -2.962  0.00  0.00    +0.000 OA
ATOM      2  N   UNL     1       0.851  -0.832  -1.895  0.00  0.00    +0.000 N 
ATOM      3  C   UNL     1       2.479  -0.495  -0.036  0.00  0.00    +0.000 C 
ATOM      4  C   UNL     1       3.559  -1.148  -0.921  0.00  0.00    +0.000 C 
ATOM      5  C   UNL     1       1.357   0.121  -0.895  0.00  0.00    +0.000 C 
ATOM      6  C   UNL     1       2.960  -2.094  -1.964  0.00  0.00    +0.000 C 
ATOM      7  C   UNL     1       1.872  -1.401  -2.775  0.00  0.00    +0.000 C 
ATOM      8  C   UNL     1      -0.490  -1.169  -2.083  0.00  0.00    +0.000 C 
ENDROOT
BRANCH   3  11
ATOM      9  O   UNL     1       0.685  -1.777   0.846  0.00  0.00    +0.000 OA
ATOM     10  N   UNL     1       2.780  -2.145   1.775  0.00  0.00    +0.000 N 
ATOM     11  C   UNL     1       1.892  -1.526   0.896  0.00  0.00    +0.000 C 
ATOM     12  C   UNL     1       2.325  -3.159   2.720  0.00  0.00    +0.000 C 
BRANCH  10  13
ATOM     13  N   UNL     1       4.153  -1.837   1.692  0.00  0.00    +0.000 NA
ATOM     14  C   UNL     1       4.962  -2.951   1.210  0.00  0.00    +0.000 C 
ATOM     15  C   UNL     1       4.676  -1.269   2.930  0.00  0.00    +0.000 C 
ENDBRANCH  10  13
ENDBRANCH   3  11
BRANCH   3  16
ATOM     16  C   UNL     1       3.111   0.585   0.850  0.00  0.00    +0.000 C 
BRANCH  16  17
ATOM     17  C   UNL     1       3.296   1.872   0.099  0.00  0.00    +0.000 A 
ATOM     18  C   UNL     1       2.281   2.830   0.096  0.00  0.00    +0.000 A 
ATOM     19  C   UNL     1       4.481   2.110  -0.598  0.00  0.00    +0.000 A 
ATOM     20  C   UNL     1       2.453   4.025  -0.602  0.00  0.00    +0.000 A 
ATOM     21  C   UNL     1       4.652   3.305  -1.296  0.00  0.00    +0.000 A 
ATOM     22  C   UNL     1       3.638   4.263  -1.298  0.00  0.00    +0.000 A 
ENDBRANCH  16  17
ENDBRANCH   3  16
BRANCH   8  23
ATOM     23  C   UNL     1      -1.484  -0.544  -1.137  0.00  0.00    +0.000 C 
BRANCH  23  25
ATOM     24  O   UNL     1      -2.076  -1.939   1.292  0.00  0.00    +0.000 OA
ATOM     25  N   UNL     1      -2.471  -1.570  -0.957  0.00  0.00    +0.000 N 
ATOM     26  C   UNL     1      -2.700  -2.204   0.264  0.00  0.00    +0.000 C 
ATOM     27  H   UNL     1      -3.009  -1.854  -1.770  0.00  0.00    +0.000 HD
BRANCH  26  28
ATOM     28  C   UNL     1      -3.811  -3.269   0.217  0.00  0.00    +0.000 C 
ATOM     29  C   UNL     1      -3.470  -4.376  -0.784  0.00  0.00    +0.000 C 
ATOM     30  C   UNL     1      -5.166  -2.632  -0.108  0.00  0.00    +0.000 C 
BRANCH  28  31
ATOM     31  N   UNL     1      -3.903  -3.875   1.552  0.00  0.00    +0.000 NA
ATOM     32  H   UNL     1      -4.107  -3.160   2.248  0.00  0.00    +0.000 HD
ATOM     33  H   UNL     1      -3.007  -4.289   1.810  0.00  0.00    +0.000 HD
ENDBRANCH  28  31
ENDBRANCH  26  28
ENDBRANCH  23  25
BRANCH  23  34
ATOM     34  C   UNL     1      -2.057   0.734  -1.738  0.00  0.00    +0.000 C 
BRANCH  34  36
ATOM     35  N   UNL     1      -5.003   1.930   0.105  0.00  0.00    +0.000 N 
ATOM     36  C   UNL     1      -3.072   1.386  -0.844  0.00  0.00    +0.000 A 
ATOM     37  C   UNL     1      -2.815   2.361   0.161  0.00  0.00    +0.000 A 
ATOM     38  C   UNL     1      -4.426   1.142  -0.854  0.00  0.00    +0.000 A 
ATOM     39  C   UNL     1      -4.044   2.685   0.741  0.00  0.00    +0.000 A 
ATOM     40  C   UNL     1      -1.652   3.000   0.634  0.00  0.00    +0.000 A 
ATOM     41  C   UNL     1      -4.168   3.621   1.774  0.00  0.00    +0.000 A 
ATOM     42  C   UNL     1      -1.761   3.938   1.667  0.00  0.00    +0.000 A 
ATOM     43  C   UNL     1      -3.000   4.242   2.227  0.00  0.00    +0.000 A 
ATOM     44  H   UNL     1      -5.992   1.955   0.316  0.00  0.00    +0.000 HD
ENDBRANCH  34  36
ENDBRANCH  23  34
ENDBRANCH   8  23
TORSDOF 10
