REMARK  Name = 448677
REMARK  11 active torsions:
REMARK  status: ('A' for Active; 'I' for Inactive)
REMARK    1  A    between atoms: O_4  and  C_25
REMARK    2  A    between atoms: O_4  and  C_30
REMARK    3  A    between atoms: N_7  and  C_13
REMARK    4  A    between atoms: N_8  and  C_23
REMARK    5  A    between atoms: N_9  and  C_32
REMARK    6  A    between atoms: C_10  and  C_13
REMARK    7  A    between atoms: C_13  and  C_18
REMARK    8  A    between atoms: C_17  and  C_22
REMARK    9  A    between atoms: C_23  and  C_24
REMARK   10  A    between atoms: C_30  and  C_31
REMARK   11  A    between atoms: C_32  and  C_33
REMARK                            x       y       z     vdW  Elec       q    Type
REMARK                         _______ _______ _______ _____ _____    ______ ____
ROOT
ATOM      1  O   UNL     1      -0.355   0.465  -1.104  0.00  0.00    +0.000 OA
ATOM      2  N   UNL     1      -1.218  -1.575  -0.388  0.00  0.00    +0.000 N 
ATOM      3  C   UNL     1      -0.332  -0.511  -0.359  0.00  0.00    +0.000 C 
ATOM      4  H   UNL     1      -1.103  -2.335   0.276  0.00  0.00    +0.000 HD
ENDROOT
BRANCH   3   7
ATOM      5  O   UNL     1       2.587  -1.583  -1.218  0.00  0.00    +0.000 OA
ATOM      6  N   UNL     1       1.892   0.038   0.281  0.00  0.00    +0.000 N 
ATOM      7  C   UNL     1       0.690  -0.653   0.728  0.00  0.00    +0.000 C 
ATOM      8  C   UNL     1       2.787  -0.527  -0.614  0.00  0.00    +0.000 C 
ATOM      9  C   UNL     1       2.088   1.285   1.017  0.00  0.00    +0.000 C 
ATOM     10  C   UNL     1       0.271   0.080   1.997  0.00  0.00    +0.000 C 
ATOM     11  C   UNL     1       0.786   1.500   1.773  0.00  0.00    +0.000 C 
BRANCH   8  12
ATOM     12  C   UNL     1       4.063   0.246  -0.833  0.00  0.00    +0.000 C 
BRANCH  12  13
ATOM     13  C   UNL     1       5.267  -0.622  -0.473  0.00  0.00    +0.000 C 
ATOM     14  C   UNL     1       5.182  -1.089   0.986  0.00  0.00    +0.000 C 
ATOM     15  C   UNL     1       6.577   0.135  -0.729  0.00  0.00    +0.000 C 
ATOM     16  C   UNL     1       6.402  -1.915   1.386  0.00  0.00    +0.000 C 
ATOM     17  C   UNL     1       7.795  -0.693  -0.327  0.00  0.00    +0.000 C 
ATOM     18  C   UNL     1       7.703  -1.162   1.122  0.00  0.00    +0.000 C 
ENDBRANCH  12  13
BRANCH  12  19
ATOM     19  N   UNL     1       4.089   0.625  -2.236  0.00  0.00    +0.000 NA
ATOM     20  H   UNL     1       4.880   1.238  -2.423  0.00  0.00    +0.000 HD
ATOM     21  H   UNL     1       3.261   1.179  -2.457  0.00  0.00    +0.000 HD
ENDBRANCH  12  19
ENDBRANCH   8  12
ENDBRANCH   3   7
BRANCH   2  22
ATOM     22  C   UNL     1      -2.312  -1.667  -1.328  0.00  0.00    +0.000 C 
BRANCH  22  24
ATOM     23 CL   UNL     1      -6.127  -4.454   0.841  0.00  0.00    +0.000 Cl
ATOM     24  C   UNL     1      -3.645  -1.687  -0.638  0.00  0.00    +0.000 A 
ATOM     25  C   UNL     1      -4.327  -0.500  -0.373  0.00  0.00    +0.000 A 
ATOM     26  C   UNL     1      -4.202  -2.910  -0.263  0.00  0.00    +0.000 A 
ATOM     27  C   UNL     1      -5.566  -0.535   0.268  0.00  0.00    +0.000 A 
ATOM     28  C   UNL     1      -5.440  -2.945   0.377  0.00  0.00    +0.000 A 
ATOM     29  C   UNL     1      -6.122  -1.758   0.643  0.00  0.00    +0.000 A 
BRANCH  25  30
ATOM     30  O   UNL     1      -3.797   0.703  -0.733  0.00  0.00    +0.000 OA
BRANCH  30  31
ATOM     31  C   UNL     1      -3.550   1.641   0.313  0.00  0.00    +0.000 C 
BRANCH  31  34
ATOM     32  O   UNL     1      -2.752   3.087  -1.442  0.00  0.00    +0.000 OA
ATOM     33  N   UNL     1      -2.701   3.842   0.757  0.00  0.00    +0.000 N 
ATOM     34  C   UNL     1      -2.962   2.919  -0.244  0.00  0.00    +0.000 C 
ATOM     35  H   UNL     1      -2.904   3.596   1.722  0.00  0.00    +0.000 HD
BRANCH  33  36
ATOM     36  C   UNL     1      -2.136   5.146   0.500  0.00  0.00    +0.000 C 
ATOM     37  C   UNL     1      -0.634   5.073   0.312  0.00  0.00    +0.000 C 
ENDBRANCH  33  36
ENDBRANCH  31  34
ENDBRANCH  30  31
ENDBRANCH  25  30
ENDBRANCH  22  24
ENDBRANCH   2  22
TORSDOF 10
