REMARK  Name = 25021183
REMARK  8 active torsions:
REMARK  status: ('A' for Active; 'I' for Inactive)
REMARK    1  A    between atoms: N_4  and  C_14
REMARK    2  A    between atoms: N_5  and  C_12
REMARK    3  A    between atoms: C_6  and  C_11
REMARK    4  A    between atoms: C_10  and  C_12
REMARK    5  A    between atoms: C_12  and  C_13
REMARK    6  A    between atoms: C_13  and  C_15
REMARK    7  A    between atoms: C_14  and  C_16
REMARK    8  A    between atoms: C_23  and  C_27
REMARK                            x       y       z     vdW  Elec       q    Type
REMARK                         _______ _______ _______ _____ _____    ______ ____
ROOT
ATOM      1  O   UNL     1      -1.518  -1.589  -1.522  0.00  0.00    +0.000 OA
ATOM      2  N   UNL     1      -1.062  -0.286   0.336  0.00  0.00    +0.000 N 
ATOM      3  C   UNL     1       0.007   0.497  -0.268  0.00  0.00    +0.000 C 
ATOM      4  C   UNL     1       0.204   1.678   0.676  0.00  0.00    +0.000 C 
ATOM      5  C   UNL     1      -0.207   1.117   2.035  0.00  0.00    +0.000 C 
ATOM      6  C   UNL     1      -1.349   0.173   1.693  0.00  0.00    +0.000 C 
ATOM      7  C   UNL     1      -1.791  -1.226  -0.377  0.00  0.00    +0.000 C 
ENDROOT
BRANCH   3  10
ATOM      8  O   UNL     1       1.420  -1.264   0.508  0.00  0.00    +0.000 OA
ATOM      9  N   UNL     1       2.058  -0.054  -1.376  0.00  0.00    +0.000 N 
ATOM     10  C   UNL     1       1.222  -0.381  -0.322  0.00  0.00    +0.000 C 
ATOM     11  H   UNL     1       1.810   0.718  -1.988  0.00  0.00    +0.000 HD
BRANCH   9  12
ATOM     12  C   UNL     1       3.306  -0.735  -1.634  0.00  0.00    +0.000 C 
BRANCH  12  13
ATOM     13  C   UNL     1       4.458  -0.087  -0.923  0.00  0.00    +0.000 A 
ATOM     14  C   UNL     1       4.998  -0.682   0.217  0.00  0.00    +0.000 A 
ATOM     15  C   UNL     1       4.989   1.111  -1.402  0.00  0.00    +0.000 A 
ATOM     16  C   UNL     1       6.069  -0.080   0.878  0.00  0.00    +0.000 A 
ATOM     17  C   UNL     1       6.059   1.713  -0.741  0.00  0.00    +0.000 A 
ATOM     18  C   UNL     1       6.600   1.118   0.399  0.00  0.00    +0.000 A 
ATOM     19  C   UNL     1       6.647  -0.716   2.097  0.00  0.00    +0.000 C 
ENDBRANCH  12  13
ENDBRANCH   9  12
ENDBRANCH   3  10
BRANCH   7  20
ATOM     20  C   UNL     1      -2.974  -1.817   0.348  0.00  0.00    +0.000 C 
BRANCH  20  21
ATOM     21  N   UNL     1      -2.665  -3.233   0.497  0.00  0.00    +0.000 NA
ATOM     22  H   UNL     1      -1.861  -3.348   1.113  0.00  0.00    +0.000 HD
ATOM     23  H   UNL     1      -3.442  -3.709   0.955  0.00  0.00    +0.000 HD
ENDBRANCH  20  21
BRANCH  20  24
ATOM     24  C   UNL     1      -4.265  -1.610  -0.443  0.00  0.00    +0.000 C 
BRANCH  24  25
ATOM     25  C   UNL     1      -4.838  -0.222  -0.271  0.00  0.00    +0.000 A 
ATOM     26  C   UNL     1      -5.745   0.035   0.757  0.00  0.00    +0.000 A 
ATOM     27  C   UNL     1      -4.461   0.801  -1.141  0.00  0.00    +0.000 A 
ATOM     28  C   UNL     1      -6.274   1.316   0.916  0.00  0.00    +0.000 A 
ATOM     29  C   UNL     1      -4.990   2.082  -0.982  0.00  0.00    +0.000 A 
ATOM     30  C   UNL     1      -5.897   2.339   0.046  0.00  0.00    +0.000 A 
ENDBRANCH  24  25
ENDBRANCH  20  24
ENDBRANCH   7  20
TORSDOF 7
