REMARK  Name = 10450114
REMARK  6 active torsions:
REMARK  status: ('A' for Active; 'I' for Inactive)
REMARK    1  A    between atoms: N_8  and  C_13
REMARK    2  A    between atoms: C_9  and  C_18
REMARK    3  A    between atoms: C_12  and  C_13
REMARK    4  A    between atoms: C_12  and  C_14
REMARK    5  A    between atoms: C_13  and  C_17
REMARK    6  A    between atoms: C_17  and  C_19
REMARK                            x       y       z     vdW  Elec       q    Type
REMARK                         _______ _______ _______ _____ _____    ______ ____
ROOT
ATOM      1  C   UNL     1      -0.741   2.684   0.217  0.00  0.00    +0.000 C 
ENDROOT
BRANCH   1   2
ATOM      2  N   UNL     1      -1.790   3.019   1.189  0.00  0.00    +0.000 NA
ATOM      3  H   UNL     1      -1.391   3.591   1.934  0.00  0.00    +0.000 HD
ATOM      4  H   UNL     1      -2.134   2.175   1.646  0.00  0.00    +0.000 HD
ENDBRANCH   1   2
BRANCH   1   5
ATOM      5  C   UNL     1       0.304   1.846   0.954  0.00  0.00    +0.000 C 
BRANCH   5  13
ATOM      6  O   UNL     1       1.479   1.926  -1.096  0.00  0.00    +0.000 OA
ATOM      7  O   UNL     1       2.887  -1.133  -2.144  0.00  0.00    +0.000 OA
ATOM      8  N   UNL     1       2.494   0.729   0.634  0.00  0.00    +0.000 N 
ATOM      9  N   UNL     1       2.502  -2.093  -0.107  0.00  0.00    +0.000 N 
ATOM     10  C   UNL     1       3.555   0.139  -0.203  0.00  0.00    +0.000 C 
ATOM     11  C   UNL     1       2.456   0.250   2.021  0.00  0.00    +0.000 C 
ATOM     12  C   UNL     1       1.849  -1.151   2.110  0.00  0.00    +0.000 C 
ATOM     13  C   UNL     1       1.476   1.509   0.065  0.00  0.00    +0.000 C 
ATOM     14  C   UNL     1       2.649  -2.198   1.339  0.00  0.00    +0.000 C 
ATOM     15  C   UNL     1       2.950  -1.066  -0.915  0.00  0.00    +0.000 C 
ATOM     16  C   UNL     1       4.238   1.126  -1.147  0.00  0.00    +0.000 C 
ATOM     17  H   UNL     1       2.095  -2.894  -0.581  0.00  0.00    +0.000 HD
ENDBRANCH   5  13
ENDBRANCH   1   5
BRANCH   1  18
ATOM     18  C   UNL     1      -1.395   1.945  -0.971  0.00  0.00    +0.000 C 
BRANCH  18  22
ATOM     19  F   UNL     1      -4.100   1.738  -0.182  0.00  0.00    +0.000 F 
ATOM     20  F   UNL     1      -1.181  -2.882  -0.393  0.00  0.00    +0.000 F 
ATOM     21  F   UNL     1      -3.810  -2.954   0.356  0.00  0.00    +0.000 F 
ATOM     22  C   UNL     1      -2.045   0.631  -0.613  0.00  0.00    +0.000 A 
ATOM     23  C   UNL     1      -3.378   0.610  -0.235  0.00  0.00    +0.000 A 
ATOM     24  C   UNL     1      -1.295  -0.533  -0.670  0.00  0.00    +0.000 A 
ATOM     25  C   UNL     1      -1.894  -1.749  -0.342  0.00  0.00    +0.000 A 
ATOM     26  C   UNL     1      -3.977  -0.606   0.093  0.00  0.00    +0.000 A 
ATOM     27  C   UNL     1      -3.235  -1.786   0.040  0.00  0.00    +0.000 A 
ENDBRANCH  18  22
ENDBRANCH   1  18
TORSDOF 5
