REMARK  Name = 42615254
REMARK  7 active torsions:
REMARK  status: ('A' for Active; 'I' for Inactive)
REMARK    1  A    between atoms: N_5  and  C_13
REMARK    2  A    between atoms: N_6  and  C_21
REMARK    3  A    between atoms: C_7  and  C_10
REMARK    4  A    between atoms: C_10  and  C_13
REMARK    5  A    between atoms: C_13  and  C_19
REMARK    6  A    between atoms: C_15  and  C_20
REMARK    7  A    between atoms: C_21  and  C_22
REMARK                            x       y       z     vdW  Elec       q    Type
REMARK                         _______ _______ _______ _____ _____    ______ ____
ROOT
ATOM      1  O   UNL     1      -1.594  -0.719   1.324  0.00  0.00    +0.000 OA
ATOM      2  N   UNL     1      -0.803   0.644  -0.371  0.00  0.00    +0.000 N 
ATOM      3  C   UNL     1       0.265  -0.243  -0.812  0.00  0.00    +0.000 C 
ATOM      4  C   UNL     1       0.685   0.304  -2.172  0.00  0.00    +0.000 C 
ATOM      5  C   UNL     1      -0.888   1.830  -1.219  0.00  0.00    +0.000 C 
ATOM      6  C   UNL     1       0.375   1.795  -2.066  0.00  0.00    +0.000 C 
ATOM      7  C   UNL     1      -1.698   0.292   0.627  0.00  0.00    +0.000 C 
ENDROOT
BRANCH   3  10
ATOM      8  O   UNL     1       1.571   0.892   0.833  0.00  0.00    +0.000 OA
ATOM      9  N   UNL     1       2.112  -1.304   0.282  0.00  0.00    +0.000 N 
ATOM     10  C   UNL     1       1.371  -0.138   0.195  0.00  0.00    +0.000 C 
ATOM     11  H   UNL     1       1.876  -2.090  -0.317  0.00  0.00    +0.000 HD
BRANCH   9  12
ATOM     12  C   UNL     1       3.248  -1.455   1.163  0.00  0.00    +0.000 C 
BRANCH  12  14
ATOM     13 CL   UNL     1       7.070   2.037   0.599  0.00  0.00    +0.000 Cl
ATOM     14  C   UNL     1       4.532  -1.053   0.497  0.00  0.00    +0.000 A 
ATOM     15  C   UNL     1       5.135   0.163   0.820  0.00  0.00    +0.000 A 
ATOM     16  C   UNL     1       5.123  -1.897  -0.443  0.00  0.00    +0.000 A 
ATOM     17  C   UNL     1       6.328   0.535   0.202  0.00  0.00    +0.000 A 
ATOM     18  C   UNL     1       6.317  -1.524  -1.061  0.00  0.00    +0.000 A 
ATOM     19  C   UNL     1       6.920  -0.308  -0.739  0.00  0.00    +0.000 A 
ENDBRANCH  12  14
ENDBRANCH   9  12
ENDBRANCH   3  10
BRANCH   7  20
ATOM     20  C   UNL     1      -2.845   1.247   0.839  0.00  0.00    +0.000 C 
BRANCH  20  21
ATOM     21  N   UNL     1      -2.341   2.254   1.763  0.00  0.00    +0.000 NA
ATOM     22  H   UNL     1      -3.070   2.941   1.955  0.00  0.00    +0.000 HD
ATOM     23  H   UNL     1      -1.566   2.770   1.353  0.00  0.00    +0.000 HD
ENDBRANCH  20  21
BRANCH  20  24
ATOM     24  C   UNL     1      -4.064   0.528   1.409  0.00  0.00    +0.000 C 
BRANCH  24  25
ATOM     25  C   UNL     1      -4.854  -0.221   0.337  0.00  0.00    +0.000 C 
ATOM     26  C   UNL     1      -5.723  -1.316   0.970  0.00  0.00    +0.000 C 
ATOM     27  C   UNL     1      -5.713   0.752  -0.481  0.00  0.00    +0.000 C 
ATOM     28  C   UNL     1      -6.563  -2.044  -0.076  0.00  0.00    +0.000 C 
ATOM     29  C   UNL     1      -6.554   0.021  -1.525  0.00  0.00    +0.000 C 
ATOM     30  C   UNL     1      -7.409  -1.073  -0.893  0.00  0.00    +0.000 C 
ENDBRANCH  24  25
ENDBRANCH  20  24
ENDBRANCH   7  20
TORSDOF 7
