REMARK  Name = 22850133
REMARK  15 active torsions:
REMARK  status: ('A' for Active; 'I' for Inactive)
REMARK    1  A    between atoms: O_3  and  C_21
REMARK    2  A    between atoms: O_3  and  C_26
REMARK    3  A    between atoms: N_8  and  C_11
REMARK    4  A    between atoms: N_9  and  C_25
REMARK    5  A    between atoms: C_10  and  C_21
REMARK    6  A    between atoms: C_11  and  C_15
REMARK    7  A    between atoms: C_11  and  C_16
REMARK    8  A    between atoms: C_15  and  C_19
REMARK    9  A    between atoms: C_15  and  C_22
REMARK   10  A    between atoms: C_17  and  C_20
REMARK   11  A    between atoms: C_18  and  C_23
REMARK   12  A    between atoms: C_19  and  C_24
REMARK   13  A    between atoms: C_25  and  C_27
REMARK   14  A    between atoms: C_26  and  C_28
REMARK   15  A    between atoms: C_27  and  C_29
REMARK                            x       y       z     vdW  Elec       q    Type
REMARK                         _______ _______ _______ _____ _____    ______ ____
ROOT
ATOM      1  C   UNL     1      -1.311   2.148   0.200  0.00  0.00    +0.000 C 
ENDROOT
BRANCH   1   8
ATOM      2  O   UNL     1      -0.010   0.160   0.050  0.00  0.00    +0.000 OA
ATOM      3  N   UNL     1       1.034   2.150  -0.503  0.00  0.00    +0.000 N 
ATOM      4  C   UNL     1       2.279   1.558  -0.978  0.00  0.00    +0.000 C 
ATOM      5  C   UNL     1       2.975   2.680  -1.739  0.00  0.00    +0.000 C 
ATOM      6  C   UNL     1       1.038   3.599  -0.683  0.00  0.00    +0.000 C 
ATOM      7  C   UNL     1       2.475   3.944  -1.044  0.00  0.00    +0.000 C 
ATOM      8  C   UNL     1      -0.044   1.383  -0.091  0.00  0.00    +0.000 C 
BRANCH   4  10
ATOM      9  O   UNL     1       2.991   1.697   1.318  0.00  0.00    +0.000 OA
ATOM     10  C   UNL     1       3.058   1.138   0.231  0.00  0.00    +0.000 C 
BRANCH  10  11
ATOM     11  O   UNL     1       3.834   0.060  -0.078  0.00  0.00    +0.000 OA
BRANCH  11  12
ATOM     12  C   UNL     1       4.636  -0.447   0.993  0.00  0.00    +0.000 C 
BRANCH  12  13
ATOM     13  C   UNL     1       5.426  -1.623   0.498  0.00  0.00    +0.000 A 
ATOM     14  C   UNL     1       4.889  -2.902   0.595  0.00  0.00    +0.000 A 
ATOM     15  C   UNL     1       6.687  -1.424  -0.052  0.00  0.00    +0.000 A 
ATOM     16  C   UNL     1       5.623  -3.996   0.135  0.00  0.00    +0.000 A 
ATOM     17  C   UNL     1       7.421  -2.518  -0.512  0.00  0.00    +0.000 A 
ATOM     18  C   UNL     1       6.888  -3.803  -0.418  0.00  0.00    +0.000 A 
ENDBRANCH  12  13
ENDBRANCH  11  12
ENDBRANCH  10  11
ENDBRANCH   4  10
ENDBRANCH   1   8
BRANCH   1  20
ATOM     19  O   UNL     1      -2.386   1.844  -2.479  0.00  0.00    +0.000 OA
ATOM     20  N   UNL     1      -2.391   1.301  -0.214  0.00  0.00    +0.000 N 
ATOM     21  C   UNL     1      -2.843   1.218  -1.526  0.00  0.00    +0.000 C 
ATOM     22  H   UNL     1      -2.825   0.698   0.478  0.00  0.00    +0.000 HD
BRANCH  21  24
ATOM     23  O   UNL     1      -3.719  -0.684  -2.740  0.00  0.00    +0.000 OA
ATOM     24  C   UNL     1      -3.971   0.235  -1.690  0.00  0.00    +0.000 C 
ATOM     25  C   UNL     1      -3.715  -1.196  -1.402  0.00  0.00    +0.000 C 
BRANCH  25  28
ATOM     26  O   UNL     1      -5.157  -3.006  -1.858  0.00  0.00    +0.000 OA
ATOM     27  N   UNL     1      -5.524  -1.707   0.038  0.00  0.00    +0.000 N 
ATOM     28  C   UNL     1      -4.855  -2.075  -1.117  0.00  0.00    +0.000 C 
ATOM     29  H   UNL     1      -5.183  -0.918   0.580  0.00  0.00    +0.000 HD
BRANCH  27  30
ATOM     30  C   UNL     1      -6.696  -2.397   0.527  0.00  0.00    +0.000 C 
BRANCH  30  31
ATOM     31  C   UNL     1      -6.345  -3.538   1.474  0.00  0.00    +0.000 C 
ATOM     32  C   UNL     1      -5.604  -3.063   2.717  0.00  0.00    +0.000 C 
ENDBRANCH  30  31
ENDBRANCH  27  30
ENDBRANCH  25  28
ENDBRANCH  21  24
ENDBRANCH   1  20
BRANCH   1  33
ATOM     33  C   UNL     1      -1.379   2.591   1.672  0.00  0.00    +0.000 C 
ATOM     34  C   UNL     1      -2.636   3.441   1.895  0.00  0.00    +0.000 C 
BRANCH  33  35
ATOM     35  C   UNL     1      -1.316   1.404   2.660  0.00  0.00    +0.000 C 
ATOM     36  C   UNL     1      -1.352   1.828   4.123  0.00  0.00    +0.000 C 
ENDBRANCH  33  35
ENDBRANCH   1  33
TORSDOF 12
