REMARK  Name = 42608447
REMARK  10 active torsions:
REMARK  status: ('A' for Active; 'I' for Inactive)
REMARK    1  A    between atoms: S_2  and  C_26
REMARK    2  A    between atoms: S_2  and  C_32
REMARK    3  A    between atoms: N_8  and  C_14
REMARK    4  A    between atoms: N_9  and  C_17
REMARK    5  A    between atoms: C_10  and  C_14
REMARK    6  A    between atoms: C_15  and  C_16
REMARK    7  A    between atoms: C_16  and  C_17
REMARK    8  A    between atoms: C_17  and  C_18
REMARK    9  A    between atoms: C_18  and  C_20
REMARK   10  A    between atoms: C_19  and  C_21
REMARK                            x       y       z     vdW  Elec       q    Type
REMARK                         _______ _______ _______ _____ _____    ______ ____
ROOT
ATOM      1  O   UNL     1       1.438  -0.236   0.788  0.00  0.00    +0.000 OA
ATOM      2  N   UNL     1       3.730  -0.211   0.473  0.00  0.00    +0.000 N 
ATOM      3  C   UNL     1       3.898   1.240   0.585  0.00  0.00    +0.000 C 
ATOM      4  C   UNL     1       5.405   1.417   0.787  0.00  0.00    +0.000 C 
ATOM      5  C   UNL     1       6.005   0.246   0.018  0.00  0.00    +0.000 C 
ATOM      6  C   UNL     1       5.015  -0.879   0.282  0.00  0.00    +0.000 C 
ATOM      7  C   UNL     1       2.503  -0.835   0.628  0.00  0.00    +0.000 C 
ENDROOT
BRANCH   3   8
ATOM      8  C   UNL     1       3.396   1.957  -0.666  0.00  0.00    +0.000 C 
BRANCH   8  10
ATOM      9  O   UNL     1       1.423   0.969  -2.503  0.00  0.00    +0.000 OA
ATOM     10  N   UNL     1       1.982   2.174  -0.601  0.00  0.00    +0.000 N 
ATOM     11  C   UNL     1       1.093   1.654  -1.539  0.00  0.00    +0.000 C 
ATOM     12  H   UNL     1       1.652   2.807   0.120  0.00  0.00    +0.000 HD
BRANCH  11  13
ATOM     13  C   UNL     1      -0.341   1.991  -1.345  0.00  0.00    +0.000 A 
ATOM     14  C   UNL     1      -0.826   2.269  -0.067  0.00  0.00    +0.000 A 
ATOM     15  C   UNL     1      -1.203   2.030  -2.441  0.00  0.00    +0.000 A 
ATOM     16  C   UNL     1      -2.172   2.585   0.115  0.00  0.00    +0.000 A 
ATOM     17  C   UNL     1      -2.549   2.346  -2.259  0.00  0.00    +0.000 A 
ATOM     18  C   UNL     1      -3.034   2.624  -0.981  0.00  0.00    +0.000 A 
BRANCH  16  19
ATOM     19  S   UNL     1      -2.779   2.933   1.715  0.00  0.00    +0.000 S 
ATOM     20  O   UNL     1      -4.212   2.670   1.743  0.00  0.00    +0.000 OA
ATOM     21  O   UNL     1      -1.905   2.278   2.678  0.00  0.00    +0.000 OA
ATOM     22  C   UNL     1      -2.572   4.690   1.895  0.00  0.00    +0.000 C 
ENDBRANCH  16  19
ENDBRANCH  11  13
ENDBRANCH   8  10
ENDBRANCH   3   8
BRANCH   7  23
ATOM     23  C   UNL     1       2.530  -2.342   0.586  0.00  0.00    +0.000 C 
BRANCH  23  24
ATOM     24  C   UNL     1       1.131  -2.938   0.751  0.00  0.00    +0.000 C 
BRANCH  24  25
ATOM     25  N   UNL     1       1.299  -4.308   1.253  0.00  0.00    +0.000 NA
ATOM     26  H   UNL     1       0.388  -4.714   1.461  0.00  0.00    +0.000 HD
ATOM     27  H   UNL     1       1.804  -4.290   2.138  0.00  0.00    +0.000 HD
ENDBRANCH  24  25
BRANCH  24  28
ATOM     28  C   UNL     1       0.329  -2.996  -0.568  0.00  0.00    +0.000 C 
BRANCH  28  30
ATOM     29 CL   UNL     1      -4.423  -0.942   0.054  0.00  0.00    +0.000 Cl
ATOM     30  C   UNL     1      -1.155  -3.205  -0.393  0.00  0.00    +0.000 A 
ATOM     31  C   UNL     1      -2.004  -2.105  -0.266  0.00  0.00    +0.000 A 
ATOM     32  C   UNL     1      -1.678  -4.497  -0.357  0.00  0.00    +0.000 A 
ATOM     33  C   UNL     1      -3.376  -2.298  -0.103  0.00  0.00    +0.000 A 
ATOM     34  C   UNL     1      -3.050  -4.690  -0.194  0.00  0.00    +0.000 A 
ATOM     35  C   UNL     1      -3.899  -3.590  -0.067  0.00  0.00    +0.000 A 
ENDBRANCH  28  30
ENDBRANCH  24  28
ENDBRANCH  23  24
ENDBRANCH   7  23
TORSDOF 9
