REMARK  Name = 
REMARK  21 active torsions:
REMARK  status: ('A' for Active; 'I' for Inactive)
REMARK    1  A    between atoms: CD1_1  and  CG_2
REMARK    2  A    between atoms: CG_2  and  CD2_3
REMARK    3  A    between atoms: CG_2  and  CB_4
REMARK    4  A    between atoms: CB_4  and  CA_5
REMARK    5  A    between atoms: CA_5  and  N_6
REMARK    6  A    between atoms: CA_5  and  C_39
REMARK    7  A    between atoms: C_7  and  CA_9
REMARK    8  A    between atoms: CA_9  and  CB_10
REMARK    9  A    between atoms: CA_9  and  N_17
REMARK   10  A    between atoms: CB_10  and  CG_11
REMARK   11  A    between atoms: C_18  and  CA_20
REMARK   12  A    between atoms: CA_20  and  N_21
REMARK   13  A    between atoms: C_22  and  CA_24
REMARK   14  A    between atoms: CA_24  and  CB_25
REMARK   15  A    between atoms: CA_24  and  N_26
REMARK   16  A    between atoms: C_27  and  CA_29
REMARK   17  A    between atoms: CA_29  and  N_30
REMARK   18  A    between atoms: CA_29  and  CB_31
REMARK   19  A    between atoms: CB_31  and  CG_32
REMARK   20  A    between atoms: CZ_35  and  OH_36
REMARK   21  A    between atoms: C_39  and  OXT_41
REMARK                            x       y       z     vdW  Elec       q    Type
REMARK                         _______ _______ _______ _____ _____    ______ ____
ROOT
ATOM      1  N   PHE A   4      -2.184  -0.890   1.259  0.00  0.00    +0.000 N 
ATOM      2  C   GLY A   3      -0.865  -0.492   1.042  0.00  0.00    +0.000 C 
ATOM      3  O   GLY A   3      -0.773   0.190  -0.029  0.00  0.00    +0.000 OA
ATOM      4  H   PHE A   4      -2.417  -1.842   1.353  0.00  0.00    +0.000 HD
ENDROOT
BRANCH   1   5
ATOM      5  CA  PHE A   4      -3.294   0.228   1.349  0.00  0.00    +0.000 C 
BRANCH   5   7
ATOM      6  N   LEU A   5      -5.356  -0.986   0.692  0.00  0.00    +0.000 N 
ATOM      7  C   PHE A   4      -4.184  -0.429   0.173  0.00  0.00    +0.000 C 
ATOM      8  O   PHE A   4      -3.616  -0.856  -0.817  0.00  0.00    +0.000 OA
ATOM      9  H   LEU A   5      -5.527  -1.124   1.652  0.00  0.00    +0.000 HD
BRANCH   6  10
ATOM     10  CA  LEU A   5      -6.371  -1.367  -0.453  0.00  0.00    +0.000 C 
BRANCH  10  11
ATOM     11  C   LEU A   5      -7.022  -2.587   0.379  0.00  0.00    +0.000 C 
ATOM     12  O   LEU A   5      -7.979  -3.094  -0.288  0.00  0.00    +0.000 OA
BRANCH  11  13
ATOM     13  OXT LEU A   5      -7.285  -2.388   1.698  0.00  0.00    +0.000 OA
ATOM     14  HXT LEU A   5      -6.629  -2.018   2.256  0.00  0.00    +0.000 HD
ENDBRANCH  11  13
ENDBRANCH  10  11
BRANCH  10  15
ATOM     15  CB  LEU A   5      -7.486  -0.287   0.108  0.00  0.00    +0.000 C 
BRANCH  15  17
ATOM     16  CD1 LEU A   5      -7.114   0.866  -0.510  0.00  0.00    +0.000 C 
ATOM     17  CG  LEU A   5      -7.325   0.766  -0.826  0.00  0.00    +0.000 C 
ATOM     18  CD2 LEU A   5      -6.905   2.126  -0.732  0.00  0.00    +0.000 C 
ENDBRANCH  15  17
ENDBRANCH  10  15
ENDBRANCH   6  10
ENDBRANCH   5   7
BRANCH   5  19
ATOM     19  CB  PHE A   4      -2.564   1.270   0.303  0.00  0.00    +0.000 C 
BRANCH  19  20
ATOM     20  CG  PHE A   4      -3.582   2.281  -0.019  0.00  0.00    +0.000 A 
ATOM     21  CD1 PHE A   4      -4.738   2.507   0.678  0.00  0.00    +0.000 A 
ATOM     22  CE1 PHE A   4      -5.811   2.995  -0.059  0.00  0.00    +0.000 A 
ATOM     23  CZ  PHE A   4      -5.603   3.636  -1.270  0.00  0.00    +0.000 A 
ATOM     24  CE2 PHE A   4      -4.327   3.753  -1.755  0.00  0.00    +0.000 A 
ATOM     25  CD2 PHE A   4      -3.317   3.082  -1.097  0.00  0.00    +0.000 A 
ENDBRANCH  19  20
ENDBRANCH   5  19
ENDBRANCH   1   5
BRANCH   2  26
ATOM     26  CA  GLY A   3       0.350  -1.085   1.650  0.00  0.00    +0.000 C 
BRANCH  26  27
ATOM     27  N   GLY A   3       1.359  -1.158   0.637  0.00  0.00    +0.000 N 
ATOM     28  C   ALA A   2       1.888  -2.381   0.131  0.00  0.00    +0.000 C 
ATOM     29  O   ALA A   2       1.540  -3.397   0.811  0.00  0.00    +0.000 OA
ATOM     30  H   GLY A   3       1.707  -0.314   0.268  0.00  0.00    +0.000 HD
BRANCH  28  31
ATOM     31  CA  ALA A   2       3.497  -2.452   0.024  0.00  0.00    +0.000 C 
ATOM     32  CB  ALA A   2       3.424  -3.353  -1.351  0.00  0.00    +0.000 C 
BRANCH  31  33
ATOM     33  N   ALA A   2       3.584  -1.111  -0.801  0.00  0.00    +0.000 N 
ATOM     34  C   TYR A   1       4.203  -0.106  -0.009  0.00  0.00    +0.000 C 
ATOM     35  O   TYR A   1       4.019   0.065   1.189  0.00  0.00    +0.000 OA
ATOM     36  H   ALA A   2       3.260  -0.989  -1.722  0.00  0.00    +0.000 HD
BRANCH  34  37
ATOM     37  CA  TYR A   1       5.408   0.693  -0.722  0.00  0.00    +0.000 C 
BRANCH  37  38
ATOM     38  N   TYR A   1       4.997   2.070  -0.068  0.00  0.00    +0.000 NA
ATOM     39  H1  TYR A   1       4.820   1.934   0.927  0.00  0.00    +0.000 HD
ATOM     40  H2  TYR A   1       4.153   2.422  -0.519  0.00  0.00    +0.000 HD
ENDBRANCH  37  38
BRANCH  37  41
ATOM     41  CB  TYR A   1       6.469   0.362   0.492  0.00  0.00    +0.000 C 
BRANCH  41  42
ATOM     42  CG  TYR A   1       7.765   0.099  -0.157  0.00  0.00    +0.000 A 
ATOM     43  CD1 TYR A   1       8.469   1.154  -0.719  0.00  0.00    +0.000 A 
ATOM     44  CE1 TYR A   1       9.840   1.244  -0.668  0.00  0.00    +0.000 A 
ATOM     45  CZ  TYR A   1      10.577   0.269  -0.044  0.00  0.00    +0.000 A 
ATOM     46  CE2 TYR A   1       9.931  -0.871   0.363  0.00  0.00    +0.000 A 
ATOM     47  CD2 TYR A   1       8.543  -0.943   0.335  0.00  0.00    +0.000 A 
BRANCH  45  48
ATOM     48  OH  TYR A   1      11.841   0.577   0.406  0.00  0.00    +0.000 OA
ATOM     49  HH  TYR A   1      12.264   1.361   0.116  0.00  0.00    +0.000 HD
ENDBRANCH  45  48
ENDBRANCH  41  42
ENDBRANCH  37  41
ENDBRANCH  34  37
ENDBRANCH  31  33
ENDBRANCH  28  31
ENDBRANCH  26  27
ENDBRANCH   2  26
TORSDOF 18
