REMARK  Name = 65667
REMARK  11 active torsions:
REMARK  status: ('A' for Active; 'I' for Inactive)
REMARK    1  A    between atoms: O_2  and  C_12
REMARK    2  A    between atoms: N_8  and  C_14
REMARK    3  A    between atoms: N_9  and  C_36
REMARK    4  A    between atoms: C_13  and  C_21
REMARK    5  A    between atoms: C_14  and  C_24
REMARK    6  A    between atoms: C_21  and  C_30
REMARK    7  A    between atoms: C_21  and  C_33
REMARK    8  A    between atoms: C_23  and  C_28
REMARK    9  A    between atoms: C_24  and  C_34
REMARK   10  A    between atoms: C_24  and  C_35
REMARK   11  A    between atoms: C_30  and  C_40
REMARK                            x       y       z     vdW  Elec       q    Type
REMARK                         _______ _______ _______ _____ _____    ______ ____
ROOT
ATOM      1  O   UNL     1      -3.047   1.609   0.941  0.00  0.00    +0.000 OA
ATOM      2  O   UNL     1      -2.011   0.589  -2.263  0.00  0.00    +0.000 OA
ATOM      3  O   UNL     1      -6.524  -2.086  -1.082  0.00  0.00    +0.000 OA
ATOM      4  N   UNL     1      -3.585   0.037  -0.616  0.00  0.00    +0.000 N 
ATOM      5  N   UNL     1      -6.106  -0.392   0.417  0.00  0.00    +0.000 N 
ATOM      6  C   UNL     1      -5.301   0.726   0.886  0.00  0.00    +0.000 C 
ATOM      7  C   UNL     1      -3.820   0.420   0.750  0.00  0.00    +0.000 C 
ATOM      8  C   UNL     1      -4.396  -0.973  -1.288  0.00  0.00    +0.000 C 
ATOM      9  C   UNL     1      -2.032   1.657  -0.071  0.00  0.00    +0.000 C 
ATOM     10  C   UNL     1      -5.857   1.018   2.279  0.00  0.00    +0.000 C 
ATOM     11  C   UNL     1      -7.324  -0.531   1.200  0.00  0.00    +0.000 C 
ATOM     12  C   UNL     1      -2.516   0.726  -1.160  0.00  0.00    +0.000 C 
ATOM     13  C   UNL     1      -7.341   0.697   2.103  0.00  0.00    +0.000 C 
ATOM     14  C   UNL     1      -5.775  -1.207  -0.647  0.00  0.00    +0.000 C 
ENDROOT
BRANCH   9  16
ATOM     15  O   UNL     1       0.425   1.189  -1.534  0.00  0.00    +0.000 OA
ATOM     16  N   UNL     1      -0.798   1.133   0.445  0.00  0.00    +0.000 N 
ATOM     17  C   UNL     1       0.330   0.943  -0.335  0.00  0.00    +0.000 C 
ATOM     18  H   UNL     1      -0.763   0.920   1.437  0.00  0.00    +0.000 HD
BRANCH  17  23
ATOM     19  N   UNL     1       2.597  -1.694   1.190  0.00  0.00    +0.000 NA
ATOM     20  N   UNL     1       8.465  -0.895   0.093  0.00  0.00    +0.000 N 
ATOM     21  C   UNL     1       3.996   0.318   0.614  0.00  0.00    +0.000 C 
ATOM     22  C   UNL     1       3.887  -1.270   0.589  0.00  0.00    +0.000 C 
ATOM     23  C   UNL     1       1.486   0.408   0.458  0.00  0.00    +0.000 C 
ATOM     24  C   UNL     1       2.797   0.941  -0.113  0.00  0.00    +0.000 C 
ATOM     25  C   UNL     1       1.459  -1.120   0.452  0.00  0.00    +0.000 C 
ATOM     26  C   UNL     1       5.125  -1.963   1.277  0.00  0.00    +0.000 C 
ATOM     27  C   UNL     1       5.335   0.784   0.069  0.00  0.00    +0.000 A 
ATOM     28  C   UNL     1       6.415  -0.098   0.208  0.00  0.00    +0.000 A 
ATOM     29  C   UNL     1       6.401  -1.394   0.759  0.00  0.00    +0.000 A 
ATOM     30  C   UNL     1       2.444  -3.151   1.242  0.00  0.00    +0.000 C 
ATOM     31  C   UNL     1       7.697   0.210  -0.204  0.00  0.00    +0.000 A 
ATOM     32  C   UNL     1       5.631   2.033  -0.493  0.00  0.00    +0.000 A 
ATOM     33  C   UNL     1       7.688  -1.873   0.680  0.00  0.00    +0.000 A 
ATOM     34  C   UNL     1       7.997   1.441  -0.784  0.00  0.00    +0.000 A 
ATOM     35  C   UNL     1       6.933   2.347  -0.916  0.00  0.00    +0.000 A 
ATOM     36  H   UNL     1       9.455  -0.979  -0.089  0.00  0.00    +0.000 HD
ENDBRANCH  17  23
ENDBRANCH   9  16
BRANCH   9  37
ATOM     37  C   UNL     1      -1.874   3.084  -0.562  0.00  0.00    +0.000 C 
ATOM     38  C   UNL     1      -1.350   3.990   0.553  0.00  0.00    +0.000 C 
ATOM     39  C   UNL     1      -3.199   3.624  -1.105  0.00  0.00    +0.000 C 
ENDBRANCH   9  37
BRANCH   7  40
ATOM     40  O   UNL     1      -3.363  -0.627   1.596  0.00  0.00    +0.000 OA
ATOM     41  H   UNL     1      -3.714  -0.484   2.488  0.00  0.00    +0.000 HD
ENDBRANCH   7  40
BRANCH   8  42
ATOM     42  C   UNL     1      -3.639  -2.299  -1.371  0.00  0.00    +0.000 C 
ATOM     43  C   UNL     1      -3.503  -2.906   0.027  0.00  0.00    +0.000 C 
BRANCH  42  44
ATOM     44  C   UNL     1      -2.275  -2.082  -2.050  0.00  0.00    +0.000 C 
ATOM     45  C   UNL     1      -1.475  -3.364  -2.234  0.00  0.00    +0.000 C 
ENDBRANCH  42  44
ENDBRANCH   8  42
TORSDOF 6
