
     RDKit          2D

 56 58  0  0  0  0  0  0  0  0999 V2000
    2.2577   -9.4996    0.0000 C   0  0  0  0  0  0  0  0  0  0  0  0
    1.3225   -8.3268    0.0000 C   0  0  0  0  0  0  0  0  0  0  0  0
    0.1497   -9.2620    0.0000 N   0  0  0  0  0  0  0  0  0  0  0  0
    0.3733  -10.7453    0.0000 C   0  0  0  0  0  0  0  0  0  0  0  0
    1.1978  -11.0689    0.0000 O   0  0  0  0  0  0  0  0  0  0  0  0
   -0.7995  -11.6805    0.0000 C   0  0  0  0  0  0  0  0  0  0  0  0
   -1.9722  -12.6158    0.0000 C   0  0  0  0  0  0  0  0  0  0  0  0
   -3.1450  -13.5510    0.0000 C   0  0  0  0  0  0  0  0  0  0  0  0
   -4.3177  -14.4862    0.0000 F   0  0  0  0  0  0  0  0  0  0  0  0
   -2.2097  -14.7237    0.0000 F   0  0  0  0  0  0  0  0  0  0  0  0
   -4.0802  -12.3782    0.0000 F   0  0  0  0  0  0  0  0  0  0  0  0
    0.3872   -7.1541    0.0000 C   0  0  0  0  0  0  0  0  0  0  0  0
   -1.0960   -7.3776    0.0000 O   0  0  0  0  0  0  0  0  0  0  0  0
    0.9352   -5.7578    0.0000 N   0  0  0  0  0  0  0  0  0  0  0  0
   -0.0000   -4.5850    0.0000 C   0  0  0  0  0  0  0  0  0  0  0  0
    1.3515   -3.9342    0.0000 C   0  0  0  0  0  0  0  0  0  0  0  0
    2.4510   -4.9544    0.0000 C   0  0  0  0  0  0  0  0  0  0  0  0
    3.8844   -4.5123    0.0000 C   0  0  0  0  0  0  0  0  0  0  0  0
    4.2182   -3.0499    0.0000 C   0  0  0  0  0  0  0  0  0  0  0  0
    3.1186   -2.0297    0.0000 C   0  0  0  0  0  0  0  0  0  0  0  0
    1.6852   -2.4718    0.0000 C   0  0  0  0  0  0  0  0  0  0  0  0
    0.7500   -1.2990    0.0000 C   0  0  0  0  0  0  0  0  0  0  0  0
    1.5000    0.0000    0.0000 C   0  0  0  0  0  0  0  0  0  0  0  0
    0.7500    1.2990    0.0000 C   0  0  0  0  0  0  0  0  0  0  0  0
   -0.7500    1.2990    0.0000 C   0  0  0  0  0  0  0  0  0  0  0  0
   -1.5000    0.0000    0.0000 N   0  0  0  0  0  0  0  0  0  0  0  0
   -0.7500   -1.2990    0.0000 C   0  0  0  0  0  0  0  0  0  0  0  0
   -1.6852   -2.4718    0.0000 N   0  0  0  0  0  0  0  0  0  0  0  0
   -3.1476   -2.1380    0.0000 C   0  0  0  0  0  0  0  0  0  0  0  0
   -4.6100   -1.8042    0.0000 C   0  0  0  0  0  0  0  0  0  0  0  0
   -6.0724   -1.4704    0.0000 O   0  0  0  0  0  0  0  0  0  0  0  0
   -1.3515   -3.9342    0.0000 C   0  0  0  0  0  0  0  0  0  0  0  0
   -2.5242   -4.8694    0.0000 O   0  0  0  0  0  0  0  0  0  0  0  0
    3.1929  -10.6723    0.0000 H   0  0  0  0  0  0  0  0  0  0  0  0
    3.4304   -8.5643    0.0000 H   0  0  0  0  0  0  0  0  0  0  0  0
    1.7194  -10.2030    0.0000 H   0  0  0  0  0  0  0  0  0  0  0  0
    2.4952   -7.3916    0.0000 H   0  0  0  0  0  0  0  0  0  0  0  0
   -1.2466   -8.7140    0.0000 H   0  0  0  0  0  0  0  0  0  0  0  0
    0.1358  -12.8533    0.0000 H   0  0  0  0  0  0  0  0  0  0  0  0
   -1.7347  -10.5078    0.0000 H   0  0  0  0  0  0  0  0  0  0  0  0
   -2.9075  -11.4430    0.0000 H   0  0  0  0  0  0  0  0  0  0  0  0
   -1.0370  -13.7885    0.0000 H   0  0  0  0  0  0  0  0  0  0  0  0
    1.7288   -5.8332    0.0000 H   0  0  0  0  0  0  0  0  0  0  0  0
   -0.9352   -5.7578    0.0000 H   0  0  0  0  0  0  0  0  0  0  0  0
    2.2539   -5.8180    0.0000 H   0  0  0  0  0  0  0  0  0  0  0  0
    4.9840   -5.5326    0.0000 H   0  0  0  0  0  0  0  0  0  0  0  0
    5.6515   -2.6078    0.0000 H   0  0  0  0  0  0  0  0  0  0  0  0
    3.6281   -0.6189    0.0000 H   0  0  0  0  0  0  0  0  0  0  0  0
    2.9888    0.1828    0.0000 H   0  0  0  0  0  0  0  0  0  0  0  0
    1.5000    2.5981    0.0000 H   0  0  0  0  0  0  0  0  0  0  0  0
   -1.5000    2.5981    0.0000 H   0  0  0  0  0  0  0  0  0  0  0  0
   -3.4814   -3.6004    0.0000 H   0  0  0  0  0  0  0  0  0  0  0  0
   -2.8138   -0.6756    0.0000 H   0  0  0  0  0  0  0  0  0  0  0  0
   -4.9438   -3.2666    0.0000 H   0  0  0  0  0  0  0  0  0  0  0  0
   -4.2762   -0.3418    0.0000 H   0  0  0  0  0  0  0  0  0  0  0  0
   -6.5145   -0.0371    0.0000 H   0  0  0  0  0  0  0  0  0  0  0  0
  1  2  1  0
  2  3  1  0
  3  4  1  0
  4  5  2  0
  4  6  1  0
  6  7  1  0
  7  8  1  0
  8  9  1  0
  8 10  1  0
  8 11  1  0
  2 12  1  0
 12 13  2  0
 12 14  1  0
 14 15  1  0
 15 16  1  0
 16 17  2  0
 17 18  1  0
 18 19  2  0
 19 20  1  0
 20 21  2  0
 21 22  1  0
 22 23  2  0
 23 24  1  0
 24 25  2  0
 25 26  1  0
 26 27  2  0
 27 28  1  0
 28 29  1  0
 29 30  1  0
 30 31  1  0
 28 32  1  0
 32 33  2  0
 32 15  1  0
 21 16  1  0
 27 22  1  0
  1 34  1  0
  1 35  1  0
  1 36  1  0
  2 37  1  1
  3 38  1  0
  6 39  1  0
  6 40  1  0
  7 41  1  0
  7 42  1  0
 14 43  1  0
 15 44  1  1
 17 45  1  0
 18 46  1  0
 19 47  1  0
 20 48  1  0
 23 49  1  0
 24 50  1  0
 25 51  1  0
 29 52  1  0
 29 53  1  0
 30 54  1  0
 30 55  1  0
 31 56  1  0
M  END
>  <CID>  (1) 
-1

>  <Energy>  (1) 


$$$$

     RDKit          3D

 56 58  0  0  0  0  0  0  0  0999 V2000
    3.1326   -0.9014   -0.8992 C   0  0  0  0  0  0  0  0  0  0  0  0
    2.7184    0.2568    0.0018 C   0  0  2  0  0  0  0  0  0  0  0  0
    3.5226    0.2939    1.2160 N   0  0  0  0  0  0  0  0  0  0  0  0
    4.7954    0.7963    1.2368 C   0  0  0  0  0  0  0  0  0  0  0  0
    5.3400    1.2998    0.2600 O   0  0  0  0  0  0  0  0  0  0  0  0
    5.4751    0.7056    2.5862 C   0  0  0  0  0  0  0  0  0  0  0  0
    6.9485    0.3356    2.4454 C   0  0  0  0  0  0  0  0  0  0  0  0
    7.1289   -1.1029    2.0104 C   0  0  0  0  0  0  0  0  0  0  0  0
    6.5643   -1.9452    2.9058 F   0  0  0  0  0  0  0  0  0  0  0  0
    8.4418   -1.4141    1.9359 F   0  0  0  0  0  0  0  0  0  0  0  0
    6.5770   -1.3544    0.8083 F   0  0  0  0  0  0  0  0  0  0  0  0
    1.2443    0.1053    0.4152 C   0  0  0  0  0  0  0  0  0  0  0  0
    0.9128   -0.2425    1.5480 O   0  0  0  0  0  0  0  0  0  0  0  0
    0.3380    0.3728   -0.5787 N   0  0  0  0  0  0  0  0  0  0  0  0
   -1.1022    0.2351   -0.3885 C   0  0  1  0  0  0  0  0  0  0  0  0
   -1.7764    1.4696    0.1676 C   0  0  0  0  0  0  0  0  0  0  0  0
   -1.1173    2.7095    0.2726 C   0  0  0  0  0  0  0  0  0  0  0  0
   -1.7893    3.8411    0.7296 C   0  0  0  0  0  0  0  0  0  0  0  0
   -3.1303    3.7536    1.0756 C   0  0  0  0  0  0  0  0  0  0  0  0
   -3.7955    2.5311    0.9709 C   0  0  0  0  0  0  0  0  0  0  0  0
   -3.1363    1.3664    0.5250 C   0  0  0  0  0  0  0  0  0  0  0  0
   -3.8679    0.0803    0.4406 C   0  0  0  0  0  0  0  0  0  0  0  0
   -4.6959   -0.2972    1.5190 C   0  0  0  0  0  0  0  0  0  0  0  0
   -5.4853   -1.4385    1.4601 C   0  0  0  0  0  0  0  0  0  0  0  0
   -5.4378   -2.1897    0.3088 C   0  0  0  0  0  0  0  0  0  0  0  0
   -4.6461   -1.8892   -0.7426 N   0  0  0  0  0  0  0  0  0  0  0  0
   -3.8481   -0.7876   -0.6720 C   0  0  0  0  0  0  0  0  0  0  0  0
   -3.0092   -0.5963   -1.8089 N   0  0  0  0  0  0  0  0  0  0  0  0
   -3.5003   -1.0886   -3.1055 C   0  0  0  0  0  0  0  0  0  0  0  0
   -2.9942   -2.4982   -3.4402 C   0  0  0  0  0  0  0  0  0  0  0  0
   -3.7295   -3.5102   -2.7565 O   0  0  0  0  0  0  0  0  0  0  0  0
   -1.7227   -0.0685   -1.7694 C   0  0  0  0  0  0  0  0  0  0  0  0
   -1.0598    0.1235   -2.7988 O   0  0  0  0  0  0  0  0  0  0  0  0
    3.0113   -1.8624   -0.3858 H   0  0  0  0  0  0  0  0  0  0  0  0
    4.1831   -0.8156   -1.1966 H   0  0  0  0  0  0  0  0  0  0  0  0
    2.5262   -0.9341   -1.8100 H   0  0  0  0  0  0  0  0  0  0  0  0
    2.8423    1.2088   -0.5273 H   0  0  0  0  0  0  0  0  0  0  0  0
    3.0797   -0.0577    2.0611 H   0  0  0  0  0  0  0  0  0  0  0  0
    4.9594   -0.0115    3.2346 H   0  0  0  0  0  0  0  0  0  0  0  0
    5.3867    1.6930    3.0560 H   0  0  0  0  0  0  0  0  0  0  0  0
    7.4431    0.4737    3.4142 H   0  0  0  0  0  0  0  0  0  0  0  0
    7.4520    0.9984    1.7329 H   0  0  0  0  0  0  0  0  0  0  0  0
    0.6435    0.6064   -1.5195 H   0  0  0  0  0  0  0  0  0  0  0  0
   -1.2520   -0.6210    0.2804 H   0  0  0  0  0  0  0  0  0  0  0  0
   -0.0721    2.8125   -0.0088 H   0  0  0  0  0  0  0  0  0  0  0  0
   -1.2660    4.7913    0.8058 H   0  0  0  0  0  0  0  0  0  0  0  0
   -3.6622    4.6358    1.4226 H   0  0  0  0  0  0  0  0  0  0  0  0
   -4.8522    2.5006    1.2333 H   0  0  0  0  0  0  0  0  0  0  0  0
   -4.7322    0.3098    2.4230 H   0  0  0  0  0  0  0  0  0  0  0  0
   -6.1269   -1.7226    2.2873 H   0  0  0  0  0  0  0  0  0  0  0  0
   -6.0438   -3.0849    0.1954 H   0  0  0  0  0  0  0  0  0  0  0  0
   -4.5962   -1.0446   -3.1264 H   0  0  0  0  0  0  0  0  0  0  0  0
   -3.1427   -0.4016   -3.8821 H   0  0  0  0  0  0  0  0  0  0  0  0
   -3.1159   -2.6873   -4.5112 H   0  0  0  0  0  0  0  0  0  0  0  0
   -1.9353   -2.6182   -3.1917 H   0  0  0  0  0  0  0  0  0  0  0  0
   -4.0251   -3.1209   -1.9054 H   0  0  0  0  0  0  0  0  0  0  0  0
  1  2  1  0
  2  3  1  0
  3  4  1  0
  4  5  2  0
  4  6  1  0
  6  7  1  0
  7  8  1  0
  8  9  1  0
  8 10  1  0
  8 11  1  0
  2 12  1  0
 12 13  2  0
 12 14  1  0
 14 15  1  0
 15 16  1  0
 16 17  2  0
 17 18  1  0
 18 19  2  0
 19 20  1  0
 20 21  2  0
 21 22  1  0
 22 23  2  0
 23 24  1  0
 24 25  2  0
 25 26  1  0
 26 27  2  0
 27 28  1  0
 28 29  1  0
 29 30  1  0
 30 31  1  0
 28 32  1  0
 32 33  2  0
 32 15  1  0
 21 16  1  0
 27 22  1  0
  1 34  1  0
  1 35  1  0
  1 36  1  0
  2 37  1  6
  3 38  1  0
  6 39  1  0
  6 40  1  0
  7 41  1  0
  7 42  1  0
 14 43  1  0
 15 44  1  1
 17 45  1  0
 18 46  1  0
 19 47  1  0
 20 48  1  0
 23 49  1  0
 24 50  1  0
 25 51  1  0
 29 52  1  0
 29 53  1  0
 30 54  1  0
 30 55  1  0
 31 56  1  0
M  END
>  <CID>  (2) 
58

>  <Energy>  (2) 
44.147190089246735

>  <RENDERING>  (2) 
True

$$$$

     RDKit          3D

 56 58  0  0  0  0  0  0  0  0999 V2000
    2.9358   -1.3164   -1.2528 C   0  0  0  0  0  0  0  0  0  0  0  0
    2.6693   -0.1413   -0.3190 C   0  0  2  0  0  0  0  0  0  0  0  0
    3.5392   -0.1850    0.8486 N   0  0  0  0  0  0  0  0  0  0  0  0
    4.8506    0.2121    0.8079 C   0  0  0  0  0  0  0  0  0  0  0  0
    5.3937    0.6387   -0.2045 O   0  0  0  0  0  0  0  0  0  0  0  0
    5.5550    0.0713    2.1392 C   0  0  0  0  0  0  0  0  0  0  0  0
    7.0204    0.4779    2.0428 C   0  0  0  0  0  0  0  0  0  0  0  0
    7.7207    0.3060    3.3680 C   0  0  0  0  0  0  0  0  0  0  0  0
    9.0198    0.6591    3.2747 F   0  0  0  0  0  0  0  0  0  0  0  0
    7.6714   -0.9785    3.7856 F   0  0  0  0  0  0  0  0  0  0  0  0
    7.1549    1.0744    4.3246 F   0  0  0  0  0  0  0  0  0  0  0  0
    1.2139   -0.1763    0.1801 C   0  0  0  0  0  0  0  0  0  0  0  0
    0.9257   -0.4906    1.3345 O   0  0  0  0  0  0  0  0  0  0  0  0
    0.2728    0.1517   -0.7634 N   0  0  0  0  0  0  0  0  0  0  0  0
   -1.1595    0.1291   -0.4847 C   0  0  1  0  0  0  0  0  0  0  0  0
   -1.7089    1.4378    0.0393 C   0  0  0  0  0  0  0  0  0  0  0  0
   -0.9547    2.6265    0.0457 C   0  0  0  0  0  0  0  0  0  0  0  0
   -1.5161    3.8280    0.4745 C   0  0  0  0  0  0  0  0  0  0  0  0
   -2.8402    3.8619    0.8886 C   0  0  0  0  0  0  0  0  0  0  0  0
   -3.5982    2.6906    0.8851 C   0  0  0  0  0  0  0  0  0  0  0  0
   -3.0508    1.4573    0.4721 C   0  0  0  0  0  0  0  0  0  0  0  0
   -3.8760    0.2265    0.5031 C   0  0  0  0  0  0  0  0  0  0  0  0
   -4.6604   -0.0313    1.6475 C   0  0  0  0  0  0  0  0  0  0  0  0
   -5.5271   -1.1157    1.7020 C   0  0  0  0  0  0  0  0  0  0  0  0
   -5.6024   -1.9290    0.5964 C   0  0  0  0  0  0  0  0  0  0  0  0
   -4.8598   -1.7421   -0.5154 N   0  0  0  0  0  0  0  0  0  0  0  0
   -3.9831   -0.7003   -0.5553 C   0  0  0  0  0  0  0  0  0  0  0  0
   -3.1996   -0.6379   -1.7462 N   0  0  0  0  0  0  0  0  0  0  0  0
   -3.7904   -1.1836   -2.9790 C   0  0  0  0  0  0  0  0  0  0  0  0
   -3.3711   -2.6358   -3.2475 C   0  0  0  0  0  0  0  0  0  0  0  0
   -4.0490   -3.5669   -2.4036 O   0  0  0  0  0  0  0  0  0  0  0  0
   -1.8809   -0.2009   -1.8096 C   0  0  0  0  0  0  0  0  0  0  0  0
   -1.2682   -0.1146   -2.8839 O   0  0  0  0  0  0  0  0  0  0  0  0
    2.7632   -2.2707   -0.7418 H   0  0  0  0  0  0  0  0  0  0  0  0
    2.2795   -1.2866   -2.1294 H   0  0  0  0  0  0  0  0  0  0  0  0
    3.9714   -1.3142   -1.6080 H   0  0  0  0  0  0  0  0  0  0  0  0
    2.8405    0.8048   -0.8447 H   0  0  0  0  0  0  0  0  0  0  0  0
    3.1083   -0.4720    1.7244 H   0  0  0  0  0  0  0  0  0  0  0  0
    5.4703   -0.9730    2.4632 H   0  0  0  0  0  0  0  0  0  0  0  0
    5.0331    0.6973    2.8726 H   0  0  0  0  0  0  0  0  0  0  0  0
    7.5295   -0.1243    1.2803 H   0  0  0  0  0  0  0  0  0  0  0  0
    7.0980    1.5246    1.7253 H   0  0  0  0  0  0  0  0  0  0  0  0
    0.5366    0.3415   -1.7267 H   0  0  0  0  0  0  0  0  0  0  0  0
   -1.3303   -0.6786    0.2383 H   0  0  0  0  0  0  0  0  0  0  0  0
    0.0792    2.6341   -0.2905 H   0  0  0  0  0  0  0  0  0  0  0  0
   -0.9209    4.7374    0.4746 H   0  0  0  0  0  0  0  0  0  0  0  0
   -3.2866    4.7985    1.2105 H   0  0  0  0  0  0  0  0  0  0  0  0
   -4.6384    2.7538    1.2014 H   0  0  0  0  0  0  0  0  0  0  0  0
   -4.5982    0.6246    2.5147 H   0  0  0  0  0  0  0  0  0  0  0  0
   -6.1307   -1.3105    2.5813 H   0  0  0  0  0  0  0  0  0  0  0  0
   -6.2726   -2.7844    0.5718 H   0  0  0  0  0  0  0  0  0  0  0  0
   -3.4490   -0.5650   -3.8180 H   0  0  0  0  0  0  0  0  0  0  0  0
   -4.8820   -1.0876   -2.9418 H   0  0  0  0  0  0  0  0  0  0  0  0
   -2.2945   -2.7740   -3.1088 H   0  0  0  0  0  0  0  0  0  0  0  0
   -3.6176   -2.9053   -4.2795 H   0  0  0  0  0  0  0  0  0  0  0  0
   -4.3359   -3.0733   -1.6034 H   0  0  0  0  0  0  0  0  0  0  0  0
  1  2  1  0
  2  3  1  0
  3  4  1  0
  4  5  2  0
  4  6  1  0
  6  7  1  0
  7  8  1  0
  8  9  1  0
  8 10  1  0
  8 11  1  0
  2 12  1  0
 12 13  2  0
 12 14  1  0
 14 15  1  0
 15 16  1  0
 16 17  2  0
 17 18  1  0
 18 19  2  0
 19 20  1  0
 20 21  2  0
 21 22  1  0
 22 23  2  0
 23 24  1  0
 24 25  2  0
 25 26  1  0
 26 27  2  0
 27 28  1  0
 28 29  1  0
 29 30  1  0
 30 31  1  0
 28 32  1  0
 32 33  2  0
 32 15  1  0
 21 16  1  0
 27 22  1  0
  1 34  1  0
  1 35  1  0
  1 36  1  0
  2 37  1  6
  3 38  1  0
  6 39  1  0
  6 40  1  0
  7 41  1  0
  7 42  1  0
 14 43  1  0
 15 44  1  1
 17 45  1  0
 18 46  1  0
 19 47  1  0
 20 48  1  0
 23 49  1  0
 24 50  1  0
 25 51  1  0
 29 52  1  0
 29 53  1  0
 30 54  1  0
 30 55  1  0
 31 56  1  0
M  END
>  <CID>  (3) 
73

>  <Energy>  (3) 
45.39012525697432

$$$$

     RDKit          3D

 56 58  0  0  0  0  0  0  0  0999 V2000
    2.9061   -1.7092   -1.0354 C   0  0  0  0  0  0  0  0  0  0  0  0
    2.6697   -0.4015   -0.2900 C   0  0  2  0  0  0  0  0  0  0  0  0
    3.5415   -0.2858    0.8717 N   0  0  0  0  0  0  0  0  0  0  0  0
    4.8486    0.1161    0.7758 C   0  0  0  0  0  0  0  0  0  0  0  0
    5.3905    0.3945   -0.2874 O   0  0  0  0  0  0  0  0  0  0  0  0
    5.5557    0.1655    2.1118 C   0  0  0  0  0  0  0  0  0  0  0  0
    6.9520    0.7634    1.9881 C   0  0  0  0  0  0  0  0  0  0  0  0
    7.6613    0.7559    3.3178 C   0  0  0  0  0  0  0  0  0  0  0  0
    7.8203   -0.5035    3.7798 F   0  0  0  0  0  0  0  0  0  0  0  0
    8.8860    1.3153    3.2146 F   0  0  0  0  0  0  0  0  0  0  0  0
    6.9681    1.4522    4.2449 F   0  0  0  0  0  0  0  0  0  0  0  0
    1.2157   -0.3303    0.2065 C   0  0  0  0  0  0  0  0  0  0  0  0
    0.9141   -0.5305    1.3829 O   0  0  0  0  0  0  0  0  0  0  0  0
    0.2907   -0.0472   -0.7656 N   0  0  0  0  0  0  0  0  0  0  0  0
   -1.1414    0.0244   -0.4926 C   0  0  1  0  0  0  0  0  0  0  0  0
   -1.6209    1.3898   -0.0538 C   0  0  0  0  0  0  0  0  0  0  0  0
   -0.8051    2.5362   -0.1190 C   0  0  0  0  0  0  0  0  0  0  0  0
   -1.3002    3.7886    0.2380 C   0  0  0  0  0  0  0  0  0  0  0  0
   -2.6185    3.9163    0.6509 C   0  0  0  0  0  0  0  0  0  0  0  0
   -3.4383    2.7887    0.7135 C   0  0  0  0  0  0  0  0  0  0  0  0
   -2.9593    1.5060    0.3738 C   0  0  0  0  0  0  0  0  0  0  0  0
   -3.8513    0.3264    0.4728 C   0  0  0  0  0  0  0  0  0  0  0  0
   -4.6535    0.1825    1.6252 C   0  0  0  0  0  0  0  0  0  0  0  0
   -5.5832   -0.8438    1.7365 C   0  0  0  0  0  0  0  0  0  0  0  0
   -5.7012   -1.7156    0.6798 C   0  0  0  0  0  0  0  0  0  0  0  0
   -4.9434   -1.6395   -0.4347 N   0  0  0  0  0  0  0  0  0  0  0  0
   -4.0076   -0.6540   -0.5295 C   0  0  0  0  0  0  0  0  0  0  0  0
   -3.2185   -0.7065   -1.7163 N   0  0  0  0  0  0  0  0  0  0  0  0
   -3.8326   -1.2983   -2.9161 C   0  0  0  0  0  0  0  0  0  0  0  0
   -3.4944   -2.7867   -3.0828 C   0  0  0  0  0  0  0  0  0  0  0  0
   -4.2612   -3.6182   -2.2160 O   0  0  0  0  0  0  0  0  0  0  0  0
   -1.8766   -0.3493   -1.7975 C   0  0  0  0  0  0  0  0  0  0  0  0
   -1.2552   -0.3707   -2.8701 O   0  0  0  0  0  0  0  0  0  0  0  0
    3.9420   -1.7855   -1.3823 H   0  0  0  0  0  0  0  0  0  0  0  0
    2.2503   -1.7922   -1.9083 H   0  0  0  0  0  0  0  0  0  0  0  0
    2.7079   -2.5720   -0.3887 H   0  0  0  0  0  0  0  0  0  0  0  0
    2.8601    0.4496   -0.9546 H   0  0  0  0  0  0  0  0  0  0  0  0
    3.1145   -0.4562    1.7776 H   0  0  0  0  0  0  0  0  0  0  0  0
    5.6089   -0.8573    2.5043 H   0  0  0  0  0  0  0  0  0  0  0  0
    4.9503    0.7616    2.8045 H   0  0  0  0  0  0  0  0  0  0  0  0
    6.8833    1.7937    1.6170 H   0  0  0  0  0  0  0  0  0  0  0  0
    7.5452    0.1988    1.2568 H   0  0  0  0  0  0  0  0  0  0  0  0
    0.5641    0.0495   -1.7397 H   0  0  0  0  0  0  0  0  0  0  0  0
   -1.3549   -0.7254    0.2786 H   0  0  0  0  0  0  0  0  0  0  0  0
    0.2262    2.4705   -0.4562 H   0  0  0  0  0  0  0  0  0  0  0  0
   -0.6576    4.6644    0.1838 H   0  0  0  0  0  0  0  0  0  0  0  0
   -3.0133    4.8929    0.9191 H   0  0  0  0  0  0  0  0  0  0  0  0
   -4.4736    2.9264    1.0235 H   0  0  0  0  0  0  0  0  0  0  0  0
   -4.5568    0.8834    2.4534 H   0  0  0  0  0  0  0  0  0  0  0  0
   -6.2018   -0.9504    2.6207 H   0  0  0  0  0  0  0  0  0  0  0  0
   -6.4206   -2.5298    0.7000 H   0  0  0  0  0  0  0  0  0  0  0  0
   -4.9172   -1.1374   -2.8963 H   0  0  0  0  0  0  0  0  0  0  0  0
   -3.4507   -0.7576   -3.7907 H   0  0  0  0  0  0  0  0  0  0  0  0
   -2.4348   -2.9832   -2.8919 H   0  0  0  0  0  0  0  0  0  0  0  0
   -3.7193   -3.1031   -4.1064 H   0  0  0  0  0  0  0  0  0  0  0  0
   -4.5103   -3.0717   -1.4405 H   0  0  0  0  0  0  0  0  0  0  0  0
  1  2  1  0
  2  3  1  0
  3  4  1  0
  4  5  2  0
  4  6  1  0
  6  7  1  0
  7  8  1  0
  8  9  1  0
  8 10  1  0
  8 11  1  0
  2 12  1  0
 12 13  2  0
 12 14  1  0
 14 15  1  0
 15 16  1  0
 16 17  2  0
 17 18  1  0
 18 19  2  0
 19 20  1  0
 20 21  2  0
 21 22  1  0
 22 23  2  0
 23 24  1  0
 24 25  2  0
 25 26  1  0
 26 27  2  0
 27 28  1  0
 28 29  1  0
 29 30  1  0
 30 31  1  0
 28 32  1  0
 32 33  2  0
 32 15  1  0
 21 16  1  0
 27 22  1  0
  1 34  1  0
  1 35  1  0
  1 36  1  0
  2 37  1  6
  3 38  1  0
  6 39  1  0
  6 40  1  0
  7 41  1  0
  7 42  1  0
 14 43  1  0
 15 44  1  1
 17 45  1  0
 18 46  1  0
 19 47  1  0
 20 48  1  0
 23 49  1  0
 24 50  1  0
 25 51  1  0
 29 52  1  0
 29 53  1  0
 30 54  1  0
 30 55  1  0
 31 56  1  0
M  END
>  <CID>  (4) 
15

>  <Energy>  (4) 
45.40527208199076

$$$$

     RDKit          3D

 56 58  0  0  0  0  0  0  0  0999 V2000
    2.8583   -2.0598   -0.7884 C   0  0  0  0  0  0  0  0  0  0  0  0
    2.6953   -0.7238   -0.0739 C   0  0  2  0  0  0  0  0  0  0  0  0
    3.5208   -0.6594    1.1255 N   0  0  0  0  0  0  0  0  0  0  0  0
    4.8583   -0.3679    1.0831 C   0  0  0  0  0  0  0  0  0  0  0  0
    5.4754   -0.1789    0.0406 O   0  0  0  0  0  0  0  0  0  0  0  0
    5.5196   -0.3463    2.4456 C   0  0  0  0  0  0  0  0  0  0  0  0
    6.7541    0.5479    2.4712 C   0  0  0  0  0  0  0  0  0  0  0  0
    6.3822    2.0156    2.4867 C   0  0  0  0  0  0  0  0  0  0  0  0
    5.6689    2.3094    3.5974 F   0  0  0  0  0  0  0  0  0  0  0  0
    7.4918    2.7871    2.5078 F   0  0  0  0  0  0  0  0  0  0  0  0
    5.6449    2.3800    1.4182 F   0  0  0  0  0  0  0  0  0  0  0  0
    1.2321   -0.5230    0.3581 C   0  0  0  0  0  0  0  0  0  0  0  0
    0.8826   -0.5982    1.5350 O   0  0  0  0  0  0  0  0  0  0  0  0
    0.3563   -0.2645   -0.6656 N   0  0  0  0  0  0  0  0  0  0  0  0
   -1.0731   -0.0793   -0.4403 C   0  0  1  0  0  0  0  0  0  0  0  0
   -1.4697    1.3430   -0.1135 C   0  0  0  0  0  0  0  0  0  0  0  0
   -0.5831    2.4285   -0.2545 C   0  0  0  0  0  0  0  0  0  0  0  0
   -1.0009    3.7331    0.0033 C   0  0  0  0  0  0  0  0  0  0  0  0
   -2.3115    3.9731    0.3913 C   0  0  0  0  0  0  0  0  0  0  0  0
   -3.2009    2.9054    0.5269 C   0  0  0  0  0  0  0  0  0  0  0  0
   -2.8017    1.5732    0.2859 C   0  0  0  0  0  0  0  0  0  0  0  0
   -3.7693    0.4620    0.4530 C   0  0  0  0  0  0  0  0  0  0  0  0
   -4.5934    0.4522    1.5974 C   0  0  0  0  0  0  0  0  0  0  0  0
   -5.5921   -0.4993    1.7617 C   0  0  0  0  0  0  0  0  0  0  0  0
   -5.7596   -1.4277    0.7628 C   0  0  0  0  0  0  0  0  0  0  0  0
   -4.9904   -1.4738   -0.3422 N   0  0  0  0  0  0  0  0  0  0  0  0
   -3.9793   -0.5734   -0.4821 C   0  0  0  0  0  0  0  0  0  0  0  0
   -3.1759   -0.7630   -1.6459 N   0  0  0  0  0  0  0  0  0  0  0  0
   -3.8152   -1.4243   -2.7919 C   0  0  0  0  0  0  0  0  0  0  0  0
   -3.5353   -2.9333   -2.8356 C   0  0  0  0  0  0  0  0  0  0  0  0
   -2.1759   -3.2381   -3.1587 O   0  0  0  0  0  0  0  0  0  0  0  0
   -1.8131   -0.5040   -1.7254 C   0  0  0  0  0  0  0  0  0  0  0  0
   -1.1844   -0.6628   -2.7828 O   0  0  0  0  0  0  0  0  0  0  0  0
    3.9018   -2.2337   -1.0673 H   0  0  0  0  0  0  0  0  0  0  0  0
    2.2537   -2.1002   -1.7014 H   0  0  0  0  0  0  0  0  0  0  0  0
    2.5430   -2.8910   -0.1476 H   0  0  0  0  0  0  0  0  0  0  0  0
    2.9831    0.0986   -0.7391 H   0  0  0  0  0  0  0  0  0  0  0  0
    3.0360   -0.7763    2.0116 H   0  0  0  0  0  0  0  0  0  0  0  0
    5.8124   -1.3789    2.6736 H   0  0  0  0  0  0  0  0  0  0  0  0
    4.8021   -0.0338    3.2118 H   0  0  0  0  0  0  0  0  0  0  0  0
    7.4082    0.3424    1.6173 H   0  0  0  0  0  0  0  0  0  0  0  0
    7.3340    0.3269    3.3769 H   0  0  0  0  0  0  0  0  0  0  0  0
    0.6641   -0.2642   -1.6330 H   0  0  0  0  0  0  0  0  0  0  0  0
   -1.3510   -0.7528    0.3793 H   0  0  0  0  0  0  0  0  0  0  0  0
    0.4451    2.2737   -0.5729 H   0  0  0  0  0  0  0  0  0  0  0  0
   -0.3036    4.5601   -0.1080 H   0  0  0  0  0  0  0  0  0  0  0  0
   -2.6450    4.9896    0.5832 H   0  0  0  0  0  0  0  0  0  0  0  0
   -4.2270    3.1288    0.8145 H   0  0  0  0  0  0  0  0  0  0  0  0
   -4.4586    1.1999    2.3764 H   0  0  0  0  0  0  0  0  0  0  0  0
   -6.2258   -0.5045    2.6404 H   0  0  0  0  0  0  0  0  0  0  0  0
   -6.5333   -2.1876    0.8245 H   0  0  0  0  0  0  0  0  0  0  0  0
   -4.8950   -1.2331   -2.7823 H   0  0  0  0  0  0  0  0  0  0  0  0
   -3.4272   -0.9598   -3.7057 H   0  0  0  0  0  0  0  0  0  0  0  0
   -3.7658   -3.4142   -1.8785 H   0  0  0  0  0  0  0  0  0  0  0  0
   -4.1601   -3.3969   -3.6080 H   0  0  0  0  0  0  0  0  0  0  0  0
   -1.7070   -2.4026   -3.3550 H   0  0  0  0  0  0  0  0  0  0  0  0
  1  2  1  0
  2  3  1  0
  3  4  1  0
  4  5  2  0
  4  6  1  0
  6  7  1  0
  7  8  1  0
  8  9  1  0
  8 10  1  0
  8 11  1  0
  2 12  1  0
 12 13  2  0
 12 14  1  0
 14 15  1  0
 15 16  1  0
 16 17  2  0
 17 18  1  0
 18 19  2  0
 19 20  1  0
 20 21  2  0
 21 22  1  0
 22 23  2  0
 23 24  1  0
 24 25  2  0
 25 26  1  0
 26 27  2  0
 27 28  1  0
 28 29  1  0
 29 30  1  0
 30 31  1  0
 28 32  1  0
 32 33  2  0
 32 15  1  0
 21 16  1  0
 27 22  1  0
  1 34  1  0
  1 35  1  0
  1 36  1  0
  2 37  1  6
  3 38  1  0
  6 39  1  0
  6 40  1  0
  7 41  1  0
  7 42  1  0
 14 43  1  0
 15 44  1  1
 17 45  1  0
 18 46  1  0
 19 47  1  0
 20 48  1  0
 23 49  1  0
 24 50  1  0
 25 51  1  0
 29 52  1  0
 29 53  1  0
 30 54  1  0
 30 55  1  0
 31 56  1  0
M  END
>  <CID>  (5) 
67

>  <Energy>  (5) 
45.57428065881566

$$$$

     RDKit          3D

 56 58  0  0  0  0  0  0  0  0999 V2000
    2.9827   -2.5478    0.1889 C   0  0  0  0  0  0  0  0  0  0  0  0
    2.8270   -1.0507    0.4244 C   0  0  2  0  0  0  0  0  0  0  0  0
    3.6192   -0.6031    1.5620 N   0  0  0  0  0  0  0  0  0  0  0  0
    4.9607   -0.3457    1.4650 C   0  0  0  0  0  0  0  0  0  0  0  0
    5.6074   -0.5164    0.4377 O   0  0  0  0  0  0  0  0  0  0  0  0
    5.5865    0.1263    2.7602 C   0  0  0  0  0  0  0  0  0  0  0  0
    6.8321    0.9724    2.5192 C   0  0  0  0  0  0  0  0  0  0  0  0
    6.4847    2.3546    2.0112 C   0  0  0  0  0  0  0  0  0  0  0  0
    7.6065    3.0832    1.8174 F   0  0  0  0  0  0  0  0  0  0  0  0
    5.8032    2.3304    0.8509 F   0  0  0  0  0  0  0  0  0  0  0  0
    5.7269    3.0154    2.9166 F   0  0  0  0  0  0  0  0  0  0  0  0
    1.3556   -0.7140    0.7172 C   0  0  0  0  0  0  0  0  0  0  0  0
    0.9462   -0.5045    1.8587 O   0  0  0  0  0  0  0  0  0  0  0  0
    0.5422   -0.6911   -0.3863 N   0  0  0  0  0  0  0  0  0  0  0  0
   -0.8869   -0.4072   -0.3063 C   0  0  1  0  0  0  0  0  0  0  0  0
   -1.2305    1.0600   -0.4054 C   0  0  0  0  0  0  0  0  0  0  0  0
   -0.2806    2.0392   -0.7558 C   0  0  0  0  0  0  0  0  0  0  0  0
   -0.6496    3.3740   -0.9047 C   0  0  0  0  0  0  0  0  0  0  0  0
   -1.9730    3.7468   -0.7208 C   0  0  0  0  0  0  0  0  0  0  0  0
   -2.9227    2.7841   -0.3764 C   0  0  0  0  0  0  0  0  0  0  0  0
   -2.5742    1.4279   -0.1997 C   0  0  0  0  0  0  0  0  0  0  0  0
   -3.6076    0.4391    0.1922 C   0  0  0  0  0  0  0  0  0  0  0  0
   -4.5156    0.7944    1.2143 C   0  0  0  0  0  0  0  0  0  0  0  0
   -5.5881   -0.0213    1.5495 C   0  0  0  0  0  0  0  0  0  0  0  0
   -5.7494   -1.1835    0.8355 C   0  0  0  0  0  0  0  0  0  0  0  0
   -4.9044   -1.5779   -0.1404 N   0  0  0  0  0  0  0  0  0  0  0  0
   -3.8086   -0.8165   -0.4199 C   0  0  0  0  0  0  0  0  0  0  0  0
   -2.9319   -1.3867   -1.3957 N   0  0  0  0  0  0  0  0  0  0  0  0
   -3.5045   -2.3738   -2.3311 C   0  0  0  0  0  0  0  0  0  0  0  0
   -4.4537   -1.7416   -3.3578 C   0  0  0  0  0  0  0  0  0  0  0  0
   -5.7776   -1.5780   -2.8519 O   0  0  0  0  0  0  0  0  0  0  0  0
   -1.5663   -1.1371   -1.4841 C   0  0  0  0  0  0  0  0  0  0  0  0
   -0.8836   -1.5129   -2.4476 O   0  0  0  0  0  0  0  0  0  0  0  0
    2.3830   -2.8781   -0.6657 H   0  0  0  0  0  0  0  0  0  0  0  0
    4.0270   -2.8114   -0.0084 H   0  0  0  0  0  0  0  0  0  0  0  0
    2.6552   -3.1207    1.0641 H   0  0  0  0  0  0  0  0  0  0  0  0
    3.1493   -0.4949   -0.4641 H   0  0  0  0  0  0  0  0  0  0  0  0
    3.1125   -0.4339    2.4269 H   0  0  0  0  0  0  0  0  0  0  0  0
    5.8602   -0.7719    3.3260 H   0  0  0  0  0  0  0  0  0  0  0  0
    4.8535    0.6800    3.3572 H   0  0  0  0  0  0  0  0  0  0  0  0
    7.5114    0.4815    1.8137 H   0  0  0  0  0  0  0  0  0  0  0  0
    7.3767    1.0760    3.4649 H   0  0  0  0  0  0  0  0  0  0  0  0
    0.8994   -0.9256   -1.3083 H   0  0  0  0  0  0  0  0  0  0  0  0
   -1.2421   -0.8240    0.6437 H   0  0  0  0  0  0  0  0  0  0  0  0
    0.7603    1.7745   -0.9262 H   0  0  0  0  0  0  0  0  0  0  0  0
    0.0957    4.1182   -1.1747 H   0  0  0  0  0  0  0  0  0  0  0  0
   -2.2700    4.7846   -0.8484 H   0  0  0  0  0  0  0  0  0  0  0  0
   -3.9557    3.1077   -0.2572 H   0  0  0  0  0  0  0  0  0  0  0  0
   -4.3903    1.7298    1.7586 H   0  0  0  0  0  0  0  0  0  0  0  0
   -6.2848    0.2573    2.3321 H   0  0  0  0  0  0  0  0  0  0  0  0
   -6.5820   -1.8540    1.0314 H   0  0  0  0  0  0  0  0  0  0  0  0
   -2.6930   -2.8627   -2.8809 H   0  0  0  0  0  0  0  0  0  0  0  0
   -4.0016   -3.1663   -1.7591 H   0  0  0  0  0  0  0  0  0  0  0  0
   -4.0876   -0.7658   -3.6926 H   0  0  0  0  0  0  0  0  0  0  0  0
   -4.5334   -2.3939   -4.2330 H   0  0  0  0  0  0  0  0  0  0  0  0
   -5.7159   -1.5445   -1.8755 H   0  0  0  0  0  0  0  0  0  0  0  0
  1  2  1  0
  2  3  1  0
  3  4  1  0
  4  5  2  0
  4  6  1  0
  6  7  1  0
  7  8  1  0
  8  9  1  0
  8 10  1  0
  8 11  1  0
  2 12  1  0
 12 13  2  0
 12 14  1  0
 14 15  1  0
 15 16  1  0
 16 17  2  0
 17 18  1  0
 18 19  2  0
 19 20  1  0
 20 21  2  0
 21 22  1  0
 22 23  2  0
 23 24  1  0
 24 25  2  0
 25 26  1  0
 26 27  2  0
 27 28  1  0
 28 29  1  0
 29 30  1  0
 30 31  1  0
 28 32  1  0
 32 33  2  0
 32 15  1  0
 21 16  1  0
 27 22  1  0
  1 34  1  0
  1 35  1  0
  1 36  1  0
  2 37  1  6
  3 38  1  0
  6 39  1  0
  6 40  1  0
  7 41  1  0
  7 42  1  0
 14 43  1  0
 15 44  1  1
 17 45  1  0
 18 46  1  0
 19 47  1  0
 20 48  1  0
 23 49  1  0
 24 50  1  0
 25 51  1  0
 29 52  1  0
 29 53  1  0
 30 54  1  0
 30 55  1  0
 31 56  1  0
M  END
>  <CID>  (6) 
70

>  <Energy>  (6) 
46.36928456733745

$$$$

     RDKit          3D

 56 58  0  0  0  0  0  0  0  0999 V2000
    2.8810   -2.5337    0.0802 C   0  0  0  0  0  0  0  0  0  0  0  0
    2.7327   -1.0459    0.3734 C   0  0  2  0  0  0  0  0  0  0  0  0
    3.5621   -0.6383    1.4994 N   0  0  0  0  0  0  0  0  0  0  0  0
    4.9005   -0.3798    1.3681 C   0  0  0  0  0  0  0  0  0  0  0  0
    5.5129   -0.5144    0.3148 O   0  0  0  0  0  0  0  0  0  0  0  0
    5.5697    0.0426    2.6588 C   0  0  0  0  0  0  0  0  0  0  0  0
    6.8103    0.8935    2.4093 C   0  0  0  0  0  0  0  0  0  0  0  0
    6.4521    2.2951    1.9656 C   0  0  0  0  0  0  0  0  0  0  0  0
    5.7256    2.9222    2.9192 F   0  0  0  0  0  0  0  0  0  0  0  0
    7.5697    3.0280    1.7646 F   0  0  0  0  0  0  0  0  0  0  0  0
    5.7343    2.3168    0.8273 F   0  0  0  0  0  0  0  0  0  0  0  0
    1.2712   -0.7214    0.7257 C   0  0  0  0  0  0  0  0  0  0  0  0
    0.9015   -0.5407    1.8855 O   0  0  0  0  0  0  0  0  0  0  0  0
    0.4192   -0.6749   -0.3477 N   0  0  0  0  0  0  0  0  0  0  0  0
   -1.0063   -0.3965   -0.2091 C   0  0  1  0  0  0  0  0  0  0  0  0
   -1.3617    1.0690   -0.2991 C   0  0  0  0  0  0  0  0  0  0  0  0
   -0.4245    2.0532   -0.6698 C   0  0  0  0  0  0  0  0  0  0  0  0
   -0.8049    3.3847   -0.8191 C   0  0  0  0  0  0  0  0  0  0  0  0
   -2.1274    3.7497   -0.6148 C   0  0  0  0  0  0  0  0  0  0  0  0
   -3.0642    2.7831   -0.2471 C   0  0  0  0  0  0  0  0  0  0  0  0
   -2.7043    1.4300   -0.0679 C   0  0  0  0  0  0  0  0  0  0  0  0
   -3.7246    0.4401    0.3595 C   0  0  0  0  0  0  0  0  0  0  0  0
   -4.6080    0.8058    1.3999 C   0  0  0  0  0  0  0  0  0  0  0  0
   -5.6619   -0.0142    1.7800 C   0  0  0  0  0  0  0  0  0  0  0  0
   -5.8234   -1.1963    1.0995 C   0  0  0  0  0  0  0  0  0  0  0  0
   -4.9959   -1.6039    0.1168 N   0  0  0  0  0  0  0  0  0  0  0  0
   -3.9324   -0.8283   -0.2263 C   0  0  0  0  0  0  0  0  0  0  0  0
   -3.0767   -1.4007   -1.2185 N   0  0  0  0  0  0  0  0  0  0  0  0
   -3.6770   -2.3647   -2.1574 C   0  0  0  0  0  0  0  0  0  0  0  0
   -4.1904   -1.6747   -3.4266 C   0  0  0  0  0  0  0  0  0  0  0  0
   -3.1355   -1.3235   -4.3212 O   0  0  0  0  0  0  0  0  0  0  0  0
   -1.7258   -1.1239   -1.3621 C   0  0  0  0  0  0  0  0  0  0  0  0
   -1.1008   -1.4593   -2.3796 O   0  0  0  0  0  0  0  0  0  0  0  0
    2.5804   -3.1376    0.9442 H   0  0  0  0  0  0  0  0  0  0  0  0
    3.9185   -2.7892   -0.1583 H   0  0  0  0  0  0  0  0  0  0  0  0
    2.2553   -2.8342   -0.7668 H   0  0  0  0  0  0  0  0  0  0  0  0
    3.0254   -0.4587   -0.5049 H   0  0  0  0  0  0  0  0  0  0  0  0
    3.0842   -0.4989    2.3858 H   0  0  0  0  0  0  0  0  0  0  0  0
    5.8583   -0.8770    3.1816 H   0  0  0  0  0  0  0  0  0  0  0  0
    4.8584    0.5753    3.2999 H   0  0  0  0  0  0  0  0  0  0  0  0
    7.3855    0.9600    3.3401 H   0  0  0  0  0  0  0  0  0  0  0  0
    7.4645    0.4275    1.6643 H   0  0  0  0  0  0  0  0  0  0  0  0
    0.7482   -0.8785   -1.2871 H   0  0  0  0  0  0  0  0  0  0  0  0
   -1.3260   -0.8134    0.7532 H   0  0  0  0  0  0  0  0  0  0  0  0
    0.6151    1.7953   -0.8576 H   0  0  0  0  0  0  0  0  0  0  0  0
   -0.0696    4.1321   -1.1067 H   0  0  0  0  0  0  0  0  0  0  0  0
   -2.4335    4.7847   -0.7438 H   0  0  0  0  0  0  0  0  0  0  0  0
   -4.0966    3.1016   -0.1099 H   0  0  0  0  0  0  0  0  0  0  0  0
   -4.4776    1.7518    1.9240 H   0  0  0  0  0  0  0  0  0  0  0  0
   -6.3415    0.2732    2.5743 H   0  0  0  0  0  0  0  0  0  0  0  0
   -6.6387   -1.8750    1.3335 H   0  0  0  0  0  0  0  0  0  0  0  0
   -2.9117   -3.1020   -2.4311 H   0  0  0  0  0  0  0  0  0  0  0  0
   -4.4874   -2.9263   -1.6837 H   0  0  0  0  0  0  0  0  0  0  0  0
   -4.8529   -2.3544   -3.9713 H   0  0  0  0  0  0  0  0  0  0  0  0
   -4.7542   -0.7672   -3.1889 H   0  0  0  0  0  0  0  0  0  0  0  0
   -2.3013   -1.2679   -3.8109 H   0  0  0  0  0  0  0  0  0  0  0  0
  1  2  1  0
  2  3  1  0
  3  4  1  0
  4  5  2  0
  4  6  1  0
  6  7  1  0
  7  8  1  0
  8  9  1  0
  8 10  1  0
  8 11  1  0
  2 12  1  0
 12 13  2  0
 12 14  1  0
 14 15  1  0
 15 16  1  0
 16 17  2  0
 17 18  1  0
 18 19  2  0
 19 20  1  0
 20 21  2  0
 21 22  1  0
 22 23  2  0
 23 24  1  0
 24 25  2  0
 25 26  1  0
 26 27  2  0
 27 28  1  0
 28 29  1  0
 29 30  1  0
 30 31  1  0
 28 32  1  0
 32 33  2  0
 32 15  1  0
 21 16  1  0
 27 22  1  0
  1 34  1  0
  1 35  1  0
  1 36  1  0
  2 37  1  6
  3 38  1  0
  6 39  1  0
  6 40  1  0
  7 41  1  0
  7 42  1  0
 14 43  1  0
 15 44  1  1
 17 45  1  0
 18 46  1  0
 19 47  1  0
 20 48  1  0
 23 49  1  0
 24 50  1  0
 25 51  1  0
 29 52  1  0
 29 53  1  0
 30 54  1  0
 30 55  1  0
 31 56  1  0
M  END
>  <CID>  (7) 
59

>  <Energy>  (7) 
46.400599778060275

$$$$

     RDKit          3D

 56 58  0  0  0  0  0  0  0  0999 V2000
    3.0832   -2.2675   -0.3581 C   0  0  0  0  0  0  0  0  0  0  0  0
    2.8758   -0.8556    0.1750 C   0  0  2  0  0  0  0  0  0  0  0  0
    3.6665   -0.6237    1.3754 N   0  0  0  0  0  0  0  0  0  0  0  0
    4.9990   -0.3127    1.3294 C   0  0  0  0  0  0  0  0  0  0  0  0
    5.6365   -0.2290    0.2855 O   0  0  0  0  0  0  0  0  0  0  0  0
    5.6291   -0.1370    2.6949 C   0  0  0  0  0  0  0  0  0  0  0  0
    6.8838    0.7275    2.6435 C   0  0  0  0  0  0  0  0  0  0  0  0
    6.5513    2.1930    2.4738 C   0  0  0  0  0  0  0  0  0  0  0  0
    5.8106    2.6336    3.5173 F   0  0  0  0  0  0  0  0  0  0  0  0
    5.8604    2.4462    1.3463 F   0  0  0  0  0  0  0  0  0  0  0  0
    7.6813    2.9344    2.4433 F   0  0  0  0  0  0  0  0  0  0  0  0
    1.3959   -0.6356    0.5368 C   0  0  0  0  0  0  0  0  0  0  0  0
    1.0085   -0.5789    1.7046 O   0  0  0  0  0  0  0  0  0  0  0  0
    0.5511   -0.5230   -0.5369 N   0  0  0  0  0  0  0  0  0  0  0  0
   -0.8866   -0.3208   -0.3887 C   0  0  1  0  0  0  0  0  0  0  0  0
   -1.3020    1.1300   -0.3453 C   0  0  0  0  0  0  0  0  0  0  0  0
   -0.4145    2.1822   -0.6444 C   0  0  0  0  0  0  0  0  0  0  0  0
   -0.8501    3.5051   -0.6563 C   0  0  0  0  0  0  0  0  0  0  0  0
   -2.1787    3.7938   -0.3831 C   0  0  0  0  0  0  0  0  0  0  0  0
   -3.0675    2.7577   -0.0907 C   0  0  0  0  0  0  0  0  0  0  0  0
   -2.6509    1.4105   -0.0550 C   0  0  0  0  0  0  0  0  0  0  0  0
   -3.6196    0.3402    0.2836 C   0  0  0  0  0  0  0  0  0  0  0  0
   -4.4954    0.5539    1.3701 C   0  0  0  0  0  0  0  0  0  0  0  0
   -5.5101   -0.3442    1.6736 C   0  0  0  0  0  0  0  0  0  0  0  0
   -5.6486   -1.4423    0.8633 C   0  0  0  0  0  0  0  0  0  0  0  0
   -4.8322   -1.7008   -0.1792 N   0  0  0  0  0  0  0  0  0  0  0  0
   -3.7875   -0.8630   -0.4325 C   0  0  0  0  0  0  0  0  0  0  0  0
   -2.9261   -1.3000   -1.4873 N   0  0  0  0  0  0  0  0  0  0  0  0
   -3.4843   -2.2407   -2.4756 C   0  0  0  0  0  0  0  0  0  0  0  0
   -4.5315   -1.5978   -3.3933 C   0  0  0  0  0  0  0  0  0  0  0  0
   -5.8385   -1.6217   -2.8215 O   0  0  0  0  0  0  0  0  0  0  0  0
   -1.5768   -0.9786   -1.6009 C   0  0  0  0  0  0  0  0  0  0  0  0
   -0.9146   -1.2370   -2.6154 O   0  0  0  0  0  0  0  0  0  0  0  0
    2.7616   -3.0126    0.3774 H   0  0  0  0  0  0  0  0  0  0  0  0
    4.1365   -2.4560   -0.5822 H   0  0  0  0  0  0  0  0  0  0  0  0
    2.5069   -2.4383   -1.2717 H   0  0  0  0  0  0  0  0  0  0  0  0
    3.1679   -0.1201   -0.5818 H   0  0  0  0  0  0  0  0  0  0  0  0
    3.1594   -0.6252    2.2553 H   0  0  0  0  0  0  0  0  0  0  0  0
    5.8943   -1.1398    3.0490 H   0  0  0  0  0  0  0  0  0  0  0  0
    4.9005    0.2772    3.4003 H   0  0  0  0  0  0  0  0  0  0  0  0
    7.5524    0.4059    1.8375 H   0  0  0  0  0  0  0  0  0  0  0  0
    7.4356    0.6039    3.5821 H   0  0  0  0  0  0  0  0  0  0  0  0
    0.8894   -0.6372   -1.4863 H   0  0  0  0  0  0  0  0  0  0  0  0
   -1.1881   -0.8351    0.5313 H   0  0  0  0  0  0  0  0  0  0  0  0
    0.6282    1.9857   -0.8806 H   0  0  0  0  0  0  0  0  0  0  0  0
   -0.1530    4.3070   -0.8878 H   0  0  0  0  0  0  0  0  0  0  0  0
   -2.5271    4.8234   -0.4005 H   0  0  0  0  0  0  0  0  0  0  0  0
   -4.1071    3.0186    0.1007 H   0  0  0  0  0  0  0  0  0  0  0  0
   -4.3884    1.4395    1.9945 H   0  0  0  0  0  0  0  0  0  0  0  0
   -6.1817   -0.1754    2.5071 H   0  0  0  0  0  0  0  0  0  0  0  0
   -6.4365   -2.1708    1.0330 H   0  0  0  0  0  0  0  0  0  0  0  0
   -2.6746   -2.6206   -3.1079 H   0  0  0  0  0  0  0  0  0  0  0  0
   -3.8952   -3.1108   -1.9488 H   0  0  0  0  0  0  0  0  0  0  0  0
   -4.2749   -0.5628   -3.6357 H   0  0  0  0  0  0  0  0  0  0  0  0
   -4.5931   -2.1632   -4.3281 H   0  0  0  0  0  0  0  0  0  0  0  0
   -5.7303   -1.5916   -1.8482 H   0  0  0  0  0  0  0  0  0  0  0  0
  1  2  1  0
  2  3  1  0
  3  4  1  0
  4  5  2  0
  4  6  1  0
  6  7  1  0
  7  8  1  0
  8  9  1  0
  8 10  1  0
  8 11  1  0
  2 12  1  0
 12 13  2  0
 12 14  1  0
 14 15  1  0
 15 16  1  0
 16 17  2  0
 17 18  1  0
 18 19  2  0
 19 20  1  0
 20 21  2  0
 21 22  1  0
 22 23  2  0
 23 24  1  0
 24 25  2  0
 25 26  1  0
 26 27  2  0
 27 28  1  0
 28 29  1  0
 29 30  1  0
 30 31  1  0
 28 32  1  0
 32 33  2  0
 32 15  1  0
 21 16  1  0
 27 22  1  0
  1 34  1  0
  1 35  1  0
  1 36  1  0
  2 37  1  6
  3 38  1  0
  6 39  1  0
  6 40  1  0
  7 41  1  0
  7 42  1  0
 14 43  1  0
 15 44  1  1
 17 45  1  0
 18 46  1  0
 19 47  1  0
 20 48  1  0
 23 49  1  0
 24 50  1  0
 25 51  1  0
 29 52  1  0
 29 53  1  0
 30 54  1  0
 30 55  1  0
 31 56  1  0
M  END
>  <CID>  (8) 
8

>  <Energy>  (8) 
46.49904568422214

$$$$

     RDKit          3D

 56 58  0  0  0  0  0  0  0  0999 V2000
    2.9615   -2.1791   -0.8284 C   0  0  0  0  0  0  0  0  0  0  0  0
    2.7408   -0.8476   -0.1249 C   0  0  2  0  0  0  0  0  0  0  0  0
    3.5874   -0.7378    1.0562 N   0  0  0  0  0  0  0  0  0  0  0  0
    4.1756    0.4496    1.4175 C   0  0  0  0  0  0  0  0  0  0  0  0
    4.1024    1.4733    0.7488 O   0  0  0  0  0  0  0  0  0  0  0  0
    4.8927    0.3855    2.7503 C   0  0  0  0  0  0  0  0  0  0  0  0
    6.0181    1.4084    2.8569 C   0  0  0  0  0  0  0  0  0  0  0  0
    7.2050    1.0392    1.9929 C   0  0  0  0  0  0  0  0  0  0  0  0
    8.2104    1.9255    2.1730 F   0  0  0  0  0  0  0  0  0  0  0  0
    6.9096    1.0140    0.6778 F   0  0  0  0  0  0  0  0  0  0  0  0
    7.6797   -0.1838    2.3301 F   0  0  0  0  0  0  0  0  0  0  0  0
    1.2726   -0.7219    0.3239 C   0  0  0  0  0  0  0  0  0  0  0  0
    0.9045   -0.9883    1.4660 O   0  0  0  0  0  0  0  0  0  0  0  0
    0.4028   -0.3471   -0.6689 N   0  0  0  0  0  0  0  0  0  0  0  0
   -1.0246   -0.1657   -0.4321 C   0  0  1  0  0  0  0  0  0  0  0  0
   -1.4017    1.2494   -0.0493 C   0  0  0  0  0  0  0  0  0  0  0  0
   -0.4996    2.3266   -0.1470 C   0  0  0  0  0  0  0  0  0  0  0  0
   -0.9041    3.6283    0.1479 C   0  0  0  0  0  0  0  0  0  0  0  0
   -2.2138    3.8742    0.5385 C   0  0  0  0  0  0  0  0  0  0  0  0
   -3.1164    2.8146    0.6407 C   0  0  0  0  0  0  0  0  0  0  0  0
   -2.7314    1.4856    0.3570 C   0  0  0  0  0  0  0  0  0  0  0  0
   -3.7115    0.3815    0.4813 C   0  0  0  0  0  0  0  0  0  0  0  0
   -4.5263    0.3251    1.6310 C   0  0  0  0  0  0  0  0  0  0  0  0
   -5.5319   -0.6262    1.7558 C   0  0  0  0  0  0  0  0  0  0  0  0
   -5.7166   -1.5034    0.7118 C   0  0  0  0  0  0  0  0  0  0  0  0
   -4.9585   -1.5015   -0.4029 N   0  0  0  0  0  0  0  0  0  0  0  0
   -3.9401   -0.6037   -0.5030 C   0  0  0  0  0  0  0  0  0  0  0  0
   -3.1427   -0.7409   -1.6771 N   0  0  0  0  0  0  0  0  0  0  0  0
   -3.8129   -1.2790   -2.8699 C   0  0  0  0  0  0  0  0  0  0  0  0
   -3.5850   -2.7842   -3.0556 C   0  0  0  0  0  0  0  0  0  0  0  0
   -2.2917   -3.0858   -3.5841 O   0  0  0  0  0  0  0  0  0  0  0  0
   -1.7704   -0.5278   -1.7347 C   0  0  0  0  0  0  0  0  0  0  0  0
   -1.1407   -0.6790   -2.7932 O   0  0  0  0  0  0  0  0  0  0  0  0
    4.0143   -2.3008   -1.1088 H   0  0  0  0  0  0  0  0  0  0  0  0
    2.6890   -3.0231   -0.1816 H   0  0  0  0  0  0  0  0  0  0  0  0
    2.3549   -2.2497   -1.7374 H   0  0  0  0  0  0  0  0  0  0  0  0
    2.9653   -0.0247   -0.8140 H   0  0  0  0  0  0  0  0  0  0  0  0
    3.5048   -1.4747    1.7461 H   0  0  0  0  0  0  0  0  0  0  0  0
    5.2766   -0.6261    2.9244 H   0  0  0  0  0  0  0  0  0  0  0  0
    4.1428    0.5893    3.5243 H   0  0  0  0  0  0  0  0  0  0  0  0
    6.3485    1.4573    3.9011 H   0  0  0  0  0  0  0  0  0  0  0  0
    5.6653    2.4106    2.5870 H   0  0  0  0  0  0  0  0  0  0  0  0
    0.7223   -0.2178   -1.6239 H   0  0  0  0  0  0  0  0  0  0  0  0
   -1.3108   -0.8666    0.3605 H   0  0  0  0  0  0  0  0  0  0  0  0
    0.5295    2.1696   -0.4625 H   0  0  0  0  0  0  0  0  0  0  0  0
   -0.1956    4.4483    0.0618 H   0  0  0  0  0  0  0  0  0  0  0  0
   -2.5362    4.8896    0.7596 H   0  0  0  0  0  0  0  0  0  0  0  0
   -4.1415    3.0421    0.9331 H   0  0  0  0  0  0  0  0  0  0  0  0
   -4.3774    1.0348    2.4446 H   0  0  0  0  0  0  0  0  0  0  0  0
   -6.1564   -0.6692    2.6410 H   0  0  0  0  0  0  0  0  0  0  0  0
   -6.4949   -2.2621    0.7435 H   0  0  0  0  0  0  0  0  0  0  0  0
   -3.4225   -0.7418   -3.7450 H   0  0  0  0  0  0  0  0  0  0  0  0
   -4.8863   -1.0579   -2.8231 H   0  0  0  0  0  0  0  0  0  0  0  0
   -4.3144   -3.1740   -3.7718 H   0  0  0  0  0  0  0  0  0  0  0  0
   -3.7025   -3.3305   -2.1161 H   0  0  0  0  0  0  0  0  0  0  0  0
   -1.7179   -2.3007   -3.4678 H   0  0  0  0  0  0  0  0  0  0  0  0
  1  2  1  0
  2  3  1  0
  3  4  1  0
  4  5  2  0
  4  6  1  0
  6  7  1  0
  7  8  1  0
  8  9  1  0
  8 10  1  0
  8 11  1  0
  2 12  1  0
 12 13  2  0
 12 14  1  0
 14 15  1  0
 15 16  1  0
 16 17  2  0
 17 18  1  0
 18 19  2  0
 19 20  1  0
 20 21  2  0
 21 22  1  0
 22 23  2  0
 23 24  1  0
 24 25  2  0
 25 26  1  0
 26 27  2  0
 27 28  1  0
 28 29  1  0
 29 30  1  0
 30 31  1  0
 28 32  1  0
 32 33  2  0
 32 15  1  0
 21 16  1  0
 27 22  1  0
  1 34  1  0
  1 35  1  0
  1 36  1  0
  2 37  1  6
  3 38  1  0
  6 39  1  0
  6 40  1  0
  7 41  1  0
  7 42  1  0
 14 43  1  0
 15 44  1  1
 17 45  1  0
 18 46  1  0
 19 47  1  0
 20 48  1  0
 23 49  1  0
 24 50  1  0
 25 51  1  0
 29 52  1  0
 29 53  1  0
 30 54  1  0
 30 55  1  0
 31 56  1  0
M  END
>  <CID>  (9) 
37

>  <Energy>  (9) 
46.79552696412536

$$$$

     RDKit          3D

 56 58  0  0  0  0  0  0  0  0999 V2000
    3.0047   -1.8419   -0.8428 C   0  0  0  0  0  0  0  0  0  0  0  0
    2.7870   -0.5923    0.0067 C   0  0  2  0  0  0  0  0  0  0  0  0
    3.6079   -0.6245    1.2133 N   0  0  0  0  0  0  0  0  0  0  0  0
    4.9460   -0.3322    1.2044 C   0  0  0  0  0  0  0  0  0  0  0  0
    5.5661   -0.0383    0.1875 O   0  0  0  0  0  0  0  0  0  0  0  0
    5.5976   -0.4631    2.5651 C   0  0  0  0  0  0  0  0  0  0  0  0
    6.9479    0.2410    2.6415 C   0  0  0  0  0  0  0  0  0  0  0  0
    6.8002    1.7444    2.7482 C   0  0  0  0  0  0  0  0  0  0  0  0
    6.1614    2.2872    1.6954 F   0  0  0  0  0  0  0  0  0  0  0  0
    8.0165    2.3318    2.8431 F   0  0  0  0  0  0  0  0  0  0  0  0
    6.1072    2.0761    3.8633 F   0  0  0  0  0  0  0  0  0  0  0  0
    1.3156   -0.4943    0.4540 C   0  0  0  0  0  0  0  0  0  0  0  0
    0.9828   -0.6211    1.6335 O   0  0  0  0  0  0  0  0  0  0  0  0
    0.4141   -0.2644   -0.5531 N   0  0  0  0  0  0  0  0  0  0  0  0
   -1.0218   -0.1731   -0.3124 C   0  0  1  0  0  0  0  0  0  0  0  0
   -1.5391    1.2428   -0.2066 C   0  0  0  0  0  0  0  0  0  0  0  0
   -0.7402    2.3648   -0.5015 C   0  0  0  0  0  0  0  0  0  0  0  0
   -1.2755    3.6510   -0.4788 C   0  0  0  0  0  0  0  0  0  0  0  0
   -2.6167    3.8335   -0.1743 C   0  0  0  0  0  0  0  0  0  0  0  0
   -3.4161    2.7292    0.1245 C   0  0  0  0  0  0  0  0  0  0  0  0
   -2.8972    1.4160    0.1295 C   0  0  0  0  0  0  0  0  0  0  0  0
   -3.7699    0.2711    0.4943 C   0  0  0  0  0  0  0  0  0  0  0  0
   -4.6123    0.4145    1.6199 C   0  0  0  0  0  0  0  0  0  0  0  0
   -5.5320   -0.5660    1.9684 C   0  0  0  0  0  0  0  0  0  0  0  0
   -5.6028   -1.6830    1.1702 C   0  0  0  0  0  0  0  0  0  0  0  0
   -4.8092   -1.8793    0.0982 N   0  0  0  0  0  0  0  0  0  0  0  0
   -3.8712   -0.9459   -0.2188 C   0  0  0  0  0  0  0  0  0  0  0  0
   -3.0279   -1.3005   -1.3193 N   0  0  0  0  0  0  0  0  0  0  0  0
   -3.5729   -2.2337   -2.3228 C   0  0  0  0  0  0  0  0  0  0  0  0
   -4.2313   -1.4909   -3.4930 C   0  0  0  0  0  0  0  0  0  0  0  0
   -3.2736   -0.9821   -4.4201 O   0  0  0  0  0  0  0  0  0  0  0  0
   -1.7322   -0.8423   -1.5078 C   0  0  0  0  0  0  0  0  0  0  0  0
   -1.1515   -0.9682   -2.5969 O   0  0  0  0  0  0  0  0  0  0  0  0
    2.4240   -1.7990   -1.7714 H   0  0  0  0  0  0  0  0  0  0  0  0
    2.6973   -2.7450   -0.3008 H   0  0  0  0  0  0  0  0  0  0  0  0
    4.0588   -1.9611   -1.1132 H   0  0  0  0  0  0  0  0  0  0  0  0
    3.0432    0.3075   -0.5667 H   0  0  0  0  0  0  0  0  0  0  0  0
    3.1183   -0.8015    2.0882 H   0  0  0  0  0  0  0  0  0  0  0  0
    5.7411   -1.5358    2.7431 H   0  0  0  0  0  0  0  0  0  0  0  0
    4.9216   -0.0922    3.3419 H   0  0  0  0  0  0  0  0  0  0  0  0
    7.5721   -0.0090    1.7763 H   0  0  0  0  0  0  0  0  0  0  0  0
    7.4800   -0.1165    3.5311 H   0  0  0  0  0  0  0  0  0  0  0  0
    0.7104   -0.2271   -1.5235 H   0  0  0  0  0  0  0  0  0  0  0  0
   -1.2393   -0.7328    0.6061 H   0  0  0  0  0  0  0  0  0  0  0  0
    0.3089    2.2521   -0.7641 H   0  0  0  0  0  0  0  0  0  0  0  0
   -0.6470    4.5066   -0.7131 H   0  0  0  0  0  0  0  0  0  0  0  0
   -3.0442    4.8331   -0.1698 H   0  0  0  0  0  0  0  0  0  0  0  0
   -4.4672    2.9072    0.3477 H   0  0  0  0  0  0  0  0  0  0  0  0
   -4.5544    1.3100    2.2386 H   0  0  0  0  0  0  0  0  0  0  0  0
   -6.1789   -0.4498    2.8305 H   0  0  0  0  0  0  0  0  0  0  0  0
   -6.3120   -2.4802    1.3767 H   0  0  0  0  0  0  0  0  0  0  0  0
   -4.2903   -2.9267   -1.8713 H   0  0  0  0  0  0  0  0  0  0  0  0
   -2.7475   -2.8493   -2.7031 H   0  0  0  0  0  0  0  0  0  0  0  0
   -4.8478   -0.6566   -3.1436 H   0  0  0  0  0  0  0  0  0  0  0  0
   -4.8736   -2.1809   -4.0515 H   0  0  0  0  0  0  0  0  0  0  0  0
   -2.4350   -0.8194   -3.9397 H   0  0  0  0  0  0  0  0  0  0  0  0
  1  2  1  0
  2  3  1  0
  3  4  1  0
  4  5  2  0
  4  6  1  0
  6  7  1  0
  7  8  1  0
  8  9  1  0
  8 10  1  0
  8 11  1  0
  2 12  1  0
 12 13  2  0
 12 14  1  0
 14 15  1  0
 15 16  1  0
 16 17  2  0
 17 18  1  0
 18 19  2  0
 19 20  1  0
 20 21  2  0
 21 22  1  0
 22 23  2  0
 23 24  1  0
 24 25  2  0
 25 26  1  0
 26 27  2  0
 27 28  1  0
 28 29  1  0
 29 30  1  0
 30 31  1  0
 28 32  1  0
 32 33  2  0
 32 15  1  0
 21 16  1  0
 27 22  1  0
  1 34  1  0
  1 35  1  0
  1 36  1  0
  2 37  1  6
  3 38  1  0
  6 39  1  0
  6 40  1  0
  7 41  1  0
  7 42  1  0
 14 43  1  0
 15 44  1  1
 17 45  1  0
 18 46  1  0
 19 47  1  0
 20 48  1  0
 23 49  1  0
 24 50  1  0
 25 51  1  0
 29 52  1  0
 29 53  1  0
 30 54  1  0
 30 55  1  0
 31 56  1  0
M  END
>  <CID>  (10) 
30

>  <Energy>  (10) 
46.85099572877059

$$$$

     RDKit          3D

 56 58  0  0  0  0  0  0  0  0999 V2000
    2.9257   -2.3273   -0.8857 C   0  0  0  0  0  0  0  0  0  0  0  0
    2.7306   -0.9961   -0.1725 C   0  0  2  0  0  0  0  0  0  0  0  0
    3.6108   -0.8879    0.9822 N   0  0  0  0  0  0  0  0  0  0  0  0
    4.1516    0.3176    1.3615 C   0  0  0  0  0  0  0  0  0  0  0  0
    3.9752    1.3638    0.7467 O   0  0  0  0  0  0  0  0  0  0  0  0
    4.9542    0.2363    2.6435 C   0  0  0  0  0  0  0  0  0  0  0  0
    5.8856    1.4306    2.8268 C   0  0  0  0  0  0  0  0  0  0  0  0
    7.0997    1.3488    1.9263 C   0  0  0  0  0  0  0  0  0  0  0  0
    7.8207    0.2370    2.2027 F   0  0  0  0  0  0  0  0  0  0  0  0
    7.9095    2.4129    2.1298 F   0  0  0  0  0  0  0  0  0  0  0  0
    6.7839    1.3132    0.6185 F   0  0  0  0  0  0  0  0  0  0  0  0
    1.2744   -0.8788    0.3123 C   0  0  0  0  0  0  0  0  0  0  0  0
    0.8993   -1.3312    1.4002 O   0  0  0  0  0  0  0  0  0  0  0  0
    0.4256   -0.2935   -0.6025 N   0  0  0  0  0  0  0  0  0  0  0  0
   -1.0029   -0.1253   -0.3627 C   0  0  1  0  0  0  0  0  0  0  0  0
   -1.3897    1.2953   -0.0061 C   0  0  0  0  0  0  0  0  0  0  0  0
   -0.4785    2.3678   -0.0770 C   0  0  0  0  0  0  0  0  0  0  0  0
   -0.8892    3.6746    0.1802 C   0  0  0  0  0  0  0  0  0  0  0  0
   -2.2141    3.9311    0.5052 C   0  0  0  0  0  0  0  0  0  0  0  0
   -3.1227    2.8764    0.5926 C   0  0  0  0  0  0  0  0  0  0  0  0
   -2.7308    1.5411    0.3542 C   0  0  0  0  0  0  0  0  0  0  0  0
   -3.7143    0.4404    0.4886 C   0  0  0  0  0  0  0  0  0  0  0  0
   -4.5619    0.4247    1.6174 C   0  0  0  0  0  0  0  0  0  0  0  0
   -5.5703   -0.5232    1.7480 C   0  0  0  0  0  0  0  0  0  0  0  0
   -5.7228   -1.4427    0.7333 C   0  0  0  0  0  0  0  0  0  0  0  0
   -4.9316   -1.4812   -0.3582 N   0  0  0  0  0  0  0  0  0  0  0  0
   -3.9164   -0.5804   -0.4663 C   0  0  0  0  0  0  0  0  0  0  0  0
   -3.1011   -0.7468   -1.6246 N   0  0  0  0  0  0  0  0  0  0  0  0
   -3.7509   -1.3293   -2.8116 C   0  0  0  0  0  0  0  0  0  0  0  0
   -3.4950   -2.8384   -2.9447 C   0  0  0  0  0  0  0  0  0  0  0  0
   -2.2147   -3.1265   -3.5085 O   0  0  0  0  0  0  0  0  0  0  0  0
   -1.7323   -0.5240   -1.6690 C   0  0  0  0  0  0  0  0  0  0  0  0
   -1.0904   -0.7007   -2.7179 O   0  0  0  0  0  0  0  0  0  0  0  0
    3.9613   -2.4389   -1.2245 H   0  0  0  0  0  0  0  0  0  0  0  0
    2.2679   -2.4039   -1.7576 H   0  0  0  0  0  0  0  0  0  0  0  0
    2.6995   -3.1717   -0.2247 H   0  0  0  0  0  0  0  0  0  0  0  0
    2.9441   -0.1750   -0.8671 H   0  0  0  0  0  0  0  0  0  0  0  0
    3.6004   -1.6558    1.6440 H   0  0  0  0  0  0  0  0  0  0  0  0
    4.2312    0.2109    3.4686 H   0  0  0  0  0  0  0  0  0  0  0  0
    5.5184   -0.7040    2.6695 H   0  0  0  0  0  0  0  0  0  0  0  0
    5.3564    2.3747    2.6491 H   0  0  0  0  0  0  0  0  0  0  0  0
    6.2309    1.4511    3.8678 H   0  0  0  0  0  0  0  0  0  0  0  0
    0.7603   -0.0249   -1.5253 H   0  0  0  0  0  0  0  0  0  0  0  0
   -1.2923   -0.8132    0.4416 H   0  0  0  0  0  0  0  0  0  0  0  0
    0.5652    2.2028   -0.3390 H   0  0  0  0  0  0  0  0  0  0  0  0
   -0.1727    4.4902    0.1171 H   0  0  0  0  0  0  0  0  0  0  0  0
   -2.5430    4.9502    0.6901 H   0  0  0  0  0  0  0  0  0  0  0  0
   -4.1572    3.1112    0.8406 H   0  0  0  0  0  0  0  0  0  0  0  0
   -4.4382    1.1654    2.4090 H   0  0  0  0  0  0  0  0  0  0  0  0
   -6.2240   -0.5329    2.6133 H   0  0  0  0  0  0  0  0  0  0  0  0
   -6.5025   -2.1993    0.7700 H   0  0  0  0  0  0  0  0  0  0  0  0
   -4.8282   -1.1232   -2.7830 H   0  0  0  0  0  0  0  0  0  0  0  0
   -3.3579   -0.8118   -3.6968 H   0  0  0  0  0  0  0  0  0  0  0  0
   -3.5655   -3.3528   -1.9785 H   0  0  0  0  0  0  0  0  0  0  0  0
   -4.2413   -3.2761   -3.6188 H   0  0  0  0  0  0  0  0  0  0  0  0
   -1.6298   -2.3514   -3.3667 H   0  0  0  0  0  0  0  0  0  0  0  0
  1  2  1  0
  2  3  1  0
  3  4  1  0
  4  5  2  0
  4  6  1  0
  6  7  1  0
  7  8  1  0
  8  9  1  0
  8 10  1  0
  8 11  1  0
  2 12  1  0
 12 13  2  0
 12 14  1  0
 14 15  1  0
 15 16  1  0
 16 17  2  0
 17 18  1  0
 18 19  2  0
 19 20  1  0
 20 21  2  0
 21 22  1  0
 22 23  2  0
 23 24  1  0
 24 25  2  0
 25 26  1  0
 26 27  2  0
 27 28  1  0
 28 29  1  0
 29 30  1  0
 30 31  1  0
 28 32  1  0
 32 33  2  0
 32 15  1  0
 21 16  1  0
 27 22  1  0
  1 34  1  0
  1 35  1  0
  1 36  1  0
  2 37  1  6
  3 38  1  0
  6 39  1  0
  6 40  1  0
  7 41  1  0
  7 42  1  0
 14 43  1  0
 15 44  1  1
 17 45  1  0
 18 46  1  0
 19 47  1  0
 20 48  1  0
 23 49  1  0
 24 50  1  0
 25 51  1  0
 29 52  1  0
 29 53  1  0
 30 54  1  0
 30 55  1  0
 31 56  1  0
M  END
>  <CID>  (11) 
18

>  <Energy>  (11) 
47.01869225145954

$$$$

     RDKit          3D

 56 58  0  0  0  0  0  0  0  0999 V2000
    2.9752   -2.8996    1.3387 C   0  0  0  0  0  0  0  0  0  0  0  0
    2.7734   -1.4461    0.9339 C   0  0  2  0  0  0  0  0  0  0  0  0
    3.5528   -0.5509    1.7802 N   0  0  0  0  0  0  0  0  0  0  0  0
    4.0473    0.6381    1.2984 C   0  0  0  0  0  0  0  0  0  0  0  0
    3.9181    1.0091    0.1346 O   0  0  0  0  0  0  0  0  0  0  0  0
    4.7380    1.4801    2.3526 C   0  0  0  0  0  0  0  0  0  0  0  0
    5.8804    2.3080    1.7658 C   0  0  0  0  0  0  0  0  0  0  0  0
    7.0726    1.4470    1.4096 C   0  0  0  0  0  0  0  0  0  0  0  0
    6.7826    0.5156    0.4805 F   0  0  0  0  0  0  0  0  0  0  0  0
    8.0834    2.2102    0.9315 F   0  0  0  0  0  0  0  0  0  0  0  0
    7.5369    0.8019    2.5071 F   0  0  0  0  0  0  0  0  0  0  0  0
    1.2940   -1.0615    1.1011 C   0  0  0  0  0  0  0  0  0  0  0  0
    0.7973   -0.8177    2.2019 O   0  0  0  0  0  0  0  0  0  0  0  0
    0.5765   -1.0398   -0.0684 N   0  0  0  0  0  0  0  0  0  0  0  0
   -0.8250   -0.6418   -0.1251 C   0  0  1  0  0  0  0  0  0  0  0  0
   -1.0276    0.8399   -0.3464 C   0  0  0  0  0  0  0  0  0  0  0  0
    0.0331    1.7089   -0.6737 C   0  0  0  0  0  0  0  0  0  0  0  0
   -0.2009    3.0564   -0.9414 C   0  0  0  0  0  0  0  0  0  0  0  0
   -1.4959    3.5526   -0.8974 C   0  0  0  0  0  0  0  0  0  0  0  0
   -2.5534    2.7001   -0.5760 C   0  0  0  0  0  0  0  0  0  0  0  0
   -2.3452    1.3338   -0.2829 C   0  0  0  0  0  0  0  0  0  0  0  0
   -3.4925    0.4664    0.0822 C   0  0  0  0  0  0  0  0  0  0  0  0
   -4.4492    0.9774    0.9894 C   0  0  0  0  0  0  0  0  0  0  0  0
   -5.6126    0.2801    1.2876 C   0  0  0  0  0  0  0  0  0  0  0  0
   -5.8131   -0.9231    0.6535 C   0  0  0  0  0  0  0  0  0  0  0  0
   -4.9302   -1.4600   -0.2153 N   0  0  0  0  0  0  0  0  0  0  0  0
   -3.7532   -0.8141   -0.4539 C   0  0  0  0  0  0  0  0  0  0  0  0
   -2.8581   -1.5264   -1.3133 N   0  0  0  0  0  0  0  0  0  0  0  0
   -3.4401   -2.5363   -2.2189 C   0  0  0  0  0  0  0  0  0  0  0  0
   -4.2676   -1.9182   -3.3550 C   0  0  0  0  0  0  0  0  0  0  0  0
   -5.6224   -1.6854   -2.9712 O   0  0  0  0  0  0  0  0  0  0  0  0
   -1.4732   -1.3950   -1.3076 C   0  0  0  0  0  0  0  0  0  0  0  0
   -0.7575   -1.8912   -2.1898 O   0  0  0  0  0  0  0  0  0  0  0  0
    4.0282   -3.1867    1.2471 H   0  0  0  0  0  0  0  0  0  0  0  0
    2.3795   -3.5686    0.7077 H   0  0  0  0  0  0  0  0  0  0  0  0
    2.6745   -3.0688    2.3797 H   0  0  0  0  0  0  0  0  0  0  0  0
    3.0752   -1.3099   -0.1113 H   0  0  0  0  0  0  0  0  0  0  0  0
    3.4857   -0.6869    2.7826 H   0  0  0  0  0  0  0  0  0  0  0  0
    5.1018    0.8461    3.1710 H   0  0  0  0  0  0  0  0  0  0  0  0
    3.9776    2.1501    2.7694 H   0  0  0  0  0  0  0  0  0  0  0  0
    5.5497    2.8644    0.8787 H   0  0  0  0  0  0  0  0  0  0  0  0
    6.1970    3.0521    2.5091 H   0  0  0  0  0  0  0  0  0  0  0  0
    1.0024   -1.3033   -0.9513 H   0  0  0  0  0  0  0  0  0  0  0  0
   -1.2884   -0.9592    0.8171 H   0  0  0  0  0  0  0  0  0  0  0  0
    1.0594    1.3484   -0.7326 H   0  0  0  0  0  0  0  0  0  0  0  0
    0.6287    3.7115   -1.1959 H   0  0  0  0  0  0  0  0  0  0  0  0
   -1.6862    4.6014   -1.1155 H   0  0  0  0  0  0  0  0  0  0  0  0
   -3.5588    3.1183   -0.5687 H   0  0  0  0  0  0  0  0  0  0  0  0
   -4.2904    1.9430    1.4708 H   0  0  0  0  0  0  0  0  0  0  0  0
   -6.3458    0.6788    1.9810 H   0  0  0  0  0  0  0  0  0  0  0  0
   -6.7121   -1.5093    0.8264 H   0  0  0  0  0  0  0  0  0  0  0  0
   -2.6319   -3.1198   -2.6721 H   0  0  0  0  0  0  0  0  0  0  0  0
   -4.0335   -3.2479   -1.6307 H   0  0  0  0  0  0  0  0  0  0  0  0
   -3.8362   -0.9714   -3.6993 H   0  0  0  0  0  0  0  0  0  0  0  0
   -4.3001   -2.6076   -4.2040 H   0  0  0  0  0  0  0  0  0  0  0  0
   -5.6203   -1.4933   -2.0105 H   0  0  0  0  0  0  0  0  0  0  0  0
  1  2  1  0
  2  3  1  0
  3  4  1  0
  4  5  2  0
  4  6  1  0
  6  7  1  0
  7  8  1  0
  8  9  1  0
  8 10  1  0
  8 11  1  0
  2 12  1  0
 12 13  2  0
 12 14  1  0
 14 15  1  0
 15 16  1  0
 16 17  2  0
 17 18  1  0
 18 19  2  0
 19 20  1  0
 20 21  2  0
 21 22  1  0
 22 23  2  0
 23 24  1  0
 24 25  2  0
 25 26  1  0
 26 27  2  0
 27 28  1  0
 28 29  1  0
 29 30  1  0
 30 31  1  0
 28 32  1  0
 32 33  2  0
 32 15  1  0
 21 16  1  0
 27 22  1  0
  1 34  1  0
  1 35  1  0
  1 36  1  0
  2 37  1  6
  3 38  1  0
  6 39  1  0
  6 40  1  0
  7 41  1  0
  7 42  1  0
 14 43  1  0
 15 44  1  1
 17 45  1  0
 18 46  1  0
 19 47  1  0
 20 48  1  0
 23 49  1  0
 24 50  1  0
 25 51  1  0
 29 52  1  0
 29 53  1  0
 30 54  1  0
 30 55  1  0
 31 56  1  0
M  END
>  <CID>  (12) 
31

>  <Energy>  (12) 
47.226687782282646

$$$$

     RDKit          3D

 56 58  0  0  0  0  0  0  0  0999 V2000
    2.2867    0.1871    4.1508 C   0  0  0  0  0  0  0  0  0  0  0  0
    1.9629   -0.3891    2.7792 C   0  0  2  0  0  0  0  0  0  0  0  0
    2.8729    0.1516    1.7653 N   0  0  0  0  0  0  0  0  0  0  0  0
    4.0462   -0.4814    1.4281 C   0  0  0  0  0  0  0  0  0  0  0  0
    4.4080   -1.5414    1.9227 O   0  0  0  0  0  0  0  0  0  0  0  0
    4.8431    0.2657    0.3817 C   0  0  0  0  0  0  0  0  0  0  0  0
    6.1276   -0.4709    0.0197 C   0  0  0  0  0  0  0  0  0  0  0  0
    6.9170    0.2945   -1.0109 C   0  0  0  0  0  0  0  0  0  0  0  0
    6.2037    0.4642   -2.1447 F   0  0  0  0  0  0  0  0  0  0  0  0
    8.0542   -0.3569   -1.3319 F   0  0  0  0  0  0  0  0  0  0  0  0
    7.2579    1.5182   -0.5517 F   0  0  0  0  0  0  0  0  0  0  0  0
    0.4960   -0.1144    2.3884 C   0  0  0  0  0  0  0  0  0  0  0  0
   -0.4176   -0.0254    3.2027 O   0  0  0  0  0  0  0  0  0  0  0  0
    0.2765   -0.1165    1.0305 N   0  0  0  0  0  0  0  0  0  0  0  0
   -1.0506   -0.0054    0.4360 C   0  0  1  0  0  0  0  0  0  0  0  0
   -1.5520    1.4130    0.2805 C   0  0  0  0  0  0  0  0  0  0  0  0
   -0.7275    2.5360    0.4823 C   0  0  0  0  0  0  0  0  0  0  0  0
   -1.2089    3.8259    0.2688 C   0  0  0  0  0  0  0  0  0  0  0  0
   -2.5149    4.0117   -0.1619 C   0  0  0  0  0  0  0  0  0  0  0  0
   -3.3404    2.9063   -0.3698 C   0  0  0  0  0  0  0  0  0  0  0  0
   -2.8840    1.5904   -0.1466 C   0  0  0  0  0  0  0  0  0  0  0  0
   -3.7936    0.4397   -0.3586 C   0  0  0  0  0  0  0  0  0  0  0  0
   -5.1074    0.5152    0.1505 C   0  0  0  0  0  0  0  0  0  0  0  0
   -6.0392   -0.4840   -0.1010 C   0  0  0  0  0  0  0  0  0  0  0  0
   -5.6395   -1.5509   -0.8707 C   0  0  0  0  0  0  0  0  0  0  0  0
   -4.3895   -1.6860   -1.3625 N   0  0  0  0  0  0  0  0  0  0  0  0
   -3.4662   -0.7233   -1.0869 C   0  0  0  0  0  0  0  0  0  0  0  0
   -2.1625   -0.9956   -1.5967 N   0  0  0  0  0  0  0  0  0  0  0  0
   -2.0670   -1.8072   -2.8205 C   0  0  0  0  0  0  0  0  0  0  0  0
   -1.8551   -3.2995   -2.5310 C   0  0  0  0  0  0  0  0  0  0  0  0
   -3.0659   -3.9539   -2.1601 O   0  0  0  0  0  0  0  0  0  0  0  0
   -0.9730   -0.6419   -0.9689 C   0  0  0  0  0  0  0  0  0  0  0  0
    0.1332   -0.8582   -1.4857 O   0  0  0  0  0  0  0  0  0  0  0  0
    2.1470    1.2740    4.1638 H   0  0  0  0  0  0  0  0  0  0  0  0
    3.3259   -0.0190    4.4285 H   0  0  0  0  0  0  0  0  0  0  0  0
    1.6379   -0.2411    4.9220 H   0  0  0  0  0  0  0  0  0  0  0  0
    2.0806   -1.4790    2.8087 H   0  0  0  0  0  0  0  0  0  0  0  0
    2.6512    1.0515    1.3576 H   0  0  0  0  0  0  0  0  0  0  0  0
    5.0737    1.2626    0.7755 H   0  0  0  0  0  0  0  0  0  0  0  0
    4.2122    0.3898   -0.5064 H   0  0  0  0  0  0  0  0  0  0  0  0
    6.7437   -0.6157    0.9149 H   0  0  0  0  0  0  0  0  0  0  0  0
    5.8920   -1.4687   -0.3686 H   0  0  0  0  0  0  0  0  0  0  0  0
    1.0405   -0.3541    0.4028 H   0  0  0  0  0  0  0  0  0  0  0  0
   -1.7282   -0.5882    1.0715 H   0  0  0  0  0  0  0  0  0  0  0  0
    0.3033    2.4201    0.8044 H   0  0  0  0  0  0  0  0  0  0  0  0
   -0.5617    4.6839    0.4318 H   0  0  0  0  0  0  0  0  0  0  0  0
   -2.8933    5.0152   -0.3397 H   0  0  0  0  0  0  0  0  0  0  0  0
   -4.3548    3.0851   -0.7233 H   0  0  0  0  0  0  0  0  0  0  0  0
   -5.4150    1.3690    0.7528 H   0  0  0  0  0  0  0  0  0  0  0  0
   -7.0499   -0.4212    0.2865 H   0  0  0  0  0  0  0  0  0  0  0  0
   -6.3267   -2.3567   -1.1154 H   0  0  0  0  0  0  0  0  0  0  0  0
   -1.2087   -1.4430   -3.3979 H   0  0  0  0  0  0  0  0  0  0  0  0
   -2.9560   -1.6455   -3.4420 H   0  0  0  0  0  0  0  0  0  0  0  0
   -1.1234   -3.4569   -1.7326 H   0  0  0  0  0  0  0  0  0  0  0  0
   -1.4881   -3.7998   -3.4324 H   0  0  0  0  0  0  0  0  0  0  0  0
   -3.6336   -3.2799   -1.7283 H   0  0  0  0  0  0  0  0  0  0  0  0
  1  2  1  0
  2  3  1  0
  3  4  1  0
  4  5  2  0
  4  6  1  0
  6  7  1  0
  7  8  1  0
  8  9  1  0
  8 10  1  0
  8 11  1  0
  2 12  1  0
 12 13  2  0
 12 14  1  0
 14 15  1  0
 15 16  1  0
 16 17  2  0
 17 18  1  0
 18 19  2  0
 19 20  1  0
 20 21  2  0
 21 22  1  0
 22 23  2  0
 23 24  1  0
 24 25  2  0
 25 26  1  0
 26 27  2  0
 27 28  1  0
 28 29  1  0
 29 30  1  0
 30 31  1  0
 28 32  1  0
 32 33  2  0
 32 15  1  0
 21 16  1  0
 27 22  1  0
  1 34  1  0
  1 35  1  0
  1 36  1  0
  2 37  1  1
  3 38  1  0
  6 39  1  0
  6 40  1  0
  7 41  1  0
  7 42  1  0
 14 43  1  0
 15 44  1  1
 17 45  1  0
 18 46  1  0
 19 47  1  0
 20 48  1  0
 23 49  1  0
 24 50  1  0
 25 51  1  0
 29 52  1  0
 29 53  1  0
 30 54  1  0
 30 55  1  0
 31 56  1  0
M  END
>  <CID>  (13) 
38

>  <Energy>  (13) 
47.35879204250526

$$$$

     RDKit          3D

 56 58  0  0  0  0  0  0  0  0999 V2000
    2.9215   -2.1845   -0.3734 C   0  0  0  0  0  0  0  0  0  0  0  0
    2.6911   -0.7319    0.0239 C   0  0  2  0  0  0  0  0  0  0  0  0
    3.5588   -0.3375    1.1255 N   0  0  0  0  0  0  0  0  0  0  0  0
    4.8672    0.0272    0.9383 C   0  0  0  0  0  0  0  0  0  0  0  0
    5.4110    0.0400   -0.1599 O   0  0  0  0  0  0  0  0  0  0  0  0
    5.5687    0.4106    2.2220 C   0  0  0  0  0  0  0  0  0  0  0  0
    7.0086    0.8403    1.9678 C   0  0  0  0  0  0  0  0  0  0  0  0
    7.6968    1.2180    3.2539 C   0  0  0  0  0  0  0  0  0  0  0  0
    7.7340    0.1758    4.1121 F   0  0  0  0  0  0  0  0  0  0  0  0
    7.0593    2.2376    3.8688 F   0  0  0  0  0  0  0  0  0  0  0  0
    8.9688    1.6068    3.0235 F   0  0  0  0  0  0  0  0  0  0  0  0
    1.2351   -0.5330    0.4773 C   0  0  0  0  0  0  0  0  0  0  0  0
    0.9249   -0.4439    1.6647 O   0  0  0  0  0  0  0  0  0  0  0  0
    0.3184   -0.4847   -0.5414 N   0  0  0  0  0  0  0  0  0  0  0  0
   -1.1117   -0.3170   -0.3048 C   0  0  1  0  0  0  0  0  0  0  0  0
   -1.5662    1.1228   -0.2517 C   0  0  0  0  0  0  0  0  0  0  0  0
   -0.7196    2.1963   -0.5908 C   0  0  0  0  0  0  0  0  0  0  0  0
   -1.1937    3.5060   -0.6042 C   0  0  0  0  0  0  0  0  0  0  0  0
   -2.5214    3.7607   -0.2939 C   0  0  0  0  0  0  0  0  0  0  0  0
   -3.3693    2.7049    0.0427 C   0  0  0  0  0  0  0  0  0  0  0  0
   -2.9125    1.3699    0.0844 C   0  0  0  0  0  0  0  0  0  0  0  0
   -3.8388    0.2797    0.4805 C   0  0  0  0  0  0  0  0  0  0  0  0
   -4.6781    0.4947    1.5966 C   0  0  0  0  0  0  0  0  0  0  0  0
   -5.6518   -0.4255    1.9611 C   0  0  0  0  0  0  0  0  0  0  0  0
   -5.7799   -1.5537    1.1878 C   0  0  0  0  0  0  0  0  0  0  0  0
   -4.9908   -1.8183    0.1280 N   0  0  0  0  0  0  0  0  0  0  0  0
   -4.0006   -0.9461   -0.2021 C   0  0  0  0  0  0  0  0  0  0  0  0
   -3.1700   -1.3745   -1.2844 N   0  0  0  0  0  0  0  0  0  0  0  0
   -3.7654   -2.2895   -2.2737 C   0  0  0  0  0  0  0  0  0  0  0  0
   -4.4161   -1.5241   -3.4320 C   0  0  0  0  0  0  0  0  0  0  0  0
   -3.4563   -0.9564   -4.3232 O   0  0  0  0  0  0  0  0  0  0  0  0
   -1.8497   -0.9972   -1.4747 C   0  0  0  0  0  0  0  0  0  0  0  0
   -1.2647   -1.2072   -2.5480 O   0  0  0  0  0  0  0  0  0  0  0  0
    3.9578   -2.3497   -0.6857 H   0  0  0  0  0  0  0  0  0  0  0  0
    2.2674   -2.4767   -1.2017 H   0  0  0  0  0  0  0  0  0  0  0  0
    2.7156   -2.8597    0.4651 H   0  0  0  0  0  0  0  0  0  0  0  0
    2.8901   -0.0730   -0.8293 H   0  0  0  0  0  0  0  0  0  0  0  0
    3.1324   -0.2958    2.0476 H   0  0  0  0  0  0  0  0  0  0  0  0
    5.0056    1.2257    2.6916 H   0  0  0  0  0  0  0  0  0  0  0  0
    5.5420   -0.4530    2.8972 H   0  0  0  0  0  0  0  0  0  0  0  0
    7.0305    1.6927    1.2788 H   0  0  0  0  0  0  0  0  0  0  0  0
    7.5636    0.0279    1.4844 H   0  0  0  0  0  0  0  0  0  0  0  0
    0.6020   -0.6089   -1.5091 H   0  0  0  0  0  0  0  0  0  0  0  0
   -1.3458   -0.8311    0.6348 H   0  0  0  0  0  0  0  0  0  0  0  0
    0.3202    2.0265   -0.8597 H   0  0  0  0  0  0  0  0  0  0  0  0
   -0.5282    4.3237   -0.8693 H   0  0  0  0  0  0  0  0  0  0  0  0
   -2.9013    4.7791   -0.3166 H   0  0  0  0  0  0  0  0  0  0  0  0
   -4.4097    2.9384    0.2647 H   0  0  0  0  0  0  0  0  0  0  0  0
   -4.5765    1.4001    2.1936 H   0  0  0  0  0  0  0  0  0  0  0  0
   -6.2969   -0.2553    2.8152 H   0  0  0  0  0  0  0  0  0  0  0  0
   -6.5347   -2.3040    1.4059 H   0  0  0  0  0  0  0  0  0  0  0  0
   -2.9715   -2.9351   -2.6697 H   0  0  0  0  0  0  0  0  0  0  0  0
   -4.4963   -2.9565   -1.8067 H   0  0  0  0  0  0  0  0  0  0  0  0
   -5.0590   -0.7175   -3.0656 H   0  0  0  0  0  0  0  0  0  0  0  0
   -5.0328   -2.2079   -4.0233 H   0  0  0  0  0  0  0  0  0  0  0  0
   -2.5821   -0.9563   -3.8817 H   0  0  0  0  0  0  0  0  0  0  0  0
  1  2  1  0
  2  3  1  0
  3  4  1  0
  4  5  2  0
  4  6  1  0
  6  7  1  0
  7  8  1  0
  8  9  1  0
  8 10  1  0
  8 11  1  0
  2 12  1  0
 12 13  2  0
 12 14  1  0
 14 15  1  0
 15 16  1  0
 16 17  2  0
 17 18  1  0
 18 19  2  0
 19 20  1  0
 20 21  2  0
 21 22  1  0
 22 23  2  0
 23 24  1  0
 24 25  2  0
 25 26  1  0
 26 27  2  0
 27 28  1  0
 28 29  1  0
 29 30  1  0
 30 31  1  0
 28 32  1  0
 32 33  2  0
 32 15  1  0
 21 16  1  0
 27 22  1  0
  1 34  1  0
  1 35  1  0
  1 36  1  0
  2 37  1  6
  3 38  1  0
  6 39  1  0
  6 40  1  0
  7 41  1  0
  7 42  1  0
 14 43  1  0
 15 44  1  1
 17 45  1  0
 18 46  1  0
 19 47  1  0
 20 48  1  0
 23 49  1  0
 24 50  1  0
 25 51  1  0
 29 52  1  0
 29 53  1  0
 30 54  1  0
 30 55  1  0
 31 56  1  0
M  END
>  <CID>  (14) 
45

>  <Energy>  (14) 
47.7409898129804

$$$$

     RDKit          3D

 56 58  0  0  0  0  0  0  0  0999 V2000
    3.1460   -1.5924   -1.0049 C   0  0  0  0  0  0  0  0  0  0  0  0
    2.8332   -0.3432   -0.1895 C   0  0  2  0  0  0  0  0  0  0  0  0
    3.6704   -0.2691    1.0006 N   0  0  0  0  0  0  0  0  0  0  0  0
    4.9618    0.1891    0.9694 C   0  0  0  0  0  0  0  0  0  0  0  0
    5.5119    0.5839   -0.0529 O   0  0  0  0  0  0  0  0  0  0  0  0
    5.6373    0.1565    2.3229 C   0  0  0  0  0  0  0  0  0  0  0  0
    7.0656    0.6827    2.2520 C   0  0  0  0  0  0  0  0  0  0  0  0
    7.7282    0.6337    3.6050 C   0  0  0  0  0  0  0  0  0  0  0  0
    7.7823   -0.6305    4.0755 F   0  0  0  0  0  0  0  0  0  0  0  0
    7.0562    1.3812    4.5069 F   0  0  0  0  0  0  0  0  0  0  0  0
    8.9922    1.1036    3.5405 F   0  0  0  0  0  0  0  0  0  0  0  0
    1.3638   -0.3546    0.2694 C   0  0  0  0  0  0  0  0  0  0  0  0
    1.0468   -0.5434    1.4445 O   0  0  0  0  0  0  0  0  0  0  0  0
    0.4456   -0.1534   -0.7277 N   0  0  0  0  0  0  0  0  0  0  0  0
   -0.9928   -0.1340   -0.4804 C   0  0  1  0  0  0  0  0  0  0  0  0
   -1.5489    1.2433   -0.2075 C   0  0  0  0  0  0  0  0  0  0  0  0
   -0.7947    2.4173   -0.3974 C   0  0  0  0  0  0  0  0  0  0  0  0
   -1.3650    3.6726   -0.2047 C   0  0  0  0  0  0  0  0  0  0  0  0
   -2.6981    3.7732    0.1647 C   0  0  0  0  0  0  0  0  0  0  0  0
   -3.4553    2.6165    0.3529 C   0  0  0  0  0  0  0  0  0  0  0  0
   -2.8990    1.3315    0.1835 C   0  0  0  0  0  0  0  0  0  0  0  0
   -3.7254    0.1232    0.4196 C   0  0  0  0  0  0  0  0  0  0  0  0
   -4.5433    0.0896    1.5705 C   0  0  0  0  0  0  0  0  0  0  0  0
   -5.4287   -0.9547    1.8015 C   0  0  0  0  0  0  0  0  0  0  0  0
   -5.4979   -1.9502    0.8581 C   0  0  0  0  0  0  0  0  0  0  0  0
   -4.7329   -1.9728   -0.2540 N   0  0  0  0  0  0  0  0  0  0  0  0
   -3.8120   -0.9869   -0.4479 C   0  0  0  0  0  0  0  0  0  0  0  0
   -2.9911   -1.1675   -1.6060 N   0  0  0  0  0  0  0  0  0  0  0  0
   -3.5228   -2.0098   -2.6950 C   0  0  0  0  0  0  0  0  0  0  0  0
   -4.7306   -1.3875   -3.4085 C   0  0  0  0  0  0  0  0  0  0  0  0
   -5.9601   -1.6947   -2.7572 O   0  0  0  0  0  0  0  0  0  0  0  0
   -1.6914   -0.6873   -1.7411 C   0  0  0  0  0  0  0  0  0  0  0  0
   -1.0757   -0.7243   -2.8163 O   0  0  0  0  0  0  0  0  0  0  0  0
    2.5340   -1.6402   -1.9110 H   0  0  0  0  0  0  0  0  0  0  0  0
    2.9482   -2.5024   -0.4255 H   0  0  0  0  0  0  0  0  0  0  0  0
    4.1977   -1.6144   -1.3079 H   0  0  0  0  0  0  0  0  0  0  0  0
    3.0057    0.5543   -0.7942 H   0  0  0  0  0  0  0  0  0  0  0  0
    3.2279   -0.5174    1.8818 H   0  0  0  0  0  0  0  0  0  0  0  0
    5.0420    0.7577    3.0208 H   0  0  0  0  0  0  0  0  0  0  0  0
    5.6322   -0.8807    2.6805 H   0  0  0  0  0  0  0  0  0  0  0  0
    7.0663    1.7159    1.8851 H   0  0  0  0  0  0  0  0  0  0  0  0
    7.6502    0.0889    1.5405 H   0  0  0  0  0  0  0  0  0  0  0  0
    0.7310   -0.0844   -1.6987 H   0  0  0  0  0  0  0  0  0  0  0  0
   -1.1819   -0.8012    0.3689 H   0  0  0  0  0  0  0  0  0  0  0  0
    0.2464    2.3706   -0.7067 H   0  0  0  0  0  0  0  0  0  0  0  0
   -0.7705    4.5700   -0.3551 H   0  0  0  0  0  0  0  0  0  0  0  0
   -3.1529    4.7505    0.3024 H   0  0  0  0  0  0  0  0  0  0  0  0
   -4.5030    2.7320    0.6261 H   0  0  0  0  0  0  0  0  0  0  0  0
   -4.4947    0.8945    2.3024 H   0  0  0  0  0  0  0  0  0  0  0  0
   -6.0571   -0.9750    2.6845 H   0  0  0  0  0  0  0  0  0  0  0  0
   -6.1867   -2.7833    0.9670 H   0  0  0  0  0  0  0  0  0  0  0  0
   -3.7666   -2.9996   -2.2898 H   0  0  0  0  0  0  0  0  0  0  0  0
   -2.7407   -2.1691   -3.4430 H   0  0  0  0  0  0  0  0  0  0  0  0
   -4.6359   -0.2999   -3.4862 H   0  0  0  0  0  0  0  0  0  0  0  0
   -4.8096   -1.7994   -4.4203 H   0  0  0  0  0  0  0  0  0  0  0  0
   -5.7574   -1.8088   -1.8068 H   0  0  0  0  0  0  0  0  0  0  0  0
  1  2  1  0
  2  3  1  0
  3  4  1  0
  4  5  2  0
  4  6  1  0
  6  7  1  0
  7  8  1  0
  8  9  1  0
  8 10  1  0
  8 11  1  0
  2 12  1  0
 12 13  2  0
 12 14  1  0
 14 15  1  0
 15 16  1  0
 16 17  2  0
 17 18  1  0
 18 19  2  0
 19 20  1  0
 20 21  2  0
 21 22  1  0
 22 23  2  0
 23 24  1  0
 24 25  2  0
 25 26  1  0
 26 27  2  0
 27 28  1  0
 28 29  1  0
 29 30  1  0
 30 31  1  0
 28 32  1  0
 32 33  2  0
 32 15  1  0
 21 16  1  0
 27 22  1  0
  1 34  1  0
  1 35  1  0
  1 36  1  0
  2 37  1  6
  3 38  1  0
  6 39  1  0
  6 40  1  0
  7 41  1  0
  7 42  1  0
 14 43  1  0
 15 44  1  1
 17 45  1  0
 18 46  1  0
 19 47  1  0
 20 48  1  0
 23 49  1  0
 24 50  1  0
 25 51  1  0
 29 52  1  0
 29 53  1  0
 30 54  1  0
 30 55  1  0
 31 56  1  0
M  END
>  <CID>  (15) 
25

>  <Energy>  (15) 
47.8782370433817

$$$$

     RDKit          3D

 56 58  0  0  0  0  0  0  0  0999 V2000
    2.3021    2.4908    2.5881 C   0  0  0  0  0  0  0  0  0  0  0  0
    1.8491    1.1124    2.1199 C   0  0  2  0  0  0  0  0  0  0  0  0
    2.2176    0.9144    0.7105 N   0  0  0  0  0  0  0  0  0  0  0  0
    2.4774   -0.3333    0.1938 C   0  0  0  0  0  0  0  0  0  0  0  0
    2.2285   -1.3585    0.8176 O   0  0  0  0  0  0  0  0  0  0  0  0
    3.0066   -0.3373   -1.2217 C   0  0  0  0  0  0  0  0  0  0  0  0
    3.8949   -1.5507   -1.5010 C   0  0  0  0  0  0  0  0  0  0  0  0
    5.2588   -1.4024   -0.8389 C   0  0  0  0  0  0  0  0  0  0  0  0
    5.1902   -1.2910    0.5033 F   0  0  0  0  0  0  0  0  0  0  0  0
    5.8866   -0.2885   -1.2984 F   0  0  0  0  0  0  0  0  0  0  0  0
    6.0424   -2.4693   -1.1208 F   0  0  0  0  0  0  0  0  0  0  0  0
    0.3392    0.9014    2.4090 C   0  0  0  0  0  0  0  0  0  0  0  0
   -0.2449    1.4803    3.3235 O   0  0  0  0  0  0  0  0  0  0  0  0
   -0.2476   -0.0937    1.6694 N   0  0  0  0  0  0  0  0  0  0  0  0
   -1.6176   -0.5531    1.8633 C   0  0  1  0  0  0  0  0  0  0  0  0
   -2.6881    0.4999    1.7159 C   0  0  0  0  0  0  0  0  0  0  0  0
   -3.5698    0.7373    2.7883 C   0  0  0  0  0  0  0  0  0  0  0  0
   -4.6241    1.6400    2.6618 C   0  0  0  0  0  0  0  0  0  0  0  0
   -4.8169    2.3079    1.4621 C   0  0  0  0  0  0  0  0  0  0  0  0
   -3.9458    2.0789    0.3964 C   0  0  0  0  0  0  0  0  0  0  0  0
   -2.8590    1.1811    0.5007 C   0  0  0  0  0  0  0  0  0  0  0  0
   -1.9378    0.9930   -0.6400 C   0  0  0  0  0  0  0  0  0  0  0  0
   -1.5130    2.1407   -1.3513 C   0  0  0  0  0  0  0  0  0  0  0  0
   -0.7463    2.0426   -2.5002 C   0  0  0  0  0  0  0  0  0  0  0  0
   -0.4052    0.7823   -2.9262 C   0  0  0  0  0  0  0  0  0  0  0  0
   -0.7362   -0.3434   -2.2557 N   0  0  0  0  0  0  0  0  0  0  0  0
   -1.4776   -0.2504   -1.1146 C   0  0  0  0  0  0  0  0  0  0  0  0
   -1.7456   -1.5061   -0.4800 N   0  0  0  0  0  0  0  0  0  0  0  0
   -1.7625   -2.7039   -1.3384 C   0  0  0  0  0  0  0  0  0  0  0  0
   -0.3927   -3.4030   -1.4011 C   0  0  0  0  0  0  0  0  0  0  0  0
    0.5021   -2.7554   -2.3151 O   0  0  0  0  0  0  0  0  0  0  0  0
   -1.9294   -1.7098    0.8893 C   0  0  0  0  0  0  0  0  0  0  0  0
   -2.3122   -2.7984    1.3372 O   0  0  0  0  0  0  0  0  0  0  0  0
    3.3757    2.6354    2.4064 H   0  0  0  0  0  0  0  0  0  0  0  0
    2.1197    2.6226    3.6616 H   0  0  0  0  0  0  0  0  0  0  0  0
    1.7641    3.2883    2.0560 H   0  0  0  0  0  0  0  0  0  0  0  0
    2.3789    0.3513    2.7078 H   0  0  0  0  0  0  0  0  0  0  0  0
    2.2646    1.7290    0.1070 H   0  0  0  0  0  0  0  0  0  0  0  0
    2.1348   -0.3701   -1.8904 H   0  0  0  0  0  0  0  0  0  0  0  0
    3.5413    0.5983   -1.4237 H   0  0  0  0  0  0  0  0  0  0  0  0
    3.4210   -2.4839   -1.1609 H   0  0  0  0  0  0  0  0  0  0  0  0
    4.0313   -1.6408   -2.5862 H   0  0  0  0  0  0  0  0  0  0  0  0
    0.3852   -0.7222    1.1810 H   0  0  0  0  0  0  0  0  0  0  0  0
   -1.6434   -0.9714    2.8780 H   0  0  0  0  0  0  0  0  0  0  0  0
   -3.4389    0.2130    3.7334 H   0  0  0  0  0  0  0  0  0  0  0  0
   -5.2963    1.8116    3.4971 H   0  0  0  0  0  0  0  0  0  0  0  0
   -5.6413    3.0097    1.3524 H   0  0  0  0  0  0  0  0  0  0  0  0
   -4.1360    2.6107   -0.5345 H   0  0  0  0  0  0  0  0  0  0  0  0
   -1.7972    3.1328   -1.0030 H   0  0  0  0  0  0  0  0  0  0  0  0
   -0.4449    2.9250   -3.0539 H   0  0  0  0  0  0  0  0  0  0  0  0
    0.1705    0.6328   -3.8365 H   0  0  0  0  0  0  0  0  0  0  0  0
   -2.4928   -3.4147   -0.9284 H   0  0  0  0  0  0  0  0  0  0  0  0
   -2.1196   -2.4312   -2.3401 H   0  0  0  0  0  0  0  0  0  0  0  0
    0.0917   -3.4366   -0.4179 H   0  0  0  0  0  0  0  0  0  0  0  0
   -0.5203   -4.4309   -1.7552 H   0  0  0  0  0  0  0  0  0  0  0  0
    0.2290   -1.8136   -2.3354 H   0  0  0  0  0  0  0  0  0  0  0  0
  1  2  1  0
  2  3  1  0
  3  4  1  0
  4  5  2  0
  4  6  1  0
  6  7  1  0
  7  8  1  0
  8  9  1  0
  8 10  1  0
  8 11  1  0
  2 12  1  0
 12 13  2  0
 12 14  1  0
 14 15  1  0
 15 16  1  0
 16 17  2  0
 17 18  1  0
 18 19  2  0
 19 20  1  0
 20 21  2  0
 21 22  1  0
 22 23  2  0
 23 24  1  0
 24 25  2  0
 25 26  1  0
 26 27  2  0
 27 28  1  0
 28 29  1  0
 29 30  1  0
 30 31  1  0
 28 32  1  0
 32 33  2  0
 32 15  1  0
 21 16  1  0
 27 22  1  0
  1 34  1  0
  1 35  1  0
  1 36  1  0
  2 37  1  1
  3 38  1  0
  6 39  1  0
  6 40  1  0
  7 41  1  0
  7 42  1  0
 14 43  1  0
 15 44  1  1
 17 45  1  0
 18 46  1  0
 19 47  1  0
 20 48  1  0
 23 49  1  0
 24 50  1  0
 25 51  1  0
 29 52  1  0
 29 53  1  0
 30 54  1  0
 30 55  1  0
 31 56  1  0
M  END
>  <CID>  (16) 
50

>  <Energy>  (16) 
47.93846817928276

$$$$

     RDKit          3D

 56 58  0  0  0  0  0  0  0  0999 V2000
    2.5761    1.9420    2.7943 C   0  0  0  0  0  0  0  0  0  0  0  0
    1.9188    0.7167    2.1690 C   0  0  2  0  0  0  0  0  0  0  0  0
    2.2786    0.6270    0.7472 N   0  0  0  0  0  0  0  0  0  0  0  0
    2.2998   -0.5659    0.0732 C   0  0  0  0  0  0  0  0  0  0  0  0
    1.8496   -1.6007    0.5557 O   0  0  0  0  0  0  0  0  0  0  0  0
    2.9032   -0.5161   -1.3096 C   0  0  0  0  0  0  0  0  0  0  0  0
    4.1644   -1.3697   -1.3835 C   0  0  0  0  0  0  0  0  0  0  0  0
    5.2955   -0.7880   -0.5656 C   0  0  0  0  0  0  0  0  0  0  0  0
    5.5556    0.4826   -0.9495 F   0  0  0  0  0  0  0  0  0  0  0  0
    6.4266   -1.5049   -0.7351 F   0  0  0  0  0  0  0  0  0  0  0  0
    5.0154   -0.7668    0.7521 F   0  0  0  0  0  0  0  0  0  0  0  0
    0.3893    0.7167    2.4297 C   0  0  0  0  0  0  0  0  0  0  0  0
   -0.1256    1.3377    3.3566 O   0  0  0  0  0  0  0  0  0  0  0  0
   -0.3198   -0.1616    1.6458 N   0  0  0  0  0  0  0  0  0  0  0  0
   -1.7367   -0.4406    1.8245 C   0  0  1  0  0  0  0  0  0  0  0  0
   -2.6508    0.7415    1.6197 C   0  0  0  0  0  0  0  0  0  0  0  0
   -3.4744    1.1622    2.6834 C   0  0  0  0  0  0  0  0  0  0  0  0
   -4.3930    2.1937    2.5137 C   0  0  0  0  0  0  0  0  0  0  0  0
   -4.5084    2.8104    1.2768 C   0  0  0  0  0  0  0  0  0  0  0  0
   -3.6887    2.4060    0.2210 C   0  0  0  0  0  0  0  0  0  0  0  0
   -2.7317    1.3782    0.3715 C   0  0  0  0  0  0  0  0  0  0  0  0
   -1.8437    1.0139   -0.7533 C   0  0  0  0  0  0  0  0  0  0  0  0
   -1.2739    2.0580   -1.5177 C   0  0  0  0  0  0  0  0  0  0  0  0
   -0.5272    1.8022   -2.6594 C   0  0  0  0  0  0  0  0  0  0  0  0
   -0.3533    0.4893   -3.0195 C   0  0  0  0  0  0  0  0  0  0  0  0
   -0.8289   -0.5476   -2.2983 N   0  0  0  0  0  0  0  0  0  0  0  0
   -1.5513   -0.3003   -1.1658 C   0  0  0  0  0  0  0  0  0  0  0  0
   -1.9854   -1.4736   -0.4766 N   0  0  0  0  0  0  0  0  0  0  0  0
   -2.1679   -2.6967   -1.2786 C   0  0  0  0  0  0  0  0  0  0  0  0
   -0.9123   -3.5817   -1.3050 C   0  0  0  0  0  0  0  0  0  0  0  0
    0.0425   -3.1242   -2.2626 O   0  0  0  0  0  0  0  0  0  0  0  0
   -2.1858   -1.5894    0.8994 C   0  0  0  0  0  0  0  0  0  0  0  0
   -2.6916   -2.6047    1.3951 O   0  0  0  0  0  0  0  0  0  0  0  0
    2.1889    2.8661    2.3503 H   0  0  0  0  0  0  0  0  0  0  0  0
    3.6601    1.9250    2.6385 H   0  0  0  0  0  0  0  0  0  0  0  0
    2.3894    1.9856    3.8724 H   0  0  0  0  0  0  0  0  0  0  0  0
    2.3111   -0.1818    2.6627 H   0  0  0  0  0  0  0  0  0  0  0  0
    2.5495    1.4803    0.2757 H   0  0  0  0  0  0  0  0  0  0  0  0
    2.1555   -0.9096   -2.0061 H   0  0  0  0  0  0  0  0  0  0  0  0
    3.1117    0.5159   -1.6112 H   0  0  0  0  0  0  0  0  0  0  0  0
    4.4829   -1.4390   -2.4298 H   0  0  0  0  0  0  0  0  0  0  0  0
    3.9582   -2.3904   -1.0415 H   0  0  0  0  0  0  0  0  0  0  0  0
    0.2251   -0.8340    1.1082 H   0  0  0  0  0  0  0  0  0  0  0  0
   -1.8352   -0.8083    2.8546 H   0  0  0  0  0  0  0  0  0  0  0  0
   -3.4002    0.6801    3.6571 H   0  0  0  0  0  0  0  0  0  0  0  0
   -5.0203    2.5065    3.3441 H   0  0  0  0  0  0  0  0  0  0  0  0
   -5.2322    3.6079    1.1309 H   0  0  0  0  0  0  0  0  0  0  0  0
   -3.8135    2.9062   -0.7380 H   0  0  0  0  0  0  0  0  0  0  0  0
   -1.4284    3.0962   -1.2256 H   0  0  0  0  0  0  0  0  0  0  0  0
   -0.1153    2.6085   -3.2554 H   0  0  0  0  0  0  0  0  0  0  0  0
    0.1973    0.2189   -3.9167 H   0  0  0  0  0  0  0  0  0  0  0  0
   -2.4880   -2.4293   -2.2929 H   0  0  0  0  0  0  0  0  0  0  0  0
   -2.9874   -3.2763   -0.8380 H   0  0  0  0  0  0  0  0  0  0  0  0
   -0.4249   -3.6235   -0.3261 H   0  0  0  0  0  0  0  0  0  0  0  0
   -1.1861   -4.6005   -1.5955 H   0  0  0  0  0  0  0  0  0  0  0  0
   -0.0633   -2.1503   -2.3052 H   0  0  0  0  0  0  0  0  0  0  0  0
  1  2  1  0
  2  3  1  0
  3  4  1  0
  4  5  2  0
  4  6  1  0
  6  7  1  0
  7  8  1  0
  8  9  1  0
  8 10  1  0
  8 11  1  0
  2 12  1  0
 12 13  2  0
 12 14  1  0
 14 15  1  0
 15 16  1  0
 16 17  2  0
 17 18  1  0
 18 19  2  0
 19 20  1  0
 20 21  2  0
 21 22  1  0
 22 23  2  0
 23 24  1  0
 24 25  2  0
 25 26  1  0
 26 27  2  0
 27 28  1  0
 28 29  1  0
 29 30  1  0
 30 31  1  0
 28 32  1  0
 32 33  2  0
 32 15  1  0
 21 16  1  0
 27 22  1  0
  1 34  1  0
  1 35  1  0
  1 36  1  0
  2 37  1  1
  3 38  1  0
  6 39  1  0
  6 40  1  0
  7 41  1  0
  7 42  1  0
 14 43  1  0
 15 44  1  1
 17 45  1  0
 18 46  1  0
 19 47  1  0
 20 48  1  0
 23 49  1  0
 24 50  1  0
 25 51  1  0
 29 52  1  0
 29 53  1  0
 30 54  1  0
 30 55  1  0
 31 56  1  0
M  END
>  <CID>  (17) 
43

>  <Energy>  (17) 
47.99195104848929

$$$$

     RDKit          3D

 56 58  0  0  0  0  0  0  0  0999 V2000
    1.4613   -1.7112   -1.6110 C   0  0  0  0  0  0  0  0  0  0  0  0
    1.7559   -0.7197   -0.4951 C   0  0  2  0  0  0  0  0  0  0  0  0
    3.0723   -0.9486    0.0803 N   0  0  0  0  0  0  0  0  0  0  0  0
    3.8060    0.0865    0.6039 C   0  0  0  0  0  0  0  0  0  0  0  0
    3.4314    1.2539    0.5841 O   0  0  0  0  0  0  0  0  0  0  0  0
    5.1000   -0.3542    1.2546 C   0  0  0  0  0  0  0  0  0  0  0  0
    6.1379    0.7624    1.2860 C   0  0  0  0  0  0  0  0  0  0  0  0
    6.7360    1.0163   -0.0804 C   0  0  0  0  0  0  0  0  0  0  0  0
    7.6649    1.9960   -0.0151 F   0  0  0  0  0  0  0  0  0  0  0  0
    7.3542   -0.0951   -0.5414 F   0  0  0  0  0  0  0  0  0  0  0  0
    5.8176    1.3804   -0.9942 F   0  0  0  0  0  0  0  0  0  0  0  0
    0.7209   -0.8899    0.6281 C   0  0  0  0  0  0  0  0  0  0  0  0
    0.7125   -1.8650    1.3766 O   0  0  0  0  0  0  0  0  0  0  0  0
   -0.2102    0.1181    0.7075 N   0  0  0  0  0  0  0  0  0  0  0  0
   -1.2808    0.0735    1.6963 C   0  0  1  0  0  0  0  0  0  0  0  0
   -2.0509    1.3716    1.7389 C   0  0  0  0  0  0  0  0  0  0  0  0
   -2.1002    2.1057    2.9387 C   0  0  0  0  0  0  0  0  0  0  0  0
   -2.8705    3.2608    3.0326 C   0  0  0  0  0  0  0  0  0  0  0  0
   -3.6071    3.6868    1.9354 C   0  0  0  0  0  0  0  0  0  0  0  0
   -3.5576    2.9661    0.7398 C   0  0  0  0  0  0  0  0  0  0  0  0
   -2.7693    1.8042    0.6064 C   0  0  0  0  0  0  0  0  0  0  0  0
   -2.6817    1.0991   -0.6967 C   0  0  0  0  0  0  0  0  0  0  0  0
   -2.5353    1.8783   -1.8668 C   0  0  0  0  0  0  0  0  0  0  0  0
   -2.5007    1.2991   -3.1289 C   0  0  0  0  0  0  0  0  0  0  0  0
   -2.6134   -0.0677   -3.2056 C   0  0  0  0  0  0  0  0  0  0  0  0
   -2.7274   -0.8634   -2.1223 N   0  0  0  0  0  0  0  0  0  0  0  0
   -2.7403   -0.2996   -0.8798 C   0  0  0  0  0  0  0  0  0  0  0  0
   -2.8313   -1.2390    0.1880 N   0  0  0  0  0  0  0  0  0  0  0  0
   -3.4778   -2.5302   -0.0929 C   0  0  0  0  0  0  0  0  0  0  0  0
   -2.4607   -3.6216   -0.4588 C   0  0  0  0  0  0  0  0  0  0  0  0
   -1.9806   -3.4877   -1.7966 O   0  0  0  0  0  0  0  0  0  0  0  0
   -2.2960   -1.0701    1.4627 C   0  0  0  0  0  0  0  0  0  0  0  0
   -2.6505   -1.7810    2.4115 O   0  0  0  0  0  0  0  0  0  0  0  0
    1.4905   -2.7449   -1.2479 H   0  0  0  0  0  0  0  0  0  0  0  0
    2.1982   -1.6206   -2.4159 H   0  0  0  0  0  0  0  0  0  0  0  0
    0.4662   -1.5370   -2.0336 H   0  0  0  0  0  0  0  0  0  0  0  0
    1.7086    0.2991   -0.8956 H   0  0  0  0  0  0  0  0  0  0  0  0
    3.3215   -1.9046    0.3066 H   0  0  0  0  0  0  0  0  0  0  0  0
    4.8537   -0.6507    2.2811 H   0  0  0  0  0  0  0  0  0  0  0  0
    5.4981   -1.2381    0.7436 H   0  0  0  0  0  0  0  0  0  0  0  0
    6.9444    0.4748    1.9704 H   0  0  0  0  0  0  0  0  0  0  0  0
    5.7056    1.6903    1.6764 H   0  0  0  0  0  0  0  0  0  0  0  0
   -0.0397    0.9842    0.2118 H   0  0  0  0  0  0  0  0  0  0  0  0
   -0.8018   -0.1194    2.6652 H   0  0  0  0  0  0  0  0  0  0  0  0
   -1.5499    1.7673    3.8154 H   0  0  0  0  0  0  0  0  0  0  0  0
   -2.9082    3.8171    3.9660 H   0  0  0  0  0  0  0  0  0  0  0  0
   -4.2240    4.5791    2.0076 H   0  0  0  0  0  0  0  0  0  0  0  0
   -4.1578    3.3243   -0.0953 H   0  0  0  0  0  0  0  0  0  0  0  0
   -2.4459    2.9619   -1.7991 H   0  0  0  0  0  0  0  0  0  0  0  0
   -2.3979    1.9033   -4.0234 H   0  0  0  0  0  0  0  0  0  0  0  0
   -2.6080   -0.5812   -4.1635 H   0  0  0  0  0  0  0  0  0  0  0  0
   -4.2299   -2.4078   -0.8813 H   0  0  0  0  0  0  0  0  0  0  0  0
   -4.0174   -2.8498    0.8062 H   0  0  0  0  0  0  0  0  0  0  0  0
   -2.9352   -4.6051   -0.3885 H   0  0  0  0  0  0  0  0  0  0  0  0
   -1.5982   -3.6103    0.2147 H   0  0  0  0  0  0  0  0  0  0  0  0
   -2.1011   -2.5466   -2.0453 H   0  0  0  0  0  0  0  0  0  0  0  0
  1  2  1  0
  2  3  1  0
  3  4  1  0
  4  5  2  0
  4  6  1  0
  6  7  1  0
  7  8  1  0
  8  9  1  0
  8 10  1  0
  8 11  1  0
  2 12  1  0
 12 13  2  0
 12 14  1  0
 14 15  1  0
 15 16  1  0
 16 17  2  0
 17 18  1  0
 18 19  2  0
 19 20  1  0
 20 21  2  0
 21 22  1  0
 22 23  2  0
 23 24  1  0
 24 25  2  0
 25 26  1  0
 26 27  2  0
 27 28  1  0
 28 29  1  0
 29 30  1  0
 30 31  1  0
 28 32  1  0
 32 33  2  0
 32 15  1  0
 21 16  1  0
 27 22  1  0
  1 34  1  0
  1 35  1  0
  1 36  1  0
  2 37  1  6
  3 38  1  0
  6 39  1  0
  6 40  1  0
  7 41  1  0
  7 42  1  0
 14 43  1  0
 15 44  1  1
 17 45  1  0
 18 46  1  0
 19 47  1  0
 20 48  1  0
 23 49  1  0
 24 50  1  0
 25 51  1  0
 29 52  1  0
 29 53  1  0
 30 54  1  0
 30 55  1  0
 31 56  1  0
M  END
>  <CID>  (18) 
1

>  <Energy>  (18) 
48.026026359837715

$$$$

     RDKit          3D

 56 58  0  0  0  0  0  0  0  0999 V2000
    2.2203    2.2744    2.6916 C   0  0  0  0  0  0  0  0  0  0  0  0
    1.8014    0.8765    2.2526 C   0  0  2  0  0  0  0  0  0  0  0  0
    2.1439    0.6714    0.8391 N   0  0  0  0  0  0  0  0  0  0  0  0
    2.6267   -0.5266    0.3749 C   0  0  0  0  0  0  0  0  0  0  0  0
    2.6846   -1.5321    1.0715 O   0  0  0  0  0  0  0  0  0  0  0  0
    3.0022   -0.5209   -1.0894 C   0  0  0  0  0  0  0  0  0  0  0  0
    4.1437   -1.4855   -1.3883 C   0  0  0  0  0  0  0  0  0  0  0  0
    5.4627   -0.9685   -0.8595 C   0  0  0  0  0  0  0  0  0  0  0  0
    6.4659   -1.8132   -1.1733 F   0  0  0  0  0  0  0  0  0  0  0  0
    5.4577   -0.8079    0.4788 F   0  0  0  0  0  0  0  0  0  0  0  0
    5.7547    0.2313   -1.4128 F   0  0  0  0  0  0  0  0  0  0  0  0
    0.3010    0.6439    2.5490 C   0  0  0  0  0  0  0  0  0  0  0  0
   -0.2518    1.0795    3.5555 O   0  0  0  0  0  0  0  0  0  0  0  0
   -0.3353   -0.1820    1.6536 N   0  0  0  0  0  0  0  0  0  0  0  0
   -1.7274   -0.5842    1.7937 C   0  0  1  0  0  0  0  0  0  0  0  0
   -2.7135    0.5490    1.6494 C   0  0  0  0  0  0  0  0  0  0  0  0
   -3.5862    0.8370    2.7168 C   0  0  0  0  0  0  0  0  0  0  0  0
   -4.5607    1.8232    2.5975 C   0  0  0  0  0  0  0  0  0  0  0  0
   -4.6807    2.5282    1.4093 C   0  0  0  0  0  0  0  0  0  0  0  0
   -3.8151    2.2529    0.3484 C   0  0  0  0  0  0  0  0  0  0  0  0
   -2.8053    1.2702    0.4474 C   0  0  0  0  0  0  0  0  0  0  0  0
   -1.8747    1.0373   -0.6797 C   0  0  0  0  0  0  0  0  0  0  0  0
   -1.3504    2.1621   -1.3579 C   0  0  0  0  0  0  0  0  0  0  0  0
   -0.5558    2.0279   -2.4883 C   0  0  0  0  0  0  0  0  0  0  0  0
   -0.2870    0.7556   -2.9261 C   0  0  0  0  0  0  0  0  0  0  0  0
   -0.7198   -0.3536   -2.2897 N   0  0  0  0  0  0  0  0  0  0  0  0
   -1.4928   -0.2258   -1.1712 C   0  0  0  0  0  0  0  0  0  0  0  0
   -1.8684   -1.4677   -0.5745 N   0  0  0  0  0  0  0  0  0  0  0  0
   -1.9784   -2.6369   -1.4657 C   0  0  0  0  0  0  0  0  0  0  0  0
   -0.6860   -3.4653   -1.5155 C   0  0  0  0  0  0  0  0  0  0  0  0
    0.2999   -2.8703   -2.3578 O   0  0  0  0  0  0  0  0  0  0  0  0
   -2.0953   -1.6899    0.7841 C   0  0  0  0  0  0  0  0  0  0  0  0
   -2.5730   -2.7551    1.1919 O   0  0  0  0  0  0  0  0  0  0  0  0
    1.6586    3.0428    2.1485 H   0  0  0  0  0  0  0  0  0  0  0  0
    2.0407    2.4229    3.7617 H   0  0  0  0  0  0  0  0  0  0  0  0
    3.2855    2.4415    2.4990 H   0  0  0  0  0  0  0  0  0  0  0  0
    2.3501    0.1391    2.8509 H   0  0  0  0  0  0  0  0  0  0  0  0
    1.9795    1.4345    0.1955 H   0  0  0  0  0  0  0  0  0  0  0  0
    2.1135   -0.8308   -1.6442 H   0  0  0  0  0  0  0  0  0  0  0  0
    3.2550    0.4910   -1.4182 H   0  0  0  0  0  0  0  0  0  0  0  0
    4.2258   -1.6115   -2.4743 H   0  0  0  0  0  0  0  0  0  0  0  0
    3.9437   -2.4747   -0.9652 H   0  0  0  0  0  0  0  0  0  0  0  0
    0.2482   -0.6803    0.9928 H   0  0  0  0  0  0  0  0  0  0  0  0
   -1.8117   -1.0267    2.7946 H   0  0  0  0  0  0  0  0  0  0  0  0
   -3.5089    0.2858    3.6520 H   0  0  0  0  0  0  0  0  0  0  0  0
   -5.2280    2.0316    3.4286 H   0  0  0  0  0  0  0  0  0  0  0  0
   -5.4463    3.2927    1.3034 H   0  0  0  0  0  0  0  0  0  0  0  0
   -3.9466    2.8180   -0.5735 H   0  0  0  0  0  0  0  0  0  0  0  0
   -1.5768    3.1674   -1.0045 H   0  0  0  0  0  0  0  0  0  0  0  0
   -0.1780    2.8957   -3.0166 H   0  0  0  0  0  0  0  0  0  0  0  0
    0.3080    0.5808   -3.8184 H   0  0  0  0  0  0  0  0  0  0  0  0
   -2.2791   -2.3112   -2.4677 H   0  0  0  0  0  0  0  0  0  0  0  0
   -2.7836   -3.2794   -1.0925 H   0  0  0  0  0  0  0  0  0  0  0  0
   -0.8975   -4.4568   -1.9277 H   0  0  0  0  0  0  0  0  0  0  0  0
   -0.2508   -3.5934   -0.5206 H   0  0  0  0  0  0  0  0  0  0  0  0
    0.0917   -1.9139   -2.3980 H   0  0  0  0  0  0  0  0  0  0  0  0
  1  2  1  0
  2  3  1  0
  3  4  1  0
  4  5  2  0
  4  6  1  0
  6  7  1  0
  7  8  1  0
  8  9  1  0
  8 10  1  0
  8 11  1  0
  2 12  1  0
 12 13  2  0
 12 14  1  0
 14 15  1  0
 15 16  1  0
 16 17  2  0
 17 18  1  0
 18 19  2  0
 19 20  1  0
 20 21  2  0
 21 22  1  0
 22 23  2  0
 23 24  1  0
 24 25  2  0
 25 26  1  0
 26 27  2  0
 27 28  1  0
 28 29  1  0
 29 30  1  0
 30 31  1  0
 28 32  1  0
 32 33  2  0
 32 15  1  0
 21 16  1  0
 27 22  1  0
  1 34  1  0
  1 35  1  0
  1 36  1  0
  2 37  1  1
  3 38  1  0
  6 39  1  0
  6 40  1  0
  7 41  1  0
  7 42  1  0
 14 43  1  0
 15 44  1  1
 17 45  1  0
 18 46  1  0
 19 47  1  0
 20 48  1  0
 23 49  1  0
 24 50  1  0
 25 51  1  0
 29 52  1  0
 29 53  1  0
 30 54  1  0
 30 55  1  0
 31 56  1  0
M  END
>  <CID>  (19) 
55

>  <Energy>  (19) 
48.577110661227735

$$$$

     RDKit          3D

 56 58  0  0  0  0  0  0  0  0999 V2000
    2.9658   -1.7584   -0.9629 C   0  0  0  0  0  0  0  0  0  0  0  0
    2.7486   -0.5309   -0.0858 C   0  0  2  0  0  0  0  0  0  0  0  0
    3.5685   -0.5860    1.1185 N   0  0  0  0  0  0  0  0  0  0  0  0
    4.9014   -0.2687    1.1185 C   0  0  0  0  0  0  0  0  0  0  0  0
    5.5191    0.0518    0.1084 O   0  0  0  0  0  0  0  0  0  0  0  0
    5.5528   -0.4051    2.4787 C   0  0  0  0  0  0  0  0  0  0  0  0
    6.8606    0.3725    2.5768 C   0  0  0  0  0  0  0  0  0  0  0  0
    6.6241    1.8583    2.7376 C   0  0  0  0  0  0  0  0  0  0  0  0
    5.9293    2.3932    1.7165 F   0  0  0  0  0  0  0  0  0  0  0  0
    5.9358    2.1062    3.8763 F   0  0  0  0  0  0  0  0  0  0  0  0
    7.7999    2.5176    2.8287 F   0  0  0  0  0  0  0  0  0  0  0  0
    1.2774   -0.4430    0.3566 C   0  0  0  0  0  0  0  0  0  0  0  0
    0.9268   -0.6819    1.5119 O   0  0  0  0  0  0  0  0  0  0  0  0
    0.3963   -0.0957   -0.6350 N   0  0  0  0  0  0  0  0  0  0  0  0
   -1.0423    0.0156   -0.4105 C   0  0  1  0  0  0  0  0  0  0  0  0
   -1.4972    1.4037   -0.0191 C   0  0  0  0  0  0  0  0  0  0  0  0
   -0.6465    2.5245   -0.0794 C   0  0  0  0  0  0  0  0  0  0  0  0
   -1.1183    3.7997    0.2260 C   0  0  0  0  0  0  0  0  0  0  0  0
   -2.4476    3.9750    0.5826 C   0  0  0  0  0  0  0  0  0  0  0  0
   -3.3002    2.8720    0.6442 C   0  0  0  0  0  0  0  0  0  0  0  0
   -2.8454    1.5677    0.3570 C   0  0  0  0  0  0  0  0  0  0  0  0
   -3.7738    0.4167    0.4557 C   0  0  0  0  0  0  0  0  0  0  0  0
   -4.6206    0.3288    1.5815 C   0  0  0  0  0  0  0  0  0  0  0  0
   -5.5865   -0.6640    1.6841 C   0  0  0  0  0  0  0  0  0  0  0  0
   -5.6954   -1.5568    0.6447 C   0  0  0  0  0  0  0  0  0  0  0  0
   -4.8966   -1.5329   -0.4407 N   0  0  0  0  0  0  0  0  0  0  0  0
   -3.9248   -0.5850   -0.5262 C   0  0  0  0  0  0  0  0  0  0  0  0
   -3.0961   -0.6910   -1.6820 N   0  0  0  0  0  0  0  0  0  0  0  0
   -3.6979   -1.2994   -2.8740 C   0  0  0  0  0  0  0  0  0  0  0  0
   -3.4429   -2.8059   -2.9753 C   0  0  0  0  0  0  0  0  0  0  0  0
   -4.0411   -3.3234   -4.1618 O   0  0  0  0  0  0  0  0  0  0  0  0
   -1.7442   -0.3748   -1.7300 C   0  0  0  0  0  0  0  0  0  0  0  0
   -1.0861   -0.4454   -2.7779 O   0  0  0  0  0  0  0  0  0  0  0  0
    2.3472   -1.7172   -1.8648 H   0  0  0  0  0  0  0  0  0  0  0  0
    4.0115   -1.8439   -1.2775 H   0  0  0  0  0  0  0  0  0  0  0  0
    2.7064   -2.6764   -0.4246 H   0  0  0  0  0  0  0  0  0  0  0  0
    3.0043    0.3796   -0.6405 H   0  0  0  0  0  0  0  0  0  0  0  0
    3.0801   -0.7930    1.9860 H   0  0  0  0  0  0  0  0  0  0  0  0
    5.7544   -1.4727    2.6256 H   0  0  0  0  0  0  0  0  0  0  0  0
    4.8558   -0.0925    3.2626 H   0  0  0  0  0  0  0  0  0  0  0  0
    7.4188    0.0143    3.4502 H   0  0  0  0  0  0  0  0  0  0  0  0
    7.4938    0.1916    1.7002 H   0  0  0  0  0  0  0  0  0  0  0  0
    0.7055    0.0228   -1.5960 H   0  0  0  0  0  0  0  0  0  0  0  0
   -1.3015   -0.7092    0.3713 H   0  0  0  0  0  0  0  0  0  0  0  0
    0.3956    2.4216   -0.3735 H   0  0  0  0  0  0  0  0  0  0  0  0
   -0.4492    4.6552    0.1752 H   0  0  0  0  0  0  0  0  0  0  0  0
   -2.8246    4.9691    0.8085 H   0  0  0  0  0  0  0  0  0  0  0  0
   -4.3417    3.0457    0.9109 H   0  0  0  0  0  0  0  0  0  0  0  0
   -4.5313    1.0488    2.3941 H   0  0  0  0  0  0  0  0  0  0  0  0
   -6.2412   -0.7255    2.5463 H   0  0  0  0  0  0  0  0  0  0  0  0
   -6.4428   -2.3451    0.6551 H   0  0  0  0  0  0  0  0  0  0  0  0
   -4.7727   -1.0791   -2.9167 H   0  0  0  0  0  0  0  0  0  0  0  0
   -3.2809   -0.8147   -3.7677 H   0  0  0  0  0  0  0  0  0  0  0  0
   -2.3696   -3.0142   -3.0138 H   0  0  0  0  0  0  0  0  0  0  0  0
   -3.8631   -3.3413   -2.1181 H   0  0  0  0  0  0  0  0  0  0  0  0
   -3.8578   -4.2790   -4.1754 H   0  0  0  0  0  0  0  0  0  0  0  0
  1  2  1  0
  2  3  1  0
  3  4  1  0
  4  5  2  0
  4  6  1  0
  6  7  1  0
  7  8  1  0
  8  9  1  0
  8 10  1  0
  8 11  1  0
  2 12  1  0
 12 13  2  0
 12 14  1  0
 14 15  1  0
 15 16  1  0
 16 17  2  0
 17 18  1  0
 18 19  2  0
 19 20  1  0
 20 21  2  0
 21 22  1  0
 22 23  2  0
 23 24  1  0
 24 25  2  0
 25 26  1  0
 26 27  2  0
 27 28  1  0
 28 29  1  0
 29 30  1  0
 30 31  1  0
 28 32  1  0
 32 33  2  0
 32 15  1  0
 21 16  1  0
 27 22  1  0
  1 34  1  0
  1 35  1  0
  1 36  1  0
  2 37  1  6
  3 38  1  0
  6 39  1  0
  6 40  1  0
  7 41  1  0
  7 42  1  0
 14 43  1  0
 15 44  1  1
 17 45  1  0
 18 46  1  0
 19 47  1  0
 20 48  1  0
 23 49  1  0
 24 50  1  0
 25 51  1  0
 29 52  1  0
 29 53  1  0
 30 54  1  0
 30 55  1  0
 31 56  1  0
M  END
>  <CID>  (20) 
53

>  <Energy>  (20) 
49.066115026815915

$$$$

     RDKit          3D

 56 58  0  0  0  0  0  0  0  0999 V2000
    2.2124    0.9354    4.4684 C   0  0  0  0  0  0  0  0  0  0  0  0
    1.9969    0.0842    3.2231 C   0  0  2  0  0  0  0  0  0  0  0  0
    2.9611    0.4630    2.1842 N   0  0  0  0  0  0  0  0  0  0  0  0
    3.5765   -0.4642    1.3768 C   0  0  0  0  0  0  0  0  0  0  0  0
    3.3423   -1.6645    1.4409 O   0  0  0  0  0  0  0  0  0  0  0  0
    4.5442    0.1484    0.3897 C   0  0  0  0  0  0  0  0  0  0  0  0
    5.1719   -0.9079   -0.5124 C   0  0  0  0  0  0  0  0  0  0  0  0
    6.1496   -0.2842   -1.4751 C   0  0  0  0  0  0  0  0  0  0  0  0
    5.5414    0.6225   -2.2696 F   0  0  0  0  0  0  0  0  0  0  0  0
    6.7133   -1.2190   -2.2684 F   0  0  0  0  0  0  0  0  0  0  0  0
    7.1437    0.3488   -0.8144 F   0  0  0  0  0  0  0  0  0  0  0  0
    0.5341    0.1926    2.7308 C   0  0  0  0  0  0  0  0  0  0  0  0
   -0.4122    0.3834    3.4912 O   0  0  0  0  0  0  0  0  0  0  0  0
    0.3556   -0.0699    1.3950 N   0  0  0  0  0  0  0  0  0  0  0  0
   -0.9522   -0.1023    0.7548 C   0  0  1  0  0  0  0  0  0  0  0  0
   -1.4913    1.2512    0.3532 C   0  0  0  0  0  0  0  0  0  0  0  0
   -0.7069    2.4199    0.3902 C   0  0  0  0  0  0  0  0  0  0  0  0
   -1.2134    3.6368   -0.0602 C   0  0  0  0  0  0  0  0  0  0  0  0
   -2.5029    3.6998   -0.5681 C   0  0  0  0  0  0  0  0  0  0  0  0
   -3.2867    2.5463   -0.6156 C   0  0  0  0  0  0  0  0  0  0  0  0
   -2.8068    1.3033   -0.1499 C   0  0  0  0  0  0  0  0  0  0  0  0
   -3.6790    0.1029   -0.1992 C   0  0  0  0  0  0  0  0  0  0  0  0
   -5.0204    0.2387    0.2223 C   0  0  0  0  0  0  0  0  0  0  0  0
   -5.9291   -0.8033    0.0969 C   0  0  0  0  0  0  0  0  0  0  0  0
   -5.4799   -1.9736   -0.4654 C   0  0  0  0  0  0  0  0  0  0  0  0
   -4.2062   -2.1637   -0.8628 N   0  0  0  0  0  0  0  0  0  0  0  0
   -3.2984   -1.1652   -0.6933 C   0  0  0  0  0  0  0  0  0  0  0  0
   -1.9612   -1.5092   -1.0649 N   0  0  0  0  0  0  0  0  0  0  0  0
   -1.7882   -2.5521   -2.0901 C   0  0  0  0  0  0  0  0  0  0  0  0
   -1.7272   -1.9540   -3.5009 C   0  0  0  0  0  0  0  0  0  0  0  0
   -0.4885   -1.2949   -3.7653 O   0  0  0  0  0  0  0  0  0  0  0  0
   -0.8144   -0.9384   -0.5334 C   0  0  0  0  0  0  0  0  0  0  0  0
    0.2939   -1.0930   -1.0688 O   0  0  0  0  0  0  0  0  0  0  0  0
    3.2447    0.8517    4.8247 H   0  0  0  0  0  0  0  0  0  0  0  0
    2.0147    1.9932    4.2615 H   0  0  0  0  0  0  0  0  0  0  0  0
    1.5465    0.6251    5.2804 H   0  0  0  0  0  0  0  0  0  0  0  0
    2.1577   -0.9692    3.4821 H   0  0  0  0  0  0  0  0  0  0  0  0
    3.1262    1.4496    2.0277 H   0  0  0  0  0  0  0  0  0  0  0  0
    5.3198    0.6769    0.9567 H   0  0  0  0  0  0  0  0  0  0  0  0
    4.0013    0.8874   -0.2110 H   0  0  0  0  0  0  0  0  0  0  0  0
    5.6890   -1.6613    0.0931 H   0  0  0  0  0  0  0  0  0  0  0  0
    4.3912   -1.4334   -1.0744 H   0  0  0  0  0  0  0  0  0  0  0  0
    1.1448   -0.3869    0.8401 H   0  0  0  0  0  0  0  0  0  0  0  0
   -1.6334   -0.5990    1.4560 H   0  0  0  0  0  0  0  0  0  0  0  0
    0.3141    2.3932    0.7606 H   0  0  0  0  0  0  0  0  0  0  0  0
   -0.5967    4.5308   -0.0258 H   0  0  0  0  0  0  0  0  0  0  0  0
   -2.9000    4.6433   -0.9339 H   0  0  0  0  0  0  0  0  0  0  0  0
   -4.2868    2.6269   -1.0389 H   0  0  0  0  0  0  0  0  0  0  0  0
   -5.3680    1.1764    0.6538 H   0  0  0  0  0  0  0  0  0  0  0  0
   -6.9590   -0.6944    0.4169 H   0  0  0  0  0  0  0  0  0  0  0  0
   -6.1440   -2.8210   -0.6103 H   0  0  0  0  0  0  0  0  0  0  0  0
   -2.5854   -3.2995   -2.0332 H   0  0  0  0  0  0  0  0  0  0  0  0
   -0.8516   -3.0861   -1.8852 H   0  0  0  0  0  0  0  0  0  0  0  0
   -1.8260   -2.7528   -4.2424 H   0  0  0  0  0  0  0  0  0  0  0  0
   -2.5366   -1.2353   -3.6647 H   0  0  0  0  0  0  0  0  0  0  0  0
   -0.0347   -1.1336   -2.9118 H   0  0  0  0  0  0  0  0  0  0  0  0
  1  2  1  0
  2  3  1  0
  3  4  1  0
  4  5  2  0
  4  6  1  0
  6  7  1  0
  7  8  1  0
  8  9  1  0
  8 10  1  0
  8 11  1  0
  2 12  1  0
 12 13  2  0
 12 14  1  0
 14 15  1  0
 15 16  1  0
 16 17  2  0
 17 18  1  0
 18 19  2  0
 19 20  1  0
 20 21  2  0
 21 22  1  0
 22 23  2  0
 23 24  1  0
 24 25  2  0
 25 26  1  0
 26 27  2  0
 27 28  1  0
 28 29  1  0
 29 30  1  0
 30 31  1  0
 28 32  1  0
 32 33  2  0
 32 15  1  0
 21 16  1  0
 27 22  1  0
  1 34  1  0
  1 35  1  0
  1 36  1  0
  2 37  1  1
  3 38  1  0
  6 39  1  0
  6 40  1  0
  7 41  1  0
  7 42  1  0
 14 43  1  0
 15 44  1  1
 17 45  1  0
 18 46  1  0
 19 47  1  0
 20 48  1  0
 23 49  1  0
 24 50  1  0
 25 51  1  0
 29 52  1  0
 29 53  1  0
 30 54  1  0
 30 55  1  0
 31 56  1  0
M  END
>  <CID>  (21) 
80

>  <Energy>  (21) 
49.13310622654159

$$$$

     RDKit          3D

 56 58  0  0  0  0  0  0  0  0999 V2000
    1.3530   -0.7710   -1.5215 C   0  0  0  0  0  0  0  0  0  0  0  0
    1.8372   -0.1232   -0.2292 C   0  0  2  0  0  0  0  0  0  0  0  0
    3.1199   -0.6691    0.1903 N   0  0  0  0  0  0  0  0  0  0  0  0
    4.3069   -0.2549   -0.3518 C   0  0  0  0  0  0  0  0  0  0  0  0
    4.3840    0.5746   -1.2512 O   0  0  0  0  0  0  0  0  0  0  0  0
    5.5169   -0.9549    0.2293 C   0  0  0  0  0  0  0  0  0  0  0  0
    6.7943   -0.1420    0.0497 C   0  0  0  0  0  0  0  0  0  0  0  0
    6.8524    1.0363    0.9969 C   0  0  0  0  0  0  0  0  0  0  0  0
    5.8273    1.8927    0.8333 F   0  0  0  0  0  0  0  0  0  0  0  0
    6.8320    0.6137    2.2818 F   0  0  0  0  0  0  0  0  0  0  0  0
    8.0004    1.7280    0.8198 F   0  0  0  0  0  0  0  0  0  0  0  0
    0.8219   -0.3777    0.8976 C   0  0  0  0  0  0  0  0  0  0  0  0
    1.0309   -1.1864    1.8001 O   0  0  0  0  0  0  0  0  0  0  0  0
   -0.3404    0.3509    0.7980 N   0  0  0  0  0  0  0  0  0  0  0  0
   -1.4533    0.1157    1.7090 C   0  0  1  0  0  0  0  0  0  0  0  0
   -2.3861    1.2971    1.8012 C   0  0  0  0  0  0  0  0  0  0  0  0
   -2.5500    1.9415    3.0437 C   0  0  0  0  0  0  0  0  0  0  0  0
   -3.4582    2.9854    3.1928 C   0  0  0  0  0  0  0  0  0  0  0  0
   -4.2203    3.3908    2.1067 C   0  0  0  0  0  0  0  0  0  0  0  0
   -4.0577    2.7625    0.8702 C   0  0  0  0  0  0  0  0  0  0  0  0
   -3.1285    1.7163    0.6826 C   0  0  0  0  0  0  0  0  0  0  0  0
   -2.9388    1.1194   -0.6598 C   0  0  0  0  0  0  0  0  0  0  0  0
   -2.8762    1.9885   -1.7732 C   0  0  0  0  0  0  0  0  0  0  0  0
   -2.7780    1.5041   -3.0711 C   0  0  0  0  0  0  0  0  0  0  0  0
   -2.7508    0.1417   -3.2396 C   0  0  0  0  0  0  0  0  0  0  0  0
   -2.7838   -0.7292   -2.2126 N   0  0  0  0  0  0  0  0  0  0  0  0
   -2.8373   -0.2591   -0.9349 C   0  0  0  0  0  0  0  0  0  0  0  0
   -2.7982   -1.2721    0.0656 N   0  0  0  0  0  0  0  0  0  0  0  0
   -3.2587   -2.6098   -0.3342 C   0  0  0  0  0  0  0  0  0  0  0  0
   -2.1135   -3.5109   -0.8165 C   0  0  0  0  0  0  0  0  0  0  0  0
   -1.1374   -3.7658    0.1927 O   0  0  0  0  0  0  0  0  0  0  0  0
   -2.2590   -1.1485    1.3416 C   0  0  0  0  0  0  0  0  0  0  0  0
   -2.4028   -2.0505    2.1796 O   0  0  0  0  0  0  0  0  0  0  0  0
    1.2051   -1.8492   -1.3906 H   0  0  0  0  0  0  0  0  0  0  0  0
    0.3984   -0.3440   -1.8449 H   0  0  0  0  0  0  0  0  0  0  0  0
    2.0762   -0.6305   -2.3312 H   0  0  0  0  0  0  0  0  0  0  0  0
    1.9480    0.9584   -0.3695 H   0  0  0  0  0  0  0  0  0  0  0  0
    3.0932   -1.3549    0.9410 H   0  0  0  0  0  0  0  0  0  0  0  0
    5.3494   -1.1836    1.2878 H   0  0  0  0  0  0  0  0  0  0  0  0
    5.6161   -1.9090   -0.3018 H   0  0  0  0  0  0  0  0  0  0  0  0
    6.8950    0.2105   -0.9828 H   0  0  0  0  0  0  0  0  0  0  0  0
    7.6555   -0.7903    0.2491 H   0  0  0  0  0  0  0  0  0  0  0  0
   -0.4292    1.0500    0.0731 H   0  0  0  0  0  0  0  0  0  0  0  0
   -1.0177   -0.0791    2.6982 H   0  0  0  0  0  0  0  0  0  0  0  0
   -1.9770    1.6184    3.9120 H   0  0  0  0  0  0  0  0  0  0  0  0
   -3.5803    3.4692    4.1586 H   0  0  0  0  0  0  0  0  0  0  0  0
   -4.9439    4.1945    2.2185 H   0  0  0  0  0  0  0  0  0  0  0  0
   -4.6821    3.0998    0.0439 H   0  0  0  0  0  0  0  0  0  0  0  0
   -2.9080    3.0683   -1.6319 H   0  0  0  0  0  0  0  0  0  0  0  0
   -2.7383    2.1745   -3.9224 H   0  0  0  0  0  0  0  0  0  0  0  0
   -2.6922   -0.3048   -4.2282 H   0  0  0  0  0  0  0  0  0  0  0  0
   -4.0380   -2.5290   -1.1016 H   0  0  0  0  0  0  0  0  0  0  0  0
   -3.7371   -3.0830    0.5321 H   0  0  0  0  0  0  0  0  0  0  0  0
   -2.5193   -4.4779   -1.1298 H   0  0  0  0  0  0  0  0  0  0  0  0
   -1.5925   -3.0731   -1.6727 H   0  0  0  0  0  0  0  0  0  0  0  0
   -1.5298   -3.5691    1.0676 H   0  0  0  0  0  0  0  0  0  0  0  0
  1  2  1  0
  2  3  1  0
  3  4  1  0
  4  5  2  0
  4  6  1  0
  6  7  1  0
  7  8  1  0
  8  9  1  0
  8 10  1  0
  8 11  1  0
  2 12  1  0
 12 13  2  0
 12 14  1  0
 14 15  1  0
 15 16  1  0
 16 17  2  0
 17 18  1  0
 18 19  2  0
 19 20  1  0
 20 21  2  0
 21 22  1  0
 22 23  2  0
 23 24  1  0
 24 25  2  0
 25 26  1  0
 26 27  2  0
 27 28  1  0
 28 29  1  0
 29 30  1  0
 30 31  1  0
 28 32  1  0
 32 33  2  0
 32 15  1  0
 21 16  1  0
 27 22  1  0
  1 34  1  0
  1 35  1  0
  1 36  1  0
  2 37  1  6
  3 38  1  0
  6 39  1  0
  6 40  1  0
  7 41  1  0
  7 42  1  0
 14 43  1  0
 15 44  1  1
 17 45  1  0
 18 46  1  0
 19 47  1  0
 20 48  1  0
 23 49  1  0
 24 50  1  0
 25 51  1  0
 29 52  1  0
 29 53  1  0
 30 54  1  0
 30 55  1  0
 31 56  1  0
M  END
>  <CID>  (22) 
84

>  <Energy>  (22) 
49.24719213740709

$$$$

     RDKit          3D

 56 58  0  0  0  0  0  0  0  0999 V2000
    2.9455   -1.9391   -0.7801 C   0  0  0  0  0  0  0  0  0  0  0  0
    2.7532   -0.6366   -0.0130 C   0  0  2  0  0  0  0  0  0  0  0  0
    3.5619   -0.6088    1.1983 N   0  0  0  0  0  0  0  0  0  0  0  0
    4.8980   -0.3058    1.1823 C   0  0  0  0  0  0  0  0  0  0  0  0
    5.5257   -0.0752    0.1551 O   0  0  0  0  0  0  0  0  0  0  0  0
    5.5367   -0.3242    2.5543 C   0  0  0  0  0  0  0  0  0  0  0  0
    6.8608    0.4302    2.5870 C   0  0  0  0  0  0  0  0  0  0  0  0
    6.6583    1.9280    2.5744 C   0  0  0  0  0  0  0  0  0  0  0  0
    7.8488    2.5642    2.6101 F   0  0  0  0  0  0  0  0  0  0  0  0
    5.9614    2.3206    3.6659 F   0  0  0  0  0  0  0  0  0  0  0  0
    5.9911    2.3620    1.4904 F   0  0  0  0  0  0  0  0  0  0  0  0
    1.2804   -0.4801    0.4038 C   0  0  0  0  0  0  0  0  0  0  0  0
    0.9085   -0.6411    1.5659 O   0  0  0  0  0  0  0  0  0  0  0  0
    0.4223   -0.1705   -0.6193 N   0  0  0  0  0  0  0  0  0  0  0  0
   -1.0156   -0.0203   -0.4230 C   0  0  1  0  0  0  0  0  0  0  0  0
   -1.4495    1.3836   -0.0720 C   0  0  0  0  0  0  0  0  0  0  0  0
   -0.5776    2.4860   -0.1487 C   0  0  0  0  0  0  0  0  0  0  0  0
   -1.0292    3.7746    0.1243 C   0  0  0  0  0  0  0  0  0  0  0  0
   -2.3588    3.9819    0.4622 C   0  0  0  0  0  0  0  0  0  0  0  0
   -3.2329    2.8977    0.5370 C   0  0  0  0  0  0  0  0  0  0  0  0
   -2.7995    1.5803    0.2828 C   0  0  0  0  0  0  0  0  0  0  0  0
   -3.7509    0.4490    0.3935 C   0  0  0  0  0  0  0  0  0  0  0  0
   -4.6150    0.4026    1.5082 C   0  0  0  0  0  0  0  0  0  0  0  0
   -5.6007   -0.5697    1.6190 C   0  0  0  0  0  0  0  0  0  0  0  0
   -5.7154   -1.4830    0.5969 C   0  0  0  0  0  0  0  0  0  0  0  0
   -4.9054   -1.4956   -0.4803 N   0  0  0  0  0  0  0  0  0  0  0  0
   -3.9077   -0.5726   -0.5671 C   0  0  0  0  0  0  0  0  0  0  0  0
   -3.0605   -0.7257   -1.7047 N   0  0  0  0  0  0  0  0  0  0  0  0
   -3.6455   -1.3747   -2.8799 C   0  0  0  0  0  0  0  0  0  0  0  0
   -3.4097   -2.8879   -2.9113 C   0  0  0  0  0  0  0  0  0  0  0  0
   -4.1169   -3.4839   -3.9971 O   0  0  0  0  0  0  0  0  0  0  0  0
   -1.7047   -0.4243   -1.7428 C   0  0  0  0  0  0  0  0  0  0  0  0
   -1.0372   -0.5142   -2.7827 O   0  0  0  0  0  0  0  0  0  0  0  0
    2.3532   -1.9476   -1.7015 H   0  0  0  0  0  0  0  0  0  0  0  0
    2.6325   -2.8006   -0.1786 H   0  0  0  0  0  0  0  0  0  0  0  0
    3.9951   -2.0885   -1.0529 H   0  0  0  0  0  0  0  0  0  0  0  0
    3.0370    0.2162   -0.6395 H   0  0  0  0  0  0  0  0  0  0  0  0
    3.0689   -0.7623    2.0737 H   0  0  0  0  0  0  0  0  0  0  0  0
    5.7130   -1.3755    2.8098 H   0  0  0  0  0  0  0  0  0  0  0  0
    4.8412    0.0810    3.2952 H   0  0  0  0  0  0  0  0  0  0  0  0
    7.3957    0.1618    3.5049 H   0  0  0  0  0  0  0  0  0  0  0  0
    7.5022    0.1366    1.7504 H   0  0  0  0  0  0  0  0  0  0  0  0
    0.7494   -0.1072   -1.5799 H   0  0  0  0  0  0  0  0  0  0  0  0
   -1.3025   -0.7206    0.3705 H   0  0  0  0  0  0  0  0  0  0  0  0
    0.4651    2.3569   -0.4291 H   0  0  0  0  0  0  0  0  0  0  0  0
   -0.3431    4.6152    0.0624 H   0  0  0  0  0  0  0  0  0  0  0  0
   -2.7193    4.9858    0.6629 H   0  0  0  0  0  0  0  0  0  0  0  0
   -4.2736    3.0966    0.7879 H   0  0  0  0  0  0  0  0  0  0  0  0
   -4.5221    1.1387    2.3066 H   0  0  0  0  0  0  0  0  0  0  0  0
   -6.2653   -0.6015    2.4751 H   0  0  0  0  0  0  0  0  0  0  0  0
   -6.4768   -2.2575    0.6175 H   0  0  0  0  0  0  0  0  0  0  0  0
   -3.2091   -0.9367   -3.7870 H   0  0  0  0  0  0  0  0  0  0  0  0
   -4.7162   -1.1424   -2.9500 H   0  0  0  0  0  0  0  0  0  0  0  0
   -2.3452   -3.1088   -3.0401 H   0  0  0  0  0  0  0  0  0  0  0  0
   -3.7340   -3.3738   -1.9862 H   0  0  0  0  0  0  0  0  0  0  0  0
   -5.0659   -3.3931   -3.8002 H   0  0  0  0  0  0  0  0  0  0  0  0
  1  2  1  0
  2  3  1  0
  3  4  1  0
  4  5  2  0
  4  6  1  0
  6  7  1  0
  7  8  1  0
  8  9  1  0
  8 10  1  0
  8 11  1  0
  2 12  1  0
 12 13  2  0
 12 14  1  0
 14 15  1  0
 15 16  1  0
 16 17  2  0
 17 18  1  0
 18 19  2  0
 19 20  1  0
 20 21  2  0
 21 22  1  0
 22 23  2  0
 23 24  1  0
 24 25  2  0
 25 26  1  0
 26 27  2  0
 27 28  1  0
 28 29  1  0
 29 30  1  0
 30 31  1  0
 28 32  1  0
 32 33  2  0
 32 15  1  0
 21 16  1  0
 27 22  1  0
  1 34  1  0
  1 35  1  0
  1 36  1  0
  2 37  1  6
  3 38  1  0
  6 39  1  0
  6 40  1  0
  7 41  1  0
  7 42  1  0
 14 43  1  0
 15 44  1  1
 17 45  1  0
 18 46  1  0
 19 47  1  0
 20 48  1  0
 23 49  1  0
 24 50  1  0
 25 51  1  0
 29 52  1  0
 29 53  1  0
 30 54  1  0
 30 55  1  0
 31 56  1  0
M  END
>  <CID>  (23) 
83

>  <Energy>  (23) 
49.279109520401036

$$$$

     RDKit          3D

 56 58  0  0  0  0  0  0  0  0999 V2000
    2.5814    1.7026    3.2223 C   0  0  0  0  0  0  0  0  0  0  0  0
    1.9070    0.6800    2.3135 C   0  0  2  0  0  0  0  0  0  0  0  0
    2.3397    0.8840    0.9242 N   0  0  0  0  0  0  0  0  0  0  0  0
    2.3289   -0.1163   -0.0165 C   0  0  0  0  0  0  0  0  0  0  0  0
    1.7285   -1.1789    0.1474 O   0  0  0  0  0  0  0  0  0  0  0  0
    3.0732    0.2144   -1.2914 C   0  0  0  0  0  0  0  0  0  0  0  0
    3.7773   -1.0179   -1.8598 C   0  0  0  0  0  0  0  0  0  0  0  0
    4.9809   -1.4138   -1.0249 C   0  0  0  0  0  0  0  0  0  0  0  0
    4.6527   -1.7089    0.2456 F   0  0  0  0  0  0  0  0  0  0  0  0
    5.6134   -2.4891   -1.5556 F   0  0  0  0  0  0  0  0  0  0  0  0
    5.8768   -0.3913   -0.9818 F   0  0  0  0  0  0  0  0  0  0  0  0
    0.3691    0.6876    2.5118 C   0  0  0  0  0  0  0  0  0  0  0  0
   -0.1776    1.2472    3.4576 O   0  0  0  0  0  0  0  0  0  0  0  0
   -0.3100   -0.1209    1.6333 N   0  0  0  0  0  0  0  0  0  0  0  0
   -1.7125   -0.4742    1.7755 C   0  0  1  0  0  0  0  0  0  0  0  0
   -2.6821    0.6616    1.5868 C   0  0  0  0  0  0  0  0  0  0  0  0
   -3.5221    1.0259    2.6604 C   0  0  0  0  0  0  0  0  0  0  0  0
   -4.5004    2.0006    2.5054 C   0  0  0  0  0  0  0  0  0  0  0  0
   -4.6646    2.6136    1.2714 C   0  0  0  0  0  0  0  0  0  0  0  0
   -3.8279    2.2685    0.2085 C   0  0  0  0  0  0  0  0  0  0  0  0
   -2.8028    1.3063    0.3460 C   0  0  0  0  0  0  0  0  0  0  0  0
   -1.8845    1.0273   -0.7794 C   0  0  0  0  0  0  0  0  0  0  0  0
   -1.4095    2.1288   -1.5297 C   0  0  0  0  0  0  0  0  0  0  0  0
   -0.6438    1.9572   -2.6732 C   0  0  0  0  0  0  0  0  0  0  0  0
   -0.3505    0.6705   -3.0475 C   0  0  0  0  0  0  0  0  0  0  0  0
   -0.7281   -0.4085   -2.3365 N   0  0  0  0  0  0  0  0  0  0  0  0
   -1.4725   -0.2504   -1.2078 C   0  0  0  0  0  0  0  0  0  0  0  0
   -1.8102   -1.4700   -0.5456 N   0  0  0  0  0  0  0  0  0  0  0  0
   -1.8624   -2.6902   -1.3697 C   0  0  0  0  0  0  0  0  0  0  0  0
   -0.6733   -3.6319   -1.1384 C   0  0  0  0  0  0  0  0  0  0  0  0
    0.5466   -3.1003   -1.6380 O   0  0  0  0  0  0  0  0  0  0  0  0
   -2.0762   -1.6193    0.8126 C   0  0  0  0  0  0  0  0  0  0  0  0
   -2.5614   -2.6641    1.2647 O   0  0  0  0  0  0  0  0  0  0  0  0
    2.3330    1.5234    4.2754 H   0  0  0  0  0  0  0  0  0  0  0  0
    2.2680    2.7250    2.9738 H   0  0  0  0  0  0  0  0  0  0  0  0
    3.6702    1.6529    3.1183 H   0  0  0  0  0  0  0  0  0  0  0  0
    2.2444   -0.3222    2.6091 H   0  0  0  0  0  0  0  0  0  0  0  0
    2.7010    1.7977    0.6764 H   0  0  0  0  0  0  0  0  0  0  0  0
    2.3375    0.5765   -2.0109 H   0  0  0  0  0  0  0  0  0  0  0  0
    3.7899    1.0206   -1.1184 H   0  0  0  0  0  0  0  0  0  0  0  0
    3.0883   -1.8656   -1.9358 H   0  0  0  0  0  0  0  0  0  0  0  0
    4.1170   -0.7969   -2.8746 H   0  0  0  0  0  0  0  0  0  0  0  0
    0.2529   -0.6810    0.9906 H   0  0  0  0  0  0  0  0  0  0  0  0
   -1.8114   -0.8787    2.7915 H   0  0  0  0  0  0  0  0  0  0  0  0
   -3.4120    0.5411    3.6307 H   0  0  0  0  0  0  0  0  0  0  0  0
   -5.1372    2.2721    3.3433 H   0  0  0  0  0  0  0  0  0  0  0  0
   -5.4366    3.3652    1.1345 H   0  0  0  0  0  0  0  0  0  0  0  0
   -3.9901    2.7672   -0.7461 H   0  0  0  0  0  0  0  0  0  0  0  0
   -1.6557    3.1457   -1.2260 H   0  0  0  0  0  0  0  0  0  0  0  0
   -0.3091    2.8047   -3.2600 H   0  0  0  0  0  0  0  0  0  0  0  0
    0.2206    0.4566   -3.9471 H   0  0  0  0  0  0  0  0  0  0  0  0
   -2.7810   -3.2269   -1.1014 H   0  0  0  0  0  0  0  0  0  0  0  0
   -1.9553   -2.4417   -2.4338 H   0  0  0  0  0  0  0  0  0  0  0  0
   -0.8500   -4.5762   -1.6639 H   0  0  0  0  0  0  0  0  0  0  0  0
   -0.5364   -3.8620   -0.0785 H   0  0  0  0  0  0  0  0  0  0  0  0
    0.7489   -2.3273   -1.0773 H   0  0  0  0  0  0  0  0  0  0  0  0
  1  2  1  0
  2  3  1  0
  3  4  1  0
  4  5  2  0
  4  6  1  0
  6  7  1  0
  7  8  1  0
  8  9  1  0
  8 10  1  0
  8 11  1  0
  2 12  1  0
 12 13  2  0
 12 14  1  0
 14 15  1  0
 15 16  1  0
 16 17  2  0
 17 18  1  0
 18 19  2  0
 19 20  1  0
 20 21  2  0
 21 22  1  0
 22 23  2  0
 23 24  1  0
 24 25  2  0
 25 26  1  0
 26 27  2  0
 27 28  1  0
 28 29  1  0
 29 30  1  0
 30 31  1  0
 28 32  1  0
 32 33  2  0
 32 15  1  0
 21 16  1  0
 27 22  1  0
  1 34  1  0
  1 35  1  0
  1 36  1  0
  2 37  1  1
  3 38  1  0
  6 39  1  0
  6 40  1  0
  7 41  1  0
  7 42  1  0
 14 43  1  0
 15 44  1  1
 17 45  1  0
 18 46  1  0
 19 47  1  0
 20 48  1  0
 23 49  1  0
 24 50  1  0
 25 51  1  0
 29 52  1  0
 29 53  1  0
 30 54  1  0
 30 55  1  0
 31 56  1  0
M  END
>  <CID>  (24) 
89

>  <Energy>  (24) 
49.37516041449899

$$$$

     RDKit          3D

 56 58  0  0  0  0  0  0  0  0999 V2000
    1.9316    0.0355   -1.3139 C   0  0  0  0  0  0  0  0  0  0  0  0
    2.0599    0.1506    0.2022 C   0  0  2  0  0  0  0  0  0  0  0  0
    3.2811   -0.4907    0.6742 N   0  0  0  0  0  0  0  0  0  0  0  0
    4.4380    0.2155    0.9028 C   0  0  0  0  0  0  0  0  0  0  0  0
    4.5266    1.4310    0.7524 O   0  0  0  0  0  0  0  0  0  0  0  0
    5.5782   -0.6455    1.4116 C   0  0  0  0  0  0  0  0  0  0  0  0
    6.9228    0.0727    1.3493 C   0  0  0  0  0  0  0  0  0  0  0  0
    7.4756    0.1305   -0.0597 C   0  0  0  0  0  0  0  0  0  0  0  0
    6.6550    0.7572   -0.9252 F   0  0  0  0  0  0  0  0  0  0  0  0
    8.6636    0.7784   -0.0722 F   0  0  0  0  0  0  0  0  0  0  0  0
    7.6917   -1.1181   -0.5346 F   0  0  0  0  0  0  0  0  0  0  0  0
    0.8637   -0.5291    0.8890 C   0  0  0  0  0  0  0  0  0  0  0  0
    0.9182   -1.6726    1.3388 O   0  0  0  0  0  0  0  0  0  0  0  0
   -0.2807    0.2302    0.9142 N   0  0  0  0  0  0  0  0  0  0  0  0
   -1.4895   -0.2405    1.5803 C   0  0  1  0  0  0  0  0  0  0  0  0
   -2.5047    0.8706    1.6944 C   0  0  0  0  0  0  0  0  0  0  0  0
   -2.9175    1.3013    2.9698 C   0  0  0  0  0  0  0  0  0  0  0  0
   -3.9116    2.2671    3.1054 C   0  0  0  0  0  0  0  0  0  0  0  0
   -4.5088    2.8016    1.9712 C   0  0  0  0  0  0  0  0  0  0  0  0
   -4.0980    2.3819    0.7026 C   0  0  0  0  0  0  0  0  0  0  0  0
   -3.0770    1.4219    0.5295 C   0  0  0  0  0  0  0  0  0  0  0  0
   -2.6168    1.0513   -0.8361 C   0  0  0  0  0  0  0  0  0  0  0  0
   -2.4528    2.0911   -1.7811 C   0  0  0  0  0  0  0  0  0  0  0  0
   -2.1074    1.8316   -3.1008 C   0  0  0  0  0  0  0  0  0  0  0  0
   -1.9337    0.5194   -3.4652 C   0  0  0  0  0  0  0  0  0  0  0  0
   -2.0488   -0.5066   -2.6008 N   0  0  0  0  0  0  0  0  0  0  0  0
   -2.3450   -0.2581   -1.2954 C   0  0  0  0  0  0  0  0  0  0  0  0
   -2.3811   -1.4213   -0.4693 N   0  0  0  0  0  0  0  0  0  0  0  0
   -2.7068   -2.7027   -1.1188 C   0  0  0  0  0  0  0  0  0  0  0  0
   -4.2219   -2.9284   -1.2072 C   0  0  0  0  0  0  0  0  0  0  0  0
   -4.7997   -3.2722    0.0492 O   0  0  0  0  0  0  0  0  0  0  0  0
   -2.1914   -1.4397    0.9045 C   0  0  0  0  0  0  0  0  0  0  0  0
   -2.6698   -2.3516    1.5936 O   0  0  0  0  0  0  0  0  0  0  0  0
    2.7919    0.4902   -1.8173 H   0  0  0  0  0  0  0  0  0  0  0  0
    1.0247    0.5339   -1.6728 H   0  0  0  0  0  0  0  0  0  0  0  0
    1.8802   -1.0153   -1.6257 H   0  0  0  0  0  0  0  0  0  0  0  0
    2.0729    1.2110    0.4908 H   0  0  0  0  0  0  0  0  0  0  0  0
    3.2175   -1.4786    0.9121 H   0  0  0  0  0  0  0  0  0  0  0  0
    5.3486   -0.8915    2.4576 H   0  0  0  0  0  0  0  0  0  0  0  0
    5.6115   -1.5880    0.8487 H   0  0  0  0  0  0  0  0  0  0  0  0
    6.8466    1.0860    1.7577 H   0  0  0  0  0  0  0  0  0  0  0  0
    7.6406   -0.4689    1.9769 H   0  0  0  0  0  0  0  0  0  0  0  0
   -0.2495    1.1853    0.5804 H   0  0  0  0  0  0  0  0  0  0  0  0
   -1.1781   -0.5818    2.5765 H   0  0  0  0  0  0  0  0  0  0  0  0
   -2.4792    0.8683    3.8687 H   0  0  0  0  0  0  0  0  0  0  0  0
   -4.2319    2.5872    4.0943 H   0  0  0  0  0  0  0  0  0  0  0  0
   -5.2997    3.5430    2.0696 H   0  0  0  0  0  0  0  0  0  0  0  0
   -4.6014    2.8151   -0.1612 H   0  0  0  0  0  0  0  0  0  0  0  0
   -2.6017    3.1300   -1.4884 H   0  0  0  0  0  0  0  0  0  0  0  0
   -1.9936    2.6321   -3.8227 H   0  0  0  0  0  0  0  0  0  0  0  0
   -1.6828    0.2433   -4.4852 H   0  0  0  0  0  0  0  0  0  0  0  0
   -2.2551   -2.7592   -2.1132 H   0  0  0  0  0  0  0  0  0  0  0  0
   -2.2566   -3.5130   -0.5319 H   0  0  0  0  0  0  0  0  0  0  0  0
   -4.4309   -3.7580   -1.8867 H   0  0  0  0  0  0  0  0  0  0  0  0
   -4.7368   -2.0414   -1.5849 H   0  0  0  0  0  0  0  0  0  0  0  0
   -4.1804   -2.9923    0.7630 H   0  0  0  0  0  0  0  0  0  0  0  0
  1  2  1  0
  2  3  1  0
  3  4  1  0
  4  5  2  0
  4  6  1  0
  6  7  1  0
  7  8  1  0
  8  9  1  0
  8 10  1  0
  8 11  1  0
  2 12  1  0
 12 13  2  0
 12 14  1  0
 14 15  1  0
 15 16  1  0
 16 17  2  0
 17 18  1  0
 18 19  2  0
 19 20  1  0
 20 21  2  0
 21 22  1  0
 22 23  2  0
 23 24  1  0
 24 25  2  0
 25 26  1  0
 26 27  2  0
 27 28  1  0
 28 29  1  0
 29 30  1  0
 30 31  1  0
 28 32  1  0
 32 33  2  0
 32 15  1  0
 21 16  1  0
 27 22  1  0
  1 34  1  0
  1 35  1  0
  1 36  1  0
  2 37  1  6
  3 38  1  0
  6 39  1  0
  6 40  1  0
  7 41  1  0
  7 42  1  0
 14 43  1  0
 15 44  1  1
 17 45  1  0
 18 46  1  0
 19 47  1  0
 20 48  1  0
 23 49  1  0
 24 50  1  0
 25 51  1  0
 29 52  1  0
 29 53  1  0
 30 54  1  0
 30 55  1  0
 31 56  1  0
M  END
>  <CID>  (25) 
22

>  <Energy>  (25) 
49.41920814626138

$$$$

     RDKit          3D

 56 58  0  0  0  0  0  0  0  0999 V2000
    1.6783   -0.2457   -1.5815 C   0  0  0  0  0  0  0  0  0  0  0  0
    2.0783    0.0329   -0.1373 C   0  0  2  0  0  0  0  0  0  0  0  0
    3.3157   -0.6485    0.2154 N   0  0  0  0  0  0  0  0  0  0  0  0
    4.5458   -0.1519   -0.1246 C   0  0  0  0  0  0  0  0  0  0  0  0
    4.6997    0.8698   -0.7847 O   0  0  0  0  0  0  0  0  0  0  0  0
    5.7021   -1.0069    0.3490 C   0  0  0  0  0  0  0  0  0  0  0  0
    6.9795   -0.1938    0.5298 C   0  0  0  0  0  0  0  0  0  0  0  0
    6.9242    0.6766    1.7661 C   0  0  0  0  0  0  0  0  0  0  0  0
    5.9084    1.5592    1.7394 F   0  0  0  0  0  0  0  0  0  0  0  0
    6.7767   -0.0839    2.8750 F   0  0  0  0  0  0  0  0  0  0  0  0
    8.0740    1.3733    1.9056 F   0  0  0  0  0  0  0  0  0  0  0  0
    0.9777   -0.4605    0.8165 C   0  0  0  0  0  0  0  0  0  0  0  0
    1.0861   -1.5009    1.4630 O   0  0  0  0  0  0  0  0  0  0  0  0
   -0.1460    0.3286    0.8545 N   0  0  0  0  0  0  0  0  0  0  0  0
   -1.2765   -0.0088    1.7133 C   0  0  1  0  0  0  0  0  0  0  0  0
   -2.2647    1.1282    1.7827 C   0  0  0  0  0  0  0  0  0  0  0  0
   -2.5321    1.7353    3.0244 C   0  0  0  0  0  0  0  0  0  0  0  0
   -3.5016    2.7270    3.1353 C   0  0  0  0  0  0  0  0  0  0  0  0
   -4.2209    3.1115    2.0123 C   0  0  0  0  0  0  0  0  0  0  0  0
   -3.9549    2.5168    0.7765 C   0  0  0  0  0  0  0  0  0  0  0  0
   -2.9608    1.5266    0.6250 C   0  0  0  0  0  0  0  0  0  0  0  0
   -2.6594    0.9653   -0.7178 C   0  0  0  0  0  0  0  0  0  0  0  0
   -2.6037    1.8631   -1.8097 C   0  0  0  0  0  0  0  0  0  0  0  0
   -2.4183    1.4201   -3.1131 C   0  0  0  0  0  0  0  0  0  0  0  0
   -2.3023    0.0672   -3.3125 C   0  0  0  0  0  0  0  0  0  0  0  0
   -2.3299   -0.8322   -2.3079 N   0  0  0  0  0  0  0  0  0  0  0  0
   -2.4476   -0.3984   -1.0195 C   0  0  0  0  0  0  0  0  0  0  0  0
   -2.3868   -1.4414   -0.0471 N   0  0  0  0  0  0  0  0  0  0  0  0
   -2.7066   -2.8103   -0.4871 C   0  0  0  0  0  0  0  0  0  0  0  0
   -4.2050   -3.0175   -0.7422 C   0  0  0  0  0  0  0  0  0  0  0  0
   -4.6086   -2.5594   -2.0331 O   0  0  0  0  0  0  0  0  0  0  0  0
   -2.0514   -1.2791    1.2920 C   0  0  0  0  0  0  0  0  0  0  0  0
   -2.4176   -2.0906    2.1516 O   0  0  0  0  0  0  0  0  0  0  0  0
    0.7627    0.2920   -1.8471 H   0  0  0  0  0  0  0  0  0  0  0  0
    2.4642    0.0630   -2.2782 H   0  0  0  0  0  0  0  0  0  0  0  0
    1.4930   -1.3139   -1.7410 H   0  0  0  0  0  0  0  0  0  0  0  0
    2.2204    1.1098    0.0116 H   0  0  0  0  0  0  0  0  0  0  0  0
    3.2253   -1.4914    0.7770 H   0  0  0  0  0  0  0  0  0  0  0  0
    5.4377   -1.5232    1.2787 H   0  0  0  0  0  0  0  0  0  0  0  0
    5.8643   -1.7737   -0.4181 H   0  0  0  0  0  0  0  0  0  0  0  0
    7.1775    0.4290   -0.3495 H   0  0  0  0  0  0  0  0  0  0  0  0
    7.8257   -0.8836    0.6272 H   0  0  0  0  0  0  0  0  0  0  0  0
   -0.1502    1.2157    0.3672 H   0  0  0  0  0  0  0  0  0  0  0  0
   -0.8581   -0.2137    2.7077 H   0  0  0  0  0  0  0  0  0  0  0  0
   -1.9980    1.4200    3.9195 H   0  0  0  0  0  0  0  0  0  0  0  0
   -3.7087    3.1833    4.1001 H   0  0  0  0  0  0  0  0  0  0  0  0
   -4.9943    3.8712    2.0949 H   0  0  0  0  0  0  0  0  0  0  0  0
   -4.5521    2.8346   -0.0773 H   0  0  0  0  0  0  0  0  0  0  0  0
   -2.7126    2.9350   -1.6476 H   0  0  0  0  0  0  0  0  0  0  0  0
   -2.3852    2.1140   -3.9456 H   0  0  0  0  0  0  0  0  0  0  0  0
   -2.1781   -0.3483   -4.3089 H   0  0  0  0  0  0  0  0  0  0  0  0
   -2.3922   -3.5162    0.2909 H   0  0  0  0  0  0  0  0  0  0  0  0
   -2.1110   -3.0563   -1.3742 H   0  0  0  0  0  0  0  0  0  0  0  0
   -4.8136   -2.5067    0.0110 H   0  0  0  0  0  0  0  0  0  0  0  0
   -4.4387   -4.0859   -0.7030 H   0  0  0  0  0  0  0  0  0  0  0  0
   -3.9300   -1.9265   -2.3432 H   0  0  0  0  0  0  0  0  0  0  0  0
  1  2  1  0
  2  3  1  0
  3  4  1  0
  4  5  2  0
  4  6  1  0
  6  7  1  0
  7  8  1  0
  8  9  1  0
  8 10  1  0
  8 11  1  0
  2 12  1  0
 12 13  2  0
 12 14  1  0
 14 15  1  0
 15 16  1  0
 16 17  2  0
 17 18  1  0
 18 19  2  0
 19 20  1  0
 20 21  2  0
 21 22  1  0
 22 23  2  0
 23 24  1  0
 24 25  2  0
 25 26  1  0
 26 27  2  0
 27 28  1  0
 28 29  1  0
 29 30  1  0
 30 31  1  0
 28 32  1  0
 32 33  2  0
 32 15  1  0
 21 16  1  0
 27 22  1  0
  1 34  1  0
  1 35  1  0
  1 36  1  0
  2 37  1  6
  3 38  1  0
  6 39  1  0
  6 40  1  0
  7 41  1  0
  7 42  1  0
 14 43  1  0
 15 44  1  1
 17 45  1  0
 18 46  1  0
 19 47  1  0
 20 48  1  0
 23 49  1  0
 24 50  1  0
 25 51  1  0
 29 52  1  0
 29 53  1  0
 30 54  1  0
 30 55  1  0
 31 56  1  0
M  END
>  <CID>  (26) 
28

>  <Energy>  (26) 
49.43949792237439

$$$$

     RDKit          3D

 56 58  0  0  0  0  0  0  0  0999 V2000
    2.8983   -2.5914    0.3388 C   0  0  0  0  0  0  0  0  0  0  0  0
    2.7573   -1.0834    0.5043 C   0  0  2  0  0  0  0  0  0  0  0  0
    3.5749   -0.5900    1.6045 N   0  0  0  0  0  0  0  0  0  0  0  0
    4.9156   -0.3464    1.4715 C   0  0  0  0  0  0  0  0  0  0  0  0
    5.5403   -0.5583    0.4380 O   0  0  0  0  0  0  0  0  0  0  0  0
    5.5697    0.1664    2.7373 C   0  0  0  0  0  0  0  0  0  0  0  0
    6.8384    0.9615    2.4474 C   0  0  0  0  0  0  0  0  0  0  0  0
    6.5297    2.3317    1.8846 C   0  0  0  0  0  0  0  0  0  0  0  0
    5.8038    3.0546    2.7682 F   0  0  0  0  0  0  0  0  0  0  0  0
    5.8357    2.2812    0.7325 F   0  0  0  0  0  0  0  0  0  0  0  0
    7.6724    3.0149    1.6497 F   0  0  0  0  0  0  0  0  0  0  0  0
    1.2940   -0.7200    0.8071 C   0  0  0  0  0  0  0  0  0  0  0  0
    0.9124   -0.4325    1.9415 O   0  0  0  0  0  0  0  0  0  0  0  0
    0.4568   -0.7658   -0.2776 N   0  0  0  0  0  0  0  0  0  0  0  0
   -0.9704   -0.4731   -0.1867 C   0  0  1  0  0  0  0  0  0  0  0  0
   -1.3124    0.9885   -0.3792 C   0  0  0  0  0  0  0  0  0  0  0  0
   -0.3676    1.9384   -0.8135 C   0  0  0  0  0  0  0  0  0  0  0  0
   -0.7381    3.2608   -1.0485 C   0  0  0  0  0  0  0  0  0  0  0  0
   -2.0579    3.6496   -0.8677 C   0  0  0  0  0  0  0  0  0  0  0  0
   -3.0034    2.7166   -0.4400 C   0  0  0  0  0  0  0  0  0  0  0  0
   -2.6529    1.3761   -0.1765 C   0  0  0  0  0  0  0  0  0  0  0  0
   -3.6751    0.4191    0.3103 C   0  0  0  0  0  0  0  0  0  0  0  0
   -4.5408    0.8317    1.3462 C   0  0  0  0  0  0  0  0  0  0  0  0
   -5.5736    0.0176    1.7926 C   0  0  0  0  0  0  0  0  0  0  0  0
   -5.7267   -1.2075    1.1871 C   0  0  0  0  0  0  0  0  0  0  0  0
   -4.9147   -1.6599    0.2120 N   0  0  0  0  0  0  0  0  0  0  0  0
   -3.8867   -0.8754   -0.2123 C   0  0  0  0  0  0  0  0  0  0  0  0
   -3.0448   -1.4726   -1.1973 N   0  0  0  0  0  0  0  0  0  0  0  0
   -3.6771   -2.3756   -2.1689 C   0  0  0  0  0  0  0  0  0  0  0  0
   -3.9421   -1.6766   -3.5086 C   0  0  0  0  0  0  0  0  0  0  0  0
   -4.9668   -0.6938   -3.3749 O   0  0  0  0  0  0  0  0  0  0  0  0
   -1.6748   -1.2746   -1.3023 C   0  0  0  0  0  0  0  0  0  0  0  0
   -1.0115   -1.7405   -2.2416 O   0  0  0  0  0  0  0  0  0  0  0  0
    2.2848   -2.9572   -0.4910 H   0  0  0  0  0  0  0  0  0  0  0  0
    3.9378   -2.8728    0.1407 H   0  0  0  0  0  0  0  0  0  0  0  0
    2.5782   -3.1191    1.2444 H   0  0  0  0  0  0  0  0  0  0  0  0
    3.0673   -0.5737   -0.4157 H   0  0  0  0  0  0  0  0  0  0  0  0
    3.0861   -0.3826    2.4720 H   0  0  0  0  0  0  0  0  0  0  0  0
    5.8211   -0.7122    3.3425 H   0  0  0  0  0  0  0  0  0  0  0  0
    4.8596    0.7694    3.3134 H   0  0  0  0  0  0  0  0  0  0  0  0
    7.4940    0.4194    1.7566 H   0  0  0  0  0  0  0  0  0  0  0  0
    7.3966    1.0881    3.3821 H   0  0  0  0  0  0  0  0  0  0  0  0
    0.7908   -1.0692   -1.1878 H   0  0  0  0  0  0  0  0  0  0  0  0
   -1.3075   -0.8242    0.7958 H   0  0  0  0  0  0  0  0  0  0  0  0
    0.6697    1.6598   -0.9827 H   0  0  0  0  0  0  0  0  0  0  0  0
    0.0033    3.9826   -1.3824 H   0  0  0  0  0  0  0  0  0  0  0  0
   -2.3554    4.6768   -1.0610 H   0  0  0  0  0  0  0  0  0  0  0  0
   -4.0342    3.0477   -0.3228 H   0  0  0  0  0  0  0  0  0  0  0  0
   -4.4108    1.8062    1.8146 H   0  0  0  0  0  0  0  0  0  0  0  0
   -6.2419    0.3380    2.5833 H   0  0  0  0  0  0  0  0  0  0  0  0
   -6.5229   -1.8856    1.4800 H   0  0  0  0  0  0  0  0  0  0  0  0
   -2.9972   -3.2187   -2.3427 H   0  0  0  0  0  0  0  0  0  0  0  0
   -4.6103   -2.7957   -1.7814 H   0  0  0  0  0  0  0  0  0  0  0  0
   -3.0426   -1.1841   -3.8898 H   0  0  0  0  0  0  0  0  0  0  0  0
   -4.2779   -2.4113   -4.2472 H   0  0  0  0  0  0  0  0  0  0  0  0
   -5.0503   -0.2527   -4.2375 H   0  0  0  0  0  0  0  0  0  0  0  0
  1  2  1  0
  2  3  1  0
  3  4  1  0
  4  5  2  0
  4  6  1  0
  6  7  1  0
  7  8  1  0
  8  9  1  0
  8 10  1  0
  8 11  1  0
  2 12  1  0
 12 13  2  0
 12 14  1  0
 14 15  1  0
 15 16  1  0
 16 17  2  0
 17 18  1  0
 18 19  2  0
 19 20  1  0
 20 21  2  0
 21 22  1  0
 22 23  2  0
 23 24  1  0
 24 25  2  0
 25 26  1  0
 26 27  2  0
 27 28  1  0
 28 29  1  0
 29 30  1  0
 30 31  1  0
 28 32  1  0
 32 33  2  0
 32 15  1  0
 21 16  1  0
 27 22  1  0
  1 34  1  0
  1 35  1  0
  1 36  1  0
  2 37  1  6
  3 38  1  0
  6 39  1  0
  6 40  1  0
  7 41  1  0
  7 42  1  0
 14 43  1  0
 15 44  1  1
 17 45  1  0
 18 46  1  0
 19 47  1  0
 20 48  1  0
 23 49  1  0
 24 50  1  0
 25 51  1  0
 29 52  1  0
 29 53  1  0
 30 54  1  0
 30 55  1  0
 31 56  1  0
M  END
>  <CID>  (27) 
71

>  <Energy>  (27) 
49.52925366322866

$$$$

     RDKit          3D

 56 58  0  0  0  0  0  0  0  0999 V2000
    2.9667   -2.4745    0.1384 C   0  0  0  0  0  0  0  0  0  0  0  0
    2.8059   -0.9874    0.4268 C   0  0  2  0  0  0  0  0  0  0  0  0
    3.6077   -0.5753    1.5711 N   0  0  0  0  0  0  0  0  0  0  0  0
    4.9504   -0.3227    1.4748 C   0  0  0  0  0  0  0  0  0  0  0  0
    5.5903   -0.4638    0.4392 O   0  0  0  0  0  0  0  0  0  0  0  0
    5.5830    0.1023    2.7833 C   0  0  0  0  0  0  0  0  0  0  0  0
    6.8900    0.8596    2.5739 C   0  0  0  0  0  0  0  0  0  0  0  0
    6.6546    2.2701    2.0811 C   0  0  0  0  0  0  0  0  0  0  0  0
    7.8311    2.9157    1.9165 F   0  0  0  0  0  0  0  0  0  0  0  0
    5.9345    2.9732    2.9847 F   0  0  0  0  0  0  0  0  0  0  0  0
    5.9928    2.3141    0.9105 F   0  0  0  0  0  0  0  0  0  0  0  0
    1.3359   -0.6668    0.7458 C   0  0  0  0  0  0  0  0  0  0  0  0
    0.9428   -0.4729    1.8959 O   0  0  0  0  0  0  0  0  0  0  0  0
    0.5055   -0.6364   -0.3448 N   0  0  0  0  0  0  0  0  0  0  0  0
   -0.9258   -0.3726   -0.2389 C   0  0  1  0  0  0  0  0  0  0  0  0
   -1.2913    1.0919   -0.3138 C   0  0  0  0  0  0  0  0  0  0  0  0
   -0.3584    2.0882   -0.6620 C   0  0  0  0  0  0  0  0  0  0  0  0
   -0.7472    3.4195   -0.7933 C   0  0  0  0  0  0  0  0  0  0  0  0
   -2.0740    3.7725   -0.5933 C   0  0  0  0  0  0  0  0  0  0  0  0
   -3.0069    2.7933   -0.2492 C   0  0  0  0  0  0  0  0  0  0  0  0
   -2.6382    1.4397   -0.0903 C   0  0  0  0  0  0  0  0  0  0  0  0
   -3.6543    0.4331    0.3046 C   0  0  0  0  0  0  0  0  0  0  0  0
   -4.5552    0.7672    1.3401 C   0  0  0  0  0  0  0  0  0  0  0  0
   -5.6081   -0.0704    1.6842 C   0  0  0  0  0  0  0  0  0  0  0  0
   -5.7521   -1.2359    0.9706 C   0  0  0  0  0  0  0  0  0  0  0  0
   -4.9081   -1.6116   -0.0101 N   0  0  0  0  0  0  0  0  0  0  0  0
   -3.8423   -0.8228   -0.3132 C   0  0  0  0  0  0  0  0  0  0  0  0
   -2.9696   -1.3642   -1.3075 N   0  0  0  0  0  0  0  0  0  0  0  0
   -3.5551   -2.3169   -2.2601 C   0  0  0  0  0  0  0  0  0  0  0  0
   -4.3768   -1.6223   -3.3464 C   0  0  0  0  0  0  0  0  0  0  0  0
   -4.8847   -2.5842   -4.2671 O   0  0  0  0  0  0  0  0  0  0  0  0
   -1.6125   -1.0929   -1.4183 C   0  0  0  0  0  0  0  0  0  0  0  0
   -0.9435   -1.4332   -2.4044 O   0  0  0  0  0  0  0  0  0  0  0  0
    2.3635   -2.7778   -0.7234 H   0  0  0  0  0  0  0  0  0  0  0  0
    2.6469   -3.0789    0.9945 H   0  0  0  0  0  0  0  0  0  0  0  0
    4.0105   -2.7267   -0.0741 H   0  0  0  0  0  0  0  0  0  0  0  0
    3.1169   -0.3993   -0.4443 H   0  0  0  0  0  0  0  0  0  0  0  0
    3.1074   -0.4329    2.4454 H   0  0  0  0  0  0  0  0  0  0  0  0
    4.8767    0.7038    3.3660 H   0  0  0  0  0  0  0  0  0  0  0  0
    5.7816   -0.8139    3.3513 H   0  0  0  0  0  0  0  0  0  0  0  0
    7.4241    0.9116    3.5297 H   0  0  0  0  0  0  0  0  0  0  0  0
    7.5444    0.3294    1.8736 H   0  0  0  0  0  0  0  0  0  0  0  0
    0.8489   -0.8602   -1.2749 H   0  0  0  0  0  0  0  0  0  0  0  0
   -1.2617   -0.8070    0.7105 H   0  0  0  0  0  0  0  0  0  0  0  0
    0.6845    1.8393   -0.8448 H   0  0  0  0  0  0  0  0  0  0  0  0
   -0.0147    4.1763   -1.0619 H   0  0  0  0  0  0  0  0  0  0  0  0
   -2.3861    4.8076   -0.7069 H   0  0  0  0  0  0  0  0  0  0  0  0
   -4.0425    3.1019   -0.1142 H   0  0  0  0  0  0  0  0  0  0  0  0
   -4.4393    1.7013    1.8886 H   0  0  0  0  0  0  0  0  0  0  0  0
   -6.3003    0.1900    2.4765 H   0  0  0  0  0  0  0  0  0  0  0  0
   -6.5652   -1.9271    1.1748 H   0  0  0  0  0  0  0  0  0  0  0  0
   -4.1563   -3.0707   -1.7373 H   0  0  0  0  0  0  0  0  0  0  0  0
   -2.7611   -2.8994   -2.7438 H   0  0  0  0  0  0  0  0  0  0  0  0
   -5.2236   -1.0803   -2.9134 H   0  0  0  0  0  0  0  0  0  0  0  0
   -3.7566   -0.9079   -3.8988 H   0  0  0  0  0  0  0  0  0  0  0  0
   -5.3850   -2.0927   -4.9407 H   0  0  0  0  0  0  0  0  0  0  0  0
  1  2  1  0
  2  3  1  0
  3  4  1  0
  4  5  2  0
  4  6  1  0
  6  7  1  0
  7  8  1  0
  8  9  1  0
  8 10  1  0
  8 11  1  0
  2 12  1  0
 12 13  2  0
 12 14  1  0
 14 15  1  0
 15 16  1  0
 16 17  2  0
 17 18  1  0
 18 19  2  0
 19 20  1  0
 20 21  2  0
 21 22  1  0
 22 23  2  0
 23 24  1  0
 24 25  2  0
 25 26  1  0
 26 27  2  0
 27 28  1  0
 28 29  1  0
 29 30  1  0
 30 31  1  0
 28 32  1  0
 32 33  2  0
 32 15  1  0
 21 16  1  0
 27 22  1  0
  1 34  1  0
  1 35  1  0
  1 36  1  0
  2 37  1  6
  3 38  1  0
  6 39  1  0
  6 40  1  0
  7 41  1  0
  7 42  1  0
 14 43  1  0
 15 44  1  1
 17 45  1  0
 18 46  1  0
 19 47  1  0
 20 48  1  0
 23 49  1  0
 24 50  1  0
 25 51  1  0
 29 52  1  0
 29 53  1  0
 30 54  1  0
 30 55  1  0
 31 56  1  0
M  END
>  <CID>  (28) 
99

>  <Energy>  (28) 
49.84028084334986

$$$$

     RDKit          3D

 56 58  0  0  0  0  0  0  0  0999 V2000
    2.2636    1.6169    3.5439 C   0  0  0  0  0  0  0  0  0  0  0  0
    1.7380    0.4781    2.6787 C   0  0  2  0  0  0  0  0  0  0  0  0
    2.1687    0.6500    1.2882 N   0  0  0  0  0  0  0  0  0  0  0  0
    3.3493    0.1118    0.8388 C   0  0  0  0  0  0  0  0  0  0  0  0
    4.0847   -0.5758    1.5377 O   0  0  0  0  0  0  0  0  0  0  0  0
    3.6989    0.4743   -0.5891 C   0  0  0  0  0  0  0  0  0  0  0  0
    4.4128   -0.6763   -1.2930 C   0  0  0  0  0  0  0  0  0  0  0  0
    3.4372   -1.7592   -1.6979 C   0  0  0  0  0  0  0  0  0  0  0  0
    2.7118   -2.2056   -0.6543 F   0  0  0  0  0  0  0  0  0  0  0  0
    4.0855   -2.8052   -2.2492 F   0  0  0  0  0  0  0  0  0  0  0  0
    2.5769   -1.2723   -2.6221 F   0  0  0  0  0  0  0  0  0  0  0  0
    0.2040    0.3697    2.7705 C   0  0  0  0  0  0  0  0  0  0  0  0
   -0.4344    0.7071    3.7633 O   0  0  0  0  0  0  0  0  0  0  0  0
   -0.3747   -0.2790    1.6990 N   0  0  0  0  0  0  0  0  0  0  0  0
   -1.8024   -0.5736    1.6669 C   0  0  1  0  0  0  0  0  0  0  0  0
   -2.6644    0.6468    1.4447 C   0  0  0  0  0  0  0  0  0  0  0  0
   -3.5808    1.0291    2.4445 C   0  0  0  0  0  0  0  0  0  0  0  0
   -4.4461    2.1015    2.2500 C   0  0  0  0  0  0  0  0  0  0  0  0
   -4.4133    2.7992    1.0514 C   0  0  0  0  0  0  0  0  0  0  0  0
   -3.4995    2.4343    0.0605 C   0  0  0  0  0  0  0  0  0  0  0  0
   -2.5944    1.3657    0.2401 C   0  0  0  0  0  0  0  0  0  0  0  0
   -1.6017    1.0438   -0.8068 C   0  0  0  0  0  0  0  0  0  0  0  0
   -0.9177    2.1098   -1.4345 C   0  0  0  0  0  0  0  0  0  0  0  0
   -0.0502    1.8926   -2.4969 C   0  0  0  0  0  0  0  0  0  0  0  0
    0.1271    0.5968   -2.9153 C   0  0  0  0  0  0  0  0  0  0  0  0
   -0.4656   -0.4598   -2.3216 N   0  0  0  0  0  0  0  0  0  0  0  0
   -1.3083   -0.2516   -1.2722 C   0  0  0  0  0  0  0  0  0  0  0  0
   -1.8475   -1.4451   -0.7126 N   0  0  0  0  0  0  0  0  0  0  0  0
   -2.0274   -2.5904   -1.6242 C   0  0  0  0  0  0  0  0  0  0  0  0
   -0.8391   -3.5607   -1.6033 C   0  0  0  0  0  0  0  0  0  0  0  0
    0.2230   -3.1227   -2.4468 O   0  0  0  0  0  0  0  0  0  0  0  0
   -2.1655   -1.6509    0.6272 C   0  0  0  0  0  0  0  0  0  0  0  0
   -2.7107   -2.6959    1.0050 O   0  0  0  0  0  0  0  0  0  0  0  0
    1.8548    2.5797    3.2169 H   0  0  0  0  0  0  0  0  0  0  0  0
    3.3553    1.6820    3.4885 H   0  0  0  0  0  0  0  0  0  0  0  0
    1.9855    1.4762    4.5936 H   0  0  0  0  0  0  0  0  0  0  0  0
    2.1389   -0.4713    3.0542 H   0  0  0  0  0  0  0  0  0  0  0  0
    1.6147    1.2511    0.6900 H   0  0  0  0  0  0  0  0  0  0  0  0
    4.3659    1.3430   -0.5388 H   0  0  0  0  0  0  0  0  0  0  0  0
    2.8055    0.7791   -1.1435 H   0  0  0  0  0  0  0  0  0  0  0  0
    5.1981   -1.1048   -0.6609 H   0  0  0  0  0  0  0  0  0  0  0  0
    4.9036   -0.2935   -2.1951 H   0  0  0  0  0  0  0  0  0  0  0  0
    0.2379   -0.6965    1.0065 H   0  0  0  0  0  0  0  0  0  0  0  0
   -2.0402   -1.0095    2.6471 H   0  0  0  0  0  0  0  0  0  0  0  0
   -3.6219    0.4854    3.3877 H   0  0  0  0  0  0  0  0  0  0  0  0
   -5.1479    2.3836    3.0307 H   0  0  0  0  0  0  0  0  0  0  0  0
   -5.0954    3.6292    0.8857 H   0  0  0  0  0  0  0  0  0  0  0  0
   -3.5089    2.9986   -0.8707 H   0  0  0  0  0  0  0  0  0  0  0  0
   -1.0767    3.1349   -1.1011 H   0  0  0  0  0  0  0  0  0  0  0  0
    0.4527    2.7155   -2.9925 H   0  0  0  0  0  0  0  0  0  0  0  0
    0.7762    0.3553   -3.7535 H   0  0  0  0  0  0  0  0  0  0  0  0
   -2.2282   -2.2280   -2.6397 H   0  0  0  0  0  0  0  0  0  0  0  0
   -2.9237   -3.1368   -1.3072 H   0  0  0  0  0  0  0  0  0  0  0  0
   -1.1564   -4.5382   -1.9792 H   0  0  0  0  0  0  0  0  0  0  0  0
   -0.4418   -3.6962   -0.5926 H   0  0  0  0  0  0  0  0  0  0  0  0
    0.2140   -2.1420   -2.4359 H   0  0  0  0  0  0  0  0  0  0  0  0
  1  2  1  0
  2  3  1  0
  3  4  1  0
  4  5  2  0
  4  6  1  0
  6  7  1  0
  7  8  1  0
  8  9  1  0
  8 10  1  0
  8 11  1  0
  2 12  1  0
 12 13  2  0
 12 14  1  0
 14 15  1  0
 15 16  1  0
 16 17  2  0
 17 18  1  0
 18 19  2  0
 19 20  1  0
 20 21  2  0
 21 22  1  0
 22 23  2  0
 23 24  1  0
 24 25  2  0
 25 26  1  0
 26 27  2  0
 27 28  1  0
 28 29  1  0
 29 30  1  0
 30 31  1  0
 28 32  1  0
 32 33  2  0
 32 15  1  0
 21 16  1  0
 27 22  1  0
  1 34  1  0
  1 35  1  0
  1 36  1  0
  2 37  1  1
  3 38  1  0
  6 39  1  0
  6 40  1  0
  7 41  1  0
  7 42  1  0
 14 43  1  0
 15 44  1  1
 17 45  1  0
 18 46  1  0
 19 47  1  0
 20 48  1  0
 23 49  1  0
 24 50  1  0
 25 51  1  0
 29 52  1  0
 29 53  1  0
 30 54  1  0
 30 55  1  0
 31 56  1  0
M  END
>  <CID>  (29) 
96

>  <Energy>  (29) 
49.85943018472114

$$$$

     RDKit          3D

 56 58  0  0  0  0  0  0  0  0999 V2000
    2.9762   -2.5346   -0.2587 C   0  0  0  0  0  0  0  0  0  0  0  0
    2.7605   -1.0758    0.1246 C   0  0  2  0  0  0  0  0  0  0  0  0
    3.5886   -0.7069    1.2648 N   0  0  0  0  0  0  0  0  0  0  0  0
    4.0933    0.5618    1.4015 C   0  0  0  0  0  0  0  0  0  0  0  0
    3.9408    1.4498    0.5698 O   0  0  0  0  0  0  0  0  0  0  0  0
    4.8296    0.7822    2.7060 C   0  0  0  0  0  0  0  0  0  0  0  0
    5.9494    1.8095    2.5642 C   0  0  0  0  0  0  0  0  0  0  0  0
    7.1161    1.2664    1.7671 C   0  0  0  0  0  0  0  0  0  0  0  0
    7.6306    0.1679    2.3691 F   0  0  0  0  0  0  0  0  0  0  0  0
    8.1054    2.1861    1.6909 F   0  0  0  0  0  0  0  0  0  0  0  0
    6.7759    0.9214    0.5093 F   0  0  0  0  0  0  0  0  0  0  0  0
    1.2894   -0.8540    0.5154 C   0  0  0  0  0  0  0  0  0  0  0  0
    0.8755   -1.0261    1.6606 O   0  0  0  0  0  0  0  0  0  0  0  0
    0.4734   -0.5045   -0.5292 N   0  0  0  0  0  0  0  0  0  0  0  0
   -0.9489   -0.2313   -0.3635 C   0  0  1  0  0  0  0  0  0  0  0  0
   -1.2603    1.2146   -0.0463 C   0  0  0  0  0  0  0  0  0  0  0  0
   -0.2847    2.2296   -0.1073 C   0  0  0  0  0  0  0  0  0  0  0  0
   -0.6222    3.5619    0.1209 C   0  0  0  0  0  0  0  0  0  0  0  0
   -1.9378    3.9013    0.4021 C   0  0  0  0  0  0  0  0  0  0  0  0
   -2.9116    2.9040    0.4698 C   0  0  0  0  0  0  0  0  0  0  0  0
   -2.5959    1.5445    0.2602 C   0  0  0  0  0  0  0  0  0  0  0  0
   -3.6505    0.5081    0.3699 C   0  0  0  0  0  0  0  0  0  0  0  0
   -4.5449    0.5718    1.4607 C   0  0  0  0  0  0  0  0  0  0  0  0
   -5.6183   -0.3031    1.5669 C   0  0  0  0  0  0  0  0  0  0  0  0
   -5.7850   -1.2337    0.5676 C   0  0  0  0  0  0  0  0  0  0  0  0
   -4.9466   -1.3541   -0.4815 N   0  0  0  0  0  0  0  0  0  0  0  0
   -3.8742   -0.5213   -0.5696 C   0  0  0  0  0  0  0  0  0  0  0  0
   -3.0215   -0.7722   -1.6847 N   0  0  0  0  0  0  0  0  0  0  0  0
   -3.6402   -1.3759   -2.8700 C   0  0  0  0  0  0  0  0  0  0  0  0
   -3.5124   -2.9012   -2.9016 C   0  0  0  0  0  0  0  0  0  0  0  0
   -4.1265   -3.4198   -4.0810 O   0  0  0  0  0  0  0  0  0  0  0  0
   -1.6427   -0.6004   -1.6933 C   0  0  0  0  0  0  0  0  0  0  0  0
   -0.9625   -0.7852   -2.7127 O   0  0  0  0  0  0  0  0  0  0  0  0
    2.3588   -2.8110   -1.1224 H   0  0  0  0  0  0  0  0  0  0  0  0
    4.0250   -2.7186   -0.5136 H   0  0  0  0  0  0  0  0  0  0  0  0
    2.7112   -3.2073    0.5674 H   0  0  0  0  0  0  0  0  0  0  0  0
    3.0077   -0.4301   -0.7265 H   0  0  0  0  0  0  0  0  0  0  0  0
    3.5521   -1.3148    2.0735 H   0  0  0  0  0  0  0  0  0  0  0  0
    5.2239   -0.1659    3.0882 H   0  0  0  0  0  0  0  0  0  0  0  0
    4.0909    1.1466    3.4299 H   0  0  0  0  0  0  0  0  0  0  0  0
    5.5812    2.7312    2.0975 H   0  0  0  0  0  0  0  0  0  0  0  0
    6.3076    2.0798    3.5660 H   0  0  0  0  0  0  0  0  0  0  0  0
    0.8325   -0.4365   -1.4780 H   0  0  0  0  0  0  0  0  0  0  0  0
   -1.3113   -0.8881    0.4367 H   0  0  0  0  0  0  0  0  0  0  0  0
    0.7537    1.9996   -0.3399 H   0  0  0  0  0  0  0  0  0  0  0  0
    0.1433    4.3321    0.0673 H   0  0  0  0  0  0  0  0  0  0  0  0
   -2.2100    4.9404    0.5651 H   0  0  0  0  0  0  0  0  0  0  0  0
   -3.9369    3.2054    0.6787 H   0  0  0  0  0  0  0  0  0  0  0  0
   -4.4077    1.3204    2.2410 H   0  0  0  0  0  0  0  0  0  0  0  0
   -6.3101   -0.2459    2.4003 H   0  0  0  0  0  0  0  0  0  0  0  0
   -6.6151   -1.9344    0.5823 H   0  0  0  0  0  0  0  0  0  0  0  0
   -4.6908   -1.0703   -2.9560 H   0  0  0  0  0  0  0  0  0  0  0  0
   -3.1595   -0.9652   -3.7674 H   0  0  0  0  0  0  0  0  0  0  0  0
   -3.9949   -3.3596   -2.0330 H   0  0  0  0  0  0  0  0  0  0  0  0
   -2.4594   -3.2023   -2.9022 H   0  0  0  0  0  0  0  0  0  0  0  0
   -4.0102   -4.3864   -4.0560 H   0  0  0  0  0  0  0  0  0  0  0  0
  1  2  1  0
  2  3  1  0
  3  4  1  0
  4  5  2  0
  4  6  1  0
  6  7  1  0
  7  8  1  0
  8  9  1  0
  8 10  1  0
  8 11  1  0
  2 12  1  0
 12 13  2  0
 12 14  1  0
 14 15  1  0
 15 16  1  0
 16 17  2  0
 17 18  1  0
 18 19  2  0
 19 20  1  0
 20 21  2  0
 21 22  1  0
 22 23  2  0
 23 24  1  0
 24 25  2  0
 25 26  1  0
 26 27  2  0
 27 28  1  0
 28 29  1  0
 29 30  1  0
 30 31  1  0
 28 32  1  0
 32 33  2  0
 32 15  1  0
 21 16  1  0
 27 22  1  0
  1 34  1  0
  1 35  1  0
  1 36  1  0
  2 37  1  6
  3 38  1  0
  6 39  1  0
  6 40  1  0
  7 41  1  0
  7 42  1  0
 14 43  1  0
 15 44  1  1
 17 45  1  0
 18 46  1  0
 19 47  1  0
 20 48  1  0
 23 49  1  0
 24 50  1  0
 25 51  1  0
 29 52  1  0
 29 53  1  0
 30 54  1  0
 30 55  1  0
 31 56  1  0
M  END
>  <CID>  (30) 
65

>  <Energy>  (30) 
49.9720561400782

$$$$

     RDKit          3D

 56 58  0  0  0  0  0  0  0  0999 V2000
    3.1786   -1.9168   -0.0932 C   0  0  0  0  0  0  0  0  0  0  0  0
    2.7954   -0.4894    0.2671 C   0  0  2  0  0  0  0  0  0  0  0  0
    3.5534   -0.0086    1.4130 N   0  0  0  0  0  0  0  0  0  0  0  0
    4.8075    0.5279    1.2923 C   0  0  0  0  0  0  0  0  0  0  0  0
    5.3818    0.6624    0.2180 O   0  0  0  0  0  0  0  0  0  0  0  0
    5.3952    0.9817    2.6124 C   0  0  0  0  0  0  0  0  0  0  0  0
    6.8914    1.2524    2.5252 C   0  0  0  0  0  0  0  0  0  0  0  0
    7.7042   -0.0226    2.4599 C   0  0  0  0  0  0  0  0  0  0  0  0
    7.4247   -0.7709    1.3785 F   0  0  0  0  0  0  0  0  0  0  0  0
    7.4855   -0.7855    3.5549 F   0  0  0  0  0  0  0  0  0  0  0  0
    9.0247    0.2646    2.4331 F   0  0  0  0  0  0  0  0  0  0  0  0
    1.3044   -0.4133    0.6294 C   0  0  0  0  0  0  0  0  0  0  0  0
    0.9138   -0.3775    1.7965 O   0  0  0  0  0  0  0  0  0  0  0  0
    0.4575   -0.4050   -0.4468 N   0  0  0  0  0  0  0  0  0  0  0  0
   -0.9938   -0.3183   -0.3125 C   0  0  1  0  0  0  0  0  0  0  0  0
   -1.5158    1.0996   -0.2431 C   0  0  0  0  0  0  0  0  0  0  0  0
   -0.7092    2.2180   -0.5253 C   0  0  0  0  0  0  0  0  0  0  0  0
   -1.2404    3.5074   -0.5092 C   0  0  0  0  0  0  0  0  0  0  0  0
   -2.5868    3.6958   -0.2277 C   0  0  0  0  0  0  0  0  0  0  0  0
   -3.3974    2.5928    0.0440 C   0  0  0  0  0  0  0  0  0  0  0  0
   -2.8821    1.2785    0.0513 C   0  0  0  0  0  0  0  0  0  0  0  0
   -3.7688    0.1321    0.3592 C   0  0  0  0  0  0  0  0  0  0  0  0
   -4.6624    0.2470    1.4468 C   0  0  0  0  0  0  0  0  0  0  0  0
   -5.6013   -0.7396    1.7194 C   0  0  0  0  0  0  0  0  0  0  0  0
   -5.6388   -1.8302    0.8859 C   0  0  0  0  0  0  0  0  0  0  0  0
   -4.7977   -1.9976   -0.1546 N   0  0  0  0  0  0  0  0  0  0  0  0
   -3.8416   -1.0579   -0.3952 C   0  0  0  0  0  0  0  0  0  0  0  0
   -2.9565   -1.3753   -1.4729 N   0  0  0  0  0  0  0  0  0  0  0  0
   -3.5022   -2.2220   -2.5443 C   0  0  0  0  0  0  0  0  0  0  0  0
   -4.6058   -1.5271   -3.3495 C   0  0  0  0  0  0  0  0  0  0  0  0
   -4.0816   -0.4023   -4.0540 O   0  0  0  0  0  0  0  0  0  0  0  0
   -1.6180   -1.0049   -1.5464 C   0  0  0  0  0  0  0  0  0  0  0  0
   -0.9013   -1.2468   -2.5292 O   0  0  0  0  0  0  0  0  0  0  0  0
    2.6038   -2.2751   -0.9530 H   0  0  0  0  0  0  0  0  0  0  0  0
    2.9863   -2.6001    0.7419 H   0  0  0  0  0  0  0  0  0  0  0  0
    4.2421   -1.9877   -0.3427 H   0  0  0  0  0  0  0  0  0  0  0  0
    2.9869    0.1745   -0.5838 H   0  0  0  0  0  0  0  0  0  0  0  0
    3.0840   -0.0438    2.3118 H   0  0  0  0  0  0  0  0  0  0  0  0
    4.8766    1.9105    2.8899 H   0  0  0  0  0  0  0  0  0  0  0  0
    5.1799    0.2377    3.3907 H   0  0  0  0  0  0  0  0  0  0  0  0
    7.1994    1.8145    3.4159 H   0  0  0  0  0  0  0  0  0  0  0  0
    7.1236    1.8804    1.6582 H   0  0  0  0  0  0  0  0  0  0  0  0
    0.8053   -0.5220   -1.3945 H   0  0  0  0  0  0  0  0  0  0  0  0
   -1.2617   -0.8747    0.5949 H   0  0  0  0  0  0  0  0  0  0  0  0
    0.3440    2.0997   -0.7716 H   0  0  0  0  0  0  0  0  0  0  0  0
   -0.6043    4.3608   -0.7296 H   0  0  0  0  0  0  0  0  0  0  0  0
   -3.0111    4.6995   -0.2241 H   0  0  0  0  0  0  0  0  0  0  0  0
   -4.4540    2.7724    0.2396 H   0  0  0  0  0  0  0  0  0  0  0  0
   -4.6305    1.1238    2.0924 H   0  0  0  0  0  0  0  0  0  0  0  0
   -6.2884   -0.6470    2.5521 H   0  0  0  0  0  0  0  0  0  0  0  0
   -6.3594   -2.6288    1.0362 H   0  0  0  0  0  0  0  0  0  0  0  0
   -3.8766   -3.1553   -2.1069 H   0  0  0  0  0  0  0  0  0  0  0  0
   -2.6988   -2.5096   -3.2344 H   0  0  0  0  0  0  0  0  0  0  0  0
   -5.4257   -1.1820   -2.7090 H   0  0  0  0  0  0  0  0  0  0  0  0
   -5.0120   -2.2247   -4.0863 H   0  0  0  0  0  0  0  0  0  0  0  0
   -4.8259    0.0288   -4.5095 H   0  0  0  0  0  0  0  0  0  0  0  0
  1  2  1  0
  2  3  1  0
  3  4  1  0
  4  5  2  0
  4  6  1  0
  6  7  1  0
  7  8  1  0
  8  9  1  0
  8 10  1  0
  8 11  1  0
  2 12  1  0
 12 13  2  0
 12 14  1  0
 14 15  1  0
 15 16  1  0
 16 17  2  0
 17 18  1  0
 18 19  2  0
 19 20  1  0
 20 21  2  0
 21 22  1  0
 22 23  2  0
 23 24  1  0
 24 25  2  0
 25 26  1  0
 26 27  2  0
 27 28  1  0
 28 29  1  0
 29 30  1  0
 30 31  1  0
 28 32  1  0
 32 33  2  0
 32 15  1  0
 21 16  1  0
 27 22  1  0
  1 34  1  0
  1 35  1  0
  1 36  1  0
  2 37  1  6
  3 38  1  0
  6 39  1  0
  6 40  1  0
  7 41  1  0
  7 42  1  0
 14 43  1  0
 15 44  1  1
 17 45  1  0
 18 46  1  0
 19 47  1  0
 20 48  1  0
 23 49  1  0
 24 50  1  0
 25 51  1  0
 29 52  1  0
 29 53  1  0
 30 54  1  0
 30 55  1  0
 31 56  1  0
M  END
>  <CID>  (31) 
63

>  <Energy>  (31) 
50.01146001568184

$$$$

     RDKit          3D

 56 58  0  0  0  0  0  0  0  0999 V2000
    2.9556   -2.7441    0.0792 C   0  0  0  0  0  0  0  0  0  0  0  0
    2.7611   -1.2482    0.2847 C   0  0  2  0  0  0  0  0  0  0  0  0
    3.5808   -0.7590    1.3865 N   0  0  0  0  0  0  0  0  0  0  0  0
    4.0606    0.5282    1.4018 C   0  0  0  0  0  0  0  0  0  0  0  0
    3.8806    1.3339    0.4942 O   0  0  0  0  0  0  0  0  0  0  0  0
    4.8010    0.8800    2.6761 C   0  0  0  0  0  0  0  0  0  0  0  0
    5.8802    1.9318    2.4444 C   0  0  0  0  0  0  0  0  0  0  0  0
    7.0530    1.3836    1.6606 C   0  0  0  0  0  0  0  0  0  0  0  0
    8.0142    2.3267    1.5283 F   0  0  0  0  0  0  0  0  0  0  0  0
    7.6065    0.3310    2.3074 F   0  0  0  0  0  0  0  0  0  0  0  0
    6.7108    0.9705    0.4255 F   0  0  0  0  0  0  0  0  0  0  0  0
    1.2882   -0.9625    0.6233 C   0  0  0  0  0  0  0  0  0  0  0  0
    0.8415   -1.0586    1.7649 O   0  0  0  0  0  0  0  0  0  0  0  0
    0.5112   -0.6426   -0.4609 N   0  0  0  0  0  0  0  0  0  0  0  0
   -0.9043   -0.3125   -0.3481 C   0  0  1  0  0  0  0  0  0  0  0  0
   -1.1698    1.1553   -0.0901 C   0  0  0  0  0  0  0  0  0  0  0  0
   -0.1566    2.1330   -0.1639 C   0  0  0  0  0  0  0  0  0  0  0  0
   -0.4499    3.4835    0.0107 C   0  0  0  0  0  0  0  0  0  0  0  0
   -1.7578    3.8785    0.2524 C   0  0  0  0  0  0  0  0  0  0  0  0
   -2.7687    2.9190    0.3311 C   0  0  0  0  0  0  0  0  0  0  0  0
   -2.4985    1.5430    0.1732 C   0  0  0  0  0  0  0  0  0  0  0  0
   -3.5954    0.5511    0.2822 C   0  0  0  0  0  0  0  0  0  0  0  0
   -4.5157    0.6782    1.3449 C   0  0  0  0  0  0  0  0  0  0  0  0
   -5.6341   -0.1419    1.4353 C   0  0  0  0  0  0  0  0  0  0  0  0
   -5.8209   -1.0795    0.4462 C   0  0  0  0  0  0  0  0  0  0  0  0
   -4.9608   -1.2597   -0.5765 N   0  0  0  0  0  0  0  0  0  0  0  0
   -3.8391   -0.4885   -0.6405 C   0  0  0  0  0  0  0  0  0  0  0  0
   -2.9602   -0.8152   -1.7162 N   0  0  0  0  0  0  0  0  0  0  0  0
   -3.5653   -1.4471   -2.8918 C   0  0  0  0  0  0  0  0  0  0  0  0
   -3.5325   -2.9777   -2.8326 C   0  0  0  0  0  0  0  0  0  0  0  0
   -4.3274   -3.5414   -3.8738 O   0  0  0  0  0  0  0  0  0  0  0  0
   -1.5753   -0.7044   -1.6847 C   0  0  0  0  0  0  0  0  0  0  0  0
   -0.8750   -0.9575   -2.6754 O   0  0  0  0  0  0  0  0  0  0  0  0
    4.0037   -2.9735   -0.1437 H   0  0  0  0  0  0  0  0  0  0  0  0
    2.6760   -3.3072    0.9787 H   0  0  0  0  0  0  0  0  0  0  0  0
    2.3367   -3.1108   -0.7489 H   0  0  0  0  0  0  0  0  0  0  0  0
    3.0335   -0.7094   -0.6308 H   0  0  0  0  0  0  0  0  0  0  0  0
    3.5580   -1.2861    2.2531 H   0  0  0  0  0  0  0  0  0  0  0  0
    4.0561    1.2733    3.3792 H   0  0  0  0  0  0  0  0  0  0  0  0
    5.2343   -0.0210    3.1271 H   0  0  0  0  0  0  0  0  0  0  0  0
    5.4699    2.8077    1.9297 H   0  0  0  0  0  0  0  0  0  0  0  0
    6.2443    2.2776    3.4191 H   0  0  0  0  0  0  0  0  0  0  0  0
    0.8979   -0.6342   -1.4017 H   0  0  0  0  0  0  0  0  0  0  0  0
   -1.3125   -0.9274    0.4644 H   0  0  0  0  0  0  0  0  0  0  0  0
    0.8779    1.8582   -0.3649 H   0  0  0  0  0  0  0  0  0  0  0  0
    0.3446    4.2241   -0.0521 H   0  0  0  0  0  0  0  0  0  0  0  0
   -1.9945    4.9312    0.3749 H   0  0  0  0  0  0  0  0  0  0  0  0
   -3.7870    3.2634    0.5063 H   0  0  0  0  0  0  0  0  0  0  0  0
   -4.3637    1.4339    2.1152 H   0  0  0  0  0  0  0  0  0  0  0  0
   -6.3452   -0.0360    2.2478 H   0  0  0  0  0  0  0  0  0  0  0  0
   -6.6870   -1.7361    0.4484 H   0  0  0  0  0  0  0  0  0  0  0  0
   -3.0276   -1.1229   -3.7918 H   0  0  0  0  0  0  0  0  0  0  0  0
   -4.5896   -1.0798   -3.0361 H   0  0  0  0  0  0  0  0  0  0  0  0
   -3.9044   -3.3630   -1.8765 H   0  0  0  0  0  0  0  0  0  0  0  0
   -2.5074   -3.3424   -2.9540 H   0  0  0  0  0  0  0  0  0  0  0  0
   -5.2522   -3.3064   -3.6806 H   0  0  0  0  0  0  0  0  0  0  0  0
  1  2  1  0
  2  3  1  0
  3  4  1  0
  4  5  2  0
  4  6  1  0
  6  7  1  0
  7  8  1  0
  8  9  1  0
  8 10  1  0
  8 11  1  0
  2 12  1  0
 12 13  2  0
 12 14  1  0
 14 15  1  0
 15 16  1  0
 16 17  2  0
 17 18  1  0
 18 19  2  0
 19 20  1  0
 20 21  2  0
 21 22  1  0
 22 23  2  0
 23 24  1  0
 24 25  2  0
 25 26  1  0
 26 27  2  0
 27 28  1  0
 28 29  1  0
 29 30  1  0
 30 31  1  0
 28 32  1  0
 32 33  2  0
 32 15  1  0
 21 16  1  0
 27 22  1  0
  1 34  1  0
  1 35  1  0
  1 36  1  0
  2 37  1  6
  3 38  1  0
  6 39  1  0
  6 40  1  0
  7 41  1  0
  7 42  1  0
 14 43  1  0
 15 44  1  1
 17 45  1  0
 18 46  1  0
 19 47  1  0
 20 48  1  0
 23 49  1  0
 24 50  1  0
 25 51  1  0
 29 52  1  0
 29 53  1  0
 30 54  1  0
 30 55  1  0
 31 56  1  0
M  END
>  <CID>  (32) 
97

>  <Energy>  (32) 
50.109305281114004

$$$$

     RDKit          3D

 56 58  0  0  0  0  0  0  0  0999 V2000
    1.7043    0.4610   -1.3581 C   0  0  0  0  0  0  0  0  0  0  0  0
    1.9805    0.4300    0.1403 C   0  0  2  0  0  0  0  0  0  0  0  0
    3.2476   -0.2242    0.4349 N   0  0  0  0  0  0  0  0  0  0  0  0
    4.4528    0.4171    0.3096 C   0  0  0  0  0  0  0  0  0  0  0  0
    4.5589    1.5796   -0.0640 O   0  0  0  0  0  0  0  0  0  0  0  0
    5.6330   -0.4531    0.6796 C   0  0  0  0  0  0  0  0  0  0  0  0
    6.9512    0.2976    0.5339 C   0  0  0  0  0  0  0  0  0  0  0  0
    8.1188   -0.5804    0.9032 C   0  0  0  0  0  0  0  0  0  0  0  0
    8.0268   -1.0033    2.1821 F   0  0  0  0  0  0  0  0  0  0  0  0
    9.2841    0.0888    0.7735 F   0  0  0  0  0  0  0  0  0  0  0  0
    8.1797   -1.6711    0.1099 F   0  0  0  0  0  0  0  0  0  0  0  0
    0.8669   -0.3429    0.8667 C   0  0  0  0  0  0  0  0  0  0  0  0
    1.0329   -1.4800    1.3048 O   0  0  0  0  0  0  0  0  0  0  0  0
   -0.3317    0.3220    0.9566 N   0  0  0  0  0  0  0  0  0  0  0  0
   -1.4816   -0.2843    1.6188 C   0  0  1  0  0  0  0  0  0  0  0  0
   -2.5837    0.7241    1.8269 C   0  0  0  0  0  0  0  0  0  0  0  0
   -2.9981    1.0303    3.1371 C   0  0  0  0  0  0  0  0  0  0  0  0
   -4.0720    1.8861    3.3602 C   0  0  0  0  0  0  0  0  0  0  0  0
   -4.7490    2.4330    2.2791 C   0  0  0  0  0  0  0  0  0  0  0  0
   -4.3376    2.1380    0.9769 C   0  0  0  0  0  0  0  0  0  0  0  0
   -3.2367    1.2944    0.7161 C   0  0  0  0  0  0  0  0  0  0  0  0
   -2.7851    1.0612   -0.6817 C   0  0  0  0  0  0  0  0  0  0  0  0
   -2.7529    2.1721   -1.5573 C   0  0  0  0  0  0  0  0  0  0  0  0
   -2.4237    2.0361   -2.8997 C   0  0  0  0  0  0  0  0  0  0  0  0
   -2.1298    0.7754   -3.3561 C   0  0  0  0  0  0  0  0  0  0  0  0
   -2.1173   -0.3119   -2.5617 N   0  0  0  0  0  0  0  0  0  0  0  0
   -2.4018   -0.1812   -1.2362 C   0  0  0  0  0  0  0  0  0  0  0  0
   -2.3036   -1.3955   -0.4936 N   0  0  0  0  0  0  0  0  0  0  0  0
   -2.5136   -2.6527   -1.2274 C   0  0  0  0  0  0  0  0  0  0  0  0
   -4.0020   -2.9904   -1.3710 C   0  0  0  0  0  0  0  0  0  0  0  0
   -4.6183   -3.3168   -0.1256 O   0  0  0  0  0  0  0  0  0  0  0  0
   -2.0918   -1.4921    0.8731 C   0  0  0  0  0  0  0  0  0  0  0  0
   -2.4694   -2.4918    1.5001 O   0  0  0  0  0  0  0  0  0  0  0  0
    2.5051    0.9754   -1.8990 H   0  0  0  0  0  0  0  0  0  0  0  0
    1.6254   -0.5530   -1.7658 H   0  0  0  0  0  0  0  0  0  0  0  0
    0.7646    0.9787   -1.5760 H   0  0  0  0  0  0  0  0  0  0  0  0
    2.0175    1.4515    0.5360 H   0  0  0  0  0  0  0  0  0  0  0  0
    3.1975   -1.1779    0.7851 H   0  0  0  0  0  0  0  0  0  0  0  0
    5.6235   -1.3365    0.0305 H   0  0  0  0  0  0  0  0  0  0  0  0
    5.4991   -0.7913    1.7140 H   0  0  0  0  0  0  0  0  0  0  0  0
    6.9493    1.1881    1.1734 H   0  0  0  0  0  0  0  0  0  0  0  0
    7.0723    0.6482   -0.4978 H   0  0  0  0  0  0  0  0  0  0  0  0
   -0.3958    1.2837    0.6489 H   0  0  0  0  0  0  0  0  0  0  0  0
   -1.1199   -0.6633    2.5837 H   0  0  0  0  0  0  0  0  0  0  0  0
   -2.4978    0.5813    3.9939 H   0  0  0  0  0  0  0  0  0  0  0  0
   -4.3930    2.1074    4.3750 H   0  0  0  0  0  0  0  0  0  0  0  0
   -5.6031    3.0853    2.4450 H   0  0  0  0  0  0  0  0  0  0  0  0
   -4.9055    2.5736    0.1560 H   0  0  0  0  0  0  0  0  0  0  0  0
   -2.9961    3.1691   -1.1923 H   0  0  0  0  0  0  0  0  0  0  0  0
   -2.4129    2.8901   -3.5675 H   0  0  0  0  0  0  0  0  0  0  0  0
   -1.8822    0.5944   -4.3983 H   0  0  0  0  0  0  0  0  0  0  0  0
   -2.0169   -3.4626   -0.6778 H   0  0  0  0  0  0  0  0  0  0  0  0
   -2.0308   -2.6152   -2.2092 H   0  0  0  0  0  0  0  0  0  0  0  0
   -4.1185   -3.8595   -2.0257 H   0  0  0  0  0  0  0  0  0  0  0  0
   -4.5579   -2.1575   -1.8128 H   0  0  0  0  0  0  0  0  0  0  0  0
   -3.9621   -3.1850    0.5910 H   0  0  0  0  0  0  0  0  0  0  0  0
  1  2  1  0
  2  3  1  0
  3  4  1  0
  4  5  2  0
  4  6  1  0
  6  7  1  0
  7  8  1  0
  8  9  1  0
  8 10  1  0
  8 11  1  0
  2 12  1  0
 12 13  2  0
 12 14  1  0
 14 15  1  0
 15 16  1  0
 16 17  2  0
 17 18  1  0
 18 19  2  0
 19 20  1  0
 20 21  2  0
 21 22  1  0
 22 23  2  0
 23 24  1  0
 24 25  2  0
 25 26  1  0
 26 27  2  0
 27 28  1  0
 28 29  1  0
 29 30  1  0
 30 31  1  0
 28 32  1  0
 32 33  2  0
 32 15  1  0
 21 16  1  0
 27 22  1  0
  1 34  1  0
  1 35  1  0
  1 36  1  0
  2 37  1  1
  3 38  1  0
  6 39  1  0
  6 40  1  0
  7 41  1  0
  7 42  1  0
 14 43  1  0
 15 44  1  1
 17 45  1  0
 18 46  1  0
 19 47  1  0
 20 48  1  0
 23 49  1  0
 24 50  1  0
 25 51  1  0
 29 52  1  0
 29 53  1  0
 30 54  1  0
 30 55  1  0
 31 56  1  0
M  END
>  <CID>  (33) 
81

>  <Energy>  (33) 
50.116970787658396

$$$$

     RDKit          3D

 56 58  0  0  0  0  0  0  0  0999 V2000
    2.9011   -2.6455    0.0056 C   0  0  0  0  0  0  0  0  0  0  0  0
    2.7291   -1.1526    0.2501 C   0  0  2  0  0  0  0  0  0  0  0  0
    3.5690   -0.7042    1.3515 N   0  0  0  0  0  0  0  0  0  0  0  0
    4.0985    0.5621    1.3761 C   0  0  0  0  0  0  0  0  0  0  0  0
    3.9553    1.3765    0.4700 O   0  0  0  0  0  0  0  0  0  0  0  0
    4.8481    0.8779    2.6537 C   0  0  0  0  0  0  0  0  0  0  0  0
    5.9590    1.8983    2.4303 C   0  0  0  0  0  0  0  0  0  0  0  0
    7.1273    1.3047    1.6747 C   0  0  0  0  0  0  0  0  0  0  0  0
    8.1080    2.2245    1.5212 F   0  0  0  0  0  0  0  0  0  0  0  0
    6.7848    0.8585    0.4501 F   0  0  0  0  0  0  0  0  0  0  0  0
    7.6543    0.2618    2.3585 F   0  0  0  0  0  0  0  0  0  0  0  0
    1.2635   -0.8520    0.6111 C   0  0  0  0  0  0  0  0  0  0  0  0
    0.8432   -0.8921    1.7679 O   0  0  0  0  0  0  0  0  0  0  0  0
    0.4562   -0.5951   -0.4687 N   0  0  0  0  0  0  0  0  0  0  0  0
   -0.9630   -0.2903   -0.3317 C   0  0  1  0  0  0  0  0  0  0  0  0
   -1.2567    1.1745   -0.0955 C   0  0  0  0  0  0  0  0  0  0  0  0
   -0.2739    2.1758   -0.2237 C   0  0  0  0  0  0  0  0  0  0  0  0
   -0.5970    3.5219   -0.0612 C   0  0  0  0  0  0  0  0  0  0  0  0
   -1.9056    3.8878    0.2209 C   0  0  0  0  0  0  0  0  0  0  0  0
   -2.8877    2.9042    0.3505 C   0  0  0  0  0  0  0  0  0  0  0  0
   -2.5863    1.5338    0.2049 C   0  0  0  0  0  0  0  0  0  0  0  0
   -3.6514    0.5162    0.3646 C   0  0  0  0  0  0  0  0  0  0  0  0
   -4.5375    0.6290    1.4563 C   0  0  0  0  0  0  0  0  0  0  0  0
   -5.6217   -0.2270    1.5988 C   0  0  0  0  0  0  0  0  0  0  0  0
   -5.8099   -1.1838    0.6296 C   0  0  0  0  0  0  0  0  0  0  0  0
   -4.9812   -1.3478   -0.4203 N   0  0  0  0  0  0  0  0  0  0  0  0
   -3.8938   -0.5408   -0.5361 C   0  0  0  0  0  0  0  0  0  0  0  0
   -3.0431   -0.8497   -1.6360 N   0  0  0  0  0  0  0  0  0  0  0  0
   -3.6686   -1.4721   -2.8033 C   0  0  0  0  0  0  0  0  0  0  0  0
   -3.6012   -3.0020   -2.7848 C   0  0  0  0  0  0  0  0  0  0  0  0
   -3.9842   -3.5373   -4.0529 O   0  0  0  0  0  0  0  0  0  0  0  0
   -1.6593   -0.7203   -1.6407 C   0  0  0  0  0  0  0  0  0  0  0  0
   -0.9811   -0.9865   -2.6437 O   0  0  0  0  0  0  0  0  0  0  0  0
    2.6144   -3.2284    0.8875 H   0  0  0  0  0  0  0  0  0  0  0  0
    2.2770   -2.9787   -0.8293 H   0  0  0  0  0  0  0  0  0  0  0  0
    3.9444   -2.8857   -0.2271 H   0  0  0  0  0  0  0  0  0  0  0  0
    2.9963   -0.5980   -0.6576 H   0  0  0  0  0  0  0  0  0  0  0  0
    3.5285   -1.2403    2.2112 H   0  0  0  0  0  0  0  0  0  0  0  0
    4.1149    1.2835    3.3602 H   0  0  0  0  0  0  0  0  0  0  0  0
    5.2540   -0.0401    3.0926 H   0  0  0  0  0  0  0  0  0  0  0  0
    6.3171    2.2472    3.4061 H   0  0  0  0  0  0  0  0  0  0  0  0
    5.5838    2.7782    1.8962 H   0  0  0  0  0  0  0  0  0  0  0  0
    0.8203   -0.6250   -1.4164 H   0  0  0  0  0  0  0  0  0  0  0  0
   -1.3379   -0.8956    0.5015 H   0  0  0  0  0  0  0  0  0  0  0  0
    0.7588    1.9228   -0.4568 H   0  0  0  0  0  0  0  0  0  0  0  0
    0.1745    4.2822   -0.1637 H   0  0  0  0  0  0  0  0  0  0  0  0
   -2.1643    4.9386    0.3400 H   0  0  0  0  0  0  0  0  0  0  0  0
   -3.9075    3.2249    0.5567 H   0  0  0  0  0  0  0  0  0  0  0  0
   -4.3857    1.4000    2.2087 H   0  0  0  0  0  0  0  0  0  0  0  0
   -6.3053   -0.1367    2.4349 H   0  0  0  0  0  0  0  0  0  0  0  0
   -6.6490   -1.8720    0.6717 H   0  0  0  0  0  0  0  0  0  0  0  0
   -4.7046   -1.1290   -2.9164 H   0  0  0  0  0  0  0  0  0  0  0  0
   -3.1585   -1.1107   -3.7058 H   0  0  0  0  0  0  0  0  0  0  0  0
   -2.5913   -3.3611   -2.5601 H   0  0  0  0  0  0  0  0  0  0  0  0
   -4.2726   -3.4127   -2.0260 H   0  0  0  0  0  0  0  0  0  0  0  0
   -3.3016   -3.2718   -4.6949 H   0  0  0  0  0  0  0  0  0  0  0  0
  1  2  1  0
  2  3  1  0
  3  4  1  0
  4  5  2  0
  4  6  1  0
  6  7  1  0
  7  8  1  0
  8  9  1  0
  8 10  1  0
  8 11  1  0
  2 12  1  0
 12 13  2  0
 12 14  1  0
 14 15  1  0
 15 16  1  0
 16 17  2  0
 17 18  1  0
 18 19  2  0
 19 20  1  0
 20 21  2  0
 21 22  1  0
 22 23  2  0
 23 24  1  0
 24 25  2  0
 25 26  1  0
 26 27  2  0
 27 28  1  0
 28 29  1  0
 29 30  1  0
 30 31  1  0
 28 32  1  0
 32 33  2  0
 32 15  1  0
 21 16  1  0
 27 22  1  0
  1 34  1  0
  1 35  1  0
  1 36  1  0
  2 37  1  6
  3 38  1  0
  6 39  1  0
  6 40  1  0
  7 41  1  0
  7 42  1  0
 14 43  1  0
 15 44  1  1
 17 45  1  0
 18 46  1  0
 19 47  1  0
 20 48  1  0
 23 49  1  0
 24 50  1  0
 25 51  1  0
 29 52  1  0
 29 53  1  0
 30 54  1  0
 30 55  1  0
 31 56  1  0
M  END
>  <CID>  (34) 
9

>  <Energy>  (34) 
50.13946053233201

$$$$

     RDKit          3D

 56 58  0  0  0  0  0  0  0  0999 V2000
    3.0339   -2.2205   -0.5436 C   0  0  0  0  0  0  0  0  0  0  0  0
    2.7804   -0.8364    0.0303 C   0  0  2  0  0  0  0  0  0  0  0  0
    3.6046   -0.5986    1.2065 N   0  0  0  0  0  0  0  0  0  0  0  0
    4.1395    0.6370    1.4695 C   0  0  0  0  0  0  0  0  0  0  0  0
    4.0283    1.6011    0.7190 O   0  0  0  0  0  0  0  0  0  0  0  0
    4.8677    0.7208    2.7942 C   0  0  0  0  0  0  0  0  0  0  0  0
    6.1295    1.5707    2.6932 C   0  0  0  0  0  0  0  0  0  0  0  0
    7.2030    0.8951    1.8674 C   0  0  0  0  0  0  0  0  0  0  0  0
    7.5171   -0.3136    2.3886 F   0  0  0  0  0  0  0  0  0  0  0  0
    6.8320    0.7052    0.5870 F   0  0  0  0  0  0  0  0  0  0  0  0
    8.3323    1.6383    1.8624 F   0  0  0  0  0  0  0  0  0  0  0  0
    1.3041   -0.7009    0.4432 C   0  0  0  0  0  0  0  0  0  0  0  0
    0.9077   -0.9443    1.5815 O   0  0  0  0  0  0  0  0  0  0  0  0
    0.4626   -0.3411   -0.5770 N   0  0  0  0  0  0  0  0  0  0  0  0
   -0.9707   -0.1479   -0.3899 C   0  0  1  0  0  0  0  0  0  0  0  0
   -1.3503    1.2636   -0.0024 C   0  0  0  0  0  0  0  0  0  0  0  0
   -0.4294    2.3286   -0.0303 C   0  0  0  0  0  0  0  0  0  0  0  0
   -0.8292    3.6275    0.2715 C   0  0  0  0  0  0  0  0  0  0  0  0
   -2.1541    3.8839    0.5932 C   0  0  0  0  0  0  0  0  0  0  0  0
   -3.0751    2.8370    0.6244 C   0  0  0  0  0  0  0  0  0  0  0  0
   -2.6950    1.5092    0.3395 C   0  0  0  0  0  0  0  0  0  0  0  0
   -3.6943    0.4171    0.4086 C   0  0  0  0  0  0  0  0  0  0  0  0
   -4.5725    0.3773    1.5132 C   0  0  0  0  0  0  0  0  0  0  0  0
   -5.6005   -0.5534    1.5869 C   0  0  0  0  0  0  0  0  0  0  0  0
   -5.7391   -1.4341    0.5402 C   0  0  0  0  0  0  0  0  0  0  0  0
   -4.9133   -1.4557   -0.5250 N   0  0  0  0  0  0  0  0  0  0  0  0
   -3.8817   -0.5705   -0.5814 C   0  0  0  0  0  0  0  0  0  0  0  0
   -3.0309   -0.7253   -1.7161 N   0  0  0  0  0  0  0  0  0  0  0  0
   -3.6342   -1.3038   -2.9209 C   0  0  0  0  0  0  0  0  0  0  0  0
   -3.4606   -2.8204   -3.0064 C   0  0  0  0  0  0  0  0  0  0  0  0
   -4.0682   -3.3176   -4.1961 O   0  0  0  0  0  0  0  0  0  0  0  0
   -1.6613   -0.4908   -1.7284 C   0  0  0  0  0  0  0  0  0  0  0  0
   -0.9835   -0.6019   -2.7609 O   0  0  0  0  0  0  0  0  0  0  0  0
    4.0877   -2.3403   -0.8166 H   0  0  0  0  0  0  0  0  0  0  0  0
    2.7846   -3.0038    0.1808 H   0  0  0  0  0  0  0  0  0  0  0  0
    2.4259   -2.3914   -1.4369 H   0  0  0  0  0  0  0  0  0  0  0  0
    3.0051   -0.0787   -0.7280 H   0  0  0  0  0  0  0  0  0  0  0  0
    3.5429   -1.2808    1.9532 H   0  0  0  0  0  0  0  0  0  0  0  0
    4.1753    1.1776    3.5092 H   0  0  0  0  0  0  0  0  0  0  0  0
    5.1091   -0.2784    3.1692 H   0  0  0  0  0  0  0  0  0  0  0  0
    6.5197    1.7433    3.7038 H   0  0  0  0  0  0  0  0  0  0  0  0
    5.9045    2.5551    2.2653 H   0  0  0  0  0  0  0  0  0  0  0  0
    0.8083   -0.2215   -1.5238 H   0  0  0  0  0  0  0  0  0  0  0  0
   -1.2917   -0.8586    0.3818 H   0  0  0  0  0  0  0  0  0  0  0  0
    0.6140    2.1640   -0.2923 H   0  0  0  0  0  0  0  0  0  0  0  0
   -0.1048    4.4370    0.2445 H   0  0  0  0  0  0  0  0  0  0  0  0
   -2.4744    4.8976    0.8175 H   0  0  0  0  0  0  0  0  0  0  0  0
   -4.1102    3.0732    0.8654 H   0  0  0  0  0  0  0  0  0  0  0  0
   -4.4590    1.0872    2.3306 H   0  0  0  0  0  0  0  0  0  0  0  0
   -6.2793   -0.5769    2.4321 H   0  0  0  0  0  0  0  0  0  0  0  0
   -6.5345   -2.1735    0.5271 H   0  0  0  0  0  0  0  0  0  0  0  0
   -4.6937   -1.0271   -2.9920 H   0  0  0  0  0  0  0  0  0  0  0  0
   -3.1685   -0.8486   -3.8039 H   0  0  0  0  0  0  0  0  0  0  0  0
   -2.3987   -3.0868   -3.0259 H   0  0  0  0  0  0  0  0  0  0  0  0
   -3.9217   -3.3230   -2.1505 H   0  0  0  0  0  0  0  0  0  0  0  0
   -3.9395   -4.2811   -4.1911 H   0  0  0  0  0  0  0  0  0  0  0  0
  1  2  1  0
  2  3  1  0
  3  4  1  0
  4  5  2  0
  4  6  1  0
  6  7  1  0
  7  8  1  0
  8  9  1  0
  8 10  1  0
  8 11  1  0
  2 12  1  0
 12 13  2  0
 12 14  1  0
 14 15  1  0
 15 16  1  0
 16 17  2  0
 17 18  1  0
 18 19  2  0
 19 20  1  0
 20 21  2  0
 21 22  1  0
 22 23  2  0
 23 24  1  0
 24 25  2  0
 25 26  1  0
 26 27  2  0
 27 28  1  0
 28 29  1  0
 29 30  1  0
 30 31  1  0
 28 32  1  0
 32 33  2  0
 32 15  1  0
 21 16  1  0
 27 22  1  0
  1 34  1  0
  1 35  1  0
  1 36  1  0
  2 37  1  6
  3 38  1  0
  6 39  1  0
  6 40  1  0
  7 41  1  0
  7 42  1  0
 14 43  1  0
 15 44  1  1
 17 45  1  0
 18 46  1  0
 19 47  1  0
 20 48  1  0
 23 49  1  0
 24 50  1  0
 25 51  1  0
 29 52  1  0
 29 53  1  0
 30 54  1  0
 30 55  1  0
 31 56  1  0
M  END
>  <CID>  (35) 
5

>  <Energy>  (35) 
50.16823103311532

$$$$

     RDKit          3D

 56 58  0  0  0  0  0  0  0  0999 V2000
    2.9370   -1.5532   -1.0769 C   0  0  0  0  0  0  0  0  0  0  0  0
    2.6705   -0.3029   -0.2481 C   0  0  2  0  0  0  0  0  0  0  0  0
    3.5392   -0.2439    0.9198 N   0  0  0  0  0  0  0  0  0  0  0  0
    4.8382    0.1881    0.8521 C   0  0  0  0  0  0  0  0  0  0  0  0
    5.3732    0.5515   -0.1891 O   0  0  0  0  0  0  0  0  0  0  0  0
    5.5415    0.1726    2.1904 C   0  0  0  0  0  0  0  0  0  0  0  0
    6.9777    0.6695    2.0768 C   0  0  0  0  0  0  0  0  0  0  0  0
    7.6740    0.6249    3.4127 C   0  0  0  0  0  0  0  0  0  0  0  0
    7.0341    1.3890    4.3241 F   0  0  0  0  0  0  0  0  0  0  0  0
    7.7272   -0.6364    3.8935 F   0  0  0  0  0  0  0  0  0  0  0  0
    8.9410    1.0797    3.3115 F   0  0  0  0  0  0  0  0  0  0  0  0
    1.2147   -0.2969    0.2485 C   0  0  0  0  0  0  0  0  0  0  0  0
    0.9182   -0.5695    1.4113 O   0  0  0  0  0  0  0  0  0  0  0  0
    0.2835    0.0162   -0.7076 N   0  0  0  0  0  0  0  0  0  0  0  0
   -1.1496    0.0539   -0.4317 C   0  0  1  0  0  0  0  0  0  0  0  0
   -1.6447    1.3913    0.0712 C   0  0  0  0  0  0  0  0  0  0  0  0
   -0.8438    2.5498    0.0572 C   0  0  0  0  0  0  0  0  0  0  0  0
   -1.3530    3.7773    0.4745 C   0  0  0  0  0  0  0  0  0  0  0  0
   -2.6710    3.8687    0.8987 C   0  0  0  0  0  0  0  0  0  0  0  0
   -3.4756    2.7290    0.9123 C   0  0  0  0  0  0  0  0  0  0  0  0
   -2.9820    1.4702    0.5096 C   0  0  0  0  0  0  0  0  0  0  0  0
   -3.8599    0.2770    0.5532 C   0  0  0  0  0  0  0  0  0  0  0  0
   -4.6584    0.0680    1.6980 C   0  0  0  0  0  0  0  0  0  0  0  0
   -5.5821   -0.9680    1.7555 C   0  0  0  0  0  0  0  0  0  0  0  0
   -5.6981   -1.7812    0.6531 C   0  0  0  0  0  0  0  0  0  0  0  0
   -4.9436   -1.6402   -0.4549 N   0  0  0  0  0  0  0  0  0  0  0  0
   -4.0104   -0.6514   -0.4983 C   0  0  0  0  0  0  0  0  0  0  0  0
   -3.2203   -0.6355   -1.6854 N   0  0  0  0  0  0  0  0  0  0  0  0
   -3.8459   -1.1613   -2.9031 C   0  0  0  0  0  0  0  0  0  0  0  0
   -3.5556   -2.6445   -3.1395 C   0  0  0  0  0  0  0  0  0  0  0  0
   -4.1595   -3.0675   -4.3594 O   0  0  0  0  0  0  0  0  0  0  0  0
   -1.8813   -0.2709   -1.7514 C   0  0  0  0  0  0  0  0  0  0  0  0
   -1.2547   -0.2472   -2.8205 O   0  0  0  0  0  0  0  0  0  0  0  0
    2.2827   -1.5945   -1.9538 H   0  0  0  0  0  0  0  0  0  0  0  0
    2.7594   -2.4607   -0.4887 H   0  0  0  0  0  0  0  0  0  0  0  0
    3.9740   -1.5822   -1.4269 H   0  0  0  0  0  0  0  0  0  0  0  0
    2.8418    0.5937   -0.8549 H   0  0  0  0  0  0  0  0  0  0  0  0
    3.1176   -0.4901    1.8114 H   0  0  0  0  0  0  0  0  0  0  0  0
    5.5219   -0.8536    2.5754 H   0  0  0  0  0  0  0  0  0  0  0  0
    4.9747    0.8050    2.8827 H   0  0  0  0  0  0  0  0  0  0  0  0
    6.9896    1.6969    1.6937 H   0  0  0  0  0  0  0  0  0  0  0  0
    7.5331    0.0554    1.3583 H   0  0  0  0  0  0  0  0  0  0  0  0
    0.5532    0.1688   -1.6755 H   0  0  0  0  0  0  0  0  0  0  0  0
   -1.3513   -0.7328    0.3048 H   0  0  0  0  0  0  0  0  0  0  0  0
    0.1871    2.5134   -0.2865 H   0  0  0  0  0  0  0  0  0  0  0  0
   -0.7218    4.6621    0.4583 H   0  0  0  0  0  0  0  0  0  0  0  0
   -3.0771    4.8258    1.2147 H   0  0  0  0  0  0  0  0  0  0  0  0
   -4.5107    2.8379    1.2326 H   0  0  0  0  0  0  0  0  0  0  0  0
   -4.5655    0.7264    2.5604 H   0  0  0  0  0  0  0  0  0  0  0  0
   -6.2009   -1.1223    2.6326 H   0  0  0  0  0  0  0  0  0  0  0  0
   -6.4153   -2.5969    0.6274 H   0  0  0  0  0  0  0  0  0  0  0  0
   -4.9272   -0.9718   -2.8917 H   0  0  0  0  0  0  0  0  0  0  0  0
   -3.4742   -0.5919   -3.7651 H   0  0  0  0  0  0  0  0  0  0  0  0
   -2.4774   -2.8236   -3.2096 H   0  0  0  0  0  0  0  0  0  0  0  0
   -3.9515   -3.2618   -2.3282 H   0  0  0  0  0  0  0  0  0  0  0  0
   -3.9430   -4.0095   -4.4682 H   0  0  0  0  0  0  0  0  0  0  0  0
  1  2  1  0
  2  3  1  0
  3  4  1  0
  4  5  2  0
  4  6  1  0
  6  7  1  0
  7  8  1  0
  8  9  1  0
  8 10  1  0
  8 11  1  0
  2 12  1  0
 12 13  2  0
 12 14  1  0
 14 15  1  0
 15 16  1  0
 16 17  2  0
 17 18  1  0
 18 19  2  0
 19 20  1  0
 20 21  2  0
 21 22  1  0
 22 23  2  0
 23 24  1  0
 24 25  2  0
 25 26  1  0
 26 27  2  0
 27 28  1  0
 28 29  1  0
 29 30  1  0
 30 31  1  0
 28 32  1  0
 32 33  2  0
 32 15  1  0
 21 16  1  0
 27 22  1  0
  1 34  1  0
  1 35  1  0
  1 36  1  0
  2 37  1  6
  3 38  1  0
  6 39  1  0
  6 40  1  0
  7 41  1  0
  7 42  1  0
 14 43  1  0
 15 44  1  1
 17 45  1  0
 18 46  1  0
 19 47  1  0
 20 48  1  0
 23 49  1  0
 24 50  1  0
 25 51  1  0
 29 52  1  0
 29 53  1  0
 30 54  1  0
 30 55  1  0
 31 56  1  0
M  END
>  <CID>  (36) 
57

>  <Energy>  (36) 
50.25624994755443

$$$$

     RDKit          3D

 56 58  0  0  0  0  0  0  0  0999 V2000
    1.8549   -2.8799   -0.4289 C   0  0  0  0  0  0  0  0  0  0  0  0
    1.9156   -1.4257    0.0175 C   0  0  2  0  0  0  0  0  0  0  0  0
    3.1611   -1.1466    0.7163 N   0  0  0  0  0  0  0  0  0  0  0  0
    3.7041    0.1177    0.7319 C   0  0  0  0  0  0  0  0  0  0  0  0
    3.2011    1.0766    0.1508 O   0  0  0  0  0  0  0  0  0  0  0  0
    4.9438    0.2252    1.5953 C   0  0  0  0  0  0  0  0  0  0  0  0
    5.8651    1.3590    1.1529 C   0  0  0  0  0  0  0  0  0  0  0  0
    6.6215    1.0091   -0.1140 C   0  0  0  0  0  0  0  0  0  0  0  0
    5.8053    0.7549   -1.1566 F   0  0  0  0  0  0  0  0  0  0  0  0
    7.4484    2.0202   -0.4710 F   0  0  0  0  0  0  0  0  0  0  0  0
    7.3894   -0.0862    0.0805 F   0  0  0  0  0  0  0  0  0  0  0  0
    0.7746   -1.1272    1.0006 C   0  0  0  0  0  0  0  0  0  0  0  0
    0.5622   -1.8166    1.9964 O   0  0  0  0  0  0  0  0  0  0  0  0
    0.0576    0.0091    0.7166 N   0  0  0  0  0  0  0  0  0  0  0  0
   -1.0581    0.4145    1.5621 C   0  0  1  0  0  0  0  0  0  0  0  0
   -1.6440    1.7265    1.1064 C   0  0  0  0  0  0  0  0  0  0  0  0
   -1.6446    2.8276    1.9845 C   0  0  0  0  0  0  0  0  0  0  0  0
   -2.2753    4.0167    1.6301 C   0  0  0  0  0  0  0  0  0  0  0  0
   -2.9224    4.1128    0.4038 C   0  0  0  0  0  0  0  0  0  0  0  0
   -2.9152    3.0261   -0.4753 C   0  0  0  0  0  0  0  0  0  0  0  0
   -2.2597    1.8169   -0.1584 C   0  0  0  0  0  0  0  0  0  0  0  0
   -2.2072    0.7099   -1.1502 C   0  0  0  0  0  0  0  0  0  0  0  0
   -1.9406    1.0482   -2.4971 C   0  0  0  0  0  0  0  0  0  0  0  0
   -1.9554    0.0945   -3.5075 C   0  0  0  0  0  0  0  0  0  0  0  0
   -2.2518   -1.1978   -3.1561 C   0  0  0  0  0  0  0  0  0  0  0  0
   -2.4972   -1.5807   -1.8860 N   0  0  0  0  0  0  0  0  0  0  0  0
   -2.4231   -0.6597   -0.8809 C   0  0  0  0  0  0  0  0  0  0  0  0
   -2.6330   -1.1999    0.4233 N   0  0  0  0  0  0  0  0  0  0  0  0
   -3.3214   -2.4964    0.5369 C   0  0  0  0  0  0  0  0  0  0  0  0
   -4.8232   -2.4132    0.2474 C   0  0  0  0  0  0  0  0  0  0  0  0
   -5.1234   -2.4061   -1.1470 O   0  0  0  0  0  0  0  0  0  0  0  0
   -2.2174   -0.6107    1.6131 C   0  0  0  0  0  0  0  0  0  0  0  0
   -2.7948   -0.8396    2.6828 O   0  0  0  0  0  0  0  0  0  0  0  0
    2.6456   -3.0983   -1.1548 H   0  0  0  0  0  0  0  0  0  0  0  0
    1.9834   -3.5659    0.4145 H   0  0  0  0  0  0  0  0  0  0  0  0
    0.8922   -3.1029   -0.8958 H   0  0  0  0  0  0  0  0  0  0  0  0
    1.8347   -0.7728   -0.8582 H   0  0  0  0  0  0  0  0  0  0  0  0
    3.5116   -1.8551    1.3521 H   0  0  0  0  0  0  0  0  0  0  0  0
    5.4846   -0.7292    1.5992 H   0  0  0  0  0  0  0  0  0  0  0  0
    4.6007    0.4142    2.6216 H   0  0  0  0  0  0  0  0  0  0  0  0
    6.5946    1.5469    1.9494 H   0  0  0  0  0  0  0  0  0  0  0  0
    5.3052    2.2889    1.0064 H   0  0  0  0  0  0  0  0  0  0  0  0
    0.4443    0.6766    0.0590 H   0  0  0  0  0  0  0  0  0  0  0  0
   -0.6616    0.4984    2.5831 H   0  0  0  0  0  0  0  0  0  0  0  0
   -1.1690    2.7538    2.9628 H   0  0  0  0  0  0  0  0  0  0  0  0
   -2.2774    4.8597    2.3184 H   0  0  0  0  0  0  0  0  0  0  0  0
   -3.4354    5.0315    0.1294 H   0  0  0  0  0  0  0  0  0  0  0  0
   -3.4444    3.1327   -1.4225 H   0  0  0  0  0  0  0  0  0  0  0  0
   -1.7170    2.0786   -2.7706 H   0  0  0  0  0  0  0  0  0  0  0  0
   -1.7561    0.3629   -4.5380 H   0  0  0  0  0  0  0  0  0  0  0  0
   -2.3019   -1.9875   -3.9007 H   0  0  0  0  0  0  0  0  0  0  0  0
   -3.1948   -2.8754    1.5581 H   0  0  0  0  0  0  0  0  0  0  0  0
   -2.8267   -3.2237   -0.1166 H   0  0  0  0  0  0  0  0  0  0  0  0
   -5.3261   -3.2883    0.6712 H   0  0  0  0  0  0  0  0  0  0  0  0
   -5.2664   -1.5181    0.6911 H   0  0  0  0  0  0  0  0  0  0  0  0
   -4.3171   -2.1064   -1.6184 H   0  0  0  0  0  0  0  0  0  0  0  0
  1  2  1  0
  2  3  1  0
  3  4  1  0
  4  5  2  0
  4  6  1  0
  6  7  1  0
  7  8  1  0
  8  9  1  0
  8 10  1  0
  8 11  1  0
  2 12  1  0
 12 13  2  0
 12 14  1  0
 14 15  1  0
 15 16  1  0
 16 17  2  0
 17 18  1  0
 18 19  2  0
 19 20  1  0
 20 21  2  0
 21 22  1  0
 22 23  2  0
 23 24  1  0
 24 25  2  0
 25 26  1  0
 26 27  2  0
 27 28  1  0
 28 29  1  0
 29 30  1  0
 30 31  1  0
 28 32  1  0
 32 33  2  0
 32 15  1  0
 21 16  1  0
 27 22  1  0
  1 34  1  0
  1 35  1  0
  1 36  1  0
  2 37  1  6
  3 38  1  0
  6 39  1  0
  6 40  1  0
  7 41  1  0
  7 42  1  0
 14 43  1  0
 15 44  1  1
 17 45  1  0
 18 46  1  0
 19 47  1  0
 20 48  1  0
 23 49  1  0
 24 50  1  0
 25 51  1  0
 29 52  1  0
 29 53  1  0
 30 54  1  0
 30 55  1  0
 31 56  1  0
M  END
>  <CID>  (37) 
64

>  <Energy>  (37) 
50.25862871168482

$$$$

     RDKit          3D

 56 58  0  0  0  0  0  0  0  0999 V2000
    2.9251   -1.4160   -1.1790 C   0  0  0  0  0  0  0  0  0  0  0  0
    2.6665   -0.2258   -0.2628 C   0  0  2  0  0  0  0  0  0  0  0  0
    3.5469   -0.2455    0.8979 N   0  0  0  0  0  0  0  0  0  0  0  0
    4.8467    0.1869    0.8461 C   0  0  0  0  0  0  0  0  0  0  0  0
    5.3769    0.6036   -0.1774 O   0  0  0  0  0  0  0  0  0  0  0  0
    5.5645    0.0768    2.1727 C   0  0  0  0  0  0  0  0  0  0  0  0
    6.9585    0.6912    2.1118 C   0  0  0  0  0  0  0  0  0  0  0  0
    7.6889    0.5032    3.4174 C   0  0  0  0  0  0  0  0  0  0  0  0
    7.8696   -0.8077    3.6885 F   0  0  0  0  0  0  0  0  0  0  0  0
    7.0048    1.0484    4.4467 F   0  0  0  0  0  0  0  0  0  0  0  0
    8.9050    1.0872    3.3778 F   0  0  0  0  0  0  0  0  0  0  0  0
    1.2146   -0.2563    0.2455 C   0  0  0  0  0  0  0  0  0  0  0  0
    0.9288   -0.5944    1.3935 O   0  0  0  0  0  0  0  0  0  0  0  0
    0.2746    0.1002   -0.6864 N   0  0  0  0  0  0  0  0  0  0  0  0
   -1.1587    0.0997   -0.4078 C   0  0  1  0  0  0  0  0  0  0  0  0
   -1.6859    1.4207    0.1055 C   0  0  0  0  0  0  0  0  0  0  0  0
   -0.9062    2.5937    0.1174 C   0  0  0  0  0  0  0  0  0  0  0  0
   -1.4455    3.8078    0.5371 C   0  0  0  0  0  0  0  0  0  0  0  0
   -2.7731    3.8713    0.9355 C   0  0  0  0  0  0  0  0  0  0  0  0
   -3.5553    2.7164    0.9272 C   0  0  0  0  0  0  0  0  0  0  0  0
   -3.0305    1.4698    0.5265 C   0  0  0  0  0  0  0  0  0  0  0  0
   -3.8837    0.2581    0.5581 C   0  0  0  0  0  0  0  0  0  0  0  0
   -4.6927    0.0341    1.6934 C   0  0  0  0  0  0  0  0  0  0  0  0
   -5.5920   -1.0229    1.7420 C   0  0  0  0  0  0  0  0  0  0  0  0
   -5.6735   -1.8442    0.6408 C   0  0  0  0  0  0  0  0  0  0  0  0
   -4.9085   -1.6887   -0.4580 N   0  0  0  0  0  0  0  0  0  0  0  0
   -4.0010   -0.6760   -0.4936 C   0  0  0  0  0  0  0  0  0  0  0  0
   -3.2049   -0.6372   -1.6758 N   0  0  0  0  0  0  0  0  0  0  0  0
   -3.8062   -1.1823   -2.8965 C   0  0  0  0  0  0  0  0  0  0  0  0
   -3.4503   -2.6499   -3.1400 C   0  0  0  0  0  0  0  0  0  0  0  0
   -4.0334   -3.0941   -4.3620 O   0  0  0  0  0  0  0  0  0  0  0  0
   -1.8781   -0.2310   -1.7345 C   0  0  0  0  0  0  0  0  0  0  0  0
   -1.2509   -0.1773   -2.8021 O   0  0  0  0  0  0  0  0  0  0  0  0
    2.2632   -1.3956   -2.0512 H   0  0  0  0  0  0  0  0  0  0  0  0
    3.9588   -1.4207   -1.5405 H   0  0  0  0  0  0  0  0  0  0  0  0
    2.7515   -2.3627   -0.6538 H   0  0  0  0  0  0  0  0  0  0  0  0
    2.8317    0.7115   -0.8079 H   0  0  0  0  0  0  0  0  0  0  0  0
    3.1406   -0.5765    1.7710 H   0  0  0  0  0  0  0  0  0  0  0  0
    5.6240   -0.9852    2.4357 H   0  0  0  0  0  0  0  0  0  0  0  0
    4.9630    0.5821    2.9378 H   0  0  0  0  0  0  0  0  0  0  0  0
    6.8862    1.7614    1.8813 H   0  0  0  0  0  0  0  0  0  0  0  0
    7.5407    0.2308    1.3041 H   0  0  0  0  0  0  0  0  0  0  0  0
    0.5386    0.3011   -1.6468 H   0  0  0  0  0  0  0  0  0  0  0  0
   -1.3439   -0.6986    0.3211 H   0  0  0  0  0  0  0  0  0  0  0  0
    0.1313    2.5802   -0.2085 H   0  0  0  0  0  0  0  0  0  0  0  0
   -0.8310    4.7045    0.5403 H   0  0  0  0  0  0  0  0  0  0  0  0
   -3.2043    4.8182    1.2507 H   0  0  0  0  0  0  0  0  0  0  0  0
   -4.5977    2.8040    1.2305 H   0  0  0  0  0  0  0  0  0  0  0  0
   -4.6278    0.6989    2.5546 H   0  0  0  0  0  0  0  0  0  0  0  0
   -6.2219   -1.1840    2.6104 H   0  0  0  0  0  0  0  0  0  0  0  0
   -6.3706   -2.6768    0.6087 H   0  0  0  0  0  0  0  0  0  0  0  0
   -4.8944   -1.0410   -2.8874 H   0  0  0  0  0  0  0  0  0  0  0  0
   -3.4576   -0.5938   -3.7542 H   0  0  0  0  0  0  0  0  0  0  0  0
   -2.3653   -2.7782   -3.2110 H   0  0  0  0  0  0  0  0  0  0  0  0
   -3.8178   -3.2896   -2.3313 H   0  0  0  0  0  0  0  0  0  0  0  0
   -3.7384   -4.0099   -4.4983 H   0  0  0  0  0  0  0  0  0  0  0  0
  1  2  1  0
  2  3  1  0
  3  4  1  0
  4  5  2  0
  4  6  1  0
  6  7  1  0
  7  8  1  0
  8  9  1  0
  8 10  1  0
  8 11  1  0
  2 12  1  0
 12 13  2  0
 12 14  1  0
 14 15  1  0
 15 16  1  0
 16 17  2  0
 17 18  1  0
 18 19  2  0
 19 20  1  0
 20 21  2  0
 21 22  1  0
 22 23  2  0
 23 24  1  0
 24 25  2  0
 25 26  1  0
 26 27  2  0
 27 28  1  0
 28 29  1  0
 29 30  1  0
 30 31  1  0
 28 32  1  0
 32 33  2  0
 32 15  1  0
 21 16  1  0
 27 22  1  0
  1 34  1  0
  1 35  1  0
  1 36  1  0
  2 37  1  6
  3 38  1  0
  6 39  1  0
  6 40  1  0
  7 41  1  0
  7 42  1  0
 14 43  1  0
 15 44  1  1
 17 45  1  0
 18 46  1  0
 19 47  1  0
 20 48  1  0
 23 49  1  0
 24 50  1  0
 25 51  1  0
 29 52  1  0
 29 53  1  0
 30 54  1  0
 30 55  1  0
 31 56  1  0
M  END
>  <CID>  (38) 
20

>  <Energy>  (38) 
50.38178006845962

$$$$

     RDKit          3D

 56 58  0  0  0  0  0  0  0  0999 V2000
    2.8385   -2.8722    1.4615 C   0  0  0  0  0  0  0  0  0  0  0  0
    2.6841   -1.4241    1.0241 C   0  0  2  0  0  0  0  0  0  0  0  0
    3.5184   -0.5385    1.8249 N   0  0  0  0  0  0  0  0  0  0  0  0
    4.0415    0.6133    1.2924 C   0  0  0  0  0  0  0  0  0  0  0  0
    3.8915    0.9488    0.1220 O   0  0  0  0  0  0  0  0  0  0  0  0
    4.7955    1.4650    2.2916 C   0  0  0  0  0  0  0  0  0  0  0  0
    5.9855    2.1684    1.6480 C   0  0  0  0  0  0  0  0  0  0  0  0
    7.1044    1.2032    1.3236 C   0  0  0  0  0  0  0  0  0  0  0  0
    8.1535    1.8593    0.7812 F   0  0  0  0  0  0  0  0  0  0  0  0
    6.7299    0.2418    0.4603 F   0  0  0  0  0  0  0  0  0  0  0  0
    7.5469    0.5945    2.4476 F   0  0  0  0  0  0  0  0  0  0  0  0
    1.2208   -0.9835    1.1982 C   0  0  0  0  0  0  0  0  0  0  0  0
    0.7618   -0.6355    2.2857 O   0  0  0  0  0  0  0  0  0  0  0  0
    0.4707   -1.0483    0.0515 N   0  0  0  0  0  0  0  0  0  0  0  0
   -0.9324   -0.6537    0.0021 C   0  0  1  0  0  0  0  0  0  0  0  0
   -1.1472    0.8168   -0.2831 C   0  0  0  0  0  0  0  0  0  0  0  0
   -0.0981    1.6759   -0.6621 C   0  0  0  0  0  0  0  0  0  0  0  0
   -0.3471    3.0082   -0.9863 C   0  0  0  0  0  0  0  0  0  0  0  0
   -1.6454    3.4974   -0.9506 C   0  0  0  0  0  0  0  0  0  0  0  0
   -2.6923    2.6550   -0.5769 C   0  0  0  0  0  0  0  0  0  0  0  0
   -2.4678    1.3078   -0.2238 C   0  0  0  0  0  0  0  0  0  0  0  0
   -3.5984    0.4518    0.2070 C   0  0  0  0  0  0  0  0  0  0  0  0
   -4.5218    0.9769    1.1362 C   0  0  0  0  0  0  0  0  0  0  0  0
   -5.6505    0.2635    1.5164 C   0  0  0  0  0  0  0  0  0  0  0  0
   -5.8403   -0.9758    0.9522 C   0  0  0  0  0  0  0  0  0  0  0  0
   -4.9783   -1.5346    0.0818 N   0  0  0  0  0  0  0  0  0  0  0  0
   -3.8582   -0.8492   -0.2752 C   0  0  0  0  0  0  0  0  0  0  0  0
   -2.9790   -1.5552   -1.1488 N   0  0  0  0  0  0  0  0  0  0  0  0
   -3.5884   -2.4626   -2.1317 C   0  0  0  0  0  0  0  0  0  0  0  0
   -3.6841   -1.8175   -3.5211 C   0  0  0  0  0  0  0  0  0  0  0  0
   -4.6183   -0.7425   -3.5174 O   0  0  0  0  0  0  0  0  0  0  0  0
   -1.5938   -1.4590   -1.1361 C   0  0  0  0  0  0  0  0  0  0  0  0
   -0.8893   -2.0183   -1.9899 O   0  0  0  0  0  0  0  0  0  0  0  0
    2.2096   -3.5307    0.8524 H   0  0  0  0  0  0  0  0  0  0  0  0
    2.5441   -3.0091    2.5080 H   0  0  0  0  0  0  0  0  0  0  0  0
    3.8787   -3.1982    1.3634 H   0  0  0  0  0  0  0  0  0  0  0  0
    2.9696   -1.3302   -0.0294 H   0  0  0  0  0  0  0  0  0  0  0  0
    3.4799   -0.6488    2.8315 H   0  0  0  0  0  0  0  0  0  0  0  0
    4.0886    2.2146    2.6673 H   0  0  0  0  0  0  0  0  0  0  0  0
    5.1212    0.8642    3.1487 H   0  0  0  0  0  0  0  0  0  0  0  0
    5.6827    2.7004    0.7391 H   0  0  0  0  0  0  0  0  0  0  0  0
    6.3668    2.9237    2.3451 H   0  0  0  0  0  0  0  0  0  0  0  0
    0.8709   -1.3791   -0.8214 H   0  0  0  0  0  0  0  0  0  0  0  0
   -1.3774   -0.9294    0.9642 H   0  0  0  0  0  0  0  0  0  0  0  0
    0.9289    1.3190   -0.7174 H   0  0  0  0  0  0  0  0  0  0  0  0
    0.4744    3.6568   -1.2768 H   0  0  0  0  0  0  0  0  0  0  0  0
   -1.8462    4.5323   -1.2153 H   0  0  0  0  0  0  0  0  0  0  0  0
   -3.7019    3.0625   -0.5735 H   0  0  0  0  0  0  0  0  0  0  0  0
   -4.3630    1.9621    1.5702 H   0  0  0  0  0  0  0  0  0  0  0  0
   -6.3624    0.6706    2.2239 H   0  0  0  0  0  0  0  0  0  0  0  0
   -6.7104   -1.5780    1.1938 H   0  0  0  0  0  0  0  0  0  0  0  0
   -2.9597   -3.3581   -2.2033 H   0  0  0  0  0  0  0  0  0  0  0  0
   -4.5810   -2.7984   -1.8137 H   0  0  0  0  0  0  0  0  0  0  0  0
   -4.0290   -2.5586   -4.2491 H   0  0  0  0  0  0  0  0  0  0  0  0
   -2.7141   -1.4289   -3.8523 H   0  0  0  0  0  0  0  0  0  0  0  0
   -4.5828   -0.3357   -4.3997 H   0  0  0  0  0  0  0  0  0  0  0  0
  1  2  1  0
  2  3  1  0
  3  4  1  0
  4  5  2  0
  4  6  1  0
  6  7  1  0
  7  8  1  0
  8  9  1  0
  8 10  1  0
  8 11  1  0
  2 12  1  0
 12 13  2  0
 12 14  1  0
 14 15  1  0
 15 16  1  0
 16 17  2  0
 17 18  1  0
 18 19  2  0
 19 20  1  0
 20 21  2  0
 21 22  1  0
 22 23  2  0
 23 24  1  0
 24 25  2  0
 25 26  1  0
 26 27  2  0
 27 28  1  0
 28 29  1  0
 29 30  1  0
 30 31  1  0
 28 32  1  0
 32 33  2  0
 32 15  1  0
 21 16  1  0
 27 22  1  0
  1 34  1  0
  1 35  1  0
  1 36  1  0
  2 37  1  6
  3 38  1  0
  6 39  1  0
  6 40  1  0
  7 41  1  0
  7 42  1  0
 14 43  1  0
 15 44  1  1
 17 45  1  0
 18 46  1  0
 19 47  1  0
 20 48  1  0
 23 49  1  0
 24 50  1  0
 25 51  1  0
 29 52  1  0
 29 53  1  0
 30 54  1  0
 30 55  1  0
 31 56  1  0
M  END
>  <CID>  (39) 
49

>  <Energy>  (39) 
50.43209043055036

$$$$

     RDKit          3D

 56 58  0  0  0  0  0  0  0  0999 V2000
    2.9573   -1.5550   -1.1009 C   0  0  0  0  0  0  0  0  0  0  0  0
    2.6904   -0.3135   -0.2589 C   0  0  2  0  0  0  0  0  0  0  0  0
    3.5563   -0.2702    0.9117 N   0  0  0  0  0  0  0  0  0  0  0  0
    4.8526    0.1725    0.8546 C   0  0  0  0  0  0  0  0  0  0  0  0
    5.3860    0.5605   -0.1782 O   0  0  0  0  0  0  0  0  0  0  0  0
    5.5560    0.1298    2.1929 C   0  0  0  0  0  0  0  0  0  0  0  0
    6.9811    0.6606    2.0960 C   0  0  0  0  0  0  0  0  0  0  0  0
    7.6786    0.5845    3.4295 C   0  0  0  0  0  0  0  0  0  0  0  0
    8.9370    1.0655    3.3440 F   0  0  0  0  0  0  0  0  0  0  0  0
    7.7548   -0.6905    3.8689 F   0  0  0  0  0  0  0  0  0  0  0  0
    7.0246    1.3056    4.3652 F   0  0  0  0  0  0  0  0  0  0  0  0
    1.2333   -0.3095    0.2336 C   0  0  0  0  0  0  0  0  0  0  0  0
    0.9321   -0.5953    1.3921 O   0  0  0  0  0  0  0  0  0  0  0  0
    0.3061    0.0175   -0.7220 N   0  0  0  0  0  0  0  0  0  0  0  0
   -1.1273    0.0569   -0.4498 C   0  0  1  0  0  0  0  0  0  0  0  0
   -1.6235    1.3952    0.0490 C   0  0  0  0  0  0  0  0  0  0  0  0
   -0.8202    2.5521    0.0376 C   0  0  0  0  0  0  0  0  0  0  0  0
   -1.3302    3.7824    0.4471 C   0  0  0  0  0  0  0  0  0  0  0  0
   -2.6515    3.8776    0.8601 C   0  0  0  0  0  0  0  0  0  0  0  0
   -3.4579    2.7389    0.8718 C   0  0  0  0  0  0  0  0  0  0  0  0
   -2.9635    1.4773    0.4781 C   0  0  0  0  0  0  0  0  0  0  0  0
   -3.8442    0.2854    0.5216 C   0  0  0  0  0  0  0  0  0  0  0  0
   -4.6514    0.0855    1.6619 C   0  0  0  0  0  0  0  0  0  0  0  0
   -5.5775   -0.9482    1.7202 C   0  0  0  0  0  0  0  0  0  0  0  0
   -5.6902   -1.7671    0.6213 C   0  0  0  0  0  0  0  0  0  0  0  0
   -4.9316   -1.6331   -0.4852 N   0  0  0  0  0  0  0  0  0  0  0  0
   -3.9900   -0.6499   -0.5250 C   0  0  0  0  0  0  0  0  0  0  0  0
   -3.1905   -0.6462   -1.7068 N   0  0  0  0  0  0  0  0  0  0  0  0
   -3.7954   -1.2151   -2.9137 C   0  0  0  0  0  0  0  0  0  0  0  0
   -3.4735   -2.7002   -3.1022 C   0  0  0  0  0  0  0  0  0  0  0  0
   -4.2440   -3.2507   -4.1680 O   0  0  0  0  0  0  0  0  0  0  0  0
   -1.8549   -0.2690   -1.7716 C   0  0  0  0  0  0  0  0  0  0  0  0
   -1.2302   -0.2356   -2.8413 O   0  0  0  0  0  0  0  0  0  0  0  0
    2.7753   -2.4689   -0.5236 H   0  0  0  0  0  0  0  0  0  0  0  0
    2.3066   -1.5849   -1.9810 H   0  0  0  0  0  0  0  0  0  0  0  0
    3.9957   -1.5824   -1.4472 H   0  0  0  0  0  0  0  0  0  0  0  0
    2.8651    0.5896   -0.8555 H   0  0  0  0  0  0  0  0  0  0  0  0
    3.1366   -0.5435    1.7966 H   0  0  0  0  0  0  0  0  0  0  0  0
    4.9757    0.7266    2.9069 H   0  0  0  0  0  0  0  0  0  0  0  0
    5.5589   -0.9094    2.5432 H   0  0  0  0  0  0  0  0  0  0  0  0
    6.9718    1.7004    1.7473 H   0  0  0  0  0  0  0  0  0  0  0  0
    7.5491    0.0836    1.3573 H   0  0  0  0  0  0  0  0  0  0  0  0
    0.5794    0.1745   -1.6884 H   0  0  0  0  0  0  0  0  0  0  0  0
   -1.3329   -0.7295    0.2868 H   0  0  0  0  0  0  0  0  0  0  0  0
    0.2133    2.5126   -0.2984 H   0  0  0  0  0  0  0  0  0  0  0  0
   -0.6973    4.6662    0.4326 H   0  0  0  0  0  0  0  0  0  0  0  0
   -3.0585    4.8373    1.1686 H   0  0  0  0  0  0  0  0  0  0  0  0
   -4.4952    2.8514    1.1840 H   0  0  0  0  0  0  0  0  0  0  0  0
   -4.5619    0.7487    2.5213 H   0  0  0  0  0  0  0  0  0  0  0  0
   -6.1996   -1.0974    2.5955 H   0  0  0  0  0  0  0  0  0  0  0  0
   -6.4077   -2.5823    0.5992 H   0  0  0  0  0  0  0  0  0  0  0  0
   -3.4306   -0.6660   -3.7917 H   0  0  0  0  0  0  0  0  0  0  0  0
   -4.8796   -1.0443   -2.9126 H   0  0  0  0  0  0  0  0  0  0  0  0
   -2.4146   -2.8355   -3.3447 H   0  0  0  0  0  0  0  0  0  0  0  0
   -3.6779   -3.2831   -2.1991 H   0  0  0  0  0  0  0  0  0  0  0  0
   -5.1706   -3.2624   -3.8692 H   0  0  0  0  0  0  0  0  0  0  0  0
  1  2  1  0
  2  3  1  0
  3  4  1  0
  4  5  2  0
  4  6  1  0
  6  7  1  0
  7  8  1  0
  8  9  1  0
  8 10  1  0
  8 11  1  0
  2 12  1  0
 12 13  2  0
 12 14  1  0
 14 15  1  0
 15 16  1  0
 16 17  2  0
 17 18  1  0
 18 19  2  0
 19 20  1  0
 20 21  2  0
 21 22  1  0
 22 23  2  0
 23 24  1  0
 24 25  2  0
 25 26  1  0
 26 27  2  0
 27 28  1  0
 28 29  1  0
 29 30  1  0
 30 31  1  0
 28 32  1  0
 32 33  2  0
 32 15  1  0
 21 16  1  0
 27 22  1  0
  1 34  1  0
  1 35  1  0
  1 36  1  0
  2 37  1  6
  3 38  1  0
  6 39  1  0
  6 40  1  0
  7 41  1  0
  7 42  1  0
 14 43  1  0
 15 44  1  1
 17 45  1  0
 18 46  1  0
 19 47  1  0
 20 48  1  0
 23 49  1  0
 24 50  1  0
 25 51  1  0
 29 52  1  0
 29 53  1  0
 30 54  1  0
 30 55  1  0
 31 56  1  0
M  END
>  <CID>  (40) 
36

>  <Energy>  (40) 
50.51607978179212

$$$$

     RDKit          3D

 56 58  0  0  0  0  0  0  0  0999 V2000
    2.9545   -1.5859   -1.0838 C   0  0  0  0  0  0  0  0  0  0  0  0
    2.6941   -0.3328   -0.2565 C   0  0  2  0  0  0  0  0  0  0  0  0
    3.5515   -0.2842    0.9206 N   0  0  0  0  0  0  0  0  0  0  0  0
    4.8543    0.1392    0.8691 C   0  0  0  0  0  0  0  0  0  0  0  0
    5.4053    0.4976   -0.1650 O   0  0  0  0  0  0  0  0  0  0  0  0
    5.5410    0.1149    2.2160 C   0  0  0  0  0  0  0  0  0  0  0  0
    6.9660    0.6488    2.1307 C   0  0  0  0  0  0  0  0  0  0  0  0
    7.6368    0.6188    3.4799 C   0  0  0  0  0  0  0  0  0  0  0  0
    8.8967    1.0980    3.4028 F   0  0  0  0  0  0  0  0  0  0  0  0
    7.7041   -0.6405    3.9642 F   0  0  0  0  0  0  0  0  0  0  0  0
    6.9644    1.3718    4.3773 F   0  0  0  0  0  0  0  0  0  0  0  0
    1.2343   -0.3092    0.2274 C   0  0  0  0  0  0  0  0  0  0  0  0
    0.9257   -0.5707    1.3896 O   0  0  0  0  0  0  0  0  0  0  0  0
    0.3133    0.0078   -0.7376 N   0  0  0  0  0  0  0  0  0  0  0  0
   -1.1207    0.0576   -0.4703 C   0  0  1  0  0  0  0  0  0  0  0  0
   -1.6108    1.4007    0.0211 C   0  0  0  0  0  0  0  0  0  0  0  0
   -0.8043    2.5550   -0.0006 C   0  0  0  0  0  0  0  0  0  0  0  0
   -1.3075    3.7874    0.4085 C   0  0  0  0  0  0  0  0  0  0  0  0
   -2.6253    3.8877    0.8311 C   0  0  0  0  0  0  0  0  0  0  0  0
   -3.4358    2.7523    0.8500 C   0  0  0  0  0  0  0  0  0  0  0  0
   -2.9486    1.4886    0.4558 C   0  0  0  0  0  0  0  0  0  0  0  0
   -3.8336    0.3003    0.5047 C   0  0  0  0  0  0  0  0  0  0  0  0
   -4.6381    0.1058    1.6477 C   0  0  0  0  0  0  0  0  0  0  0  0
   -5.5692   -0.9231    1.7107 C   0  0  0  0  0  0  0  0  0  0  0  0
   -5.6892   -1.7431    0.6137 C   0  0  0  0  0  0  0  0  0  0  0  0
   -4.9317   -1.6159   -0.4943 N   0  0  0  0  0  0  0  0  0  0  0  0
   -3.9858   -0.6371   -0.5390 C   0  0  0  0  0  0  0  0  0  0  0  0
   -3.1874   -0.6426   -1.7217 N   0  0  0  0  0  0  0  0  0  0  0  0
   -3.7959   -1.2170   -2.9243 C   0  0  0  0  0  0  0  0  0  0  0  0
   -3.4750   -2.7036   -3.1048 C   0  0  0  0  0  0  0  0  0  0  0  0
   -4.2734   -3.2679   -4.1423 O   0  0  0  0  0  0  0  0  0  0  0  0
   -1.8499   -0.2732   -1.7895 C   0  0  0  0  0  0  0  0  0  0  0  0
   -1.2248   -0.2517   -2.8594 O   0  0  0  0  0  0  0  0  0  0  0  0
    3.9931   -1.6236   -1.4284 H   0  0  0  0  0  0  0  0  0  0  0  0
    2.7660   -2.4922   -0.4967 H   0  0  0  0  0  0  0  0  0  0  0  0
    2.3052   -1.6215   -1.9649 H   0  0  0  0  0  0  0  0  0  0  0  0
    2.8811    0.5623   -0.8616 H   0  0  0  0  0  0  0  0  0  0  0  0
    3.1172   -0.5250    1.8072 H   0  0  0  0  0  0  0  0  0  0  0  0
    4.9498    0.7174    2.9159 H   0  0  0  0  0  0  0  0  0  0  0  0
    5.5433   -0.9203    2.5774 H   0  0  0  0  0  0  0  0  0  0  0  0
    7.5499    0.0496    1.4224 H   0  0  0  0  0  0  0  0  0  0  0  0
    6.9606    1.6764    1.7488 H   0  0  0  0  0  0  0  0  0  0  0  0
    0.5912    0.1499   -1.7048 H   0  0  0  0  0  0  0  0  0  0  0  0
   -1.3313   -0.7232    0.2707 H   0  0  0  0  0  0  0  0  0  0  0  0
    0.2266    2.5107   -0.3431 H   0  0  0  0  0  0  0  0  0  0  0  0
   -0.6718    4.6690    0.3879 H   0  0  0  0  0  0  0  0  0  0  0  0
   -3.0263    4.8485    1.1423 H   0  0  0  0  0  0  0  0  0  0  0  0
   -4.4704    2.8688    1.1691 H   0  0  0  0  0  0  0  0  0  0  0  0
   -4.5427    0.7697    2.5058 H   0  0  0  0  0  0  0  0  0  0  0  0
   -6.1902   -1.0668    2.5879 H   0  0  0  0  0  0  0  0  0  0  0  0
   -6.4116   -2.5543    0.5942 H   0  0  0  0  0  0  0  0  0  0  0  0
   -3.4325   -0.6730   -3.8057 H   0  0  0  0  0  0  0  0  0  0  0  0
   -4.8801   -1.0450   -2.9213 H   0  0  0  0  0  0  0  0  0  0  0  0
   -2.4227   -2.8380   -3.3750 H   0  0  0  0  0  0  0  0  0  0  0  0
   -3.6524   -3.2776   -2.1898 H   0  0  0  0  0  0  0  0  0  0  0  0
   -5.1873   -3.2953   -3.8091 H   0  0  0  0  0  0  0  0  0  0  0  0
  1  2  1  0
  2  3  1  0
  3  4  1  0
  4  5  2  0
  4  6  1  0
  6  7  1  0
  7  8  1  0
  8  9  1  0
  8 10  1  0
  8 11  1  0
  2 12  1  0
 12 13  2  0
 12 14  1  0
 14 15  1  0
 15 16  1  0
 16 17  2  0
 17 18  1  0
 18 19  2  0
 19 20  1  0
 20 21  2  0
 21 22  1  0
 22 23  2  0
 23 24  1  0
 24 25  2  0
 25 26  1  0
 26 27  2  0
 27 28  1  0
 28 29  1  0
 29 30  1  0
 30 31  1  0
 28 32  1  0
 32 33  2  0
 32 15  1  0
 21 16  1  0
 27 22  1  0
  1 34  1  0
  1 35  1  0
  1 36  1  0
  2 37  1  6
  3 38  1  0
  6 39  1  0
  6 40  1  0
  7 41  1  0
  7 42  1  0
 14 43  1  0
 15 44  1  1
 17 45  1  0
 18 46  1  0
 19 47  1  0
 20 48  1  0
 23 49  1  0
 24 50  1  0
 25 51  1  0
 29 52  1  0
 29 53  1  0
 30 54  1  0
 30 55  1  0
 31 56  1  0
M  END
>  <CID>  (41) 
69

>  <Energy>  (41) 
50.52564648445918

$$$$

     RDKit          3D

 56 58  0  0  0  0  0  0  0  0999 V2000
    2.9399   -1.1968   -1.2743 C   0  0  0  0  0  0  0  0  0  0  0  0
    2.6572   -0.0843   -0.2710 C   0  0  2  0  0  0  0  0  0  0  0  0
    3.5280   -0.1879    0.8930 N   0  0  0  0  0  0  0  0  0  0  0  0
    4.8283    0.2476    0.8861 C   0  0  0  0  0  0  0  0  0  0  0  0
    5.3614    0.7591   -0.0910 O   0  0  0  0  0  0  0  0  0  0  0  0
    5.5348    0.0308    2.2054 C   0  0  0  0  0  0  0  0  0  0  0  0
    6.9939    0.4644    2.1423 C   0  0  0  0  0  0  0  0  0  0  0  0
    7.7067    0.1544    3.4342 C   0  0  0  0  0  0  0  0  0  0  0  0
    8.9956    0.5502    3.3799 F   0  0  0  0  0  0  0  0  0  0  0  0
    7.1244    0.7826    4.4781 F   0  0  0  0  0  0  0  0  0  0  0  0
    7.6968   -1.1727    3.6919 F   0  0  0  0  0  0  0  0  0  0  0  0
    1.2024   -0.1636    0.2263 C   0  0  0  0  0  0  0  0  0  0  0  0
    0.9200   -0.5110    1.3715 O   0  0  0  0  0  0  0  0  0  0  0  0
    0.2550    0.1745   -0.7033 N   0  0  0  0  0  0  0  0  0  0  0  0
   -1.1765    0.1359   -0.4190 C   0  0  1  0  0  0  0  0  0  0  0  0
   -1.7355    1.4391    0.1028 C   0  0  0  0  0  0  0  0  0  0  0  0
   -0.9929    2.6358    0.1006 C   0  0  0  0  0  0  0  0  0  0  0  0
   -1.5582    3.8303    0.5425 C   0  0  0  0  0  0  0  0  0  0  0  0
   -2.8754    3.8498    0.9793 C   0  0  0  0  0  0  0  0  0  0  0  0
   -3.6231    2.6710    0.9782 C   0  0  0  0  0  0  0  0  0  0  0  0
   -3.0717    1.4442    0.5517 C   0  0  0  0  0  0  0  0  0  0  0  0
   -3.8882    0.2081    0.5870 C   0  0  0  0  0  0  0  0  0  0  0  0
   -4.6678   -0.0536    1.7341 C   0  0  0  0  0  0  0  0  0  0  0  0
   -5.5351   -1.1362    1.7876 C   0  0  0  0  0  0  0  0  0  0  0  0
   -5.6158   -1.9424    0.6783 C   0  0  0  0  0  0  0  0  0  0  0  0
   -4.8789   -1.7491   -0.4336 N   0  0  0  0  0  0  0  0  0  0  0  0
   -3.9975   -0.7157   -0.4718 C   0  0  0  0  0  0  0  0  0  0  0  0
   -3.2170   -0.6493   -1.6628 N   0  0  0  0  0  0  0  0  0  0  0  0
   -3.8084   -1.2171   -2.8767 C   0  0  0  0  0  0  0  0  0  0  0  0
   -3.4093   -2.6762   -3.1175 C   0  0  0  0  0  0  0  0  0  0  0  0
   -3.8352   -3.1108   -4.4075 O   0  0  0  0  0  0  0  0  0  0  0  0
   -1.9004   -0.2125   -1.7364 C   0  0  0  0  0  0  0  0  0  0  0  0
   -1.2884   -0.1483   -2.8150 O   0  0  0  0  0  0  0  0  0  0  0  0
    2.7563   -2.1820   -0.8307 H   0  0  0  0  0  0  0  0  0  0  0  0
    3.9817   -1.1730   -1.6105 H   0  0  0  0  0  0  0  0  0  0  0  0
    2.3001   -1.1077   -2.1578 H   0  0  0  0  0  0  0  0  0  0  0  0
    2.8167    0.8946   -0.7383 H   0  0  0  0  0  0  0  0  0  0  0  0
    3.1058   -0.5526    1.7454 H   0  0  0  0  0  0  0  0  0  0  0  0
    5.4624   -1.0324    2.4614 H   0  0  0  0  0  0  0  0  0  0  0  0
    5.0043    0.6006    2.9761 H   0  0  0  0  0  0  0  0  0  0  0  0
    7.5053   -0.0452    1.3165 H   0  0  0  0  0  0  0  0  0  0  0  0
    7.0555    1.5400    1.9378 H   0  0  0  0  0  0  0  0  0  0  0  0
    0.5121    0.3840   -1.6635 H   0  0  0  0  0  0  0  0  0  0  0  0
   -1.3358   -0.6681    0.3088 H   0  0  0  0  0  0  0  0  0  0  0  0
    0.0366    2.6556   -0.2489 H   0  0  0  0  0  0  0  0  0  0  0  0
   -0.9712    4.7459    0.5386 H   0  0  0  0  0  0  0  0  0  0  0  0
   -3.3243    4.7809    1.3188 H   0  0  0  0  0  0  0  0  0  0  0  0
   -4.6594    2.7244    1.3095 H   0  0  0  0  0  0  0  0  0  0  0  0
   -4.6033    0.5982    2.6035 H   0  0  0  0  0  0  0  0  0  0  0  0
   -6.1369   -1.3333    2.6677 H   0  0  0  0  0  0  0  0  0  0  0  0
   -6.2868   -2.7953    0.6494 H   0  0  0  0  0  0  0  0  0  0  0  0
   -4.9001   -1.1085   -2.8643 H   0  0  0  0  0  0  0  0  0  0  0  0
   -3.4815   -0.6177   -3.7371 H   0  0  0  0  0  0  0  0  0  0  0  0
   -3.8642   -3.3345   -2.3724 H   0  0  0  0  0  0  0  0  0  0  0  0
   -2.3244   -2.8118   -3.0559 H   0  0  0  0  0  0  0  0  0  0  0  0
   -3.3181   -2.6125   -5.0639 H   0  0  0  0  0  0  0  0  0  0  0  0
  1  2  1  0
  2  3  1  0
  3  4  1  0
  4  5  2  0
  4  6  1  0
  6  7  1  0
  7  8  1  0
  8  9  1  0
  8 10  1  0
  8 11  1  0
  2 12  1  0
 12 13  2  0
 12 14  1  0
 14 15  1  0
 15 16  1  0
 16 17  2  0
 17 18  1  0
 18 19  2  0
 19 20  1  0
 20 21  2  0
 21 22  1  0
 22 23  2  0
 23 24  1  0
 24 25  2  0
 25 26  1  0
 26 27  2  0
 27 28  1  0
 28 29  1  0
 29 30  1  0
 30 31  1  0
 28 32  1  0
 32 33  2  0
 32 15  1  0
 21 16  1  0
 27 22  1  0
  1 34  1  0
  1 35  1  0
  1 36  1  0
  2 37  1  6
  3 38  1  0
  6 39  1  0
  6 40  1  0
  7 41  1  0
  7 42  1  0
 14 43  1  0
 15 44  1  1
 17 45  1  0
 18 46  1  0
 19 47  1  0
 20 48  1  0
 23 49  1  0
 24 50  1  0
 25 51  1  0
 29 52  1  0
 29 53  1  0
 30 54  1  0
 30 55  1  0
 31 56  1  0
M  END
>  <CID>  (42) 
72

>  <Energy>  (42) 
50.67172736457103

$$$$

     RDKit          3D

 56 58  0  0  0  0  0  0  0  0999 V2000
    1.7561    2.5581    0.2729 C   0  0  0  0  0  0  0  0  0  0  0  0
    1.9544    1.8734    1.6219 C   0  0  2  0  0  0  0  0  0  0  0  0
    3.0900    0.9503    1.6495 N   0  0  0  0  0  0  0  0  0  0  0  0
    3.2242   -0.1290    0.8110 C   0  0  0  0  0  0  0  0  0  0  0  0
    2.3666   -0.4690    0.0049 O   0  0  0  0  0  0  0  0  0  0  0  0
    4.5014   -0.9083    1.0238 C   0  0  0  0  0  0  0  0  0  0  0  0
    4.8805   -1.7389   -0.1928 C   0  0  0  0  0  0  0  0  0  0  0  0
    5.4011   -0.8777   -1.3243 C   0  0  0  0  0  0  0  0  0  0  0  0
    5.7870   -1.6479   -2.3626 F   0  0  0  0  0  0  0  0  0  0  0  0
    4.4865   -0.0015   -1.7787 F   0  0  0  0  0  0  0  0  0  0  0  0
    6.4808   -0.1668   -0.9244 F   0  0  0  0  0  0  0  0  0  0  0  0
    0.6745    1.2016    2.1589 C   0  0  0  0  0  0  0  0  0  0  0  0
    0.2540    1.4281    3.2911 O   0  0  0  0  0  0  0  0  0  0  0  0
    0.0937    0.2985    1.3065 N   0  0  0  0  0  0  0  0  0  0  0  0
   -1.0735   -0.4919    1.6627 C   0  0  1  0  0  0  0  0  0  0  0  0
   -2.3470    0.3114    1.7364 C   0  0  0  0  0  0  0  0  0  0  0  0
   -3.0470    0.3802    2.9587 C   0  0  0  0  0  0  0  0  0  0  0  0
   -4.2758    1.0283    3.0435 C   0  0  0  0  0  0  0  0  0  0  0  0
   -4.8216    1.6092    1.9084 C   0  0  0  0  0  0  0  0  0  0  0  0
   -4.1260    1.5569    0.6973 C   0  0  0  0  0  0  0  0  0  0  0  0
   -2.8671    0.9272    0.5868 C   0  0  0  0  0  0  0  0  0  0  0  0
   -2.1324    0.9509   -0.6991 C   0  0  0  0  0  0  0  0  0  0  0  0
   -2.1008    2.1661   -1.4204 C   0  0  0  0  0  0  0  0  0  0  0  0
   -1.5188    2.2523   -2.6787 C   0  0  0  0  0  0  0  0  0  0  0  0
   -0.9831    1.1058   -3.2075 C   0  0  0  0  0  0  0  0  0  0  0  0
   -0.9668   -0.0713   -2.5540 N   0  0  0  0  0  0  0  0  0  0  0  0
   -1.4862   -0.1496   -1.2968 C   0  0  0  0  0  0  0  0  0  0  0  0
   -1.3254   -1.4242   -0.6737 N   0  0  0  0  0  0  0  0  0  0  0  0
   -1.2262   -2.5897   -1.5631 C   0  0  0  0  0  0  0  0  0  0  0  0
   -2.6091   -3.1209   -1.9590 C   0  0  0  0  0  0  0  0  0  0  0  0
   -3.3723   -3.5580   -0.8352 O   0  0  0  0  0  0  0  0  0  0  0  0
   -1.2919   -1.6704    0.6939 C   0  0  0  0  0  0  0  0  0  0  0  0
   -1.4555   -2.8170    1.1378 O   0  0  0  0  0  0  0  0  0  0  0  0
    0.9505    3.2962    0.3324 H   0  0  0  0  0  0  0  0  0  0  0  0
    1.4924    1.8584   -0.5260 H   0  0  0  0  0  0  0  0  0  0  0  0
    2.6717    3.0740   -0.0340 H   0  0  0  0  0  0  0  0  0  0  0  0
    2.2097    2.6576    2.3478 H   0  0  0  0  0  0  0  0  0  0  0  0
    3.7931    1.1181    2.3561 H   0  0  0  0  0  0  0  0  0  0  0  0
    4.3287   -1.5699    1.8825 H   0  0  0  0  0  0  0  0  0  0  0  0
    5.3145   -0.2263    1.2930 H   0  0  0  0  0  0  0  0  0  0  0  0
    5.6615   -2.4496    0.0921 H   0  0  0  0  0  0  0  0  0  0  0  0
    4.0270   -2.3306   -0.5442 H   0  0  0  0  0  0  0  0  0  0  0  0
    0.6380    0.0087    0.4898 H   0  0  0  0  0  0  0  0  0  0  0  0
   -0.8518   -0.9337    2.6426 H   0  0  0  0  0  0  0  0  0  0  0  0
   -2.6325   -0.0815    3.8536 H   0  0  0  0  0  0  0  0  0  0  0  0
   -4.8079    1.0686    3.9924 H   0  0  0  0  0  0  0  0  0  0  0  0
   -5.7881    2.1036    1.9607 H   0  0  0  0  0  0  0  0  0  0  0  0
   -4.5897    2.0134   -0.1765 H   0  0  0  0  0  0  0  0  0  0  0  0
   -2.5406    3.0666   -0.9949 H   0  0  0  0  0  0  0  0  0  0  0  0
   -1.5021    3.1848   -3.2298 H   0  0  0  0  0  0  0  0  0  0  0  0
   -0.5302    1.0979   -4.1953 H   0  0  0  0  0  0  0  0  0  0  0  0
   -0.6797   -3.3839   -1.0390 H   0  0  0  0  0  0  0  0  0  0  0  0
   -0.6330   -2.3621   -2.4553 H   0  0  0  0  0  0  0  0  0  0  0  0
   -2.4935   -3.9759   -2.6322 H   0  0  0  0  0  0  0  0  0  0  0  0
   -3.1931   -2.3559   -2.4815 H   0  0  0  0  0  0  0  0  0  0  0  0
   -2.7697   -3.6446   -0.0689 H   0  0  0  0  0  0  0  0  0  0  0  0
  1  2  1  0
  2  3  1  0
  3  4  1  0
  4  5  2  0
  4  6  1  0
  6  7  1  0
  7  8  1  0
  8  9  1  0
  8 10  1  0
  8 11  1  0
  2 12  1  0
 12 13  2  0
 12 14  1  0
 14 15  1  0
 15 16  1  0
 16 17  2  0
 17 18  1  0
 18 19  2  0
 19 20  1  0
 20 21  2  0
 21 22  1  0
 22 23  2  0
 23 24  1  0
 24 25  2  0
 25 26  1  0
 26 27  2  0
 27 28  1  0
 28 29  1  0
 29 30  1  0
 30 31  1  0
 28 32  1  0
 32 33  2  0
 32 15  1  0
 21 16  1  0
 27 22  1  0
  1 34  1  0
  1 35  1  0
  1 36  1  0
  2 37  1  1
  3 38  1  0
  6 39  1  0
  6 40  1  0
  7 41  1  0
  7 42  1  0
 14 43  1  0
 15 44  1  1
 17 45  1  0
 18 46  1  0
 19 47  1  0
 20 48  1  0
 23 49  1  0
 24 50  1  0
 25 51  1  0
 29 52  1  0
 29 53  1  0
 30 54  1  0
 30 55  1  0
 31 56  1  0
M  END
>  <CID>  (43) 
91

>  <Energy>  (43) 
50.82398716323353

$$$$

     RDKit          3D

 56 58  0  0  0  0  0  0  0  0999 V2000
    2.9083   -2.8614    0.9752 C   0  0  0  0  0  0  0  0  0  0  0  0
    2.7550   -1.3619    0.7683 C   0  0  2  0  0  0  0  0  0  0  0  0
    3.5839   -0.6184    1.7082 N   0  0  0  0  0  0  0  0  0  0  0  0
    4.1264    0.5994    1.3765 C   0  0  0  0  0  0  0  0  0  0  0  0
    4.0025    1.1208    0.2735 O   0  0  0  0  0  0  0  0  0  0  0  0
    4.8584    1.2656    2.5227 C   0  0  0  0  0  0  0  0  0  0  0  0
    5.9881    2.1710    2.0413 C   0  0  0  0  0  0  0  0  0  0  0  0
    7.1577    1.3780    1.4998 C   0  0  0  0  0  0  0  0  0  0  0  0
    7.6295    0.5210    2.4364 F   0  0  0  0  0  0  0  0  0  0  0  0
    8.1733    2.2071    1.1658 F   0  0  0  0  0  0  0  0  0  0  0  0
    6.8380    0.6571    0.4088 F   0  0  0  0  0  0  0  0  0  0  0  0
    1.2902   -0.9565    1.0010 C   0  0  0  0  0  0  0  0  0  0  0  0
    0.8404   -0.7196    2.1209 O   0  0  0  0  0  0  0  0  0  0  0  0
    0.5213   -0.9303   -0.1350 N   0  0  0  0  0  0  0  0  0  0  0  0
   -0.8890   -0.5617   -0.1195 C   0  0  1  0  0  0  0  0  0  0  0  0
   -1.1379    0.9249   -0.2531 C   0  0  0  0  0  0  0  0  0  0  0  0
   -0.1155    1.8366   -0.5816 C   0  0  0  0  0  0  0  0  0  0  0  0
   -0.3965    3.1854   -0.7740 C   0  0  0  0  0  0  0  0  0  0  0  0
   -1.7003    3.6439   -0.6478 C   0  0  0  0  0  0  0  0  0  0  0  0
   -2.7198    2.7507   -0.3202 C   0  0  0  0  0  0  0  0  0  0  0  0
   -2.4634    1.3792   -0.1072 C   0  0  0  0  0  0  0  0  0  0  0  0
   -3.5715    0.4613    0.2591 C   0  0  0  0  0  0  0  0  0  0  0  0
   -4.4942    0.8872    1.2393 C   0  0  0  0  0  0  0  0  0  0  0  0
   -5.6250    0.1383    1.5455 C   0  0  0  0  0  0  0  0  0  0  0  0
   -5.8219   -1.0303    0.8504 C   0  0  0  0  0  0  0  0  0  0  0  0
   -4.9599   -1.4939   -0.0747 N   0  0  0  0  0  0  0  0  0  0  0  0
   -3.8243   -0.7925   -0.3404 C   0  0  0  0  0  0  0  0  0  0  0  0
   -2.9468   -1.4254   -1.2746 N   0  0  0  0  0  0  0  0  0  0  0  0
   -3.5557   -2.3512   -2.2383 C   0  0  0  0  0  0  0  0  0  0  0  0
   -4.2612   -1.6184   -3.3841 C   0  0  0  0  0  0  0  0  0  0  0  0
   -4.7100   -2.5387   -4.3805 O   0  0  0  0  0  0  0  0  0  0  0  0
   -1.5681   -1.2686   -1.3146 C   0  0  0  0  0  0  0  0  0  0  0  0
   -0.8803   -1.7098   -2.2483 O   0  0  0  0  0  0  0  0  0  0  0  0
    3.9490   -3.1670    0.8272 H   0  0  0  0  0  0  0  0  0  0  0  0
    2.6168   -3.1569    1.9894 H   0  0  0  0  0  0  0  0  0  0  0  0
    2.2779   -3.4207    0.2733 H   0  0  0  0  0  0  0  0  0  0  0  0
    3.0449   -1.0998   -0.2544 H   0  0  0  0  0  0  0  0  0  0  0  0
    3.5248   -0.8828    2.6856 H   0  0  0  0  0  0  0  0  0  0  0  0
    4.1180    1.8643    3.0664 H   0  0  0  0  0  0  0  0  0  0  0  0
    5.2425    0.5106    3.2183 H   0  0  0  0  0  0  0  0  0  0  0  0
    6.3385    2.7767    2.8863 H   0  0  0  0  0  0  0  0  0  0  0  0
    5.6318    2.8693    1.2750 H   0  0  0  0  0  0  0  0  0  0  0  0
    0.9112   -1.1718   -1.0405 H   0  0  0  0  0  0  0  0  0  0  0  0
   -1.3068   -0.9418    0.8222 H   0  0  0  0  0  0  0  0  0  0  0  0
    0.9147    1.5069   -0.7031 H   0  0  0  0  0  0  0  0  0  0  0  0
    0.4039    3.8731   -1.0320 H   0  0  0  0  0  0  0  0  0  0  0  0
   -1.9274    4.6934   -0.8079 H   0  0  0  0  0  0  0  0  0  0  0  0
   -3.7340    3.1410   -0.2441 H   0  0  0  0  0  0  0  0  0  0  0  0
   -4.3352    1.8230    1.7722 H   0  0  0  0  0  0  0  0  0  0  0  0
   -6.3346    0.4698    2.2941 H   0  0  0  0  0  0  0  0  0  0  0  0
   -6.6973   -1.6528    1.0246 H   0  0  0  0  0  0  0  0  0  0  0  0
   -4.2425   -3.0451   -1.7372 H   0  0  0  0  0  0  0  0  0  0  0  0
   -2.7850   -3.0056   -2.6649 H   0  0  0  0  0  0  0  0  0  0  0  0
   -5.1338   -1.0701   -3.0166 H   0  0  0  0  0  0  0  0  0  0  0  0
   -3.5923   -0.8928   -3.8615 H   0  0  0  0  0  0  0  0  0  0  0  0
   -3.9171   -2.9097   -4.8099 H   0  0  0  0  0  0  0  0  0  0  0  0
  1  2  1  0
  2  3  1  0
  3  4  1  0
  4  5  2  0
  4  6  1  0
  6  7  1  0
  7  8  1  0
  8  9  1  0
  8 10  1  0
  8 11  1  0
  2 12  1  0
 12 13  2  0
 12 14  1  0
 14 15  1  0
 15 16  1  0
 16 17  2  0
 17 18  1  0
 18 19  2  0
 19 20  1  0
 20 21  2  0
 21 22  1  0
 22 23  2  0
 23 24  1  0
 24 25  2  0
 25 26  1  0
 26 27  2  0
 27 28  1  0
 28 29  1  0
 29 30  1  0
 30 31  1  0
 28 32  1  0
 32 33  2  0
 32 15  1  0
 21 16  1  0
 27 22  1  0
  1 34  1  0
  1 35  1  0
  1 36  1  0
  2 37  1  6
  3 38  1  0
  6 39  1  0
  6 40  1  0
  7 41  1  0
  7 42  1  0
 14 43  1  0
 15 44  1  1
 17 45  1  0
 18 46  1  0
 19 47  1  0
 20 48  1  0
 23 49  1  0
 24 50  1  0
 25 51  1  0
 29 52  1  0
 29 53  1  0
 30 54  1  0
 30 55  1  0
 31 56  1  0
M  END
>  <CID>  (44) 
66

>  <Energy>  (44) 
50.89816786369133

$$$$

     RDKit          3D

 56 58  0  0  0  0  0  0  0  0999 V2000
    3.0102   -2.1857   -0.3025 C   0  0  0  0  0  0  0  0  0  0  0  0
    2.7812   -0.7225    0.0552 C   0  0  2  0  0  0  0  0  0  0  0  0
    3.6295   -0.3063    1.1644 N   0  0  0  0  0  0  0  0  0  0  0  0
    4.9497    0.0245    1.0014 C   0  0  0  0  0  0  0  0  0  0  0  0
    5.5244   -0.0121   -0.0802 O   0  0  0  0  0  0  0  0  0  0  0  0
    5.6246    0.4329    2.2919 C   0  0  0  0  0  0  0  0  0  0  0  0
    7.0741    0.8433    2.0623 C   0  0  0  0  0  0  0  0  0  0  0  0
    7.7358    1.2415    3.3560 C   0  0  0  0  0  0  0  0  0  0  0  0
    7.7369    0.2203    4.2395 F   0  0  0  0  0  0  0  0  0  0  0  0
    7.0983    2.2844    3.9303 F   0  0  0  0  0  0  0  0  0  0  0  0
    9.0186    1.6076    3.1488 F   0  0  0  0  0  0  0  0  0  0  0  0
    1.3179   -0.5041    0.4761 C   0  0  0  0  0  0  0  0  0  0  0  0
    0.9897   -0.3656    1.6543 O   0  0  0  0  0  0  0  0  0  0  0  0
    0.4194   -0.4968   -0.5583 N   0  0  0  0  0  0  0  0  0  0  0  0
   -1.0187   -0.3392   -0.3592 C   0  0  1  0  0  0  0  0  0  0  0  0
   -1.4822    1.0992   -0.3309 C   0  0  0  0  0  0  0  0  0  0  0  0
   -0.6453    2.1731   -0.6910 C   0  0  0  0  0  0  0  0  0  0  0  0
   -1.1256    3.4805   -0.7088 C   0  0  0  0  0  0  0  0  0  0  0  0
   -2.4504    3.7323   -0.3820 C   0  0  0  0  0  0  0  0  0  0  0  0
   -3.2902    2.6752   -0.0297 C   0  0  0  0  0  0  0  0  0  0  0  0
   -2.8263    1.3434    0.0125 C   0  0  0  0  0  0  0  0  0  0  0  0
   -3.7405    0.2469    0.4108 C   0  0  0  0  0  0  0  0  0  0  0  0
   -4.5749    0.4425    1.5327 C   0  0  0  0  0  0  0  0  0  0  0  0
   -5.5330   -0.4953    1.8948 C   0  0  0  0  0  0  0  0  0  0  0  0
   -5.6512   -1.6198    1.1130 C   0  0  0  0  0  0  0  0  0  0  0  0
   -4.8691   -1.8649    0.0431 N   0  0  0  0  0  0  0  0  0  0  0  0
   -3.8928   -0.9720   -0.2834 C   0  0  0  0  0  0  0  0  0  0  0  0
   -3.0713   -1.3718   -1.3817 N   0  0  0  0  0  0  0  0  0  0  0  0
   -3.6919   -2.2582   -2.3795 C   0  0  0  0  0  0  0  0  0  0  0  0
   -4.8378   -1.5923   -3.1513 C   0  0  0  0  0  0  0  0  0  0  0  0
   -4.3514   -0.5005   -3.9282 O   0  0  0  0  0  0  0  0  0  0  0  0
   -1.7250   -1.0572   -1.5296 C   0  0  0  0  0  0  0  0  0  0  0  0
   -1.0623   -1.3766   -2.5276 O   0  0  0  0  0  0  0  0  0  0  0  0
    2.7813   -2.8395    0.5469 H   0  0  0  0  0  0  0  0  0  0  0  0
    2.3726   -2.4938   -1.1377 H   0  0  0  0  0  0  0  0  0  0  0  0
    4.0517   -2.3655   -0.5884 H   0  0  0  0  0  0  0  0  0  0  0  0
    3.0015   -0.0850   -0.8089 H   0  0  0  0  0  0  0  0  0  0  0  0
    3.1785   -0.2222    2.0716 H   0  0  0  0  0  0  0  0  0  0  0  0
    5.0586    1.2641    2.7292 H   0  0  0  0  0  0  0  0  0  0  0  0
    5.5735   -0.4142    2.9861 H   0  0  0  0  0  0  0  0  0  0  0  0
    7.1192    1.6820    1.3576 H   0  0  0  0  0  0  0  0  0  0  0  0
    7.6327    0.0165    1.6080 H   0  0  0  0  0  0  0  0  0  0  0  0
    0.7122   -0.6806   -1.5143 H   0  0  0  0  0  0  0  0  0  0  0  0
   -1.2628   -0.8418    0.5844 H   0  0  0  0  0  0  0  0  0  0  0  0
    0.3913    2.0036   -0.9719 H   0  0  0  0  0  0  0  0  0  0  0  0
   -0.4668    4.2983   -0.9892 H   0  0  0  0  0  0  0  0  0  0  0  0
   -2.8344    4.7486   -0.4065 H   0  0  0  0  0  0  0  0  0  0  0  0
   -4.3293    2.9035    0.2016 H   0  0  0  0  0  0  0  0  0  0  0  0
   -4.4804    1.3446    2.1358 H   0  0  0  0  0  0  0  0  0  0  0  0
   -6.1746   -0.3409    2.7549 H   0  0  0  0  0  0  0  0  0  0  0  0
   -6.3925   -2.3828    1.3324 H   0  0  0  0  0  0  0  0  0  0  0  0
   -4.0429   -3.1674   -1.8775 H   0  0  0  0  0  0  0  0  0  0  0  0
   -2.9371   -2.5835   -3.1037 H   0  0  0  0  0  0  0  0  0  0  0  0
   -5.6206   -1.2174   -2.4857 H   0  0  0  0  0  0  0  0  0  0  0  0
   -5.2872   -2.3183   -3.8364 H   0  0  0  0  0  0  0  0  0  0  0  0
   -5.1149   -0.1150   -4.3901 H   0  0  0  0  0  0  0  0  0  0  0  0
  1  2  1  0
  2  3  1  0
  3  4  1  0
  4  5  2  0
  4  6  1  0
  6  7  1  0
  7  8  1  0
  8  9  1  0
  8 10  1  0
  8 11  1  0
  2 12  1  0
 12 13  2  0
 12 14  1  0
 14 15  1  0
 15 16  1  0
 16 17  2  0
 17 18  1  0
 18 19  2  0
 19 20  1  0
 20 21  2  0
 21 22  1  0
 22 23  2  0
 23 24  1  0
 24 25  2  0
 25 26  1  0
 26 27  2  0
 27 28  1  0
 28 29  1  0
 29 30  1  0
 30 31  1  0
 28 32  1  0
 32 33  2  0
 32 15  1  0
 21 16  1  0
 27 22  1  0
  1 34  1  0
  1 35  1  0
  1 36  1  0
  2 37  1  6
  3 38  1  0
  6 39  1  0
  6 40  1  0
  7 41  1  0
  7 42  1  0
 14 43  1  0
 15 44  1  1
 17 45  1  0
 18 46  1  0
 19 47  1  0
 20 48  1  0
 23 49  1  0
 24 50  1  0
 25 51  1  0
 29 52  1  0
 29 53  1  0
 30 54  1  0
 30 55  1  0
 31 56  1  0
M  END
>  <CID>  (45) 
47

>  <Energy>  (45) 
50.92179613348831

$$$$

     RDKit          3D

 56 58  0  0  0  0  0  0  0  0999 V2000
    3.0096   -1.2207   -1.5227 C   0  0  0  0  0  0  0  0  0  0  0  0
    2.7811   -0.3121   -0.3228 C   0  0  2  0  0  0  0  0  0  0  0  0
    3.6759   -0.6643    0.7719 N   0  0  0  0  0  0  0  0  0  0  0  0
    4.2848    0.2916    1.5457 C   0  0  0  0  0  0  0  0  0  0  0  0
    4.1832    1.4973    1.3434 O   0  0  0  0  0  0  0  0  0  0  0  0
    5.0666   -0.2793    2.7112 C   0  0  0  0  0  0  0  0  0  0  0  0
    6.2359    0.6185    3.1076 C   0  0  0  0  0  0  0  0  0  0  0  0
    7.3712    0.5278    2.1100 C   0  0  0  0  0  0  0  0  0  0  0  0
    7.8450   -0.7385    2.0507 F   0  0  0  0  0  0  0  0  0  0  0  0
    7.0023    0.8828    0.8649 F   0  0  0  0  0  0  0  0  0  0  0  0
    8.3967    1.3254    2.4795 F   0  0  0  0  0  0  0  0  0  0  0  0
    1.3293   -0.4542    0.1713 C   0  0  0  0  0  0  0  0  0  0  0  0
    1.0104   -1.2257    1.0762 O   0  0  0  0  0  0  0  0  0  0  0  0
    0.4198    0.3000   -0.5296 N   0  0  0  0  0  0  0  0  0  0  0  0
   -1.0198    0.2267   -0.3012 C   0  0  1  0  0  0  0  0  0  0  0  0
   -1.6139    1.5063    0.2437 C   0  0  0  0  0  0  0  0  0  0  0  0
   -0.8688    2.6966    0.3643 C   0  0  0  0  0  0  0  0  0  0  0  0
   -1.4676    3.8764    0.8048 C   0  0  0  0  0  0  0  0  0  0  0  0
   -2.8185    3.8873    1.1213 C   0  0  0  0  0  0  0  0  0  0  0  0
   -3.5639    2.7112    1.0164 C   0  0  0  0  0  0  0  0  0  0  0  0
   -2.9796    1.4970    0.5940 C   0  0  0  0  0  0  0  0  0  0  0  0
   -3.7912    0.2563    0.5451 C   0  0  0  0  0  0  0  0  0  0  0  0
   -4.6390   -0.0337    1.6367 C   0  0  0  0  0  0  0  0  0  0  0  0
   -5.5003   -1.1236    1.6148 C   0  0  0  0  0  0  0  0  0  0  0  0
   -5.5051   -1.9103    0.4862 C   0  0  0  0  0  0  0  0  0  0  0  0
   -4.7011   -1.6917   -0.5733 N   0  0  0  0  0  0  0  0  0  0  0  0
   -3.8280   -0.6483   -0.5382 C   0  0  0  0  0  0  0  0  0  0  0  0
   -2.9809   -0.5482   -1.6810 N   0  0  0  0  0  0  0  0  0  0  0  0
   -3.4943   -1.1039   -2.9393 C   0  0  0  0  0  0  0  0  0  0  0  0
   -3.0855   -2.5629   -3.1583 C   0  0  0  0  0  0  0  0  0  0  0  0
   -3.5672   -3.0225   -4.4198 O   0  0  0  0  0  0  0  0  0  0  0  0
   -1.6725   -0.0803   -1.6697 C   0  0  0  0  0  0  0  0  0  0  0  0
   -1.0146    0.0505   -2.7125 O   0  0  0  0  0  0  0  0  0  0  0  0
    4.0466   -1.1555   -1.8692 H   0  0  0  0  0  0  0  0  0  0  0  0
    2.8064   -2.2682   -1.2734 H   0  0  0  0  0  0  0  0  0  0  0  0
    2.3530   -0.9462   -2.3551 H   0  0  0  0  0  0  0  0  0  0  0  0
    2.9515    0.7305   -0.6152 H   0  0  0  0  0  0  0  0  0  0  0  0
    3.6317   -1.6204    1.1073 H   0  0  0  0  0  0  0  0  0  0  0  0
    4.3666   -0.3644    3.5528 H   0  0  0  0  0  0  0  0  0  0  0  0
    5.4170   -1.2910    2.4759 H   0  0  0  0  0  0  0  0  0  0  0  0
    6.6067    0.3018    4.0905 H   0  0  0  0  0  0  0  0  0  0  0  0
    5.9175    1.6630    3.2099 H   0  0  0  0  0  0  0  0  0  0  0  0
    0.7096    0.8003   -1.3638 H   0  0  0  0  0  0  0  0  0  0  0  0
   -1.2122   -0.6049    0.3870 H   0  0  0  0  0  0  0  0  0  0  0  0
    0.1897    2.7236    0.1144 H   0  0  0  0  0  0  0  0  0  0  0  0
   -0.8786    4.7869    0.8912 H   0  0  0  0  0  0  0  0  0  0  0  0
   -3.2943    4.8078    1.4522 H   0  0  0  0  0  0  0  0  0  0  0  0
   -4.6234    2.7552    1.2650 H   0  0  0  0  0  0  0  0  0  0  0  0
   -4.6338    0.6037    2.5205 H   0  0  0  0  0  0  0  0  0  0  0  0
   -6.1548   -1.3402    2.4513 H   0  0  0  0  0  0  0  0  0  0  0  0
   -6.1670   -2.7677    0.3982 H   0  0  0  0  0  0  0  0  0  0  0  0
   -3.1131   -0.5043   -3.7767 H   0  0  0  0  0  0  0  0  0  0  0  0
   -4.5849   -0.9922   -2.9935 H   0  0  0  0  0  0  0  0  0  0  0  0
   -1.9953   -2.6677   -3.1483 H   0  0  0  0  0  0  0  0  0  0  0  0
   -3.4953   -3.2120   -2.3782 H   0  0  0  0  0  0  0  0  0  0  0  0
   -3.3438   -3.9695   -4.4731 H   0  0  0  0  0  0  0  0  0  0  0  0
  1  2  1  0
  2  3  1  0
  3  4  1  0
  4  5  2  0
  4  6  1  0
  6  7  1  0
  7  8  1  0
  8  9  1  0
  8 10  1  0
  8 11  1  0
  2 12  1  0
 12 13  2  0
 12 14  1  0
 14 15  1  0
 15 16  1  0
 16 17  2  0
 17 18  1  0
 18 19  2  0
 19 20  1  0
 20 21  2  0
 21 22  1  0
 22 23  2  0
 23 24  1  0
 24 25  2  0
 25 26  1  0
 26 27  2  0
 27 28  1  0
 28 29  1  0
 29 30  1  0
 30 31  1  0
 28 32  1  0
 32 33  2  0
 32 15  1  0
 21 16  1  0
 27 22  1  0
  1 34  1  0
  1 35  1  0
  1 36  1  0
  2 37  1  6
  3 38  1  0
  6 39  1  0
  6 40  1  0
  7 41  1  0
  7 42  1  0
 14 43  1  0
 15 44  1  1
 17 45  1  0
 18 46  1  0
 19 47  1  0
 20 48  1  0
 23 49  1  0
 24 50  1  0
 25 51  1  0
 29 52  1  0
 29 53  1  0
 30 54  1  0
 30 55  1  0
 31 56  1  0
M  END
>  <CID>  (46) 
77

>  <Energy>  (46) 
50.98871247669873

$$$$

     RDKit          3D

 56 58  0  0  0  0  0  0  0  0999 V2000
    2.9768   -2.8299    0.8410 C   0  0  0  0  0  0  0  0  0  0  0  0
    2.8005   -1.3262    0.6999 C   0  0  2  0  0  0  0  0  0  0  0  0
    3.6123   -0.6112    1.6746 N   0  0  0  0  0  0  0  0  0  0  0  0
    4.1715    0.6082    1.3850 C   0  0  0  0  0  0  0  0  0  0  0  0
    4.0857    1.1522    0.2893 O   0  0  0  0  0  0  0  0  0  0  0  0
    4.8726    1.2494    2.5625 C   0  0  0  0  0  0  0  0  0  0  0  0
    6.0504    2.1142    2.1287 C   0  0  0  0  0  0  0  0  0  0  0  0
    7.2163    1.2827    1.6414 C   0  0  0  0  0  0  0  0  0  0  0  0
    8.2591    2.0773    1.3134 F   0  0  0  0  0  0  0  0  0  0  0  0
    7.6400    0.4437    2.6139 F   0  0  0  0  0  0  0  0  0  0  0  0
    6.9116    0.5373    0.5635 F   0  0  0  0  0  0  0  0  0  0  0  0
    1.3291   -0.9538    0.9481 C   0  0  0  0  0  0  0  0  0  0  0  0
    0.8705   -0.7948    2.0796 O   0  0  0  0  0  0  0  0  0  0  0  0
    0.5673   -0.8641   -0.1891 N   0  0  0  0  0  0  0  0  0  0  0  0
   -0.8504   -0.5244   -0.1639 C   0  0  1  0  0  0  0  0  0  0  0  0
   -1.1283    0.9582   -0.2587 C   0  0  0  0  0  0  0  0  0  0  0  0
   -0.1204    1.9003   -0.5475 C   0  0  0  0  0  0  0  0  0  0  0  0
   -0.4263    3.2496   -0.7058 C   0  0  0  0  0  0  0  0  0  0  0  0
   -1.7409    3.6765   -0.5882 C   0  0  0  0  0  0  0  0  0  0  0  0
   -2.7460    2.7533   -0.2979 C   0  0  0  0  0  0  0  0  0  0  0  0
   -2.4642    1.3822   -0.1155 C   0  0  0  0  0  0  0  0  0  0  0  0
   -3.5573    0.4359    0.2183 C   0  0  0  0  0  0  0  0  0  0  0  0
   -4.4980    0.8222    1.1982 C   0  0  0  0  0  0  0  0  0  0  0  0
   -5.6168    0.0466    1.4755 C   0  0  0  0  0  0  0  0  0  0  0  0
   -5.7863   -1.1095    0.7504 C   0  0  0  0  0  0  0  0  0  0  0  0
   -4.9094   -1.5351   -0.1803 N   0  0  0  0  0  0  0  0  0  0  0  0
   -3.7808   -0.8073   -0.4127 C   0  0  0  0  0  0  0  0  0  0  0  0
   -2.8834   -1.3976   -1.3554 N   0  0  0  0  0  0  0  0  0  0  0  0
   -3.4698   -2.3119   -2.3409 C   0  0  0  0  0  0  0  0  0  0  0  0
   -4.2489   -1.5782   -3.4340 C   0  0  0  0  0  0  0  0  0  0  0  0
   -4.9008   -2.5020   -4.2999 O   0  0  0  0  0  0  0  0  0  0  0  0
   -1.5067   -1.2133   -1.3797 C   0  0  0  0  0  0  0  0  0  0  0  0
   -0.8012   -1.6127   -2.3163 O   0  0  0  0  0  0  0  0  0  0  0  0
    4.0216   -3.1149    0.6767 H   0  0  0  0  0  0  0  0  0  0  0  0
    2.3534   -3.3678    0.1165 H   0  0  0  0  0  0  0  0  0  0  0  0
    2.6926   -3.1735    1.8427 H   0  0  0  0  0  0  0  0  0  0  0  0
    3.0887   -1.0168   -0.3097 H   0  0  0  0  0  0  0  0  0  0  0  0
    3.5269   -0.8975    2.6435 H   0  0  0  0  0  0  0  0  0  0  0  0
    5.1982    0.4869    3.2764 H   0  0  0  0  0  0  0  0  0  0  0  0
    4.1294    1.8751    3.0693 H   0  0  0  0  0  0  0  0  0  0  0  0
    5.7511    2.8207    1.3473 H   0  0  0  0  0  0  0  0  0  0  0  0
    6.3830    2.7102    2.9862 H   0  0  0  0  0  0  0  0  0  0  0  0
    0.9652   -1.0493   -1.1061 H   0  0  0  0  0  0  0  0  0  0  0  0
   -1.2639   -0.9352    0.7648 H   0  0  0  0  0  0  0  0  0  0  0  0
    0.9178    1.5945   -0.6634 H   0  0  0  0  0  0  0  0  0  0  0  0
    0.3635    3.9622   -0.9324 H   0  0  0  0  0  0  0  0  0  0  0  0
   -1.9879    4.7255   -0.7255 H   0  0  0  0  0  0  0  0  0  0  0  0
   -3.7691    3.1198   -0.2271 H   0  0  0  0  0  0  0  0  0  0  0  0
   -4.3608    1.7495    1.7559 H   0  0  0  0  0  0  0  0  0  0  0  0
   -6.3391    0.3488    2.2253 H   0  0  0  0  0  0  0  0  0  0  0  0
   -6.6501   -1.7506    0.9047 H   0  0  0  0  0  0  0  0  0  0  0  0
   -2.6862   -2.9122   -2.8193 H   0  0  0  0  0  0  0  0  0  0  0  0
   -4.1026   -3.0538   -1.8398 H   0  0  0  0  0  0  0  0  0  0  0  0
   -5.0114   -0.9140   -3.0169 H   0  0  0  0  0  0  0  0  0  0  0  0
   -3.5717   -0.9654   -4.0355 H   0  0  0  0  0  0  0  0  0  0  0  0
   -5.5764   -2.9602   -3.7698 H   0  0  0  0  0  0  0  0  0  0  0  0
  1  2  1  0
  2  3  1  0
  3  4  1  0
  4  5  2  0
  4  6  1  0
  6  7  1  0
  7  8  1  0
  8  9  1  0
  8 10  1  0
  8 11  1  0
  2 12  1  0
 12 13  2  0
 12 14  1  0
 14 15  1  0
 15 16  1  0
 16 17  2  0
 17 18  1  0
 18 19  2  0
 19 20  1  0
 20 21  2  0
 21 22  1  0
 22 23  2  0
 23 24  1  0
 24 25  2  0
 25 26  1  0
 26 27  2  0
 27 28  1  0
 28 29  1  0
 29 30  1  0
 30 31  1  0
 28 32  1  0
 32 33  2  0
 32 15  1  0
 21 16  1  0
 27 22  1  0
  1 34  1  0
  1 35  1  0
  1 36  1  0
  2 37  1  6
  3 38  1  0
  6 39  1  0
  6 40  1  0
  7 41  1  0
  7 42  1  0
 14 43  1  0
 15 44  1  1
 17 45  1  0
 18 46  1  0
 19 47  1  0
 20 48  1  0
 23 49  1  0
 24 50  1  0
 25 51  1  0
 29 52  1  0
 29 53  1  0
 30 54  1  0
 30 55  1  0
 31 56  1  0
M  END
>  <CID>  (47) 
44

>  <Energy>  (47) 
50.99713659665301

$$$$

     RDKit          3D

 56 58  0  0  0  0  0  0  0  0999 V2000
    2.5323    2.0346    3.4717 C   0  0  0  0  0  0  0  0  0  0  0  0
    2.3498    0.6926    2.7735 C   0  0  2  0  0  0  0  0  0  0  0  0
    3.1624    0.6476    1.5520 N   0  0  0  0  0  0  0  0  0  0  0  0
    3.6818   -0.5345    1.0752 C   0  0  0  0  0  0  0  0  0  0  0  0
    3.5019   -1.6178    1.6175 O   0  0  0  0  0  0  0  0  0  0  0  0
    4.4379   -0.3775   -0.2280 C   0  0  0  0  0  0  0  0  0  0  0  0
    5.3858   -1.5427   -0.4932 C   0  0  0  0  0  0  0  0  0  0  0  0
    6.6293   -1.4611    0.3643 C   0  0  0  0  0  0  0  0  0  0  0  0
    6.3592   -1.4725    1.6827 F   0  0  0  0  0  0  0  0  0  0  0  0
    7.4564   -2.4957    0.1000 F   0  0  0  0  0  0  0  0  0  0  0  0
    7.3111   -0.3228    0.0982 F   0  0  0  0  0  0  0  0  0  0  0  0
    0.8466    0.4623    2.4915 C   0  0  0  0  0  0  0  0  0  0  0  0
    0.0065    0.4045    3.3858 O   0  0  0  0  0  0  0  0  0  0  0  0
    0.5198    0.3964    1.1619 N   0  0  0  0  0  0  0  0  0  0  0  0
   -0.8222    0.1286    0.6644 C   0  0  1  0  0  0  0  0  0  0  0  0
   -1.6837    1.3601    0.5075 C   0  0  0  0  0  0  0  0  0  0  0  0
   -1.1730    2.6658    0.6387 C   0  0  0  0  0  0  0  0  0  0  0  0
   -1.9837    3.7778    0.4214 C   0  0  0  0  0  0  0  0  0  0  0  0
   -3.3111    3.6019    0.0571 C   0  0  0  0  0  0  0  0  0  0  0  0
   -3.8275    2.3124   -0.0771 C   0  0  0  0  0  0  0  0  0  0  0  0
   -3.0336    1.1687    0.1541 C   0  0  0  0  0  0  0  0  0  0  0  0
   -3.6212   -0.1860    0.0278 C   0  0  0  0  0  0  0  0  0  0  0  0
   -4.8859   -0.4250    0.6086 C   0  0  0  0  0  0  0  0  0  0  0  0
   -5.5452   -1.6348    0.4353 C   0  0  0  0  0  0  0  0  0  0  0  0
   -4.9289   -2.5914   -0.3367 C   0  0  0  0  0  0  0  0  0  0  0  0
   -3.7165   -2.4214   -0.9009 N   0  0  0  0  0  0  0  0  0  0  0  0
   -3.0415   -1.2574   -0.6849 C   0  0  0  0  0  0  0  0  0  0  0  0
   -1.7320   -1.2192   -1.2556 N   0  0  0  0  0  0  0  0  0  0  0  0
   -1.5087   -2.0531   -2.4471 C   0  0  0  0  0  0  0  0  0  0  0  0
   -2.3048   -1.5808   -3.6695 C   0  0  0  0  0  0  0  0  0  0  0  0
   -1.8464   -0.3009   -4.1026 O   0  0  0  0  0  0  0  0  0  0  0  0
   -0.6502   -0.5243   -0.7268 C   0  0  0  0  0  0  0  0  0  0  0  0
    0.4488   -0.4495   -1.2969 O   0  0  0  0  0  0  0  0  0  0  0  0
    1.9668    2.0715    4.4088 H   0  0  0  0  0  0  0  0  0  0  0  0
    2.1823    2.8590    2.8403 H   0  0  0  0  0  0  0  0  0  0  0  0
    3.5879    2.2152    3.7018 H   0  0  0  0  0  0  0  0  0  0  0  0
    2.6765   -0.1159    3.4386 H   0  0  0  0  0  0  0  0  0  0  0  0
    3.2966    1.5052    1.0304 H   0  0  0  0  0  0  0  0  0  0  0  0
    4.9809    0.5749   -0.2350 H   0  0  0  0  0  0  0  0  0  0  0  0
    3.6861   -0.3340   -1.0256 H   0  0  0  0  0  0  0  0  0  0  0  0
    5.6897   -1.5174   -1.5467 H   0  0  0  0  0  0  0  0  0  0  0  0
    4.8861   -2.5042   -0.3296 H   0  0  0  0  0  0  0  0  0  0  0  0
    1.2648    0.3551    0.4741 H   0  0  0  0  0  0  0  0  0  0  0  0
   -1.2817   -0.5834    1.3605 H   0  0  0  0  0  0  0  0  0  0  0  0
   -0.1325    2.8313    0.9058 H   0  0  0  0  0  0  0  0  0  0  0  0
   -1.5748    4.7793    0.5273 H   0  0  0  0  0  0  0  0  0  0  0  0
   -3.9461    4.4647   -0.1263 H   0  0  0  0  0  0  0  0  0  0  0  0
   -4.8681    2.2076   -0.3797 H   0  0  0  0  0  0  0  0  0  0  0  0
   -5.3688    0.3467    1.2076 H   0  0  0  0  0  0  0  0  0  0  0  0
   -6.5160   -1.8159    0.8823 H   0  0  0  0  0  0  0  0  0  0  0  0
   -5.3983   -3.5530   -0.5239 H   0  0  0  0  0  0  0  0  0  0  0  0
   -1.7572   -3.0931   -2.2052 H   0  0  0  0  0  0  0  0  0  0  0  0
   -0.4442   -2.0482   -2.7063 H   0  0  0  0  0  0  0  0  0  0  0  0
   -2.1601   -2.2855   -4.4953 H   0  0  0  0  0  0  0  0  0  0  0  0
   -3.3768   -1.5090   -3.4614 H   0  0  0  0  0  0  0  0  0  0  0  0
   -2.4064   -0.0358   -4.8512 H   0  0  0  0  0  0  0  0  0  0  0  0
  1  2  1  0
  2  3  1  0
  3  4  1  0
  4  5  2  0
  4  6  1  0
  6  7  1  0
  7  8  1  0
  8  9  1  0
  8 10  1  0
  8 11  1  0
  2 12  1  0
 12 13  2  0
 12 14  1  0
 14 15  1  0
 15 16  1  0
 16 17  2  0
 17 18  1  0
 18 19  2  0
 19 20  1  0
 20 21  2  0
 21 22  1  0
 22 23  2  0
 23 24  1  0
 24 25  2  0
 25 26  1  0
 26 27  2  0
 27 28  1  0
 28 29  1  0
 29 30  1  0
 30 31  1  0
 28 32  1  0
 32 33  2  0
 32 15  1  0
 21 16  1  0
 27 22  1  0
  1 34  1  0
  1 35  1  0
  1 36  1  0
  2 37  1  1
  3 38  1  0
  6 39  1  0
  6 40  1  0
  7 41  1  0
  7 42  1  0
 14 43  1  0
 15 44  1  1
 17 45  1  0
 18 46  1  0
 19 47  1  0
 20 48  1  0
 23 49  1  0
 24 50  1  0
 25 51  1  0
 29 52  1  0
 29 53  1  0
 30 54  1  0
 30 55  1  0
 31 56  1  0
M  END
>  <CID>  (48) 
17

>  <Energy>  (48) 
51.10956109268989

$$$$

     RDKit          3D

 56 58  0  0  0  0  0  0  0  0999 V2000
    3.0129   -2.6665    0.2982 C   0  0  0  0  0  0  0  0  0  0  0  0
    2.8244   -1.1631    0.4533 C   0  0  2  0  0  0  0  0  0  0  0  0
    3.6541   -0.6435    1.5313 N   0  0  0  0  0  0  0  0  0  0  0  0
    4.2310    0.5993    1.4599 C   0  0  0  0  0  0  0  0  0  0  0  0
    4.1481    1.3315    0.4799 O   0  0  0  0  0  0  0  0  0  0  0  0
    4.9519    1.0038    2.7279 C   0  0  0  0  0  0  0  0  0  0  0  0
    6.0962    1.9745    2.4549 C   0  0  0  0  0  0  0  0  0  0  0  0
    7.2720    1.2882    1.7930 C   0  0  0  0  0  0  0  0  0  0  0  0
    6.9614    0.7483    0.6002 F   0  0  0  0  0  0  0  0  0  0  0  0
    8.2810    2.1632    1.5995 F   0  0  0  0  0  0  0  0  0  0  0  0
    7.7467    0.2954    2.5804 F   0  0  0  0  0  0  0  0  0  0  0  0
    1.3535   -0.8543    0.7815 C   0  0  0  0  0  0  0  0  0  0  0  0
    0.9419   -0.7480    1.9344 O   0  0  0  0  0  0  0  0  0  0  0  0
    0.5335   -0.7690   -0.3166 N   0  0  0  0  0  0  0  0  0  0  0  0
   -0.8919   -0.4814   -0.2134 C   0  0  1  0  0  0  0  0  0  0  0  0
   -1.2240    0.9947   -0.2478 C   0  0  0  0  0  0  0  0  0  0  0  0
   -0.2634    1.9808   -0.5524 C   0  0  0  0  0  0  0  0  0  0  0  0
   -0.6208    3.3239   -0.6498 C   0  0  0  0  0  0  0  0  0  0  0  0
   -1.9422    3.6983   -0.4580 C   0  0  0  0  0  0  0  0  0  0  0  0
   -2.9016    2.7308   -0.1541 C   0  0  0  0  0  0  0  0  0  0  0  0
   -2.5653    1.3664   -0.0286 C   0  0  0  0  0  0  0  0  0  0  0  0
   -3.6068    0.3725    0.3318 C   0  0  0  0  0  0  0  0  0  0  0  0
   -4.5093    0.6982    1.3680 C   0  0  0  0  0  0  0  0  0  0  0  0
   -5.5803   -0.1283    1.6849 C   0  0  0  0  0  0  0  0  0  0  0  0
   -5.7403   -1.2745    0.9435 C   0  0  0  0  0  0  0  0  0  0  0  0
   -4.8960   -1.6426   -0.0390 N   0  0  0  0  0  0  0  0  0  0  0  0
   -3.8159   -0.8640   -0.3179 C   0  0  0  0  0  0  0  0  0  0  0  0
   -2.9509   -1.3953   -1.3241 N   0  0  0  0  0  0  0  0  0  0  0  0
   -3.5545   -2.2978   -2.3100 C   0  0  0  0  0  0  0  0  0  0  0  0
   -4.3726   -1.5494   -3.3615 C   0  0  0  0  0  0  0  0  0  0  0  0
   -4.7991   -2.4327   -4.3952 O   0  0  0  0  0  0  0  0  0  0  0  0
   -1.5874   -1.1543   -1.4183 C   0  0  0  0  0  0  0  0  0  0  0  0
   -0.9242   -1.4900   -2.4108 O   0  0  0  0  0  0  0  0  0  0  0  0
    2.7434   -3.1960    1.2212 H   0  0  0  0  0  0  0  0  0  0  0  0
    4.0568   -2.9064    0.0693 H   0  0  0  0  0  0  0  0  0  0  0  0
    2.3853   -3.0619   -0.5069 H   0  0  0  0  0  0  0  0  0  0  0  0
    3.0891   -0.6603   -0.4850 H   0  0  0  0  0  0  0  0  0  0  0  0
    3.5651   -1.0931    2.4344 H   0  0  0  0  0  0  0  0  0  0  0  0
    5.3172    0.1178    3.2569 H   0  0  0  0  0  0  0  0  0  0  0  0
    4.2101    1.4868    3.3728 H   0  0  0  0  0  0  0  0  0  0  0  0
    6.4346    2.4001    3.4115 H   0  0  0  0  0  0  0  0  0  0  0  0
    5.7597    2.8166    1.8324 H   0  0  0  0  0  0  0  0  0  0  0  0
    0.8922   -0.9238   -1.2536 H   0  0  0  0  0  0  0  0  0  0  0  0
   -1.2436   -0.9350    0.7218 H   0  0  0  0  0  0  0  0  0  0  0  0
    0.7777    1.7164   -0.7250 H   0  0  0  0  0  0  0  0  0  0  0  0
    0.1332    4.0720   -0.8873 H   0  0  0  0  0  0  0  0  0  0  0  0
   -2.2296    4.7416   -0.5468 H   0  0  0  0  0  0  0  0  0  0  0  0
   -3.9314    3.0572   -0.0234 H   0  0  0  0  0  0  0  0  0  0  0  0
   -4.3806    1.6158    1.9375 H   0  0  0  0  0  0  0  0  0  0  0  0
   -6.2728    0.1258    2.4775 H   0  0  0  0  0  0  0  0  0  0  0  0
   -6.5692   -1.9558    1.1240 H   0  0  0  0  0  0  0  0  0  0  0  0
   -4.1635   -3.0666   -1.8193 H   0  0  0  0  0  0  0  0  0  0  0  0
   -2.7700   -2.8662   -2.8191 H   0  0  0  0  0  0  0  0  0  0  0  0
   -3.7874   -0.7419   -3.8191 H   0  0  0  0  0  0  0  0  0  0  0  0
   -5.2632   -1.1019   -2.9155 H   0  0  0  0  0  0  0  0  0  0  0  0
   -4.0149   -2.6562   -4.9223 H   0  0  0  0  0  0  0  0  0  0  0  0
  1  2  1  0
  2  3  1  0
  3  4  1  0
  4  5  2  0
  4  6  1  0
  6  7  1  0
  7  8  1  0
  8  9  1  0
  8 10  1  0
  8 11  1  0
  2 12  1  0
 12 13  2  0
 12 14  1  0
 14 15  1  0
 15 16  1  0
 16 17  2  0
 17 18  1  0
 18 19  2  0
 19 20  1  0
 20 21  2  0
 21 22  1  0
 22 23  2  0
 23 24  1  0
 24 25  2  0
 25 26  1  0
 26 27  2  0
 27 28  1  0
 28 29  1  0
 29 30  1  0
 30 31  1  0
 28 32  1  0
 32 33  2  0
 32 15  1  0
 21 16  1  0
 27 22  1  0
  1 34  1  0
  1 35  1  0
  1 36  1  0
  2 37  1  6
  3 38  1  0
  6 39  1  0
  6 40  1  0
  7 41  1  0
  7 42  1  0
 14 43  1  0
 15 44  1  1
 17 45  1  0
 18 46  1  0
 19 47  1  0
 20 48  1  0
 23 49  1  0
 24 50  1  0
 25 51  1  0
 29 52  1  0
 29 53  1  0
 30 54  1  0
 30 55  1  0
 31 56  1  0
M  END
>  <CID>  (49) 
12

>  <Energy>  (49) 
51.1199904374945

$$$$

     RDKit          3D

 56 58  0  0  0  0  0  0  0  0999 V2000
    2.8479   -3.0122   -0.1685 C   0  0  0  0  0  0  0  0  0  0  0  0
    2.7429   -1.5016   -0.0270 C   0  0  2  0  0  0  0  0  0  0  0  0
    3.6686   -0.9975    0.9773 N   0  0  0  0  0  0  0  0  0  0  0  0
    4.2080    0.2614    0.8771 C   0  0  0  0  0  0  0  0  0  0  0  0
    4.0276    0.9975   -0.0855 O   0  0  0  0  0  0  0  0  0  0  0  0
    5.0374    0.6509    2.0788 C   0  0  0  0  0  0  0  0  0  0  0  0
    5.7337    1.9890    1.8659 C   0  0  0  0  0  0  0  0  0  0  0  0
    6.5871    2.3506    3.0543 C   0  0  0  0  0  0  0  0  0  0  0  0
    7.2086    3.5324    2.8582 F   0  0  0  0  0  0  0  0  0  0  0  0
    7.5380    1.4165    3.2720 F   0  0  0  0  0  0  0  0  0  0  0  0
    5.8446    2.4558    4.1773 F   0  0  0  0  0  0  0  0  0  0  0  0
    1.3189   -1.1204    0.4098 C   0  0  0  0  0  0  0  0  0  0  0  0
    0.9569   -1.1549    1.5843 O   0  0  0  0  0  0  0  0  0  0  0  0
    0.4823   -0.7820   -0.6207 N   0  0  0  0  0  0  0  0  0  0  0  0
   -0.9024   -0.3753   -0.4156 C   0  0  1  0  0  0  0  0  0  0  0  0
   -1.0771    1.1085   -0.1853 C   0  0  0  0  0  0  0  0  0  0  0  0
   -0.0250    2.0297   -0.3539 C   0  0  0  0  0  0  0  0  0  0  0  0
   -0.2378    3.3957   -0.1903 C   0  0  0  0  0  0  0  0  0  0  0  0
   -1.5040    3.8631    0.1313 C   0  0  0  0  0  0  0  0  0  0  0  0
   -2.5541    2.9598    0.3008 C   0  0  0  0  0  0  0  0  0  0  0  0
   -2.3641    1.5696    0.1578 C   0  0  0  0  0  0  0  0  0  0  0  0
   -3.4943    0.6364    0.3762 C   0  0  0  0  0  0  0  0  0  0  0  0
   -4.3251    0.8374    1.4994 C   0  0  0  0  0  0  0  0  0  0  0  0
   -5.4597    0.0638    1.7079 C   0  0  0  0  0  0  0  0  0  0  0  0
   -5.7524   -0.9042    0.7749 C   0  0  0  0  0  0  0  0  0  0  0  0
   -4.9807   -1.1529   -0.3016 N   0  0  0  0  0  0  0  0  0  0  0  0
   -3.8471   -0.4228   -0.4867 C   0  0  0  0  0  0  0  0  0  0  0  0
   -3.0694   -0.8157   -1.6153 N   0  0  0  0  0  0  0  0  0  0  0  0
   -3.7875   -1.4384   -2.7327 C   0  0  0  0  0  0  0  0  0  0  0  0
   -3.8065   -2.9663   -2.6551 C   0  0  0  0  0  0  0  0  0  0  0  0
   -4.4597   -3.5055   -3.8036 O   0  0  0  0  0  0  0  0  0  0  0  0
   -1.6832   -0.7680   -1.6883 C   0  0  0  0  0  0  0  0  0  0  0  0
   -1.0666   -1.0792   -2.7180 O   0  0  0  0  0  0  0  0  0  0  0  0
    2.1266   -3.3847   -0.9039 H   0  0  0  0  0  0  0  0  0  0  0  0
    2.6472   -3.5182    0.7822 H   0  0  0  0  0  0  0  0  0  0  0  0
    3.8512   -3.3054   -0.4940 H   0  0  0  0  0  0  0  0  0  0  0  0
    2.9651   -1.0298   -0.9902 H   0  0  0  0  0  0  0  0  0  0  0  0
    3.6815   -1.4676    1.8746 H   0  0  0  0  0  0  0  0  0  0  0  0
    5.7770   -0.1374    2.2603 H   0  0  0  0  0  0  0  0  0  0  0  0
    4.3721    0.6996    2.9490 H   0  0  0  0  0  0  0  0  0  0  0  0
    4.9911    2.7774    1.6959 H   0  0  0  0  0  0  0  0  0  0  0  0
    6.3627    1.9458    0.9690 H   0  0  0  0  0  0  0  0  0  0  0  0
    0.7984   -0.8100   -1.5861 H   0  0  0  0  0  0  0  0  0  0  0  0
   -1.2803   -0.9456    0.4412 H   0  0  0  0  0  0  0  0  0  0  0  0
    0.9774    1.6972   -0.6188 H   0  0  0  0  0  0  0  0  0  0  0  0
    0.5867    4.0923   -0.3235 H   0  0  0  0  0  0  0  0  0  0  0  0
   -1.6770    4.9297    0.2526 H   0  0  0  0  0  0  0  0  0  0  0  0
   -3.5381    3.3589    0.5397 H   0  0  0  0  0  0  0  0  0  0  0  0
   -4.0888    1.6147    2.2251 H   0  0  0  0  0  0  0  0  0  0  0  0
   -6.1006    0.2253    2.5672 H   0  0  0  0  0  0  0  0  0  0  0  0
   -6.6353   -1.5303    0.8695 H   0  0  0  0  0  0  0  0  0  0  0  0
   -3.3028   -1.1429   -3.6725 H   0  0  0  0  0  0  0  0  0  0  0  0
   -4.8061   -1.0374   -2.8091 H   0  0  0  0  0  0  0  0  0  0  0  0
   -2.7868   -3.3644   -2.6216 H   0  0  0  0  0  0  0  0  0  0  0  0
   -4.3372   -3.3148   -1.7631 H   0  0  0  0  0  0  0  0  0  0  0  0
   -4.3895   -4.4735   -3.7374 H   0  0  0  0  0  0  0  0  0  0  0  0
  1  2  1  0
  2  3  1  0
  3  4  1  0
  4  5  2  0
  4  6  1  0
  6  7  1  0
  7  8  1  0
  8  9  1  0
  8 10  1  0
  8 11  1  0
  2 12  1  0
 12 13  2  0
 12 14  1  0
 14 15  1  0
 15 16  1  0
 16 17  2  0
 17 18  1  0
 18 19  2  0
 19 20  1  0
 20 21  2  0
 21 22  1  0
 22 23  2  0
 23 24  1  0
 24 25  2  0
 25 26  1  0
 26 27  2  0
 27 28  1  0
 28 29  1  0
 29 30  1  0
 30 31  1  0
 28 32  1  0
 32 33  2  0
 32 15  1  0
 21 16  1  0
 27 22  1  0
  1 34  1  0
  1 35  1  0
  1 36  1  0
  2 37  1  6
  3 38  1  0
  6 39  1  0
  6 40  1  0
  7 41  1  0
  7 42  1  0
 14 43  1  0
 15 44  1  1
 17 45  1  0
 18 46  1  0
 19 47  1  0
 20 48  1  0
 23 49  1  0
 24 50  1  0
 25 51  1  0
 29 52  1  0
 29 53  1  0
 30 54  1  0
 30 55  1  0
 31 56  1  0
M  END
>  <CID>  (50) 
10

>  <Energy>  (50) 
51.125337060124714

$$$$

     RDKit          3D

 56 58  0  0  0  0  0  0  0  0999 V2000
    3.0195   -2.0843   -0.4251 C   0  0  0  0  0  0  0  0  0  0  0  0
    2.7792   -0.6485    0.0252 C   0  0  2  0  0  0  0  0  0  0  0  0
    3.6317   -0.2954    1.1529 N   0  0  0  0  0  0  0  0  0  0  0  0
    4.9446    0.0686    1.0006 C   0  0  0  0  0  0  0  0  0  0  0  0
    5.5062    0.1217   -0.0873 O   0  0  0  0  0  0  0  0  0  0  0  0
    5.6276    0.3954    2.3101 C   0  0  0  0  0  0  0  0  0  0  0  0
    7.0756    0.8205    2.0978 C   0  0  0  0  0  0  0  0  0  0  0  0
    7.7445    1.1386    3.4099 C   0  0  0  0  0  0  0  0  0  0  0  0
    7.7510    0.0648    4.2285 F   0  0  0  0  0  0  0  0  0  0  0  0
    9.0258    1.5181    3.2186 F   0  0  0  0  0  0  0  0  0  0  0  0
    7.1090    2.1429    4.0515 F   0  0  0  0  0  0  0  0  0  0  0  0
    1.3171   -0.4689    0.4680 C   0  0  0  0  0  0  0  0  0  0  0  0
    0.9959   -0.3983    1.6540 O   0  0  0  0  0  0  0  0  0  0  0  0
    0.4097   -0.4117   -0.5581 N   0  0  0  0  0  0  0  0  0  0  0  0
   -1.0255   -0.2686   -0.3344 C   0  0  1  0  0  0  0  0  0  0  0  0
   -1.4974    1.1645   -0.2498 C   0  0  0  0  0  0  0  0  0  0  0  0
   -0.6652    2.2557   -0.5685 C   0  0  0  0  0  0  0  0  0  0  0  0
   -1.1533    3.5600   -0.5460 C   0  0  0  0  0  0  0  0  0  0  0  0
   -2.4812    3.7918   -0.2191 C   0  0  0  0  0  0  0  0  0  0  0  0
   -3.3156    2.7181    0.0944 C   0  0  0  0  0  0  0  0  0  0  0  0
   -2.8444    1.3875    0.0971 C   0  0  0  0  0  0  0  0  0  0  0  0
   -3.7576    0.2756    0.4595 C   0  0  0  0  0  0  0  0  0  0  0  0
   -4.6043    0.4468    1.5774 C   0  0  0  0  0  0  0  0  0  0  0  0
   -5.5721   -0.4933    1.9056 C   0  0  0  0  0  0  0  0  0  0  0  0
   -5.6869   -1.5961    1.0945 C   0  0  0  0  0  0  0  0  0  0  0  0
   -4.8895   -1.8184    0.0314 N   0  0  0  0  0  0  0  0  0  0  0  0
   -3.9030   -0.9295   -0.2622 C   0  0  0  0  0  0  0  0  0  0  0  0
   -3.0666   -1.3142   -1.3559 N   0  0  0  0  0  0  0  0  0  0  0  0
   -3.6511   -2.2158   -2.3578 C   0  0  0  0  0  0  0  0  0  0  0  0
   -4.5592   -1.4771   -3.3414 C   0  0  0  0  0  0  0  0  0  0  0  0
   -5.0641   -2.3834   -4.3178 O   0  0  0  0  0  0  0  0  0  0  0  0
   -1.7426   -0.9333   -1.5275 C   0  0  0  0  0  0  0  0  0  0  0  0
   -1.1230   -1.1348   -2.5816 O   0  0  0  0  0  0  0  0  0  0  0  0
    4.0601   -2.2344   -0.7315 H   0  0  0  0  0  0  0  0  0  0  0  0
    2.8063   -2.7917    0.3844 H   0  0  0  0  0  0  0  0  0  0  0  0
    2.3770   -2.3472   -1.2715 H   0  0  0  0  0  0  0  0  0  0  0  0
    2.9876    0.0443   -0.7988 H   0  0  0  0  0  0  0  0  0  0  0  0
    3.1903   -0.2836    2.0686 H   0  0  0  0  0  0  0  0  0  0  0  0
    5.0638    1.1970    2.8020 H   0  0  0  0  0  0  0  0  0  0  0  0
    5.5811   -0.4935    2.9506 H   0  0  0  0  0  0  0  0  0  0  0  0
    7.6317    0.0235    1.5902 H   0  0  0  0  0  0  0  0  0  0  0  0
    7.1169    1.7007    1.4455 H   0  0  0  0  0  0  0  0  0  0  0  0
    0.6986   -0.5342   -1.5247 H   0  0  0  0  0  0  0  0  0  0  0  0
   -1.2603   -0.8087    0.5905 H   0  0  0  0  0  0  0  0  0  0  0  0
    0.3745    2.1034   -0.8480 H   0  0  0  0  0  0  0  0  0  0  0  0
   -0.4977    4.3913   -0.7937 H   0  0  0  0  0  0  0  0  0  0  0  0
   -2.8713    4.8061   -0.2101 H   0  0  0  0  0  0  0  0  0  0  0  0
   -4.3565    2.9343    0.3303 H   0  0  0  0  0  0  0  0  0  0  0  0
   -4.5136    1.3329    2.2045 H   0  0  0  0  0  0  0  0  0  0  0  0
   -6.2240   -0.3567    2.7608 H   0  0  0  0  0  0  0  0  0  0  0  0
   -6.4361   -2.3602    1.2821 H   0  0  0  0  0  0  0  0  0  0  0  0
   -4.1871   -3.0428   -1.8766 H   0  0  0  0  0  0  0  0  0  0  0  0
   -2.8531   -2.7109   -2.9257 H   0  0  0  0  0  0  0  0  0  0  0  0
   -5.4089   -1.0193   -2.8245 H   0  0  0  0  0  0  0  0  0  0  0  0
   -4.0033   -0.6867   -3.8573 H   0  0  0  0  0  0  0  0  0  0  0  0
   -5.6108   -1.8623   -4.9305 H   0  0  0  0  0  0  0  0  0  0  0  0
  1  2  1  0
  2  3  1  0
  3  4  1  0
  4  5  2  0
  4  6  1  0
  6  7  1  0
  7  8  1  0
  8  9  1  0
  8 10  1  0
  8 11  1  0
  2 12  1  0
 12 13  2  0
 12 14  1  0
 14 15  1  0
 15 16  1  0
 16 17  2  0
 17 18  1  0
 18 19  2  0
 19 20  1  0
 20 21  2  0
 21 22  1  0
 22 23  2  0
 23 24  1  0
 24 25  2  0
 25 26  1  0
 26 27  2  0
 27 28  1  0
 28 29  1  0
 29 30  1  0
 30 31  1  0
 28 32  1  0
 32 33  2  0
 32 15  1  0
 21 16  1  0
 27 22  1  0
  1 34  1  0
  1 35  1  0
  1 36  1  0
  2 37  1  6
  3 38  1  0
  6 39  1  0
  6 40  1  0
  7 41  1  0
  7 42  1  0
 14 43  1  0
 15 44  1  1
 17 45  1  0
 18 46  1  0
 19 47  1  0
 20 48  1  0
 23 49  1  0
 24 50  1  0
 25 51  1  0
 29 52  1  0
 29 53  1  0
 30 54  1  0
 30 55  1  0
 31 56  1  0
M  END
>  <CID>  (51) 
75

>  <Energy>  (51) 
51.155226471575915

$$$$

     RDKit          3D

 56 58  0  0  0  0  0  0  0  0999 V2000
    3.0130   -2.1169   -0.3407 C   0  0  0  0  0  0  0  0  0  0  0  0
    2.7804   -0.6636    0.0534 C   0  0  2  0  0  0  0  0  0  0  0  0
    3.6301   -0.2721    1.1702 N   0  0  0  0  0  0  0  0  0  0  0  0
    4.9467    0.0747    1.0111 C   0  0  0  0  0  0  0  0  0  0  0  0
    5.5163    0.0753   -0.0738 O   0  0  0  0  0  0  0  0  0  0  0  0
    5.6215    0.4568    2.3092 C   0  0  0  0  0  0  0  0  0  0  0  0
    7.0797    0.8433    2.0937 C   0  0  0  0  0  0  0  0  0  0  0  0
    7.7409    1.2052    3.3981 C   0  0  0  0  0  0  0  0  0  0  0  0
    9.0290    1.5599    3.2044 F   0  0  0  0  0  0  0  0  0  0  0  0
    7.1137    2.2430    3.9929 F   0  0  0  0  0  0  0  0  0  0  0  0
    7.7251    0.1645    4.2586 F   0  0  0  0  0  0  0  0  0  0  0  0
    1.3179   -0.4594    0.4839 C   0  0  0  0  0  0  0  0  0  0  0  0
    0.9921   -0.3492    1.6654 O   0  0  0  0  0  0  0  0  0  0  0  0
    0.4151   -0.4286   -0.5471 N   0  0  0  0  0  0  0  0  0  0  0  0
   -1.0207   -0.2746   -0.3343 C   0  0  1  0  0  0  0  0  0  0  0  0
   -1.4876    1.1613   -0.2783 C   0  0  0  0  0  0  0  0  0  0  0  0
   -0.6493    2.2434   -0.6106 C   0  0  0  0  0  0  0  0  0  0  0  0
   -1.1333    3.5493   -0.6166 C   0  0  0  0  0  0  0  0  0  0  0  0
   -2.4633    3.7918   -0.3056 C   0  0  0  0  0  0  0  0  0  0  0  0
   -3.3035    2.7269    0.0223 C   0  0  0  0  0  0  0  0  0  0  0  0
   -2.8362    1.3952    0.0550 C   0  0  0  0  0  0  0  0  0  0  0  0
   -3.7553    0.2935    0.4330 C   0  0  0  0  0  0  0  0  0  0  0  0
   -4.6076    0.4879    1.5428 C   0  0  0  0  0  0  0  0  0  0  0  0
   -5.5811   -0.4423    1.8822 C   0  0  0  0  0  0  0  0  0  0  0  0
   -5.6962   -1.5579    1.0901 C   0  0  0  0  0  0  0  0  0  0  0  0
   -4.8934   -1.8024    0.0362 N   0  0  0  0  0  0  0  0  0  0  0  0
   -3.9008   -0.9238   -0.2669 C   0  0  0  0  0  0  0  0  0  0  0  0
   -3.0593   -1.3320   -1.3482 N   0  0  0  0  0  0  0  0  0  0  0  0
   -3.6383   -2.2596   -2.3292 C   0  0  0  0  0  0  0  0  0  0  0  0
   -4.5824   -1.5589   -3.3067 C   0  0  0  0  0  0  0  0  0  0  0  0
   -5.0744   -2.4905   -4.2659 O   0  0  0  0  0  0  0  0  0  0  0  0
   -1.7332   -0.9587   -1.5192 C   0  0  0  0  0  0  0  0  0  0  0  0
   -1.1070   -1.1827   -2.5646 O   0  0  0  0  0  0  0  0  0  0  0  0
    4.0545   -2.2862   -0.6333 H   0  0  0  0  0  0  0  0  0  0  0  0
    2.3743   -2.4064   -1.1817 H   0  0  0  0  0  0  0  0  0  0  0  0
    2.7884   -2.7921    0.4930 H   0  0  0  0  0  0  0  0  0  0  0  0
    2.9961   -0.0042   -0.7955 H   0  0  0  0  0  0  0  0  0  0  0  0
    3.1842   -0.2227    2.0831 H   0  0  0  0  0  0  0  0  0  0  0  0
    5.5500   -0.3944    2.9961 H   0  0  0  0  0  0  0  0  0  0  0  0
    5.0678    1.2942    2.7494 H   0  0  0  0  0  0  0  0  0  0  0  0
    7.6248    0.0136    1.6289 H   0  0  0  0  0  0  0  0  0  0  0  0
    7.1453    1.6922    1.4041 H   0  0  0  0  0  0  0  0  0  0  0  0
    0.7080   -0.5795   -1.5086 H   0  0  0  0  0  0  0  0  0  0  0  0
   -1.2626   -0.7968    0.5990 H   0  0  0  0  0  0  0  0  0  0  0  0
    0.3920    2.0824   -0.8789 H   0  0  0  0  0  0  0  0  0  0  0  0
   -0.4734    4.3738   -0.8746 H   0  0  0  0  0  0  0  0  0  0  0  0
   -2.8506    4.8076   -0.3208 H   0  0  0  0  0  0  0  0  0  0  0  0
   -4.3458    2.9508    0.2451 H   0  0  0  0  0  0  0  0  0  0  0  0
   -4.5169    1.3844    2.1543 H   0  0  0  0  0  0  0  0  0  0  0  0
   -6.2371   -0.2881    2.7311 H   0  0  0  0  0  0  0  0  0  0  0  0
   -6.4502   -2.3150    1.2862 H   0  0  0  0  0  0  0  0  0  0  0  0
   -4.1442   -3.0920   -1.8255 H   0  0  0  0  0  0  0  0  0  0  0  0
   -2.8393   -2.7443   -2.9047 H   0  0  0  0  0  0  0  0  0  0  0  0
   -5.4379   -1.1206   -2.7828 H   0  0  0  0  0  0  0  0  0  0  0  0
   -4.0581   -0.7583   -3.8392 H   0  0  0  0  0  0  0  0  0  0  0  0
   -5.6678   -1.9978   -4.8583 H   0  0  0  0  0  0  0  0  0  0  0  0
  1  2  1  0
  2  3  1  0
  3  4  1  0
  4  5  2  0
  4  6  1  0
  6  7  1  0
  7  8  1  0
  8  9  1  0
  8 10  1  0
  8 11  1  0
  2 12  1  0
 12 13  2  0
 12 14  1  0
 14 15  1  0
 15 16  1  0
 16 17  2  0
 17 18  1  0
 18 19  2  0
 19 20  1  0
 20 21  2  0
 21 22  1  0
 22 23  2  0
 23 24  1  0
 24 25  2  0
 25 26  1  0
 26 27  2  0
 27 28  1  0
 28 29  1  0
 29 30  1  0
 30 31  1  0
 28 32  1  0
 32 33  2  0
 32 15  1  0
 21 16  1  0
 27 22  1  0
  1 34  1  0
  1 35  1  0
  1 36  1  0
  2 37  1  6
  3 38  1  0
  6 39  1  0
  6 40  1  0
  7 41  1  0
  7 42  1  0
 14 43  1  0
 15 44  1  1
 17 45  1  0
 18 46  1  0
 19 47  1  0
 20 48  1  0
 23 49  1  0
 24 50  1  0
 25 51  1  0
 29 52  1  0
 29 53  1  0
 30 54  1  0
 30 55  1  0
 31 56  1  0
M  END
>  <CID>  (52) 
48

>  <Energy>  (52) 
51.15759170812332

$$$$

     RDKit          3D

 56 58  0  0  0  0  0  0  0  0999 V2000
    1.4352    1.4843    1.8845 C   0  0  0  0  0  0  0  0  0  0  0  0
    1.8239    0.8073    0.5757 C   0  0  2  0  0  0  0  0  0  0  0  0
    3.2579    0.5386    0.5308 N   0  0  0  0  0  0  0  0  0  0  0  0
    3.8286   -0.5162    1.1931 C   0  0  0  0  0  0  0  0  0  0  0  0
    3.1888   -1.2903    1.8943 O   0  0  0  0  0  0  0  0  0  0  0  0
    5.3250   -0.6068    1.0000 C   0  0  0  0  0  0  0  0  0  0  0  0
    5.8718   -1.9402    1.4943 C   0  0  0  0  0  0  0  0  0  0  0  0
    7.3699   -2.0019    1.3395 C   0  0  0  0  0  0  0  0  0  0  0  0
    7.7356   -1.8289    0.0507 F   0  0  0  0  0  0  0  0  0  0  0  0
    7.9783   -1.0443    2.0735 F   0  0  0  0  0  0  0  0  0  0  0  0
    7.8468   -3.1968    1.7454 F   0  0  0  0  0  0  0  0  0  0  0  0
    1.4855    1.7201   -0.6167 C   0  0  0  0  0  0  0  0  0  0  0  0
    2.3688    2.3493   -1.2098 O   0  0  0  0  0  0  0  0  0  0  0  0
    0.1932    1.8976   -0.9998 N   0  0  0  0  0  0  0  0  0  0  0  0
   -0.9980    1.1277   -0.6380 C   0  0  1  0  0  0  0  0  0  0  0  0
   -2.0227    1.9405    0.1187 C   0  0  0  0  0  0  0  0  0  0  0  0
   -1.9353    3.3412    0.2407 C   0  0  0  0  0  0  0  0  0  0  0  0
   -2.9271    4.0653    0.8990 C   0  0  0  0  0  0  0  0  0  0  0  0
   -4.0237    3.4044    1.4338 C   0  0  0  0  0  0  0  0  0  0  0  0
   -4.1223    2.0174    1.3163 C   0  0  0  0  0  0  0  0  0  0  0  0
   -3.1261    1.2563    0.6676 C   0  0  0  0  0  0  0  0  0  0  0  0
   -3.2463   -0.2191    0.5889 C   0  0  0  0  0  0  0  0  0  0  0  0
   -3.6359   -0.9244    1.7484 C   0  0  0  0  0  0  0  0  0  0  0  0
   -3.8581   -2.2954    1.7226 C   0  0  0  0  0  0  0  0  0  0  0  0
   -3.6920   -2.9457    0.5240 C   0  0  0  0  0  0  0  0  0  0  0  0
   -3.2981   -2.3253   -0.6081 N   0  0  0  0  0  0  0  0  0  0  0  0
   -3.0472   -0.9872   -0.5774 C   0  0  0  0  0  0  0  0  0  0  0  0
   -2.5689   -0.4506   -1.8105 N   0  0  0  0  0  0  0  0  0  0  0  0
   -2.9850   -1.1250   -3.0514 C   0  0  0  0  0  0  0  0  0  0  0  0
   -1.9642   -2.1671   -3.5323 C   0  0  0  0  0  0  0  0  0  0  0  0
   -2.0317   -3.3813   -2.7845 O   0  0  0  0  0  0  0  0  0  0  0  0
   -1.6592    0.5970   -1.9299 C   0  0  0  0  0  0  0  0  0  0  0  0
   -1.3485    1.0730   -3.0283 O   0  0  0  0  0  0  0  0  0  0  0  0
    1.9100    2.4680    1.9770 H   0  0  0  0  0  0  0  0  0  0  0  0
    0.3533    1.6340    1.9503 H   0  0  0  0  0  0  0  0  0  0  0  0
    1.7409    0.8865    2.7488 H   0  0  0  0  0  0  0  0  0  0  0  0
    1.3098   -0.1525    0.4694 H   0  0  0  0  0  0  0  0  0  0  0  0
    3.8138    1.1481   -0.0664 H   0  0  0  0  0  0  0  0  0  0  0  0
    5.7847    0.2235    1.5506 H   0  0  0  0  0  0  0  0  0  0  0  0
    5.5542   -0.4751   -0.0638 H   0  0  0  0  0  0  0  0  0  0  0  0
    5.4109   -2.7621    0.9336 H   0  0  0  0  0  0  0  0  0  0  0  0
    5.6127   -2.0920    2.5478 H   0  0  0  0  0  0  0  0  0  0  0  0
    0.0948    2.4855   -1.8231 H   0  0  0  0  0  0  0  0  0  0  0  0
   -0.6738    0.2762   -0.0353 H   0  0  0  0  0  0  0  0  0  0  0  0
   -1.0971    3.8908   -0.1827 H   0  0  0  0  0  0  0  0  0  0  0  0
   -2.8469    5.1470    0.9836 H   0  0  0  0  0  0  0  0  0  0  0  0
   -4.8056    3.9661    1.9406 H   0  0  0  0  0  0  0  0  0  0  0  0
   -5.0030    1.5318    1.7345 H   0  0  0  0  0  0  0  0  0  0  0  0
   -3.7737   -0.3989    2.6926 H   0  0  0  0  0  0  0  0  0  0  0  0
   -4.1636   -2.8329    2.6128 H   0  0  0  0  0  0  0  0  0  0  0  0
   -3.8640   -4.0152    0.4352 H   0  0  0  0  0  0  0  0  0  0  0  0
   -3.9763   -1.5735   -2.9144 H   0  0  0  0  0  0  0  0  0  0  0  0
   -3.0893   -0.3627   -3.8335 H   0  0  0  0  0  0  0  0  0  0  0  0
   -0.9412   -1.7847   -3.4709 H   0  0  0  0  0  0  0  0  0  0  0  0
   -2.1688   -2.4276   -4.5764 H   0  0  0  0  0  0  0  0  0  0  0  0
   -2.4008   -3.1538   -1.9044 H   0  0  0  0  0  0  0  0  0  0  0  0
  1  2  1  0
  2  3  1  0
  3  4  1  0
  4  5  2  0
  4  6  1  0
  6  7  1  0
  7  8  1  0
  8  9  1  0
  8 10  1  0
  8 11  1  0
  2 12  1  0
 12 13  2  0
 12 14  1  0
 14 15  1  0
 15 16  1  0
 16 17  2  0
 17 18  1  0
 18 19  2  0
 19 20  1  0
 20 21  2  0
 21 22  1  0
 22 23  2  0
 23 24  1  0
 24 25  2  0
 25 26  1  0
 26 27  2  0
 27 28  1  0
 28 29  1  0
 29 30  1  0
 30 31  1  0
 28 32  1  0
 32 33  2  0
 32 15  1  0
 21 16  1  0
 27 22  1  0
  1 34  1  0
  1 35  1  0
  1 36  1  0
  2 37  1  6
  3 38  1  0
  6 39  1  0
  6 40  1  0
  7 41  1  0
  7 42  1  0
 14 43  1  0
 15 44  1  1
 17 45  1  0
 18 46  1  0
 19 47  1  0
 20 48  1  0
 23 49  1  0
 24 50  1  0
 25 51  1  0
 29 52  1  0
 29 53  1  0
 30 54  1  0
 30 55  1  0
 31 56  1  0
M  END
>  <CID>  (53) 
40

>  <Energy>  (53) 
51.15898389228367

$$$$

     RDKit          3D

 56 58  0  0  0  0  0  0  0  0999 V2000
    3.0217   -2.1577   -0.3388 C   0  0  0  0  0  0  0  0  0  0  0  0
    2.7794   -0.7103    0.0698 C   0  0  2  0  0  0  0  0  0  0  0  0
    3.6245   -0.3268    1.1926 N   0  0  0  0  0  0  0  0  0  0  0  0
    4.9313    0.0571    1.0348 C   0  0  0  0  0  0  0  0  0  0  0  0
    5.4939    0.0976   -0.0530 O   0  0  0  0  0  0  0  0  0  0  0  0
    5.6067    0.4201    2.3381 C   0  0  0  0  0  0  0  0  0  0  0  0
    7.0308    0.9152    2.1137 C   0  0  0  0  0  0  0  0  0  0  0  0
    7.6985    1.2527    3.4214 C   0  0  0  0  0  0  0  0  0  0  0  0
    8.9532    1.7084    3.2195 F   0  0  0  0  0  0  0  0  0  0  0  0
    7.0160    2.2096    4.0859 F   0  0  0  0  0  0  0  0  0  0  0  0
    7.7782    0.1687    4.2228 F   0  0  0  0  0  0  0  0  0  0  0  0
    1.3150   -0.5165    0.4973 C   0  0  0  0  0  0  0  0  0  0  0  0
    0.9841   -0.4270    1.6790 O   0  0  0  0  0  0  0  0  0  0  0  0
    0.4171   -0.4678   -0.5375 N   0  0  0  0  0  0  0  0  0  0  0  0
   -1.0186   -0.3048   -0.3305 C   0  0  1  0  0  0  0  0  0  0  0  0
   -1.4722    1.1349   -0.2603 C   0  0  0  0  0  0  0  0  0  0  0  0
   -0.6212    2.2129   -0.5732 C   0  0  0  0  0  0  0  0  0  0  0  0
   -1.0929    3.5236   -0.5674 C   0  0  0  0  0  0  0  0  0  0  0  0
   -2.4227    3.7754   -0.2631 C   0  0  0  0  0  0  0  0  0  0  0  0
   -3.2752    2.7151    0.0463 C   0  0  0  0  0  0  0  0  0  0  0  0
   -2.8208    1.3784    0.0665 C   0  0  0  0  0  0  0  0  0  0  0  0
   -3.7528    0.2813    0.4254 C   0  0  0  0  0  0  0  0  0  0  0  0
   -4.6104    0.4703    1.5323 C   0  0  0  0  0  0  0  0  0  0  0  0
   -5.5945   -0.4549    1.8540 C   0  0  0  0  0  0  0  0  0  0  0  0
   -5.7151   -1.5599    1.0464 C   0  0  0  0  0  0  0  0  0  0  0  0
   -4.9083   -1.7988   -0.0061 N   0  0  0  0  0  0  0  0  0  0  0  0
   -3.9060   -0.9252   -0.2917 C   0  0  0  0  0  0  0  0  0  0  0  0
   -3.0625   -1.3255   -1.3739 N   0  0  0  0  0  0  0  0  0  0  0  0
   -3.6506   -2.2189   -2.3807 C   0  0  0  0  0  0  0  0  0  0  0  0
   -4.5503   -1.4697   -3.3629 C   0  0  0  0  0  0  0  0  0  0  0  0
   -5.0600   -2.3672   -4.3442 O   0  0  0  0  0  0  0  0  0  0  0  0
   -1.7300   -0.9676   -1.5286 C   0  0  0  0  0  0  0  0  0  0  0  0
   -1.0984   -1.1885   -2.5718 O   0  0  0  0  0  0  0  0  0  0  0  0
    4.0637   -2.3153   -0.6359 H   0  0  0  0  0  0  0  0  0  0  0  0
    2.8057   -2.8417    0.4893 H   0  0  0  0  0  0  0  0  0  0  0  0
    2.3825   -2.4446   -1.1800 H   0  0  0  0  0  0  0  0  0  0  0  0
    2.9938   -0.0415   -0.7718 H   0  0  0  0  0  0  0  0  0  0  0  0
    3.1813   -0.3071    2.1073 H   0  0  0  0  0  0  0  0  0  0  0  0
    5.6083   -0.4692    2.9790 H   0  0  0  0  0  0  0  0  0  0  0  0
    5.0086    1.1944    2.8339 H   0  0  0  0  0  0  0  0  0  0  0  0
    7.0215    1.8023    1.4696 H   0  0  0  0  0  0  0  0  0  0  0  0
    7.6184    0.1499    1.5939 H   0  0  0  0  0  0  0  0  0  0  0  0
    0.7141   -0.6070   -1.4993 H   0  0  0  0  0  0  0  0  0  0  0  0
   -1.2708   -0.8361    0.5948 H   0  0  0  0  0  0  0  0  0  0  0  0
    0.4208    2.0453   -0.8351 H   0  0  0  0  0  0  0  0  0  0  0  0
   -0.4232    4.3445   -0.8107 H   0  0  0  0  0  0  0  0  0  0  0  0
   -2.8005    4.7951   -0.2691 H   0  0  0  0  0  0  0  0  0  0  0  0
   -4.3168    2.9466    0.2647 H   0  0  0  0  0  0  0  0  0  0  0  0
   -4.5150    1.3592    2.1552 H   0  0  0  0  0  0  0  0  0  0  0  0
   -6.2544   -0.3048    2.7008 H   0  0  0  0  0  0  0  0  0  0  0  0
   -6.4771   -2.3125    1.2285 H   0  0  0  0  0  0  0  0  0  0  0  0
   -2.8558   -2.7188   -2.9485 H   0  0  0  0  0  0  0  0  0  0  0  0
   -4.1941   -3.0425   -1.9032 H   0  0  0  0  0  0  0  0  0  0  0  0
   -3.9877   -0.6811   -3.8733 H   0  0  0  0  0  0  0  0  0  0  0  0
   -5.3976   -1.0081   -2.8458 H   0  0  0  0  0  0  0  0  0  0  0  0
   -5.6138   -1.8413   -4.9454 H   0  0  0  0  0  0  0  0  0  0  0  0
  1  2  1  0
  2  3  1  0
  3  4  1  0
  4  5  2  0
  4  6  1  0
  6  7  1  0
  7  8  1  0
  8  9  1  0
  8 10  1  0
  8 11  1  0
  2 12  1  0
 12 13  2  0
 12 14  1  0
 14 15  1  0
 15 16  1  0
 16 17  2  0
 17 18  1  0
 18 19  2  0
 19 20  1  0
 20 21  2  0
 21 22  1  0
 22 23  2  0
 23 24  1  0
 24 25  2  0
 25 26  1  0
 26 27  2  0
 27 28  1  0
 28 29  1  0
 29 30  1  0
 30 31  1  0
 28 32  1  0
 32 33  2  0
 32 15  1  0
 21 16  1  0
 27 22  1  0
  1 34  1  0
  1 35  1  0
  1 36  1  0
  2 37  1  6
  3 38  1  0
  6 39  1  0
  6 40  1  0
  7 41  1  0
  7 42  1  0
 14 43  1  0
 15 44  1  1
 17 45  1  0
 18 46  1  0
 19 47  1  0
 20 48  1  0
 23 49  1  0
 24 50  1  0
 25 51  1  0
 29 52  1  0
 29 53  1  0
 30 54  1  0
 30 55  1  0
 31 56  1  0
M  END
>  <CID>  (54) 
92

>  <Energy>  (54) 
51.1823354317126

$$$$

     RDKit          3D

 56 58  0  0  0  0  0  0  0  0999 V2000
    2.0328   -3.1547   -0.3075 C   0  0  0  0  0  0  0  0  0  0  0  0
    1.7654   -1.6869   -0.0154 C   0  0  2  0  0  0  0  0  0  0  0  0
    2.8935   -1.0891    0.6944 N   0  0  0  0  0  0  0  0  0  0  0  0
    3.1541    0.2557    0.6225 C   0  0  0  0  0  0  0  0  0  0  0  0
    2.4353    1.0396    0.0117 O   0  0  0  0  0  0  0  0  0  0  0  0
    4.3592    0.6960    1.4261 C   0  0  0  0  0  0  0  0  0  0  0  0
    5.0321    1.9274    0.8250 C   0  0  0  0  0  0  0  0  0  0  0  0
    5.7789    1.5910   -0.4480 C   0  0  0  0  0  0  0  0  0  0  0  0
    6.7310    0.6499   -0.2062 F   0  0  0  0  0  0  0  0  0  0  0  0
    4.9628    1.1164   -1.4161 F   0  0  0  0  0  0  0  0  0  0  0  0
    6.4083    2.6928   -0.9341 F   0  0  0  0  0  0  0  0  0  0  0  0
    0.5045   -1.5047    0.8514 C   0  0  0  0  0  0  0  0  0  0  0  0
    0.0546   -2.3809    1.5813 O   0  0  0  0  0  0  0  0  0  0  0  0
   -0.0422   -0.2467    0.7682 N   0  0  0  0  0  0  0  0  0  0  0  0
   -1.1633    0.1678    1.6023 C   0  0  1  0  0  0  0  0  0  0  0  0
   -1.5439    1.6017    1.3148 C   0  0  0  0  0  0  0  0  0  0  0  0
   -1.4793    2.5587    2.3443 C   0  0  0  0  0  0  0  0  0  0  0  0
   -1.8858    3.8716    2.1170 C   0  0  0  0  0  0  0  0  0  0  0  0
   -2.3752    4.2352    0.8683 C   0  0  0  0  0  0  0  0  0  0  0  0
   -2.4436    3.2879   -0.1569 C   0  0  0  0  0  0  0  0  0  0  0  0
   -2.0177    1.9565    0.0335 C   0  0  0  0  0  0  0  0  0  0  0  0
   -2.0435    0.9892   -1.0946 C   0  0  0  0  0  0  0  0  0  0  0  0
   -1.6069    1.4346   -2.3642 C   0  0  0  0  0  0  0  0  0  0  0  0
   -1.6662    0.6125   -3.4835 C   0  0  0  0  0  0  0  0  0  0  0  0
   -2.1629   -0.6599   -3.3152 C   0  0  0  0  0  0  0  0  0  0  0  0
   -2.5639   -1.1473   -2.1233 N   0  0  0  0  0  0  0  0  0  0  0  0
   -2.4886   -0.3514   -1.0193 C   0  0  0  0  0  0  0  0  0  0  0  0
   -2.9190   -0.9756    0.1874 N   0  0  0  0  0  0  0  0  0  0  0  0
   -3.8695   -2.0854    0.0660 C   0  0  0  0  0  0  0  0  0  0  0  0
   -3.1762   -3.4492    0.0811 C   0  0  0  0  0  0  0  0  0  0  0  0
   -4.1421   -4.4943   -0.0483 O   0  0  0  0  0  0  0  0  0  0  0  0
   -2.4449   -0.6877    1.4619 C   0  0  0  0  0  0  0  0  0  0  0  0
   -3.0473   -1.0543    2.4801 O   0  0  0  0  0  0  0  0  0  0  0  0
    2.2023   -3.7277    0.6124 H   0  0  0  0  0  0  0  0  0  0  0  0
    2.9233   -3.2673   -0.9357 H   0  0  0  0  0  0  0  0  0  0  0  0
    1.1841   -3.6098   -0.8294 H   0  0  0  0  0  0  0  0  0  0  0  0
    1.6194   -1.1515   -0.9618 H   0  0  0  0  0  0  0  0  0  0  0  0
    3.3905   -1.6695    1.3621 H   0  0  0  0  0  0  0  0  0  0  0  0
    5.0794   -0.1266    1.5176 H   0  0  0  0  0  0  0  0  0  0  0  0
    3.9989    0.9305    2.4349 H   0  0  0  0  0  0  0  0  0  0  0  0
    5.7479    2.3283    1.5531 H   0  0  0  0  0  0  0  0  0  0  0  0
    4.3012    2.7197    0.6244 H   0  0  0  0  0  0  0  0  0  0  0  0
    0.5074    0.4695    0.2983 H   0  0  0  0  0  0  0  0  0  0  0  0
   -0.8192    0.0603    2.6401 H   0  0  0  0  0  0  0  0  0  0  0  0
   -1.1260    2.2785    3.3365 H   0  0  0  0  0  0  0  0  0  0  0  0
   -1.8378    4.6053    2.9184 H   0  0  0  0  0  0  0  0  0  0  0  0
   -2.7074    5.2551    0.6888 H   0  0  0  0  0  0  0  0  0  0  0  0
   -2.8482    3.6038   -1.1177 H   0  0  0  0  0  0  0  0  0  0  0  0
   -1.2125    2.4436   -2.4903 H   0  0  0  0  0  0  0  0  0  0  0  0
   -1.3432    0.9654   -4.4582 H   0  0  0  0  0  0  0  0  0  0  0  0
   -2.2500   -1.3489   -4.1508 H   0  0  0  0  0  0  0  0  0  0  0  0
   -4.4946   -1.9730   -0.8292 H   0  0  0  0  0  0  0  0  0  0  0  0
   -4.5789   -2.0472    0.9040 H   0  0  0  0  0  0  0  0  0  0  0  0
   -2.6280   -3.5964    1.0197 H   0  0  0  0  0  0  0  0  0  0  0  0
   -2.4617   -3.5391   -0.7456 H   0  0  0  0  0  0  0  0  0  0  0  0
   -3.6775   -5.3195    0.1651 H   0  0  0  0  0  0  0  0  0  0  0  0
  1  2  1  0
  2  3  1  0
  3  4  1  0
  4  5  2  0
  4  6  1  0
  6  7  1  0
  7  8  1  0
  8  9  1  0
  8 10  1  0
  8 11  1  0
  2 12  1  0
 12 13  2  0
 12 14  1  0
 14 15  1  0
 15 16  1  0
 16 17  2  0
 17 18  1  0
 18 19  2  0
 19 20  1  0
 20 21  2  0
 21 22  1  0
 22 23  2  0
 23 24  1  0
 24 25  2  0
 25 26  1  0
 26 27  2  0
 27 28  1  0
 28 29  1  0
 29 30  1  0
 30 31  1  0
 28 32  1  0
 32 33  2  0
 32 15  1  0
 21 16  1  0
 27 22  1  0
  1 34  1  0
  1 35  1  0
  1 36  1  0
  2 37  1  6
  3 38  1  0
  6 39  1  0
  6 40  1  0
  7 41  1  0
  7 42  1  0
 14 43  1  0
 15 44  1  1
 17 45  1  0
 18 46  1  0
 19 47  1  0
 20 48  1  0
 23 49  1  0
 24 50  1  0
 25 51  1  0
 29 52  1  0
 29 53  1  0
 30 54  1  0
 30 55  1  0
 31 56  1  0
M  END
>  <CID>  (55) 
93

>  <Energy>  (55) 
51.28362254743142

$$$$

     RDKit          3D

 56 58  0  0  0  0  0  0  0  0999 V2000
    3.0482   -2.0190   -0.5423 C   0  0  0  0  0  0  0  0  0  0  0  0
    2.7975   -0.6122   -0.0140 C   0  0  2  0  0  0  0  0  0  0  0  0
    3.6487   -0.3165    1.1305 N   0  0  0  0  0  0  0  0  0  0  0  0
    4.9495    0.0945    0.9936 C   0  0  0  0  0  0  0  0  0  0  0  0
    5.4994    0.2361   -0.0930 O   0  0  0  0  0  0  0  0  0  0  0  0
    5.6391    0.3426    2.3164 C   0  0  0  0  0  0  0  0  0  0  0  0
    7.0517    0.8801    2.1206 C   0  0  0  0  0  0  0  0  0  0  0  0
    7.7395    1.0883    3.4448 C   0  0  0  0  0  0  0  0  0  0  0  0
    7.0612    1.9656    4.2148 F   0  0  0  0  0  0  0  0  0  0  0  0
    8.9867    1.5732    3.2695 F   0  0  0  0  0  0  0  0  0  0  0  0
    7.8415   -0.0708    4.1300 F   0  0  0  0  0  0  0  0  0  0  0  0
    1.3338   -0.4691    0.4362 C   0  0  0  0  0  0  0  0  0  0  0  0
    1.0084   -0.4753    1.6231 O   0  0  0  0  0  0  0  0  0  0  0  0
    0.4293   -0.3556   -0.5878 N   0  0  0  0  0  0  0  0  0  0  0  0
   -1.0083   -0.2347   -0.3657 C   0  0  1  0  0  0  0  0  0  0  0  0
   -1.4911    1.1888   -0.2139 C   0  0  0  0  0  0  0  0  0  0  0  0
   -0.6613    2.2993   -0.4640 C   0  0  0  0  0  0  0  0  0  0  0  0
   -1.1585    3.5989   -0.3850 C   0  0  0  0  0  0  0  0  0  0  0  0
   -2.4939    3.8075   -0.0717 C   0  0  0  0  0  0  0  0  0  0  0  0
   -3.3252    2.7138    0.1756 C   0  0  0  0  0  0  0  0  0  0  0  0
   -2.8441    1.3871    0.1251 C   0  0  0  0  0  0  0  0  0  0  0  0
   -3.7539    0.2544    0.4255 C   0  0  0  0  0  0  0  0  0  0  0  0
   -4.6172    0.3687    1.5376 C   0  0  0  0  0  0  0  0  0  0  0  0
   -5.5838   -0.5913    1.8077 C   0  0  0  0  0  0  0  0  0  0  0  0
   -5.6797   -1.6573    0.9464 C   0  0  0  0  0  0  0  0  0  0  0  0
   -4.8672   -1.8265   -0.1161 N   0  0  0  0  0  0  0  0  0  0  0  0
   -3.8828   -0.9161   -0.3532 C   0  0  0  0  0  0  0  0  0  0  0  0
   -3.0351   -1.2395   -1.4583 N   0  0  0  0  0  0  0  0  0  0  0  0
   -3.6068   -2.1027   -2.4982 C   0  0  0  0  0  0  0  0  0  0  0  0
   -4.6164   -1.3709   -3.3855 C   0  0  0  0  0  0  0  0  0  0  0  0
   -5.2425   -2.2767   -4.2896 O   0  0  0  0  0  0  0  0  0  0  0  0
   -1.7101   -0.8477   -1.5959 C   0  0  0  0  0  0  0  0  0  0  0  0
   -1.0759   -1.0047   -2.6481 O   0  0  0  0  0  0  0  0  0  0  0  0
    4.0952   -2.1527   -0.8324 H   0  0  0  0  0  0  0  0  0  0  0  0
    2.8161   -2.7727    0.2204 H   0  0  0  0  0  0  0  0  0  0  0  0
    2.4233   -2.2298   -1.4169 H   0  0  0  0  0  0  0  0  0  0  0  0
    3.0007    0.1251   -0.7995 H   0  0  0  0  0  0  0  0  0  0  0  0
    3.2140   -0.3785    2.0479 H   0  0  0  0  0  0  0  0  0  0  0  0
    5.0379    1.0526    2.8947 H   0  0  0  0  0  0  0  0  0  0  0  0
    5.6670   -0.6061    2.8650 H   0  0  0  0  0  0  0  0  0  0  0  0
    7.6409    0.1809    1.5146 H   0  0  0  0  0  0  0  0  0  0  0  0
    7.0200    1.8283    1.5706 H   0  0  0  0  0  0  0  0  0  0  0  0
    0.7239   -0.4178   -1.5585 H   0  0  0  0  0  0  0  0  0  0  0  0
   -1.2457   -0.8217    0.5296 H   0  0  0  0  0  0  0  0  0  0  0  0
    0.3842    2.1670   -0.7336 H   0  0  0  0  0  0  0  0  0  0  0  0
   -0.5050    4.4457   -0.5801 H   0  0  0  0  0  0  0  0  0  0  0  0
   -2.8920    4.8192   -0.0225 H   0  0  0  0  0  0  0  0  0  0  0  0
   -4.3718    2.9127    0.4024 H   0  0  0  0  0  0  0  0  0  0  0  0
   -4.5425    1.2263    2.2053 H   0  0  0  0  0  0  0  0  0  0  0  0
   -6.2504   -0.4940    2.6576 H   0  0  0  0  0  0  0  0  0  0  0  0
   -6.4277   -2.4322    1.0893 H   0  0  0  0  0  0  0  0  0  0  0  0
   -2.8134   -2.5049   -3.1396 H   0  0  0  0  0  0  0  0  0  0  0  0
   -4.0568   -2.9947   -2.0455 H   0  0  0  0  0  0  0  0  0  0  0  0
   -4.1152   -0.5953   -3.9725 H   0  0  0  0  0  0  0  0  0  0  0  0
   -5.4009   -0.8843   -2.7978 H   0  0  0  0  0  0  0  0  0  0  0  0
   -5.7825   -2.8853   -3.7525 H   0  0  0  0  0  0  0  0  0  0  0  0
  1  2  1  0
  2  3  1  0
  3  4  1  0
  4  5  2  0
  4  6  1  0
  6  7  1  0
  7  8  1  0
  8  9  1  0
  8 10  1  0
  8 11  1  0
  2 12  1  0
 12 13  2  0
 12 14  1  0
 14 15  1  0
 15 16  1  0
 16 17  2  0
 17 18  1  0
 18 19  2  0
 19 20  1  0
 20 21  2  0
 21 22  1  0
 22 23  2  0
 23 24  1  0
 24 25  2  0
 25 26  1  0
 26 27  2  0
 27 28  1  0
 28 29  1  0
 29 30  1  0
 30 31  1  0
 28 32  1  0
 32 33  2  0
 32 15  1  0
 21 16  1  0
 27 22  1  0
  1 34  1  0
  1 35  1  0
  1 36  1  0
  2 37  1  6
  3 38  1  0
  6 39  1  0
  6 40  1  0
  7 41  1  0
  7 42  1  0
 14 43  1  0
 15 44  1  1
 17 45  1  0
 18 46  1  0
 19 47  1  0
 20 48  1  0
 23 49  1  0
 24 50  1  0
 25 51  1  0
 29 52  1  0
 29 53  1  0
 30 54  1  0
 30 55  1  0
 31 56  1  0
M  END
>  <CID>  (56) 
86

>  <Energy>  (56) 
51.42807246908961

$$$$

     RDKit          3D

 56 58  0  0  0  0  0  0  0  0999 V2000
    3.0763   -1.9448   -0.6490 C   0  0  0  0  0  0  0  0  0  0  0  0
    2.8069   -0.5654   -0.0592 C   0  0  2  0  0  0  0  0  0  0  0  0
    3.6474   -0.3107    1.1038 N   0  0  0  0  0  0  0  0  0  0  0  0
    4.9526    0.0942    0.9961 C   0  0  0  0  0  0  0  0  0  0  0  0
    5.5185    0.2613   -0.0781 O   0  0  0  0  0  0  0  0  0  0  0  0
    5.6246    0.3004    2.3350 C   0  0  0  0  0  0  0  0  0  0  0  0
    7.0362    0.8528    2.1761 C   0  0  0  0  0  0  0  0  0  0  0  0
    7.7136    0.9979    3.5144 C   0  0  0  0  0  0  0  0  0  0  0  0
    8.9563    1.5047    3.3731 F   0  0  0  0  0  0  0  0  0  0  0  0
    7.8239   -0.1945    4.1380 F   0  0  0  0  0  0  0  0  0  0  0  0
    7.0214    1.8261    4.3260 F   0  0  0  0  0  0  0  0  0  0  0  0
    1.3397   -0.4551    0.3901 C   0  0  0  0  0  0  0  0  0  0  0  0
    1.0139   -0.4925    1.5769 O   0  0  0  0  0  0  0  0  0  0  0  0
    0.4335   -0.3287   -0.6311 N   0  0  0  0  0  0  0  0  0  0  0  0
   -1.0033   -0.2191   -0.3995 C   0  0  1  0  0  0  0  0  0  0  0  0
   -1.4918    1.2003   -0.2250 C   0  0  0  0  0  0  0  0  0  0  0  0
   -0.6737    2.3189   -0.4795 C   0  0  0  0  0  0  0  0  0  0  0  0
   -1.1759    3.6128   -0.3716 C   0  0  0  0  0  0  0  0  0  0  0  0
   -2.5040    3.8079   -0.0227 C   0  0  0  0  0  0  0  0  0  0  0  0
   -3.3247    2.7074    0.2272 C   0  0  0  0  0  0  0  0  0  0  0  0
   -2.8388    1.3856    0.1431 C   0  0  0  0  0  0  0  0  0  0  0  0
   -3.7365    0.2427    0.4400 C   0  0  0  0  0  0  0  0  0  0  0  0
   -4.5781    0.3312    1.5707 C   0  0  0  0  0  0  0  0  0  0  0  0
   -5.5313   -0.6406    1.8438 C   0  0  0  0  0  0  0  0  0  0  0  0
   -5.6378   -1.6905    0.9648 C   0  0  0  0  0  0  0  0  0  0  0  0
   -4.8461   -1.8348   -0.1164 N   0  0  0  0  0  0  0  0  0  0  0  0
   -3.8716   -0.9150   -0.3558 C   0  0  0  0  0  0  0  0  0  0  0  0
   -3.0390   -1.2176   -1.4788 N   0  0  0  0  0  0  0  0  0  0  0  0
   -3.6193   -2.0743   -2.5193 C   0  0  0  0  0  0  0  0  0  0  0  0
   -4.6557   -1.3454   -3.3778 C   0  0  0  0  0  0  0  0  0  0  0  0
   -5.2779   -2.2460   -4.2920 O   0  0  0  0  0  0  0  0  0  0  0  0
   -1.7159   -0.8224   -1.6277 C   0  0  0  0  0  0  0  0  0  0  0  0
   -1.0911   -0.9734   -2.6869 O   0  0  0  0  0  0  0  0  0  0  0  0
    2.8654   -2.7345    0.0816 H   0  0  0  0  0  0  0  0  0  0  0  0
    4.1226   -2.0474   -0.9558 H   0  0  0  0  0  0  0  0  0  0  0  0
    2.4476   -2.1298   -1.5264 H   0  0  0  0  0  0  0  0  0  0  0  0
    3.0062    0.2096   -0.8087 H   0  0  0  0  0  0  0  0  0  0  0  0
    3.1996   -0.3902    2.0135 H   0  0  0  0  0  0  0  0  0  0  0  0
    5.0126    0.9896    2.9289 H   0  0  0  0  0  0  0  0  0  0  0  0
    5.6473   -0.6652    2.8547 H   0  0  0  0  0  0  0  0  0  0  0  0
    7.6343    0.1903    1.5379 H   0  0  0  0  0  0  0  0  0  0  0  0
    7.0012    1.8292    1.6753 H   0  0  0  0  0  0  0  0  0  0  0  0
    0.7254   -0.3715   -1.6037 H   0  0  0  0  0  0  0  0  0  0  0  0
   -1.2297   -0.8172    0.4911 H   0  0  0  0  0  0  0  0  0  0  0  0
    0.3655    2.1968   -0.7742 H   0  0  0  0  0  0  0  0  0  0  0  0
   -0.5316    4.4656   -0.5711 H   0  0  0  0  0  0  0  0  0  0  0  0
   -2.9052    4.8146    0.0523 H   0  0  0  0  0  0  0  0  0  0  0  0
   -4.3666    2.8960    0.4816 H   0  0  0  0  0  0  0  0  0  0  0  0
   -4.4953    1.1768    2.2513 H   0  0  0  0  0  0  0  0  0  0  0  0
   -6.1786   -0.5676    2.7105 H   0  0  0  0  0  0  0  0  0  0  0  0
   -6.3765   -2.4732    1.1105 H   0  0  0  0  0  0  0  0  0  0  0  0
   -4.0489   -2.9770   -2.0684 H   0  0  0  0  0  0  0  0  0  0  0  0
   -2.8338   -2.4580   -3.1810 H   0  0  0  0  0  0  0  0  0  0  0  0
   -5.4410   -0.8857   -2.7692 H   0  0  0  0  0  0  0  0  0  0  0  0
   -4.1772   -0.5481   -3.9568 H   0  0  0  0  0  0  0  0  0  0  0  0
   -5.7961   -2.8766   -3.7613 H   0  0  0  0  0  0  0  0  0  0  0  0
  1  2  1  0
  2  3  1  0
  3  4  1  0
  4  5  2  0
  4  6  1  0
  6  7  1  0
  7  8  1  0
  8  9  1  0
  8 10  1  0
  8 11  1  0
  2 12  1  0
 12 13  2  0
 12 14  1  0
 14 15  1  0
 15 16  1  0
 16 17  2  0
 17 18  1  0
 18 19  2  0
 19 20  1  0
 20 21  2  0
 21 22  1  0
 22 23  2  0
 23 24  1  0
 24 25  2  0
 25 26  1  0
 26 27  2  0
 27 28  1  0
 28 29  1  0
 29 30  1  0
 30 31  1  0
 28 32  1  0
 32 33  2  0
 32 15  1  0
 21 16  1  0
 27 22  1  0
  1 34  1  0
  1 35  1  0
  1 36  1  0
  2 37  1  6
  3 38  1  0
  6 39  1  0
  6 40  1  0
  7 41  1  0
  7 42  1  0
 14 43  1  0
 15 44  1  1
 17 45  1  0
 18 46  1  0
 19 47  1  0
 20 48  1  0
 23 49  1  0
 24 50  1  0
 25 51  1  0
 29 52  1  0
 29 53  1  0
 30 54  1  0
 30 55  1  0
 31 56  1  0
M  END
>  <CID>  (57) 
88

>  <Energy>  (57) 
51.43958728094455

$$$$

     RDKit          3D

 56 58  0  0  0  0  0  0  0  0999 V2000
    2.4355    0.9137    4.2019 C   0  0  0  0  0  0  0  0  0  0  0  0
    2.1566    0.0905    2.9506 C   0  0  2  0  0  0  0  0  0  0  0  0
    3.0163    0.5210    1.8442 N   0  0  0  0  0  0  0  0  0  0  0  0
    4.2826    0.0152    1.6755 C   0  0  0  0  0  0  0  0  0  0  0  0
    4.7893   -0.8039    2.4321 O   0  0  0  0  0  0  0  0  0  0  0  0
    5.0173    0.6086    0.4911 C   0  0  0  0  0  0  0  0  0  0  0  0
    6.1882   -0.2596    0.0422 C   0  0  0  0  0  0  0  0  0  0  0  0
    5.7262   -1.4790   -0.7257 C   0  0  0  0  0  0  0  0  0  0  0  0
    5.0760   -1.1065   -1.8517 F   0  0  0  0  0  0  0  0  0  0  0  0
    6.7856   -2.2292   -1.1020 F   0  0  0  0  0  0  0  0  0  0  0  0
    4.8961   -2.2622   -0.0136 F   0  0  0  0  0  0  0  0  0  0  0  0
    0.6682    0.1791    2.5530 C   0  0  0  0  0  0  0  0  0  0  0  0
   -0.2429    0.3017    3.3662 O   0  0  0  0  0  0  0  0  0  0  0  0
    0.4387   -0.0236    1.2128 N   0  0  0  0  0  0  0  0  0  0  0  0
   -0.8977   -0.0937    0.6292 C   0  0  1  0  0  0  0  0  0  0  0  0
   -1.5293    1.2495    0.3430 C   0  0  0  0  0  0  0  0  0  0  0  0
   -0.8121    2.4588    0.4159 C   0  0  0  0  0  0  0  0  0  0  0  0
   -1.4149    3.6707    0.0855 C   0  0  0  0  0  0  0  0  0  0  0  0
   -2.7365    3.6902   -0.3366 C   0  0  0  0  0  0  0  0  0  0  0  0
   -3.4554    2.4972   -0.4187 C   0  0  0  0  0  0  0  0  0  0  0  0
   -2.8750    1.2581   -0.0744 C   0  0  0  0  0  0  0  0  0  0  0  0
   -3.6736    0.0121   -0.1555 C   0  0  0  0  0  0  0  0  0  0  0  0
   -4.9869    0.0207    0.3619 C   0  0  0  0  0  0  0  0  0  0  0  0
   -5.8283   -1.0749    0.2191 C   0  0  0  0  0  0  0  0  0  0  0  0
   -5.3417   -2.1682   -0.4575 C   0  0  0  0  0  0  0  0  0  0  0  0
   -4.0912   -2.2363   -0.9557 N   0  0  0  0  0  0  0  0  0  0  0  0
   -3.2458   -1.1839   -0.7702 C   0  0  0  0  0  0  0  0  0  0  0  0
   -1.9221   -1.3954   -1.2636 N   0  0  0  0  0  0  0  0  0  0  0  0
   -1.7805   -2.3262   -2.3948 C   0  0  0  0  0  0  0  0  0  0  0  0
   -2.4565   -1.8280   -3.6782 C   0  0  0  0  0  0  0  0  0  0  0  0
   -1.8357   -0.6311   -4.1419 O   0  0  0  0  0  0  0  0  0  0  0  0
   -0.7671   -0.8599   -0.7053 C   0  0  0  0  0  0  0  0  0  0  0  0
    0.3590   -1.0150   -1.2005 O   0  0  0  0  0  0  0  0  0  0  0  0
    2.2075    1.9725    4.0342 H   0  0  0  0  0  0  0  0  0  0  0  0
    1.8250    0.5711    5.0440 H   0  0  0  0  0  0  0  0  0  0  0  0
    3.4879    0.8422    4.4959 H   0  0  0  0  0  0  0  0  0  0  0  0
    2.3660   -0.9661    3.1575 H   0  0  0  0  0  0  0  0  0  0  0  0
    2.6766    1.2518    1.2312 H   0  0  0  0  0  0  0  0  0  0  0  0
    5.3946    1.5873    0.8110 H   0  0  0  0  0  0  0  0  0  0  0  0
    4.3192    0.7785   -0.3363 H   0  0  0  0  0  0  0  0  0  0  0  0
    6.8375    0.3347   -0.6112 H   0  0  0  0  0  0  0  0  0  0  0  0
    6.7989   -0.5715    0.8967 H   0  0  0  0  0  0  0  0  0  0  0  0
    1.2069   -0.3021    0.6067 H   0  0  0  0  0  0  0  0  0  0  0  0
   -1.5120   -0.6692    1.3321 H   0  0  0  0  0  0  0  0  0  0  0  0
    0.2287    2.4708    0.7255 H   0  0  0  0  0  0  0  0  0  0  0  0
   -0.8488    4.5963    0.1487 H   0  0  0  0  0  0  0  0  0  0  0  0
   -3.2091    4.6306   -0.6075 H   0  0  0  0  0  0  0  0  0  0  0  0
   -4.4842    2.5434   -0.7718 H   0  0  0  0  0  0  0  0  0  0  0  0
   -5.3646    0.8983    0.8848 H   0  0  0  0  0  0  0  0  0  0  0  0
   -6.8373   -1.0650    0.6153 H   0  0  0  0  0  0  0  0  0  0  0  0
   -5.9552   -3.0503   -0.6176 H   0  0  0  0  0  0  0  0  0  0  0  0
   -2.1822   -3.3035   -2.1023 H   0  0  0  0  0  0  0  0  0  0  0  0
   -0.7182   -2.4864   -2.6094 H   0  0  0  0  0  0  0  0  0  0  0  0
   -2.3543   -2.5854   -4.4622 H   0  0  0  0  0  0  0  0  0  0  0  0
   -3.5215   -1.6267   -3.5320 H   0  0  0  0  0  0  0  0  0  0  0  0
   -2.3037   -0.3619   -4.9501 H   0  0  0  0  0  0  0  0  0  0  0  0
  1  2  1  0
  2  3  1  0
  3  4  1  0
  4  5  2  0
  4  6  1  0
  6  7  1  0
  7  8  1  0
  8  9  1  0
  8 10  1  0
  8 11  1  0
  2 12  1  0
 12 13  2  0
 12 14  1  0
 14 15  1  0
 15 16  1  0
 16 17  2  0
 17 18  1  0
 18 19  2  0
 19 20  1  0
 20 21  2  0
 21 22  1  0
 22 23  2  0
 23 24  1  0
 24 25  2  0
 25 26  1  0
 26 27  2  0
 27 28  1  0
 28 29  1  0
 29 30  1  0
 30 31  1  0
 28 32  1  0
 32 33  2  0
 32 15  1  0
 21 16  1  0
 27 22  1  0
  1 34  1  0
  1 35  1  0
  1 36  1  0
  2 37  1  1
  3 38  1  0
  6 39  1  0
  6 40  1  0
  7 41  1  0
  7 42  1  0
 14 43  1  0
 15 44  1  1
 17 45  1  0
 18 46  1  0
 19 47  1  0
 20 48  1  0
 23 49  1  0
 24 50  1  0
 25 51  1  0
 29 52  1  0
 29 53  1  0
 30 54  1  0
 30 55  1  0
 31 56  1  0
M  END
>  <CID>  (58) 
68

>  <Energy>  (58) 
52.02993306565447

$$$$

     RDKit          3D

 56 58  0  0  0  0  0  0  0  0999 V2000
    1.3611    0.1697   -1.6691 C   0  0  0  0  0  0  0  0  0  0  0  0
    1.8253    0.2166   -0.2181 C   0  0  2  0  0  0  0  0  0  0  0  0
    3.0737   -0.5094   -0.0323 N   0  0  0  0  0  0  0  0  0  0  0  0
    4.2900    0.0341   -0.3506 C   0  0  0  0  0  0  0  0  0  0  0  0
    4.4197    1.1434   -0.8557 O   0  0  0  0  0  0  0  0  0  0  0  0
    5.4608   -0.8830   -0.0673 C   0  0  0  0  0  0  0  0  0  0  0  0
    6.7566   -0.1093    0.1512 C   0  0  0  0  0  0  0  0  0  0  0  0
    6.7822    0.5795    1.4982 C   0  0  0  0  0  0  0  0  0  0  0  0
    5.7775    1.4613    1.6543 F   0  0  0  0  0  0  0  0  0  0  0  0
    7.9465    1.2447    1.6669 F   0  0  0  0  0  0  0  0  0  0  0  0
    6.6885   -0.3285    2.4966 F   0  0  0  0  0  0  0  0  0  0  0  0
    0.7652   -0.4274    0.6905 C   0  0  0  0  0  0  0  0  0  0  0  0
    0.8915   -1.5650    1.1404 O   0  0  0  0  0  0  0  0  0  0  0  0
   -0.3461    0.3474    0.9169 N   0  0  0  0  0  0  0  0  0  0  0  0
   -1.4331   -0.1177    1.7736 C   0  0  1  0  0  0  0  0  0  0  0  0
   -2.4294    0.9863    2.0379 C   0  0  0  0  0  0  0  0  0  0  0  0
   -2.6545    1.4120    3.3604 C   0  0  0  0  0  0  0  0  0  0  0  0
   -3.6222    2.3716    3.6417 C   0  0  0  0  0  0  0  0  0  0  0  0
   -4.3813    2.9056    2.6090 C   0  0  0  0  0  0  0  0  0  0  0  0
   -4.1594    2.4909    1.2935 C   0  0  0  0  0  0  0  0  0  0  0  0
   -3.1717    1.5364    0.9733 C   0  0  0  0  0  0  0  0  0  0  0  0
   -2.9149    1.1641   -0.4408 C   0  0  0  0  0  0  0  0  0  0  0  0
   -2.8758    2.1955   -1.4064 C   0  0  0  0  0  0  0  0  0  0  0  0
   -2.7029    1.9217   -2.7574 C   0  0  0  0  0  0  0  0  0  0  0  0
   -2.5700    0.6057   -3.1286 C   0  0  0  0  0  0  0  0  0  0  0  0
   -2.5734   -0.4135   -2.2485 N   0  0  0  0  0  0  0  0  0  0  0  0
   -2.7181   -0.1495   -0.9204 C   0  0  0  0  0  0  0  0  0  0  0  0
   -2.6769   -1.3001   -0.0828 N   0  0  0  0  0  0  0  0  0  0  0  0
   -3.0891   -2.5729   -0.6826 C   0  0  0  0  0  0  0  0  0  0  0  0
   -1.9014   -3.3965   -1.1843 C   0  0  0  0  0  0  0  0  0  0  0  0
   -2.3619   -4.6088   -1.7768 O   0  0  0  0  0  0  0  0  0  0  0  0
   -2.2093   -1.3378    1.2253 C   0  0  0  0  0  0  0  0  0  0  0  0
   -2.4340   -2.3012    1.9684 O   0  0  0  0  0  0  0  0  0  0  0  0
    2.1178    0.5842   -2.3429 H   0  0  0  0  0  0  0  0  0  0  0  0
    0.4389    0.7434   -1.8052 H   0  0  0  0  0  0  0  0  0  0  0  0
    1.1607   -0.8602   -1.9864 H   0  0  0  0  0  0  0  0  0  0  0  0
    1.9786    1.2564    0.0937 H   0  0  0  0  0  0  0  0  0  0  0  0
    3.0047   -1.4280    0.3984 H   0  0  0  0  0  0  0  0  0  0  0  0
    5.5702   -1.5361   -0.9412 H   0  0  0  0  0  0  0  0  0  0  0  0
    5.2423   -1.5225    0.7954 H   0  0  0  0  0  0  0  0  0  0  0  0
    7.5982   -0.8100    0.1030 H   0  0  0  0  0  0  0  0  0  0  0  0
    6.9126    0.6296   -0.6426 H   0  0  0  0  0  0  0  0  0  0  0  0
   -0.3587    1.3067    0.5959 H   0  0  0  0  0  0  0  0  0  0  0  0
   -0.9648   -0.4399    2.7131 H   0  0  0  0  0  0  0  0  0  0  0  0
   -2.0876    0.9799    4.1838 H   0  0  0  0  0  0  0  0  0  0  0  0
   -3.7956    2.6876    4.6674 H   0  0  0  0  0  0  0  0  0  0  0  0
   -5.1516    3.6422    2.8243 H   0  0  0  0  0  0  0  0  0  0  0  0
   -4.7847    2.9209    0.5123 H   0  0  0  0  0  0  0  0  0  0  0  0
   -2.9860    3.2366   -1.1059 H   0  0  0  0  0  0  0  0  0  0  0  0
   -2.6848    2.7154   -3.4959 H   0  0  0  0  0  0  0  0  0  0  0  0
   -2.4472    0.3212   -4.1697 H   0  0  0  0  0  0  0  0  0  0  0  0
   -3.6316   -3.1642    0.0664 H   0  0  0  0  0  0  0  0  0  0  0  0
   -3.8199   -2.4090   -1.4848 H   0  0  0  0  0  0  0  0  0  0  0  0
   -1.2298   -3.6497   -0.3571 H   0  0  0  0  0  0  0  0  0  0  0  0
   -1.3254   -2.8455   -1.9342 H   0  0  0  0  0  0  0  0  0  0  0  0
   -1.5696   -5.1252   -2.0029 H   0  0  0  0  0  0  0  0  0  0  0  0
  1  2  1  0
  2  3  1  0
  3  4  1  0
  4  5  2  0
  4  6  1  0
  6  7  1  0
  7  8  1  0
  8  9  1  0
  8 10  1  0
  8 11  1  0
  2 12  1  0
 12 13  2  0
 12 14  1  0
 14 15  1  0
 15 16  1  0
 16 17  2  0
 17 18  1  0
 18 19  2  0
 19 20  1  0
 20 21  2  0
 21 22  1  0
 22 23  2  0
 23 24  1  0
 24 25  2  0
 25 26  1  0
 26 27  2  0
 27 28  1  0
 28 29  1  0
 29 30  1  0
 30 31  1  0
 28 32  1  0
 32 33  2  0
 32 15  1  0
 21 16  1  0
 27 22  1  0
  1 34  1  0
  1 35  1  0
  1 36  1  0
  2 37  1  1
  3 38  1  0
  6 39  1  0
  6 40  1  0
  7 41  1  0
  7 42  1  0
 14 43  1  0
 15 44  1  1
 17 45  1  0
 18 46  1  0
 19 47  1  0
 20 48  1  0
 23 49  1  0
 24 50  1  0
 25 51  1  0
 29 52  1  0
 29 53  1  0
 30 54  1  0
 30 55  1  0
 31 56  1  0
M  END
>  <CID>  (59) 
6

>  <Energy>  (59) 
52.20900071917622

$$$$

     RDKit          3D

 56 58  0  0  0  0  0  0  0  0999 V2000
    2.2996    0.1991    4.1729 C   0  0  0  0  0  0  0  0  0  0  0  0
    1.9686   -0.3793    2.8037 C   0  0  2  0  0  0  0  0  0  0  0  0
    2.8698    0.1635    1.7833 N   0  0  0  0  0  0  0  0  0  0  0  0
    4.0489   -0.4599    1.4482 C   0  0  0  0  0  0  0  0  0  0  0  0
    4.4238   -1.5109    1.9524 O   0  0  0  0  0  0  0  0  0  0  0  0
    4.8352    0.2864    0.3932 C   0  0  0  0  0  0  0  0  0  0  0  0
    6.1225   -0.4438    0.0285 C   0  0  0  0  0  0  0  0  0  0  0  0
    6.9067    0.3260   -1.0028 C   0  0  0  0  0  0  0  0  0  0  0  0
    6.1909    0.4949   -2.1350 F   0  0  0  0  0  0  0  0  0  0  0  0
    8.0461   -0.3205   -1.3266 F   0  0  0  0  0  0  0  0  0  0  0  0
    7.2441    1.5503   -0.5423 F   0  0  0  0  0  0  0  0  0  0  0  0
    0.4975   -0.1109    2.4246 C   0  0  0  0  0  0  0  0  0  0  0  0
   -0.4115   -0.0365    3.2456 O   0  0  0  0  0  0  0  0  0  0  0  0
    0.2691   -0.1008    1.0684 N   0  0  0  0  0  0  0  0  0  0  0  0
   -1.0621    0.0091    0.4823 C   0  0  1  0  0  0  0  0  0  0  0  0
   -1.5741    1.4251    0.3477 C   0  0  0  0  0  0  0  0  0  0  0  0
   -0.7563    2.5512    0.5604 C   0  0  0  0  0  0  0  0  0  0  0  0
   -1.2478    3.8405    0.3683 C   0  0  0  0  0  0  0  0  0  0  0  0
   -2.5574    4.0231   -0.0519 C   0  0  0  0  0  0  0  0  0  0  0  0
   -3.3761    2.9146   -0.2707 C   0  0  0  0  0  0  0  0  0  0  0  0
   -2.9096    1.5985   -0.0688 C   0  0  0  0  0  0  0  0  0  0  0  0
   -3.8135    0.4453   -0.2951 C   0  0  0  0  0  0  0  0  0  0  0  0
   -5.1277    0.5087    0.2149 C   0  0  0  0  0  0  0  0  0  0  0  0
   -6.0580   -0.4861   -0.0580 C   0  0  0  0  0  0  0  0  0  0  0  0
   -5.6579   -1.5333   -0.8542 C   0  0  0  0  0  0  0  0  0  0  0  0
   -4.4102   -1.6536   -1.3504 N   0  0  0  0  0  0  0  0  0  0  0  0
   -3.4833   -0.7045   -1.0434 C   0  0  0  0  0  0  0  0  0  0  0  0
   -2.1766   -0.9698   -1.5507 N   0  0  0  0  0  0  0  0  0  0  0  0
   -2.0927   -1.8024   -2.7527 C   0  0  0  0  0  0  0  0  0  0  0  0
   -1.9139   -3.2908   -2.4401 C   0  0  0  0  0  0  0  0  0  0  0  0
   -2.0318   -4.0712   -3.6274 O   0  0  0  0  0  0  0  0  0  0  0  0
   -0.9871   -0.6127   -0.9288 C   0  0  0  0  0  0  0  0  0  0  0  0
    0.1185   -0.8189   -1.4498 O   0  0  0  0  0  0  0  0  0  0  0  0
    1.6573   -0.2305    4.9487 H   0  0  0  0  0  0  0  0  0  0  0  0
    2.1565    1.2855    4.1858 H   0  0  0  0  0  0  0  0  0  0  0  0
    3.3412   -0.0033    4.4439 H   0  0  0  0  0  0  0  0  0  0  0  0
    2.0909   -1.4687    2.8330 H   0  0  0  0  0  0  0  0  0  0  0  0
    2.6374    1.0573    1.3681 H   0  0  0  0  0  0  0  0  0  0  0  0
    5.0612    1.2868    0.7808 H   0  0  0  0  0  0  0  0  0  0  0  0
    4.1991    0.4019   -0.4923 H   0  0  0  0  0  0  0  0  0  0  0  0
    6.7413   -0.5861    0.9224 H   0  0  0  0  0  0  0  0  0  0  0  0
    5.8907   -1.4426   -0.3596 H   0  0  0  0  0  0  0  0  0  0  0  0
    1.0293   -0.3305    0.4328 H   0  0  0  0  0  0  0  0  0  0  0  0
   -1.7320   -0.5855    1.1149 H   0  0  0  0  0  0  0  0  0  0  0  0
    0.2773    2.4379    0.8744 H   0  0  0  0  0  0  0  0  0  0  0  0
   -0.6053    4.7006    0.5392 H   0  0  0  0  0  0  0  0  0  0  0  0
   -2.9439    5.0261   -0.2138 H   0  0  0  0  0  0  0  0  0  0  0  0
   -4.3934    3.0914   -0.6169 H   0  0  0  0  0  0  0  0  0  0  0  0
   -5.4367    1.3498    0.8340 H   0  0  0  0  0  0  0  0  0  0  0  0
   -7.0686   -0.4333    0.3313 H   0  0  0  0  0  0  0  0  0  0  0  0
   -6.3439   -2.3332   -1.1184 H   0  0  0  0  0  0  0  0  0  0  0  0
   -2.9695   -1.6370   -3.3919 H   0  0  0  0  0  0  0  0  0  0  0  0
   -1.2412   -1.4707   -3.3610 H   0  0  0  0  0  0  0  0  0  0  0  0
   -2.6554   -3.6522   -1.7209 H   0  0  0  0  0  0  0  0  0  0  0  0
   -0.9244   -3.4761   -2.0099 H   0  0  0  0  0  0  0  0  0  0  0  0
   -2.9620   -4.0180   -3.9090 H   0  0  0  0  0  0  0  0  0  0  0  0
  1  2  1  0
  2  3  1  0
  3  4  1  0
  4  5  2  0
  4  6  1  0
  6  7  1  0
  7  8  1  0
  8  9  1  0
  8 10  1  0
  8 11  1  0
  2 12  1  0
 12 13  2  0
 12 14  1  0
 14 15  1  0
 15 16  1  0
 16 17  2  0
 17 18  1  0
 18 19  2  0
 19 20  1  0
 20 21  2  0
 21 22  1  0
 22 23  2  0
 23 24  1  0
 24 25  2  0
 25 26  1  0
 26 27  2  0
 27 28  1  0
 28 29  1  0
 29 30  1  0
 30 31  1  0
 28 32  1  0
 32 33  2  0
 32 15  1  0
 21 16  1  0
 27 22  1  0
  1 34  1  0
  1 35  1  0
  1 36  1  0
  2 37  1  1
  3 38  1  0
  6 39  1  0
  6 40  1  0
  7 41  1  0
  7 42  1  0
 14 43  1  0
 15 44  1  1
 17 45  1  0
 18 46  1  0
 19 47  1  0
 20 48  1  0
 23 49  1  0
 24 50  1  0
 25 51  1  0
 29 52  1  0
 29 53  1  0
 30 54  1  0
 30 55  1  0
 31 56  1  0
M  END
>  <CID>  (60) 
23

>  <Energy>  (60) 
52.48986063461308

$$$$

     RDKit          3D

 56 58  0  0  0  0  0  0  0  0999 V2000
    2.4318    0.8187    4.2617 C   0  0  0  0  0  0  0  0  0  0  0  0
    2.1588    0.0616    2.9684 C   0  0  2  0  0  0  0  0  0  0  0  0
    3.0229    0.5504    1.8902 N   0  0  0  0  0  0  0  0  0  0  0  0
    4.2788    0.0332    1.6827 C   0  0  0  0  0  0  0  0  0  0  0  0
    4.7684   -0.8500    2.3759 O   0  0  0  0  0  0  0  0  0  0  0  0
    5.0273    0.6957    0.5446 C   0  0  0  0  0  0  0  0  0  0  0  0
    6.1344   -0.1939   -0.0119 C   0  0  0  0  0  0  0  0  0  0  0  0
    5.5811   -1.3109   -0.8699 C   0  0  0  0  0  0  0  0  0  0  0  0
    4.9233   -0.8010   -1.9362 F   0  0  0  0  0  0  0  0  0  0  0  0
    6.5825   -2.0836   -1.3446 F   0  0  0  0  0  0  0  0  0  0  0  0
    4.7243   -2.1050   -0.2024 F   0  0  0  0  0  0  0  0  0  0  0  0
    0.6728    0.1681    2.5675 C   0  0  0  0  0  0  0  0  0  0  0  0
   -0.2425    0.2616    3.3798 O   0  0  0  0  0  0  0  0  0  0  0  0
    0.4480    0.0132    1.2194 N   0  0  0  0  0  0  0  0  0  0  0  0
   -0.8879   -0.0378    0.6353 C   0  0  1  0  0  0  0  0  0  0  0  0
   -1.5137    1.3125    0.3737 C   0  0  0  0  0  0  0  0  0  0  0  0
   -0.7917    2.5169    0.4794 C   0  0  0  0  0  0  0  0  0  0  0  0
   -1.3835    3.7377    0.1635 C   0  0  0  0  0  0  0  0  0  0  0  0
   -2.6986    3.7716   -0.2765 C   0  0  0  0  0  0  0  0  0  0  0  0
   -3.4225    2.5841   -0.3892 C   0  0  0  0  0  0  0  0  0  0  0  0
   -2.8547    1.3348   -0.0587 C   0  0  0  0  0  0  0  0  0  0  0  0
   -3.6644    0.0967   -0.1716 C   0  0  0  0  0  0  0  0  0  0  0  0
   -4.9888    0.1177    0.3181 C   0  0  0  0  0  0  0  0  0  0  0  0
   -5.8466   -0.9589    0.1353 C   0  0  0  0  0  0  0  0  0  0  0  0
   -5.3652   -2.0460   -0.5537 C   0  0  0  0  0  0  0  0  0  0  0  0
   -4.1043   -2.1268   -1.0232 N   0  0  0  0  0  0  0  0  0  0  0  0
   -3.2426   -1.0979   -0.7945 C   0  0  0  0  0  0  0  0  0  0  0  0
   -1.9111   -1.3294   -1.2605 N   0  0  0  0  0  0  0  0  0  0  0  0
   -1.7530   -2.2829   -2.3643 C   0  0  0  0  0  0  0  0  0  0  0  0
   -2.2103   -1.7105   -3.7081 C   0  0  0  0  0  0  0  0  0  0  0  0
   -2.1246   -2.6946   -4.7356 O   0  0  0  0  0  0  0  0  0  0  0  0
   -0.7627   -0.7690   -0.7178 C   0  0  0  0  0  0  0  0  0  0  0  0
    0.3467   -0.8641   -1.2610 O   0  0  0  0  0  0  0  0  0  0  0  0
    3.4834    0.7327    4.5550 H   0  0  0  0  0  0  0  0  0  0  0  0
    2.2034    1.8846    4.1485 H   0  0  0  0  0  0  0  0  0  0  0  0
    1.8186    0.4322    5.0825 H   0  0  0  0  0  0  0  0  0  0  0  0
    2.3676   -1.0041    3.1220 H   0  0  0  0  0  0  0  0  0  0  0  0
    2.6985    1.3323    1.3348 H   0  0  0  0  0  0  0  0  0  0  0  0
    5.4689    1.6143    0.9489 H   0  0  0  0  0  0  0  0  0  0  0  0
    4.3283    0.9871   -0.2475 H   0  0  0  0  0  0  0  0  0  0  0  0
    6.7445   -0.6160    0.7943 H   0  0  0  0  0  0  0  0  0  0  0  0
    6.8026    0.4183   -0.6285 H   0  0  0  0  0  0  0  0  0  0  0  0
    1.2225   -0.2303    0.6063 H   0  0  0  0  0  0  0  0  0  0  0  0
   -1.5076   -0.6254    1.3232 H   0  0  0  0  0  0  0  0  0  0  0  0
    0.2448    2.5182    0.8038 H   0  0  0  0  0  0  0  0  0  0  0  0
   -0.8142    4.6594    0.2524 H   0  0  0  0  0  0  0  0  0  0  0  0
   -3.1632    4.7195   -0.5359 H   0  0  0  0  0  0  0  0  0  0  0  0
   -4.4468    2.6445   -0.7540 H   0  0  0  0  0  0  0  0  0  0  0  0
   -5.3643    0.9917    0.8489 H   0  0  0  0  0  0  0  0  0  0  0  0
   -6.8643   -0.9378    0.5085 H   0  0  0  0  0  0  0  0  0  0  0  0
   -5.9913   -2.9123   -0.7479 H   0  0  0  0  0  0  0  0  0  0  0  0
   -0.7036   -2.5883   -2.4586 H   0  0  0  0  0  0  0  0  0  0  0  0
   -2.2809   -3.2172   -2.1364 H   0  0  0  0  0  0  0  0  0  0  0  0
   -3.2440   -1.3523   -3.6689 H   0  0  0  0  0  0  0  0  0  0  0  0
   -1.5787   -0.8635   -3.9953 H   0  0  0  0  0  0  0  0  0  0  0  0
   -2.7565   -3.3997   -4.5106 H   0  0  0  0  0  0  0  0  0  0  0  0
  1  2  1  0
  2  3  1  0
  3  4  1  0
  4  5  2  0
  4  6  1  0
  6  7  1  0
  7  8  1  0
  8  9  1  0
  8 10  1  0
  8 11  1  0
  2 12  1  0
 12 13  2  0
 12 14  1  0
 14 15  1  0
 15 16  1  0
 16 17  2  0
 17 18  1  0
 18 19  2  0
 19 20  1  0
 20 21  2  0
 21 22  1  0
 22 23  2  0
 23 24  1  0
 24 25  2  0
 25 26  1  0
 26 27  2  0
 27 28  1  0
 28 29  1  0
 29 30  1  0
 30 31  1  0
 28 32  1  0
 32 33  2  0
 32 15  1  0
 21 16  1  0
 27 22  1  0
  1 34  1  0
  1 35  1  0
  1 36  1  0
  2 37  1  1
  3 38  1  0
  6 39  1  0
  6 40  1  0
  7 41  1  0
  7 42  1  0
 14 43  1  0
 15 44  1  1
 17 45  1  0
 18 46  1  0
 19 47  1  0
 20 48  1  0
 23 49  1  0
 24 50  1  0
 25 51  1  0
 29 52  1  0
 29 53  1  0
 30 54  1  0
 30 55  1  0
 31 56  1  0
M  END
>  <CID>  (61) 
33

>  <Energy>  (61) 
52.55149354694086

$$$$

     RDKit          3D

 56 58  0  0  0  0  0  0  0  0999 V2000
    1.7246    0.0057   -1.6145 C   0  0  0  0  0  0  0  0  0  0  0  0
    2.0984    0.1486   -0.1439 C   0  0  2  0  0  0  0  0  0  0  0  0
    3.3444   -0.5408    0.1601 N   0  0  0  0  0  0  0  0  0  0  0  0
    4.5696    0.0071   -0.1131 C   0  0  0  0  0  0  0  0  0  0  0  0
    4.7138    1.0890   -0.6710 O   0  0  0  0  0  0  0  0  0  0  0  0
    5.7341   -0.8704    0.2943 C   0  0  0  0  0  0  0  0  0  0  0  0
    7.0025   -0.0616    0.5441 C   0  0  0  0  0  0  0  0  0  0  0  0
    6.9358    0.7048    1.8470 C   0  0  0  0  0  0  0  0  0  0  0  0
    5.9097    1.5748    1.8912 F   0  0  0  0  0  0  0  0  0  0  0  0
    6.7967   -0.1452    2.8901 F   0  0  0  0  0  0  0  0  0  0  0  0
    8.0772    1.4013    2.0448 F   0  0  0  0  0  0  0  0  0  0  0  0
    0.9955   -0.4568    0.7405 C   0  0  0  0  0  0  0  0  0  0  0  0
    1.1218   -1.5474    1.2947 O   0  0  0  0  0  0  0  0  0  0  0  0
   -0.1491    0.2976    0.8304 N   0  0  0  0  0  0  0  0  0  0  0  0
   -1.2866   -0.1511    1.6260 C   0  0  1  0  0  0  0  0  0  0  0  0
   -2.2988    0.9537    1.8039 C   0  0  0  0  0  0  0  0  0  0  0  0
   -2.5947    1.4135    3.1014 C   0  0  0  0  0  0  0  0  0  0  0  0
   -3.5856    2.3680    3.3078 C   0  0  0  0  0  0  0  0  0  0  0  0
   -4.2983    2.8620    2.2242 C   0  0  0  0  0  0  0  0  0  0  0  0
   -4.0045    2.4144    0.9337 C   0  0  0  0  0  0  0  0  0  0  0  0
   -2.9885    1.4663    0.6873 C   0  0  0  0  0  0  0  0  0  0  0  0
   -2.6564    1.0672   -0.7057 C   0  0  0  0  0  0  0  0  0  0  0  0
   -2.6059    2.0826   -1.6894 C   0  0  0  0  0  0  0  0  0  0  0  0
   -2.3841    1.7915   -3.0293 C   0  0  0  0  0  0  0  0  0  0  0  0
   -2.2173    0.4730   -3.3729 C   0  0  0  0  0  0  0  0  0  0  0  0
   -2.2276   -0.5294   -2.4741 N   0  0  0  0  0  0  0  0  0  0  0  0
   -2.4059   -0.2491   -1.1543 C   0  0  0  0  0  0  0  0  0  0  0  0
   -2.3475   -1.3894   -0.3003 N   0  0  0  0  0  0  0  0  0  0  0  0
   -2.7007   -2.6849   -0.8867 C   0  0  0  0  0  0  0  0  0  0  0  0
   -4.2142   -2.8863   -0.9846 C   0  0  0  0  0  0  0  0  0  0  0  0
   -4.5261   -4.2246   -1.3642 O   0  0  0  0  0  0  0  0  0  0  0  0
   -2.0301   -1.3787    1.0510 C   0  0  0  0  0  0  0  0  0  0  0  0
   -2.3966   -2.2904    1.8038 O   0  0  0  0  0  0  0  0  0  0  0  0
    2.5140    0.3956   -2.2651 H   0  0  0  0  0  0  0  0  0  0  0  0
    0.8022    0.5496   -1.8415 H   0  0  0  0  0  0  0  0  0  0  0  0
    1.5633   -1.0453   -1.8802 H   0  0  0  0  0  0  0  0  0  0  0  0
    2.2167    1.2080    0.1121 H   0  0  0  0  0  0  0  0  0  0  0  0
    3.2627   -1.4353    0.6370 H   0  0  0  0  0  0  0  0  0  0  0  0
    5.4725   -1.4619    1.1789 H   0  0  0  0  0  0  0  0  0  0  0  0
    5.9064   -1.5715   -0.5310 H   0  0  0  0  0  0  0  0  0  0  0  0
    7.1959    0.6323   -0.2814 H   0  0  0  0  0  0  0  0  0  0  0  0
    7.8558   -0.7484    0.5883 H   0  0  0  0  0  0  0  0  0  0  0  0
   -0.1720    1.2223    0.4205 H   0  0  0  0  0  0  0  0  0  0  0  0
   -0.8820   -0.4593    2.5991 H   0  0  0  0  0  0  0  0  0  0  0  0
   -2.0651    1.0109    3.9638 H   0  0  0  0  0  0  0  0  0  0  0  0
   -3.8131    2.7103    4.3144 H   0  0  0  0  0  0  0  0  0  0  0  0
   -5.0873    3.5939    2.3796 H   0  0  0  0  0  0  0  0  0  0  0  0
   -4.5959    2.8156    0.1117 H   0  0  0  0  0  0  0  0  0  0  0  0
   -2.7476    3.1265   -1.4124 H   0  0  0  0  0  0  0  0  0  0  0  0
   -2.3579    2.5731   -3.7802 H   0  0  0  0  0  0  0  0  0  0  0  0
   -2.0591    0.1720   -4.4047 H   0  0  0  0  0  0  0  0  0  0  0  0
   -2.2784   -3.4898   -0.2706 H   0  0  0  0  0  0  0  0  0  0  0  0
   -2.2252   -2.8228   -1.8648 H   0  0  0  0  0  0  0  0  0  0  0  0
   -4.7066   -2.6791   -0.0284 H   0  0  0  0  0  0  0  0  0  0  0  0
   -4.6466   -2.2135   -1.7319 H   0  0  0  0  0  0  0  0  0  0  0  0
   -4.2583   -4.7981   -0.6243 H   0  0  0  0  0  0  0  0  0  0  0  0
  1  2  1  0
  2  3  1  0
  3  4  1  0
  4  5  2  0
  4  6  1  0
  6  7  1  0
  7  8  1  0
  8  9  1  0
  8 10  1  0
  8 11  1  0
  2 12  1  0
 12 13  2  0
 12 14  1  0
 14 15  1  0
 15 16  1  0
 16 17  2  0
 17 18  1  0
 18 19  2  0
 19 20  1  0
 20 21  2  0
 21 22  1  0
 22 23  2  0
 23 24  1  0
 24 25  2  0
 25 26  1  0
 26 27  2  0
 27 28  1  0
 28 29  1  0
 29 30  1  0
 30 31  1  0
 28 32  1  0
 32 33  2  0
 32 15  1  0
 21 16  1  0
 27 22  1  0
  1 34  1  0
  1 35  1  0
  1 36  1  0
  2 37  1  1
  3 38  1  0
  6 39  1  0
  6 40  1  0
  7 41  1  0
  7 42  1  0
 14 43  1  0
 15 44  1  1
 17 45  1  0
 18 46  1  0
 19 47  1  0
 20 48  1  0
 23 49  1  0
 24 50  1  0
 25 51  1  0
 29 52  1  0
 29 53  1  0
 30 54  1  0
 30 55  1  0
 31 56  1  0
M  END
>  <CID>  (62) 
51

>  <Energy>  (62) 
52.794712949623474

$$$$

     RDKit          3D

 56 58  0  0  0  0  0  0  0  0999 V2000
    2.2338    0.9178    4.5227 C   0  0  0  0  0  0  0  0  0  0  0  0
    2.0203    0.0824    3.2666 C   0  0  2  0  0  0  0  0  0  0  0  0
    2.9899    0.4695    2.2359 N   0  0  0  0  0  0  0  0  0  0  0  0
    3.6210   -0.4523    1.4338 C   0  0  0  0  0  0  0  0  0  0  0  0
    3.4080   -1.6560    1.5031 O   0  0  0  0  0  0  0  0  0  0  0  0
    4.5803    0.1716    0.4456 C   0  0  0  0  0  0  0  0  0  0  0  0
    5.2021   -0.8753   -0.4714 C   0  0  0  0  0  0  0  0  0  0  0  0
    6.1531   -0.2378   -1.4515 C   0  0  0  0  0  0  0  0  0  0  0  0
    5.5202    0.6707   -2.2245 F   0  0  0  0  0  0  0  0  0  0  0  0
    6.7022   -1.1627   -2.2660 F   0  0  0  0  0  0  0  0  0  0  0  0
    7.1587    0.3972   -0.8105 F   0  0  0  0  0  0  0  0  0  0  0  0
    0.5606    0.2032    2.7678 C   0  0  0  0  0  0  0  0  0  0  0  0
   -0.3896    0.3806    3.5263 O   0  0  0  0  0  0  0  0  0  0  0  0
    0.3904   -0.0306    1.4261 N   0  0  0  0  0  0  0  0  0  0  0  0
   -0.9136   -0.0626    0.7769 C   0  0  1  0  0  0  0  0  0  0  0  0
   -1.4689    1.2943    0.4094 C   0  0  0  0  0  0  0  0  0  0  0  0
   -0.6985    2.4712    0.4757 C   0  0  0  0  0  0  0  0  0  0  0  0
   -1.2211    3.6937    0.0605 C   0  0  0  0  0  0  0  0  0  0  0  0
   -2.5130    3.7550   -0.4414 C   0  0  0  0  0  0  0  0  0  0  0  0
   -3.2830    2.5937   -0.5183 C   0  0  0  0  0  0  0  0  0  0  0  0
   -2.7863    1.3445   -0.0885 C   0  0  0  0  0  0  0  0  0  0  0  0
   -3.6424    0.1349   -0.1710 C   0  0  0  0  0  0  0  0  0  0  0  0
   -4.9867    0.2391    0.2496 C   0  0  0  0  0  0  0  0  0  0  0  0
   -5.8807   -0.8110    0.0872 C   0  0  0  0  0  0  0  0  0  0  0  0
   -5.4133   -1.9569   -0.5099 C   0  0  0  0  0  0  0  0  0  0  0  0
   -4.1355   -2.1167   -0.9063 N   0  0  0  0  0  0  0  0  0  0  0  0
   -3.2431   -1.1117   -0.7016 C   0  0  0  0  0  0  0  0  0  0  0  0
   -1.9026   -1.4243   -1.0848 N   0  0  0  0  0  0  0  0  0  0  0  0
   -1.7248   -2.4277   -2.1389 C   0  0  0  0  0  0  0  0  0  0  0  0
   -1.9121   -1.8346   -3.5368 C   0  0  0  0  0  0  0  0  0  0  0  0
   -1.5682   -2.7820   -4.5445 O   0  0  0  0  0  0  0  0  0  0  0  0
   -0.7578   -0.8672   -0.5308 C   0  0  0  0  0  0  0  0  0  0  0  0
    0.3626   -1.0159   -1.0396 O   0  0  0  0  0  0  0  0  0  0  0  0
    1.5624    0.6011    5.3278 H   0  0  0  0  0  0  0  0  0  0  0  0
    2.0426    1.9791    4.3275 H   0  0  0  0  0  0  0  0  0  0  0  0
    3.2640    0.8244    4.8829 H   0  0  0  0  0  0  0  0  0  0  0  0
    2.1746   -0.9748    3.5138 H   0  0  0  0  0  0  0  0  0  0  0  0
    3.1435    1.4575    2.0778 H   0  0  0  0  0  0  0  0  0  0  0  0
    4.0312    0.9151   -0.1441 H   0  0  0  0  0  0  0  0  0  0  0  0
    5.3595    0.6960    1.0113 H   0  0  0  0  0  0  0  0  0  0  0  0
    5.7396   -1.6244    0.1220 H   0  0  0  0  0  0  0  0  0  0  0  0
    4.4166   -1.4085   -1.0201 H   0  0  0  0  0  0  0  0  0  0  0  0
    1.1824   -0.3365    0.8686 H   0  0  0  0  0  0  0  0  0  0  0  0
   -1.5908   -0.5858    1.4625 H   0  0  0  0  0  0  0  0  0  0  0  0
    0.3233    2.4466    0.8443 H   0  0  0  0  0  0  0  0  0  0  0  0
   -0.6156    4.5944    0.1196 H   0  0  0  0  0  0  0  0  0  0  0  0
   -2.9233    4.7036   -0.7784 H   0  0  0  0  0  0  0  0  0  0  0  0
   -4.2858    2.6737   -0.9353 H   0  0  0  0  0  0  0  0  0  0  0  0
   -5.3492    1.1582    0.7082 H   0  0  0  0  0  0  0  0  0  0  0  0
   -6.9136   -0.7264    0.4049 H   0  0  0  0  0  0  0  0  0  0  0  0
   -6.0649   -2.8080   -0.6862 H   0  0  0  0  0  0  0  0  0  0  0  0
   -0.7160   -2.8551   -2.0730 H   0  0  0  0  0  0  0  0  0  0  0  0
   -2.3876   -3.2880   -1.9895 H   0  0  0  0  0  0  0  0  0  0  0  0
   -2.9535   -1.5358   -3.6950 H   0  0  0  0  0  0  0  0  0  0  0  0
   -1.2877   -0.9453   -3.6765 H   0  0  0  0  0  0  0  0  0  0  0  0
   -0.6137   -2.9550   -4.4630 H   0  0  0  0  0  0  0  0  0  0  0  0
  1  2  1  0
  2  3  1  0
  3  4  1  0
  4  5  2  0
  4  6  1  0
  6  7  1  0
  7  8  1  0
  8  9  1  0
  8 10  1  0
  8 11  1  0
  2 12  1  0
 12 13  2  0
 12 14  1  0
 14 15  1  0
 15 16  1  0
 16 17  2  0
 17 18  1  0
 18 19  2  0
 19 20  1  0
 20 21  2  0
 21 22  1  0
 22 23  2  0
 23 24  1  0
 24 25  2  0
 25 26  1  0
 26 27  2  0
 27 28  1  0
 28 29  1  0
 29 30  1  0
 30 31  1  0
 28 32  1  0
 32 33  2  0
 32 15  1  0
 21 16  1  0
 27 22  1  0
  1 34  1  0
  1 35  1  0
  1 36  1  0
  2 37  1  1
  3 38  1  0
  6 39  1  0
  6 40  1  0
  7 41  1  0
  7 42  1  0
 14 43  1  0
 15 44  1  1
 17 45  1  0
 18 46  1  0
 19 47  1  0
 20 48  1  0
 23 49  1  0
 24 50  1  0
 25 51  1  0
 29 52  1  0
 29 53  1  0
 30 54  1  0
 30 55  1  0
 31 56  1  0
M  END
>  <CID>  (63) 
4

>  <Energy>  (63) 
52.8666054438103

$$$$

     RDKit          3D

 56 58  0  0  0  0  0  0  0  0999 V2000
    1.7430   -0.0997   -1.6076 C   0  0  0  0  0  0  0  0  0  0  0  0
    2.1203    0.1149   -0.1467 C   0  0  2  0  0  0  0  0  0  0  0  0
    3.3687   -0.5566    0.1860 N   0  0  0  0  0  0  0  0  0  0  0  0
    4.5911   -0.0123   -0.1044 C   0  0  0  0  0  0  0  0  0  0  0  0
    4.7306    1.0498   -0.7010 O   0  0  0  0  0  0  0  0  0  0  0  0
    5.7614   -0.8650    0.3373 C   0  0  0  0  0  0  0  0  0  0  0  0
    7.0061   -0.0277    0.6131 C   0  0  0  0  0  0  0  0  0  0  0  0
    6.8884    0.7466    1.9080 C   0  0  0  0  0  0  0  0  0  0  0  0
    6.7428   -0.0991    2.9540 F   0  0  0  0  0  0  0  0  0  0  0  0
    5.8405    1.5914    1.9188 F   0  0  0  0  0  0  0  0  0  0  0  0
    8.0066    1.4728    2.1298 F   0  0  0  0  0  0  0  0  0  0  0  0
    1.0207   -0.4467    0.7703 C   0  0  0  0  0  0  0  0  0  0  0  0
    1.1511   -1.5062    1.3807 O   0  0  0  0  0  0  0  0  0  0  0  0
   -0.1244    0.3104    0.8242 N   0  0  0  0  0  0  0  0  0  0  0  0
   -1.2612   -0.0981    1.6423 C   0  0  1  0  0  0  0  0  0  0  0  0
   -2.2644    1.0209    1.7783 C   0  0  0  0  0  0  0  0  0  0  0  0
   -2.5491    1.5384    3.0565 C   0  0  0  0  0  0  0  0  0  0  0  0
   -3.5315    2.5084    3.2271 C   0  0  0  0  0  0  0  0  0  0  0  0
   -4.2470    2.9605    2.1272 C   0  0  0  0  0  0  0  0  0  0  0  0
   -3.9644    2.4551    0.8556 C   0  0  0  0  0  0  0  0  0  0  0  0
   -2.9569    1.4895    0.6444 C   0  0  0  0  0  0  0  0  0  0  0  0
   -2.6344    1.0291   -0.7324 C   0  0  0  0  0  0  0  0  0  0  0  0
   -2.5852    2.0025   -1.7583 C   0  0  0  0  0  0  0  0  0  0  0  0
   -2.3699    1.6557   -3.0859 C   0  0  0  0  0  0  0  0  0  0  0  0
   -2.2107    0.3238   -3.3753 C   0  0  0  0  0  0  0  0  0  0  0  0
   -2.2228   -0.6402   -2.4357 N   0  0  0  0  0  0  0  0  0  0  0  0
   -2.3901   -0.3060   -1.1267 C   0  0  0  0  0  0  0  0  0  0  0  0
   -2.3311   -1.4112   -0.2265 N   0  0  0  0  0  0  0  0  0  0  0  0
   -2.6687   -2.7342   -0.7646 C   0  0  0  0  0  0  0  0  0  0  0  0
   -4.1777   -2.9480   -0.8866 C   0  0  0  0  0  0  0  0  0  0  0  0
   -4.4493   -4.2447   -1.4118 O   0  0  0  0  0  0  0  0  0  0  0  0
   -2.0185   -1.3424    1.1241 C   0  0  0  0  0  0  0  0  0  0  0  0
   -2.4047   -2.2066    1.9206 O   0  0  0  0  0  0  0  0  0  0  0  0
    0.8188    0.4304   -1.8585 H   0  0  0  0  0  0  0  0  0  0  0  0
    2.5300    0.2605   -2.2782 H   0  0  0  0  0  0  0  0  0  0  0  0
    1.5834   -1.1627   -1.8221 H   0  0  0  0  0  0  0  0  0  0  0  0
    2.2373    1.1861    0.0567 H   0  0  0  0  0  0  0  0  0  0  0  0
    3.2898   -1.4305    0.7004 H   0  0  0  0  0  0  0  0  0  0  0  0
    5.9688   -1.5664   -0.4799 H   0  0  0  0  0  0  0  0  0  0  0  0
    5.4908   -1.4579    1.2184 H   0  0  0  0  0  0  0  0  0  0  0  0
    7.8724   -0.6956    0.6840 H   0  0  0  0  0  0  0  0  0  0  0  0
    7.2062    0.6646   -0.2125 H   0  0  0  0  0  0  0  0  0  0  0  0
   -0.1483    1.2127    0.3678 H   0  0  0  0  0  0  0  0  0  0  0  0
   -0.8544   -0.3684    2.6258 H   0  0  0  0  0  0  0  0  0  0  0  0
   -2.0169    1.1690    3.9322 H   0  0  0  0  0  0  0  0  0  0  0  0
   -3.7504    2.8956    4.2191 H   0  0  0  0  0  0  0  0  0  0  0  0
   -5.0290    3.7051    2.2554 H   0  0  0  0  0  0  0  0  0  0  0  0
   -4.5575    2.8258    0.0206 H   0  0  0  0  0  0  0  0  0  0  0  0
   -2.7208    3.0576   -1.5242 H   0  0  0  0  0  0  0  0  0  0  0  0
   -2.3427    2.4057   -3.8683 H   0  0  0  0  0  0  0  0  0  0  0  0
   -2.0569   -0.0206   -4.3939 H   0  0  0  0  0  0  0  0  0  0  0  0
   -2.1698   -2.9055   -1.7261 H   0  0  0  0  0  0  0  0  0  0  0  0
   -2.2578   -3.5134   -0.1089 H   0  0  0  0  0  0  0  0  0  0  0  0
   -4.6593   -2.8616    0.0931 H   0  0  0  0  0  0  0  0  0  0  0  0
   -4.6267   -2.2072   -1.5560 H   0  0  0  0  0  0  0  0  0  0  0  0
   -5.4160   -4.3479   -1.4185 H   0  0  0  0  0  0  0  0  0  0  0  0
  1  2  1  0
  2  3  1  0
  3  4  1  0
  4  5  2  0
  4  6  1  0
  6  7  1  0
  7  8  1  0
  8  9  1  0
  8 10  1  0
  8 11  1  0
  2 12  1  0
 12 13  2  0
 12 14  1  0
 14 15  1  0
 15 16  1  0
 16 17  2  0
 17 18  1  0
 18 19  2  0
 19 20  1  0
 20 21  2  0
 21 22  1  0
 22 23  2  0
 23 24  1  0
 24 25  2  0
 25 26  1  0
 26 27  2  0
 27 28  1  0
 28 29  1  0
 29 30  1  0
 30 31  1  0
 28 32  1  0
 32 33  2  0
 32 15  1  0
 21 16  1  0
 27 22  1  0
  1 34  1  0
  1 35  1  0
  1 36  1  0
  2 37  1  6
  3 38  1  0
  6 39  1  0
  6 40  1  0
  7 41  1  0
  7 42  1  0
 14 43  1  0
 15 44  1  1
 17 45  1  0
 18 46  1  0
 19 47  1  0
 20 48  1  0
 23 49  1  0
 24 50  1  0
 25 51  1  0
 29 52  1  0
 29 53  1  0
 30 54  1  0
 30 55  1  0
 31 56  1  0
M  END
>  <CID>  (64) 
95

>  <Energy>  (64) 
53.20547930674348

$$$$

     RDKit          3D

 56 58  0  0  0  0  0  0  0  0999 V2000
    1.9990   -3.2681    0.0862 C   0  0  0  0  0  0  0  0  0  0  0  0
    1.8963   -1.7618    0.2499 C   0  0  2  0  0  0  0  0  0  0  0  0
    3.0771   -1.2287    0.9111 N   0  0  0  0  0  0  0  0  0  0  0  0
    3.4244    0.0931    0.7691 C   0  0  0  0  0  0  0  0  0  0  0  0
    2.7820    0.8823    0.0883 O   0  0  0  0  0  0  0  0  0  0  0  0
    4.6268    0.4950    1.5920 C   0  0  0  0  0  0  0  0  0  0  0  0
    5.3816    1.6631    0.9695 C   0  0  0  0  0  0  0  0  0  0  0  0
    6.1413    1.2573   -0.2761 C   0  0  0  0  0  0  0  0  0  0  0  0
    6.8086    2.3208   -0.7929 F   0  0  0  0  0  0  0  0  0  0  0  0
    7.0597    0.3045    0.0164 F   0  0  0  0  0  0  0  0  0  0  0  0
    5.3323    0.7727   -1.2397 F   0  0  0  0  0  0  0  0  0  0  0  0
    0.6816   -1.3795    1.1138 C   0  0  0  0  0  0  0  0  0  0  0  0
    0.2998   -2.0407    2.0732 O   0  0  0  0  0  0  0  0  0  0  0  0
    0.1354   -0.1643    0.7797 N   0  0  0  0  0  0  0  0  0  0  0  0
   -0.9727    0.4014    1.5347 C   0  0  1  0  0  0  0  0  0  0  0  0
   -1.3757    1.7406    0.9682 C   0  0  0  0  0  0  0  0  0  0  0  0
   -1.3031    2.8875    1.7793 C   0  0  0  0  0  0  0  0  0  0  0  0
   -1.7492    4.1177    1.3072 C   0  0  0  0  0  0  0  0  0  0  0  0
   -2.2833    4.2109    0.0289 C   0  0  0  0  0  0  0  0  0  0  0  0
   -2.3521    3.0770   -0.7835 C   0  0  0  0  0  0  0  0  0  0  0  0
   -1.8859    1.8201   -0.3437 C   0  0  0  0  0  0  0  0  0  0  0  0
   -1.9135    0.6479   -1.2575 C   0  0  0  0  0  0  0  0  0  0  0  0
   -1.5246    0.8444   -2.6013 C   0  0  0  0  0  0  0  0  0  0  0  0
   -1.6010   -0.1756   -3.5401 C   0  0  0  0  0  0  0  0  0  0  0  0
   -2.0732   -1.3931   -3.1196 C   0  0  0  0  0  0  0  0  0  0  0  0
   -2.4344   -1.6459   -1.8484 N   0  0  0  0  0  0  0  0  0  0  0  0
   -2.3225   -0.6598   -0.9128 C   0  0  0  0  0  0  0  0  0  0  0  0
   -2.6889   -1.0620    0.4058 N   0  0  0  0  0  0  0  0  0  0  0  0
   -3.5866   -2.2131    0.5323 C   0  0  0  0  0  0  0  0  0  0  0  0
   -5.0237   -1.9119    0.1017 C   0  0  0  0  0  0  0  0  0  0  0  0
   -5.8500   -3.0707    0.2256 O   0  0  0  0  0  0  0  0  0  0  0  0
   -2.2450   -0.4756    1.5838 C   0  0  0  0  0  0  0  0  0  0  0  0
   -2.8714   -0.5887    2.6451 O   0  0  0  0  0  0  0  0  0  0  0  0
    2.8513   -3.5359   -0.5462 H   0  0  0  0  0  0  0  0  0  0  0  0
    2.1330   -3.7668    1.0512 H   0  0  0  0  0  0  0  0  0  0  0  0
    1.0949   -3.6702   -0.3736 H   0  0  0  0  0  0  0  0  0  0  0  0
    1.8005   -1.2949   -0.7336 H   0  0  0  0  0  0  0  0  0  0  0  0
    3.5306   -1.8013    1.6149 H   0  0  0  0  0  0  0  0  0  0  0  0
    4.2458    0.7944    2.5766 H   0  0  0  0  0  0  0  0  0  0  0  0
    5.2881   -0.3643    1.7438 H   0  0  0  0  0  0  0  0  0  0  0  0
    4.6971    2.4844    0.7290 H   0  0  0  0  0  0  0  0  0  0  0  0
    6.0970    2.0497    1.7044 H   0  0  0  0  0  0  0  0  0  0  0  0
    0.7239    0.4648    0.2305 H   0  0  0  0  0  0  0  0  0  0  0  0
   -0.6176    0.5045    2.5680 H   0  0  0  0  0  0  0  0  0  0  0  0
   -0.9155    2.8210    2.7941 H   0  0  0  0  0  0  0  0  0  0  0  0
   -1.6995    4.9974    1.9439 H   0  0  0  0  0  0  0  0  0  0  0  0
   -2.6484    5.1663   -0.3394 H   0  0  0  0  0  0  0  0  0  0  0  0
   -2.7878    3.1889   -1.7758 H   0  0  0  0  0  0  0  0  0  0  0  0
   -1.1520    1.8135   -2.9278 H   0  0  0  0  0  0  0  0  0  0  0  0
   -1.3083   -0.0171   -4.5717 H   0  0  0  0  0  0  0  0  0  0  0  0
   -2.1715   -2.2260   -3.8093 H   0  0  0  0  0  0  0  0  0  0  0  0
   -3.6075   -2.5681    1.5702 H   0  0  0  0  0  0  0  0  0  0  0  0
   -3.1774   -3.0636   -0.0250 H   0  0  0  0  0  0  0  0  0  0  0  0
   -5.4543   -1.1271    0.7299 H   0  0  0  0  0  0  0  0  0  0  0  0
   -5.0725   -1.5687   -0.9359 H   0  0  0  0  0  0  0  0  0  0  0  0
   -5.4388   -3.7774   -0.3028 H   0  0  0  0  0  0  0  0  0  0  0  0
  1  2  1  0
  2  3  1  0
  3  4  1  0
  4  5  2  0
  4  6  1  0
  6  7  1  0
  7  8  1  0
  8  9  1  0
  8 10  1  0
  8 11  1  0
  2 12  1  0
 12 13  2  0
 12 14  1  0
 14 15  1  0
 15 16  1  0
 16 17  2  0
 17 18  1  0
 18 19  2  0
 19 20  1  0
 20 21  2  0
 21 22  1  0
 22 23  2  0
 23 24  1  0
 24 25  2  0
 25 26  1  0
 26 27  2  0
 27 28  1  0
 28 29  1  0
 29 30  1  0
 30 31  1  0
 28 32  1  0
 32 33  2  0
 32 15  1  0
 21 16  1  0
 27 22  1  0
  1 34  1  0
  1 35  1  0
  1 36  1  0
  2 37  1  6
  3 38  1  0
  6 39  1  0
  6 40  1  0
  7 41  1  0
  7 42  1  0
 14 43  1  0
 15 44  1  1
 17 45  1  0
 18 46  1  0
 19 47  1  0
 20 48  1  0
 23 49  1  0
 24 50  1  0
 25 51  1  0
 29 52  1  0
 29 53  1  0
 30 54  1  0
 30 55  1  0
 31 56  1  0
M  END
>  <CID>  (65) 
26

>  <Energy>  (65) 
53.357176190637375

$$$$

     RDKit          3D

 56 58  0  0  0  0  0  0  0  0999 V2000
    2.4667    0.5794    4.0086 C   0  0  0  0  0  0  0  0  0  0  0  0
    2.1429   -0.0800    2.6740 C   0  0  2  0  0  0  0  0  0  0  0  0
    2.9981    0.4756    1.6187 N   0  0  0  0  0  0  0  0  0  0  0  0
    3.5910   -0.3133    0.6624 C   0  0  0  0  0  0  0  0  0  0  0  0
    3.4149   -1.5226    0.5847 O   0  0  0  0  0  0  0  0  0  0  0  0
    4.4209    0.4631   -0.3382 C   0  0  0  0  0  0  0  0  0  0  0  0
    5.4890   -0.4041   -0.9960 C   0  0  0  0  0  0  0  0  0  0  0  0
    6.6406   -0.6865   -0.0563 C   0  0  0  0  0  0  0  0  0  0  0  0
    6.2562   -1.3276    1.0626 F   0  0  0  0  0  0  0  0  0  0  0  0
    7.5784   -1.4426   -0.6676 F   0  0  0  0  0  0  0  0  0  0  0  0
    7.2358    0.4693    0.3198 F   0  0  0  0  0  0  0  0  0  0  0  0
    0.6388    0.0657    2.3428 C   0  0  0  0  0  0  0  0  0  0  0  0
   -0.2373    0.0455    3.2036 O   0  0  0  0  0  0  0  0  0  0  0  0
    0.3494    0.1021    1.0021 N   0  0  0  0  0  0  0  0  0  0  0  0
   -1.0072    0.1192    0.4695 C   0  0  1  0  0  0  0  0  0  0  0  0
   -1.6561    1.4831    0.4394 C   0  0  0  0  0  0  0  0  0  0  0  0
   -0.9431    2.6697    0.6967 C   0  0  0  0  0  0  0  0  0  0  0  0
   -1.5607    3.9137    0.5896 C   0  0  0  0  0  0  0  0  0  0  0  0
   -2.8928    3.9903    0.2089 C   0  0  0  0  0  0  0  0  0  0  0  0
   -3.6072    2.8207   -0.0540 C   0  0  0  0  0  0  0  0  0  0  0  0
   -3.0126    1.5463    0.0641 C   0  0  0  0  0  0  0  0  0  0  0  0
   -3.8108    0.3234   -0.2011 C   0  0  0  0  0  0  0  0  0  0  0  0
   -5.1102    0.2465    0.3486 C   0  0  0  0  0  0  0  0  0  0  0  0
   -5.9618   -0.8084    0.0504 C   0  0  0  0  0  0  0  0  0  0  0  0
   -5.5001   -1.7704   -0.8147 C   0  0  0  0  0  0  0  0  0  0  0  0
   -4.2653   -1.7511   -1.3513 N   0  0  0  0  0  0  0  0  0  0  0  0
   -3.4022   -0.7573   -1.0153 C   0  0  0  0  0  0  0  0  0  0  0  0
   -2.0883   -0.8862   -1.5641 N   0  0  0  0  0  0  0  0  0  0  0  0
   -1.9347   -1.6745   -2.7954 C   0  0  0  0  0  0  0  0  0  0  0  0
   -1.2079   -3.0124   -2.5848 C   0  0  0  0  0  0  0  0  0  0  0  0
   -1.9882   -3.9232   -1.8195 O   0  0  0  0  0  0  0  0  0  0  0  0
   -0.9276   -0.3904   -0.9850 C   0  0  0  0  0  0  0  0  0  0  0  0
    0.1580   -0.3809   -1.5857 O   0  0  0  0  0  0  0  0  0  0  0  0
    3.5290    0.4684    4.2511 H   0  0  0  0  0  0  0  0  0  0  0  0
    1.8841    0.1344    4.8221 H   0  0  0  0  0  0  0  0  0  0  0  0
    2.2393    1.6512    3.9841 H   0  0  0  0  0  0  0  0  0  0  0  0
    2.3376   -1.1562    2.7540 H   0  0  0  0  0  0  0  0  0  0  0  0
    3.0983    1.4818    1.5744 H   0  0  0  0  0  0  0  0  0  0  0  0
    3.7284    0.8311   -1.1047 H   0  0  0  0  0  0  0  0  0  0  0  0
    4.8734    1.3376    0.1426 H   0  0  0  0  0  0  0  0  0  0  0  0
    5.8788    0.1223   -1.8750 H   0  0  0  0  0  0  0  0  0  0  0  0
    5.0651   -1.3490   -1.3535 H   0  0  0  0  0  0  0  0  0  0  0  0
    1.0967   -0.0366    0.3291 H   0  0  0  0  0  0  0  0  0  0  0  0
   -1.5919   -0.5770    1.0825 H   0  0  0  0  0  0  0  0  0  0  0  0
    0.1060    2.6377    0.9772 H   0  0  0  0  0  0  0  0  0  0  0  0
   -0.9988    4.8212    0.7943 H   0  0  0  0  0  0  0  0  0  0  0  0
   -3.3783    4.9579    0.1122 H   0  0  0  0  0  0  0  0  0  0  0  0
   -4.6457    2.9157   -0.3674 H   0  0  0  0  0  0  0  0  0  0  0  0
   -5.4687    1.0244    1.0211 H   0  0  0  0  0  0  0  0  0  0  0  0
   -6.9587   -0.8658    0.4714 H   0  0  0  0  0  0  0  0  0  0  0  0
   -6.1184   -2.6143   -1.1062 H   0  0  0  0  0  0  0  0  0  0  0  0
   -1.3386   -1.0701   -3.4911 H   0  0  0  0  0  0  0  0  0  0  0  0
   -2.9026   -1.8376   -3.2817 H   0  0  0  0  0  0  0  0  0  0  0  0
   -0.2484   -2.8762   -2.0774 H   0  0  0  0  0  0  0  0  0  0  0  0
   -1.0159   -3.4761   -3.5579 H   0  0  0  0  0  0  0  0  0  0  0  0
   -1.4371   -4.7069   -1.6575 H   0  0  0  0  0  0  0  0  0  0  0  0
  1  2  1  0
  2  3  1  0
  3  4  1  0
  4  5  2  0
  4  6  1  0
  6  7  1  0
  7  8  1  0
  8  9  1  0
  8 10  1  0
  8 11  1  0
  2 12  1  0
 12 13  2  0
 12 14  1  0
 14 15  1  0
 15 16  1  0
 16 17  2  0
 17 18  1  0
 18 19  2  0
 19 20  1  0
 20 21  2  0
 21 22  1  0
 22 23  2  0
 23 24  1  0
 24 25  2  0
 25 26  1  0
 26 27  2  0
 27 28  1  0
 28 29  1  0
 29 30  1  0
 30 31  1  0
 28 32  1  0
 32 33  2  0
 32 15  1  0
 21 16  1  0
 27 22  1  0
  1 34  1  0
  1 35  1  0
  1 36  1  0
  2 37  1  1
  3 38  1  0
  6 39  1  0
  6 40  1  0
  7 41  1  0
  7 42  1  0
 14 43  1  0
 15 44  1  1
 17 45  1  0
 18 46  1  0
 19 47  1  0
 20 48  1  0
 23 49  1  0
 24 50  1  0
 25 51  1  0
 29 52  1  0
 29 53  1  0
 30 54  1  0
 30 55  1  0
 31 56  1  0
M  END
>  <CID>  (66) 
79

>  <Energy>  (66) 
53.38548731464202

$$$$

     RDKit          3D

 56 58  0  0  0  0  0  0  0  0999 V2000
    1.5219    1.8255    1.7371 C   0  0  0  0  0  0  0  0  0  0  0  0
    1.9809    0.8845    0.6323 C   0  0  2  0  0  0  0  0  0  0  0  0
    3.4201    0.6454    0.7334 N   0  0  0  0  0  0  0  0  0  0  0  0
    3.9532   -0.3419    1.5198 C   0  0  0  0  0  0  0  0  0  0  0  0
    3.2739   -1.0802    2.2244 O   0  0  0  0  0  0  0  0  0  0  0  0
    5.4633   -0.4189    1.4502 C   0  0  0  0  0  0  0  0  0  0  0  0
    5.9774   -1.7354    2.0200 C   0  0  0  0  0  0  0  0  0  0  0  0
    7.4786   -1.8162    1.9380 C   0  0  0  0  0  0  0  0  0  0  0  0
    7.9089   -1.6723    0.6661 F   0  0  0  0  0  0  0  0  0  0  0  0
    8.0637   -0.8580    2.6845 F   0  0  0  0  0  0  0  0  0  0  0  0
    7.9168   -3.0109    2.3852 F   0  0  0  0  0  0  0  0  0  0  0  0
    1.7436    1.4892   -0.7648 C   0  0  0  0  0  0  0  0  0  0  0  0
    2.6121    2.1740   -1.3157 O   0  0  0  0  0  0  0  0  0  0  0  0
    0.5773    1.2600   -1.4259 N   0  0  0  0  0  0  0  0  0  0  0  0
   -0.6606    0.6458   -0.9511 C   0  0  1  0  0  0  0  0  0  0  0  0
   -1.5817    1.5883   -0.2182 C   0  0  0  0  0  0  0  0  0  0  0  0
   -1.4111    2.9859   -0.2412 C   0  0  0  0  0  0  0  0  0  0  0  0
   -2.3106    3.8245    0.4097 C   0  0  0  0  0  0  0  0  0  0  0  0
   -3.4053    3.2823    1.0679 C   0  0  0  0  0  0  0  0  0  0  0  0
   -3.5982    1.9010    1.0746 C   0  0  0  0  0  0  0  0  0  0  0  0
   -2.6926    1.0255    0.4412 C   0  0  0  0  0  0  0  0  0  0  0  0
   -2.9277   -0.4382    0.4697 C   0  0  0  0  0  0  0  0  0  0  0  0
   -3.3176   -1.0302    1.6888 C   0  0  0  0  0  0  0  0  0  0  0  0
   -3.6686   -2.3713    1.7641 C   0  0  0  0  0  0  0  0  0  0  0  0
   -3.6436   -3.1043    0.6021 C   0  0  0  0  0  0  0  0  0  0  0  0
   -3.2655   -2.5944   -0.5860 N   0  0  0  0  0  0  0  0  0  0  0  0
   -2.8554   -1.2960   -0.6503 C   0  0  0  0  0  0  0  0  0  0  0  0
   -2.3778   -0.8935   -1.9382 N   0  0  0  0  0  0  0  0  0  0  0  0
   -2.9154   -1.6096   -3.1066 C   0  0  0  0  0  0  0  0  0  0  0  0
   -4.3425   -1.1607   -3.4559 C   0  0  0  0  0  0  0  0  0  0  0  0
   -5.2979   -1.5374   -2.4654 O   0  0  0  0  0  0  0  0  0  0  0  0
   -1.4362    0.1028   -2.1716 C   0  0  0  0  0  0  0  0  0  0  0  0
   -1.1914    0.5348   -3.3045 O   0  0  0  0  0  0  0  0  0  0  0  0
    1.8241    1.4533    2.7221 H   0  0  0  0  0  0  0  0  0  0  0  0
    0.4354    1.9285    1.7461 H   0  0  0  0  0  0  0  0  0  0  0  0
    1.9504    2.8261    1.6141 H   0  0  0  0  0  0  0  0  0  0  0  0
    1.4768   -0.0820    0.7197 H   0  0  0  0  0  0  0  0  0  0  0  0
    4.0148    1.2297    0.1521 H   0  0  0  0  0  0  0  0  0  0  0  0
    5.8711    0.4292    2.0130 H   0  0  0  0  0  0  0  0  0  0  0  0
    5.7741   -0.3134    0.4042 H   0  0  0  0  0  0  0  0  0  0  0  0
    5.6672   -1.8439    3.0669 H   0  0  0  0  0  0  0  0  0  0  0  0
    5.5368   -2.5763    1.4698 H   0  0  0  0  0  0  0  0  0  0  0  0
    0.5435    1.6334   -2.3718 H   0  0  0  0  0  0  0  0  0  0  0  0
   -0.3693   -0.1883   -0.3080 H   0  0  0  0  0  0  0  0  0  0  0  0
   -0.5787    3.4418   -0.7746 H   0  0  0  0  0  0  0  0  0  0  0  0
   -2.1654    4.9019    0.3864 H   0  0  0  0  0  0  0  0  0  0  0  0
   -4.1203    3.9348    1.5611 H   0  0  0  0  0  0  0  0  0  0  0  0
   -4.4887    1.5134    1.5697 H   0  0  0  0  0  0  0  0  0  0  0  0
   -3.3548   -0.4384    2.6021 H   0  0  0  0  0  0  0  0  0  0  0  0
   -3.9712   -2.8212    2.7025 H   0  0  0  0  0  0  0  0  0  0  0  0
   -3.9292   -4.1521    0.5916 H   0  0  0  0  0  0  0  0  0  0  0  0
   -2.8736   -2.6887   -2.9279 H   0  0  0  0  0  0  0  0  0  0  0  0
   -2.2756   -1.4252   -3.9773 H   0  0  0  0  0  0  0  0  0  0  0  0
   -4.6542   -1.6174   -4.4006 H   0  0  0  0  0  0  0  0  0  0  0  0
   -4.3917   -0.0731   -3.5689 H   0  0  0  0  0  0  0  0  0  0  0  0
   -4.9135   -2.2722   -1.9448 H   0  0  0  0  0  0  0  0  0  0  0  0
  1  2  1  0
  2  3  1  0
  3  4  1  0
  4  5  2  0
  4  6  1  0
  6  7  1  0
  7  8  1  0
  8  9  1  0
  8 10  1  0
  8 11  1  0
  2 12  1  0
 12 13  2  0
 12 14  1  0
 14 15  1  0
 15 16  1  0
 16 17  2  0
 17 18  1  0
 18 19  2  0
 19 20  1  0
 20 21  2  0
 21 22  1  0
 22 23  2  0
 23 24  1  0
 24 25  2  0
 25 26  1  0
 26 27  2  0
 27 28  1  0
 28 29  1  0
 29 30  1  0
 30 31  1  0
 28 32  1  0
 32 33  2  0
 32 15  1  0
 21 16  1  0
 27 22  1  0
  1 34  1  0
  1 35  1  0
  1 36  1  0
  2 37  1  6
  3 38  1  0
  6 39  1  0
  6 40  1  0
  7 41  1  0
  7 42  1  0
 14 43  1  0
 15 44  1  1
 17 45  1  0
 18 46  1  0
 19 47  1  0
 20 48  1  0
 23 49  1  0
 24 50  1  0
 25 51  1  0
 29 52  1  0
 29 53  1  0
 30 54  1  0
 30 55  1  0
 31 56  1  0
M  END
>  <CID>  (67) 
7

>  <Energy>  (67) 
53.43154034599264

$$$$

     RDKit          3D

 56 58  0  0  0  0  0  0  0  0999 V2000
    1.7080   -0.1032   -1.5715 C   0  0  0  0  0  0  0  0  0  0  0  0
    2.0894    0.1121   -0.1116 C   0  0  2  0  0  0  0  0  0  0  0  0
    3.3360   -0.5627    0.2206 N   0  0  0  0  0  0  0  0  0  0  0  0
    4.5604   -0.0343   -0.0917 C   0  0  0  0  0  0  0  0  0  0  0  0
    4.7027    1.0132   -0.7124 O   0  0  0  0  0  0  0  0  0  0  0  0
    5.7260   -0.8896    0.3577 C   0  0  0  0  0  0  0  0  0  0  0  0
    6.9979   -0.0711    0.5515 C   0  0  0  0  0  0  0  0  0  0  0  0
    6.9417    0.7705    1.8077 C   0  0  0  0  0  0  0  0  0  0  0  0
    6.8062   -0.0162    2.8998 F   0  0  0  0  0  0  0  0  0  0  0  0
    5.9188    1.6454    1.8067 F   0  0  0  0  0  0  0  0  0  0  0  0
    8.0865    1.4732    1.9574 F   0  0  0  0  0  0  0  0  0  0  0  0
    0.9899   -0.4479    0.8062 C   0  0  0  0  0  0  0  0  0  0  0  0
    1.1167   -1.5122    1.4089 O   0  0  0  0  0  0  0  0  0  0  0  0
   -0.1520    0.3134    0.8665 N   0  0  0  0  0  0  0  0  0  0  0  0
   -1.2870   -0.0922    1.6894 C   0  0  1  0  0  0  0  0  0  0  0  0
   -2.2924    1.0255    1.8189 C   0  0  0  0  0  0  0  0  0  0  0  0
   -2.5810    1.5478    3.0941 C   0  0  0  0  0  0  0  0  0  0  0  0
   -3.5647    2.5178    3.2579 C   0  0  0  0  0  0  0  0  0  0  0  0
   -4.2772    2.9654    2.1542 C   0  0  0  0  0  0  0  0  0  0  0  0
   -3.9909    2.4551    0.8855 C   0  0  0  0  0  0  0  0  0  0  0  0
   -2.9827    1.4889    0.6816 C   0  0  0  0  0  0  0  0  0  0  0  0
   -2.6594    1.0196   -0.6913 C   0  0  0  0  0  0  0  0  0  0  0  0
   -2.6053    1.9850   -1.7236 C   0  0  0  0  0  0  0  0  0  0  0  0
   -2.3935    1.6270   -3.0487 C   0  0  0  0  0  0  0  0  0  0  0  0
   -2.2430    0.2915   -3.3291 C   0  0  0  0  0  0  0  0  0  0  0  0
   -2.2601   -0.6674   -2.3835 N   0  0  0  0  0  0  0  0  0  0  0  0
   -2.4219   -0.3191   -1.0758 C   0  0  0  0  0  0  0  0  0  0  0  0
   -2.3676   -1.4176   -0.1668 N   0  0  0  0  0  0  0  0  0  0  0  0
   -2.7115   -2.7392   -0.6990 C   0  0  0  0  0  0  0  0  0  0  0  0
   -4.2176   -2.9225   -0.8994 C   0  0  0  0  0  0  0  0  0  0  0  0
   -4.4977   -4.1597   -1.5507 O   0  0  0  0  0  0  0  0  0  0  0  0
   -2.0402   -1.3431    1.1802 C   0  0  0  0  0  0  0  0  0  0  0  0
   -2.4012   -2.2134    1.9817 O   0  0  0  0  0  0  0  0  0  0  0  0
    2.4934    0.2546   -2.2449 H   0  0  0  0  0  0  0  0  0  0  0  0
    0.7840    0.4284   -1.8200 H   0  0  0  0  0  0  0  0  0  0  0  0
    1.5458   -1.1661   -1.7842 H   0  0  0  0  0  0  0  0  0  0  0  0
    2.2101    1.1828    0.0908 H   0  0  0  0  0  0  0  0  0  0  0  0
    3.2557   -1.4287    0.7478 H   0  0  0  0  0  0  0  0  0  0  0  0
    5.8911   -1.6377   -0.4268 H   0  0  0  0  0  0  0  0  0  0  0  0
    5.4694   -1.4283    1.2767 H   0  0  0  0  0  0  0  0  0  0  0  0
    7.8498   -0.7564    0.6301 H   0  0  0  0  0  0  0  0  0  0  0  0
    7.1873    0.5730   -0.3144 H   0  0  0  0  0  0  0  0  0  0  0  0
   -0.1708    1.2215    0.4211 H   0  0  0  0  0  0  0  0  0  0  0  0
   -0.8774   -0.3538    2.6740 H   0  0  0  0  0  0  0  0  0  0  0  0
   -2.0519    1.1820    3.9730 H   0  0  0  0  0  0  0  0  0  0  0  0
   -3.7872    2.9081    4.2480 H   0  0  0  0  0  0  0  0  0  0  0  0
   -5.0609    3.7090    2.2774 H   0  0  0  0  0  0  0  0  0  0  0  0
   -4.5826    2.8209    0.0475 H   0  0  0  0  0  0  0  0  0  0  0  0
   -2.7357    3.0425   -1.4968 H   0  0  0  0  0  0  0  0  0  0  0  0
   -2.3626    2.3716   -3.8363 H   0  0  0  0  0  0  0  0  0  0  0  0
   -2.0927   -0.0587   -4.3464 H   0  0  0  0  0  0  0  0  0  0  0  0
   -2.3536   -3.5235   -0.0195 H   0  0  0  0  0  0  0  0  0  0  0  0
   -2.1655   -2.9284   -1.6314 H   0  0  0  0  0  0  0  0  0  0  0  0
   -4.6478   -2.1189   -1.5058 H   0  0  0  0  0  0  0  0  0  0  0  0
   -4.7348   -2.9201    0.0656 H   0  0  0  0  0  0  0  0  0  0  0  0
   -4.0967   -4.1137   -2.4360 H   0  0  0  0  0  0  0  0  0  0  0  0
  1  2  1  0
  2  3  1  0
  3  4  1  0
  4  5  2  0
  4  6  1  0
  6  7  1  0
  7  8  1  0
  8  9  1  0
  8 10  1  0
  8 11  1  0
  2 12  1  0
 12 13  2  0
 12 14  1  0
 14 15  1  0
 15 16  1  0
 16 17  2  0
 17 18  1  0
 18 19  2  0
 19 20  1  0
 20 21  2  0
 21 22  1  0
 22 23  2  0
 23 24  1  0
 24 25  2  0
 25 26  1  0
 26 27  2  0
 27 28  1  0
 28 29  1  0
 29 30  1  0
 30 31  1  0
 28 32  1  0
 32 33  2  0
 32 15  1  0
 21 16  1  0
 27 22  1  0
  1 34  1  0
  1 35  1  0
  1 36  1  0
  2 37  1  6
  3 38  1  0
  6 39  1  0
  6 40  1  0
  7 41  1  0
  7 42  1  0
 14 43  1  0
 15 44  1  1
 17 45  1  0
 18 46  1  0
 19 47  1  0
 20 48  1  0
 23 49  1  0
 24 50  1  0
 25 51  1  0
 29 52  1  0
 29 53  1  0
 30 54  1  0
 30 55  1  0
 31 56  1  0
M  END
>  <CID>  (68) 
3

>  <Energy>  (68) 
53.49975486594104

$$$$

     RDKit          3D

 56 58  0  0  0  0  0  0  0  0999 V2000
    1.7098   -0.1087   -1.5649 C   0  0  0  0  0  0  0  0  0  0  0  0
    2.0892    0.1008   -0.1035 C   0  0  2  0  0  0  0  0  0  0  0  0
    3.3315   -0.5818    0.2292 N   0  0  0  0  0  0  0  0  0  0  0  0
    4.5593   -0.0589   -0.0789 C   0  0  0  0  0  0  0  0  0  0  0  0
    4.7084    0.9906   -0.6947 O   0  0  0  0  0  0  0  0  0  0  0  0
    5.7194   -0.9231    0.3678 C   0  0  0  0  0  0  0  0  0  0  0  0
    6.9973   -0.1140    0.5616 C   0  0  0  0  0  0  0  0  0  0  0  0
    6.9497    0.7239    1.8206 C   0  0  0  0  0  0  0  0  0  0  0  0
    8.0994    1.4188    1.9695 F   0  0  0  0  0  0  0  0  0  0  0  0
    6.8123   -0.0658    2.9103 F   0  0  0  0  0  0  0  0  0  0  0  0
    5.9326    1.6052    1.8255 F   0  0  0  0  0  0  0  0  0  0  0  0
    0.9845   -0.4555    0.8104 C   0  0  0  0  0  0  0  0  0  0  0  0
    1.1043   -1.5216    1.4112 O   0  0  0  0  0  0  0  0  0  0  0  0
   -0.1535    0.3117    0.8693 N   0  0  0  0  0  0  0  0  0  0  0  0
   -1.2931   -0.0897    1.6879 C   0  0  1  0  0  0  0  0  0  0  0  0
   -2.2921    1.0336    1.8182 C   0  0  0  0  0  0  0  0  0  0  0  0
   -2.5811    1.5536    3.0942 C   0  0  0  0  0  0  0  0  0  0  0  0
   -3.5594    2.5290    3.2585 C   0  0  0  0  0  0  0  0  0  0  0  0
   -4.2661    2.9846    2.1542 C   0  0  0  0  0  0  0  0  0  0  0  0
   -3.9794    2.4765    0.8847 C   0  0  0  0  0  0  0  0  0  0  0  0
   -2.9765    1.5047    0.6804 C   0  0  0  0  0  0  0  0  0  0  0  0
   -2.6523    1.0377   -0.6931 C   0  0  0  0  0  0  0  0  0  0  0  0
   -2.5897    2.0059   -1.7223 C   0  0  0  0  0  0  0  0  0  0  0  0
   -2.3759    1.6506   -3.0478 C   0  0  0  0  0  0  0  0  0  0  0  0
   -2.2319    0.3151   -3.3318 C   0  0  0  0  0  0  0  0  0  0  0  0
   -2.2573   -0.6465   -2.3892 N   0  0  0  0  0  0  0  0  0  0  0  0
   -2.4214   -0.3012   -1.0810 C   0  0  0  0  0  0  0  0  0  0  0  0
   -2.3768   -1.4027   -0.1752 N   0  0  0  0  0  0  0  0  0  0  0  0
   -2.7262   -2.7208   -0.7129 C   0  0  0  0  0  0  0  0  0  0  0  0
   -4.2318   -2.8933   -0.9254 C   0  0  0  0  0  0  0  0  0  0  0  0
   -4.5156   -4.1296   -1.5769 O   0  0  0  0  0  0  0  0  0  0  0  0
   -2.0525   -1.3345    1.1729 C   0  0  0  0  0  0  0  0  0  0  0  0
   -2.4212   -2.2048    1.9708 O   0  0  0  0  0  0  0  0  0  0  0  0
    1.5421   -1.1702   -1.7805 H   0  0  0  0  0  0  0  0  0  0  0  0
    2.4988    0.2463   -2.2356 H   0  0  0  0  0  0  0  0  0  0  0  0
    0.7894    0.4288   -1.8142 H   0  0  0  0  0  0  0  0  0  0  0  0
    2.2154    1.1703    0.1020 H   0  0  0  0  0  0  0  0  0  0  0  0
    3.2455   -1.4489    0.7538 H   0  0  0  0  0  0  0  0  0  0  0  0
    5.8783   -1.6709   -0.4182 H   0  0  0  0  0  0  0  0  0  0  0  0
    5.4597   -1.4616    1.2861 H   0  0  0  0  0  0  0  0  0  0  0  0
    7.8448   -0.8054    0.6366 H   0  0  0  0  0  0  0  0  0  0  0  0
    7.1898    0.5314   -0.3026 H   0  0  0  0  0  0  0  0  0  0  0  0
   -0.1664    1.2206    0.4254 H   0  0  0  0  0  0  0  0  0  0  0  0
   -0.8876   -0.3567    2.6728 H   0  0  0  0  0  0  0  0  0  0  0  0
   -2.0567    1.1817    3.9734 H   0  0  0  0  0  0  0  0  0  0  0  0
   -3.7824    2.9174    4.2491 H   0  0  0  0  0  0  0  0  0  0  0  0
   -5.0454    3.7328    2.2776 H   0  0  0  0  0  0  0  0  0  0  0  0
   -4.5664    2.8487    0.0461 H   0  0  0  0  0  0  0  0  0  0  0  0
   -2.7148    3.0634   -1.4928 H   0  0  0  0  0  0  0  0  0  0  0  0
   -2.3386    2.3972   -3.8332 H   0  0  0  0  0  0  0  0  0  0  0  0
   -2.0805   -0.0329   -4.3497 H   0  0  0  0  0  0  0  0  0  0  0  0
   -2.3789   -3.5092   -0.0327 H   0  0  0  0  0  0  0  0  0  0  0  0
   -2.1743   -2.9114   -1.6414 H   0  0  0  0  0  0  0  0  0  0  0  0
   -4.6511   -2.0877   -1.5366 H   0  0  0  0  0  0  0  0  0  0  0  0
   -4.7571   -2.8856    0.0352 H   0  0  0  0  0  0  0  0  0  0  0  0
   -4.1077   -4.0875   -2.4593 H   0  0  0  0  0  0  0  0  0  0  0  0
  1  2  1  0
  2  3  1  0
  3  4  1  0
  4  5  2  0
  4  6  1  0
  6  7  1  0
  7  8  1  0
  8  9  1  0
  8 10  1  0
  8 11  1  0
  2 12  1  0
 12 13  2  0
 12 14  1  0
 14 15  1  0
 15 16  1  0
 16 17  2  0
 17 18  1  0
 18 19  2  0
 19 20  1  0
 20 21  2  0
 21 22  1  0
 22 23  2  0
 23 24  1  0
 24 25  2  0
 25 26  1  0
 26 27  2  0
 27 28  1  0
 28 29  1  0
 29 30  1  0
 30 31  1  0
 28 32  1  0
 32 33  2  0
 32 15  1  0
 21 16  1  0
 27 22  1  0
  1 34  1  0
  1 35  1  0
  1 36  1  0
  2 37  1  6
  3 38  1  0
  6 39  1  0
  6 40  1  0
  7 41  1  0
  7 42  1  0
 14 43  1  0
 15 44  1  1
 17 45  1  0
 18 46  1  0
 19 47  1  0
 20 48  1  0
 23 49  1  0
 24 50  1  0
 25 51  1  0
 29 52  1  0
 29 53  1  0
 30 54  1  0
 30 55  1  0
 31 56  1  0
M  END
>  <CID>  (69) 
19

>  <Energy>  (69) 
53.50029597742348

$$$$

     RDKit          3D

 56 58  0  0  0  0  0  0  0  0999 V2000
    1.7057   -0.2072   -1.5714 C   0  0  0  0  0  0  0  0  0  0  0  0
    2.0885    0.0746   -0.1231 C   0  0  2  0  0  0  0  0  0  0  0  0
    3.3303   -0.5927    0.2410 N   0  0  0  0  0  0  0  0  0  0  0  0
    4.5583   -0.0867   -0.0929 C   0  0  0  0  0  0  0  0  0  0  0  0
    4.7080    0.9325   -0.7576 O   0  0  0  0  0  0  0  0  0  0  0  0
    5.7176   -0.9306    0.3930 C   0  0  0  0  0  0  0  0  0  0  0  0
    6.9983   -0.1165    0.5420 C   0  0  0  0  0  0  0  0  0  0  0  0
    6.9573    0.7826    1.7583 C   0  0  0  0  0  0  0  0  0  0  0  0
    6.8236    0.0477    2.8862 F   0  0  0  0  0  0  0  0  0  0  0  0
    5.9411    1.6645    1.7239 F   0  0  0  0  0  0  0  0  0  0  0  0
    8.1083    1.4823    1.8680 F   0  0  0  0  0  0  0  0  0  0  0  0
    0.9850   -0.4342    0.8192 C   0  0  0  0  0  0  0  0  0  0  0  0
    1.0997   -1.4757    1.4624 O   0  0  0  0  0  0  0  0  0  0  0  0
   -0.1471    0.3431    0.8511 N   0  0  0  0  0  0  0  0  0  0  0  0
   -1.2843   -0.0131    1.6935 C   0  0  1  0  0  0  0  0  0  0  0  0
   -2.2759    1.1212    1.7766 C   0  0  0  0  0  0  0  0  0  0  0  0
   -2.5549    1.7018    3.0284 C   0  0  0  0  0  0  0  0  0  0  0  0
   -3.5256    2.6907    3.1518 C   0  0  0  0  0  0  0  0  0  0  0  0
   -4.2347    3.0996    2.0309 C   0  0  0  0  0  0  0  0  0  0  0  0
   -3.9581    2.5310    0.7850 C   0  0  0  0  0  0  0  0  0  0  0  0
   -2.9631    1.5436    0.6215 C   0  0  0  0  0  0  0  0  0  0  0  0
   -2.6493    1.0108   -0.7302 C   0  0  0  0  0  0  0  0  0  0  0  0
   -2.5852    1.9292   -1.8039 C   0  0  0  0  0  0  0  0  0  0  0  0
   -2.3805    1.5108   -3.1122 C   0  0  0  0  0  0  0  0  0  0  0  0
   -2.2473    0.1625   -3.3341 C   0  0  0  0  0  0  0  0  0  0  0  0
   -2.2749   -0.7538   -2.3473 N   0  0  0  0  0  0  0  0  0  0  0  0
   -2.4299   -0.3465   -1.0561 C   0  0  0  0  0  0  0  0  0  0  0  0
   -2.3880   -1.4046   -0.0998 N   0  0  0  0  0  0  0  0  0  0  0  0
   -2.7517   -2.7434   -0.5728 C   0  0  0  0  0  0  0  0  0  0  0  0
   -4.2604   -2.9124   -0.7673 C   0  0  0  0  0  0  0  0  0  0  0  0
   -4.5604   -4.1774   -1.3531 O   0  0  0  0  0  0  0  0  0  0  0  0
   -2.0539   -1.2758    1.2415 C   0  0  0  0  0  0  0  0  0  0  0  0
   -2.4210   -2.1066    2.0814 O   0  0  0  0  0  0  0  0  0  0  0  0
    2.4940    0.1125   -2.2606 H   0  0  0  0  0  0  0  0  0  0  0  0
    1.5360   -1.2778   -1.7336 H   0  0  0  0  0  0  0  0  0  0  0  0
    0.7857    0.3187   -1.8453 H   0  0  0  0  0  0  0  0  0  0  0  0
    2.2167    1.1530    0.0281 H   0  0  0  0  0  0  0  0  0  0  0  0
    3.2436   -1.4353    0.8038 H   0  0  0  0  0  0  0  0  0  0  0  0
    5.4593   -1.4213    1.3381 H   0  0  0  0  0  0  0  0  0  0  0  0
    5.8720   -1.7174   -0.3548 H   0  0  0  0  0  0  0  0  0  0  0  0
    7.8440   -0.8057    0.6478 H   0  0  0  0  0  0  0  0  0  0  0  0
    7.1889    0.4849   -0.3538 H   0  0  0  0  0  0  0  0  0  0  0  0
   -0.1569    1.2310    0.3661 H   0  0  0  0  0  0  0  0  0  0  0  0
   -0.8747   -0.2361    2.6875 H   0  0  0  0  0  0  0  0  0  0  0  0
   -2.0286    1.3675    3.9214 H   0  0  0  0  0  0  0  0  0  0  0  0
   -3.7409    3.1262    4.1244 H   0  0  0  0  0  0  0  0  0  0  0  0
   -5.0082    3.8582    2.1231 H   0  0  0  0  0  0  0  0  0  0  0  0
   -4.5468    2.8681   -0.0671 H   0  0  0  0  0  0  0  0  0  0  0  0
   -2.7016    2.9973   -1.6235 H   0  0  0  0  0  0  0  0  0  0  0  0
   -2.3414    2.2197   -3.9317 H   0  0  0  0  0  0  0  0  0  0  0  0
   -2.1029   -0.2339   -4.3350 H   0  0  0  0  0  0  0  0  0  0  0  0
   -2.4064   -3.5021    0.1414 H   0  0  0  0  0  0  0  0  0  0  0  0
   -2.2079   -2.9820   -1.4951 H   0  0  0  0  0  0  0  0  0  0  0  0
   -4.6759   -2.1350   -1.4164 H   0  0  0  0  0  0  0  0  0  0  0  0
   -4.7793   -2.8504    0.1947 H   0  0  0  0  0  0  0  0  0  0  0  0
   -4.1441   -4.1917   -2.2323 H   0  0  0  0  0  0  0  0  0  0  0  0
  1  2  1  0
  2  3  1  0
  3  4  1  0
  4  5  2  0
  4  6  1  0
  6  7  1  0
  7  8  1  0
  8  9  1  0
  8 10  1  0
  8 11  1  0
  2 12  1  0
 12 13  2  0
 12 14  1  0
 14 15  1  0
 15 16  1  0
 16 17  2  0
 17 18  1  0
 18 19  2  0
 19 20  1  0
 20 21  2  0
 21 22  1  0
 22 23  2  0
 23 24  1  0
 24 25  2  0
 25 26  1  0
 26 27  2  0
 27 28  1  0
 28 29  1  0
 29 30  1  0
 30 31  1  0
 28 32  1  0
 32 33  2  0
 32 15  1  0
 21 16  1  0
 27 22  1  0
  1 34  1  0
  1 35  1  0
  1 36  1  0
  2 37  1  6
  3 38  1  0
  6 39  1  0
  6 40  1  0
  7 41  1  0
  7 42  1  0
 14 43  1  0
 15 44  1  1
 17 45  1  0
 18 46  1  0
 19 47  1  0
 20 48  1  0
 23 49  1  0
 24 50  1  0
 25 51  1  0
 29 52  1  0
 29 53  1  0
 30 54  1  0
 30 55  1  0
 31 56  1  0
M  END
>  <CID>  (70) 
29

>  <Energy>  (70) 
53.50264947271975

$$$$

     RDKit          3D

 56 58  0  0  0  0  0  0  0  0999 V2000
    2.6798    1.7004    3.1352 C   0  0  0  0  0  0  0  0  0  0  0  0
    2.0229    0.5388    2.3984 C   0  0  2  0  0  0  0  0  0  0  0  0
    2.4447    0.5364    0.9923 N   0  0  0  0  0  0  0  0  0  0  0  0
    2.5218   -0.6152    0.2537 C   0  0  0  0  0  0  0  0  0  0  0  0
    2.0976   -1.6923    0.6601 O   0  0  0  0  0  0  0  0  0  0  0  0
    3.1772   -0.4655   -1.0972 C   0  0  0  0  0  0  0  0  0  0  0  0
    4.5806   -1.0610   -1.0984 C   0  0  0  0  0  0  0  0  0  0  0  0
    5.5358   -0.3020   -0.2047 C   0  0  0  0  0  0  0  0  0  0  0  0
    5.2174   -0.4197    1.0988 F   0  0  0  0  0  0  0  0  0  0  0  0
    5.5347    1.0147   -0.5124 F   0  0  0  0  0  0  0  0  0  0  0  0
    6.7970   -0.7580   -0.3613 F   0  0  0  0  0  0  0  0  0  0  0  0
    0.4842    0.5687    2.5744 C   0  0  0  0  0  0  0  0  0  0  0  0
   -0.0663    1.1521    3.5054 O   0  0  0  0  0  0  0  0  0  0  0  0
   -0.2047   -0.2404    1.7020 N   0  0  0  0  0  0  0  0  0  0  0  0
   -1.6431   -0.4479    1.7799 C   0  0  1  0  0  0  0  0  0  0  0  0
   -2.4604    0.7817    1.4742 C   0  0  0  0  0  0  0  0  0  0  0  0
   -3.3191    1.2948    2.4675 C   0  0  0  0  0  0  0  0  0  0  0  0
   -4.1612    2.3695    2.2006 C   0  0  0  0  0  0  0  0  0  0  0  0
   -4.1647    2.9365    0.9352 C   0  0  0  0  0  0  0  0  0  0  0  0
   -3.3075    2.4406   -0.0499 C   0  0  0  0  0  0  0  0  0  0  0  0
   -2.4207    1.3689    0.1992 C   0  0  0  0  0  0  0  0  0  0  0  0
   -1.4845    0.9154   -0.8570 C   0  0  0  0  0  0  0  0  0  0  0  0
   -0.8407    1.9053   -1.6372 C   0  0  0  0  0  0  0  0  0  0  0  0
   -0.0569    1.5769   -2.7346 C   0  0  0  0  0  0  0  0  0  0  0  0
    0.0781    0.2455   -3.0365 C   0  0  0  0  0  0  0  0  0  0  0  0
   -0.4663   -0.7379   -2.2947 N   0  0  0  0  0  0  0  0  0  0  0  0
   -1.2145   -0.4254   -1.1993 C   0  0  0  0  0  0  0  0  0  0  0  0
   -1.7115   -1.5591   -0.4845 N   0  0  0  0  0  0  0  0  0  0  0  0
   -1.8593   -2.8077   -1.2401 C   0  0  0  0  0  0  0  0  0  0  0  0
   -3.1387   -2.8316   -2.0789 C   0  0  0  0  0  0  0  0  0  0  0  0
   -3.3480   -4.1208   -2.6505 O   0  0  0  0  0  0  0  0  0  0  0  0
   -2.1073   -1.5843    0.8485 C   0  0  0  0  0  0  0  0  0  0  0  0
   -2.8339   -2.4843    1.2886 O   0  0  0  0  0  0  0  0  0  0  0  0
    2.4416    1.6772    4.2038 H   0  0  0  0  0  0  0  0  0  0  0  0
    2.3385    2.6629    2.7376 H   0  0  0  0  0  0  0  0  0  0  0  0
    3.7695    1.6629    3.0296 H   0  0  0  0  0  0  0  0  0  0  0  0
    2.3648   -0.4014    2.8496 H   0  0  0  0  0  0  0  0  0  0  0  0
    2.6856    1.4260    0.5732 H   0  0  0  0  0  0  0  0  0  0  0  0
    3.1989    0.5859   -1.4038 H   0  0  0  0  0  0  0  0  0  0  0  0
    2.5551   -0.9982   -1.8246 H   0  0  0  0  0  0  0  0  0  0  0  0
    4.5491   -2.1100   -0.7822 H   0  0  0  0  0  0  0  0  0  0  0  0
    4.9668   -1.0457   -2.1240 H   0  0  0  0  0  0  0  0  0  0  0  0
    0.3412   -0.8861    1.1349 H   0  0  0  0  0  0  0  0  0  0  0  0
   -1.8405   -0.7841    2.8065 H   0  0  0  0  0  0  0  0  0  0  0  0
   -3.3340    0.8495    3.4613 H   0  0  0  0  0  0  0  0  0  0  0  0
   -4.8182    2.7530    2.9767 H   0  0  0  0  0  0  0  0  0  0  0  0
   -4.8305    3.7659    0.7115 H   0  0  0  0  0  0  0  0  0  0  0  0
   -3.3475    2.9054   -1.0338 H   0  0  0  0  0  0  0  0  0  0  0  0
   -0.9680    2.9602   -1.3966 H   0  0  0  0  0  0  0  0  0  0  0  0
    0.4094    2.3422   -3.3443 H   0  0  0  0  0  0  0  0  0  0  0  0
    0.6509   -0.0848   -3.8982 H   0  0  0  0  0  0  0  0  0  0  0  0
   -0.9795   -3.0031   -1.8646 H   0  0  0  0  0  0  0  0  0  0  0  0
   -1.8807   -3.6562   -0.5438 H   0  0  0  0  0  0  0  0  0  0  0  0
   -3.0804   -2.1056   -2.8959 H   0  0  0  0  0  0  0  0  0  0  0  0
   -4.0161   -2.5792   -1.4737 H   0  0  0  0  0  0  0  0  0  0  0  0
   -3.5387   -4.7296   -1.9149 H   0  0  0  0  0  0  0  0  0  0  0  0
  1  2  1  0
  2  3  1  0
  3  4  1  0
  4  5  2  0
  4  6  1  0
  6  7  1  0
  7  8  1  0
  8  9  1  0
  8 10  1  0
  8 11  1  0
  2 12  1  0
 12 13  2  0
 12 14  1  0
 14 15  1  0
 15 16  1  0
 16 17  2  0
 17 18  1  0
 18 19  2  0
 19 20  1  0
 20 21  2  0
 21 22  1  0
 22 23  2  0
 23 24  1  0
 24 25  2  0
 25 26  1  0
 26 27  2  0
 27 28  1  0
 28 29  1  0
 29 30  1  0
 30 31  1  0
 28 32  1  0
 32 33  2  0
 32 15  1  0
 21 16  1  0
 27 22  1  0
  1 34  1  0
  1 35  1  0
  1 36  1  0
  2 37  1  1
  3 38  1  0
  6 39  1  0
  6 40  1  0
  7 41  1  0
  7 42  1  0
 14 43  1  0
 15 44  1  1
 17 45  1  0
 18 46  1  0
 19 47  1  0
 20 48  1  0
 23 49  1  0
 24 50  1  0
 25 51  1  0
 29 52  1  0
 29 53  1  0
 30 54  1  0
 30 55  1  0
 31 56  1  0
M  END
>  <CID>  (71) 
27

>  <Energy>  (71) 
53.53701077767445

$$$$

     RDKit          3D

 56 58  0  0  0  0  0  0  0  0999 V2000
    1.3230   -0.2244   -1.7100 C   0  0  0  0  0  0  0  0  0  0  0  0
    1.7836    0.0505   -0.2840 C   0  0  2  0  0  0  0  0  0  0  0  0
    3.0500   -0.6089    0.0046 N   0  0  0  0  0  0  0  0  0  0  0  0
    4.2546   -0.0865   -0.3848 C   0  0  0  0  0  0  0  0  0  0  0  0
    4.3632    0.9468   -1.0354 O   0  0  0  0  0  0  0  0  0  0  0  0
    5.4432   -0.9324    0.0203 C   0  0  0  0  0  0  0  0  0  0  0  0
    6.7268   -0.1146    0.1133 C   0  0  0  0  0  0  0  0  0  0  0  0
    6.7509    0.7603    1.3477 C   0  0  0  0  0  0  0  0  0  0  0  0
    6.6769    0.0034    2.4666 F   0  0  0  0  0  0  0  0  0  0  0  0
    7.9074    1.4572    1.4096 F   0  0  0  0  0  0  0  0  0  0  0  0
    5.7356    1.6428    1.3853 F   0  0  0  0  0  0  0  0  0  0  0  0
    0.7409   -0.4720    0.7187 C   0  0  0  0  0  0  0  0  0  0  0  0
    0.8900   -1.5297    1.3289 O   0  0  0  0  0  0  0  0  0  0  0  0
   -0.3744    0.3200    0.8507 N   0  0  0  0  0  0  0  0  0  0  0  0
   -1.4655   -0.0538    1.7433 C   0  0  1  0  0  0  0  0  0  0  0  0
   -2.4213    1.0914    1.9664 C   0  0  0  0  0  0  0  0  0  0  0  0
   -2.6012    1.5954    3.2689 C   0  0  0  0  0  0  0  0  0  0  0  0
   -3.5425    2.5881    3.5229 C   0  0  0  0  0  0  0  0  0  0  0  0
   -4.3209    3.0777    2.4833 C   0  0  0  0  0  0  0  0  0  0  0  0
   -4.1420    2.5865    1.1878 C   0  0  0  0  0  0  0  0  0  0  0  0
   -3.1788    1.5981    0.8929 C   0  0  0  0  0  0  0  0  0  0  0  0
   -2.9648    1.1535   -0.5082 C   0  0  0  0  0  0  0  0  0  0  0  0
   -2.9373    2.1470   -1.5160 C   0  0  0  0  0  0  0  0  0  0  0  0
   -2.8126    1.8208   -2.8596 C   0  0  0  0  0  0  0  0  0  0  0  0
   -2.7248    0.4897   -3.1813 C   0  0  0  0  0  0  0  0  0  0  0  0
   -2.7252   -0.4917   -2.2605 N   0  0  0  0  0  0  0  0  0  0  0  0
   -2.7995   -0.1829   -0.9380 C   0  0  0  0  0  0  0  0  0  0  0  0
   -2.7261   -1.3014   -0.0550 N   0  0  0  0  0  0  0  0  0  0  0  0
   -3.1076   -2.6186   -0.5829 C   0  0  0  0  0  0  0  0  0  0  0  0
   -1.9211   -3.5882   -0.6981 C   0  0  0  0  0  0  0  0  0  0  0  0
   -0.9941   -3.1716   -1.6967 O   0  0  0  0  0  0  0  0  0  0  0  0
   -2.2849   -1.2709    1.2620 C   0  0  0  0  0  0  0  0  0  0  0  0
   -2.5711   -2.1743    2.0593 O   0  0  0  0  0  0  0  0  0  0  0  0
    1.1868   -1.2983   -1.8796 H   0  0  0  0  0  0  0  0  0  0  0  0
    0.3686    0.2686   -1.9196 H   0  0  0  0  0  0  0  0  0  0  0  0
    2.0561    0.1353   -2.4392 H   0  0  0  0  0  0  0  0  0  0  0  0
    1.9120    1.1290   -0.1335 H   0  0  0  0  0  0  0  0  0  0  0  0
    2.9988   -1.4617    0.5551 H   0  0  0  0  0  0  0  0  0  0  0  0
    5.5592   -1.7045   -0.7496 H   0  0  0  0  0  0  0  0  0  0  0  0
    5.2399   -1.4421    0.9688 H   0  0  0  0  0  0  0  0  0  0  0  0
    6.8649    0.5050   -0.7798 H   0  0  0  0  0  0  0  0  0  0  0  0
    7.5799   -0.8015    0.1584 H   0  0  0  0  0  0  0  0  0  0  0  0
   -0.4246    1.1999    0.3542 H   0  0  0  0  0  0  0  0  0  0  0  0
   -1.0004   -0.3485    2.6934 H   0  0  0  0  0  0  0  0  0  0  0  0
   -2.0196    1.1977    4.0993 H   0  0  0  0  0  0  0  0  0  0  0  0
   -3.6808    2.9637    4.5336 H   0  0  0  0  0  0  0  0  0  0  0  0
   -5.0722    3.8392    2.6770 H   0  0  0  0  0  0  0  0  0  0  0  0
   -4.7806    2.9854    0.4007 H   0  0  0  0  0  0  0  0  0  0  0  0
   -3.0157    3.2012   -1.2531 H   0  0  0  0  0  0  0  0  0  0  0  0
   -2.7982    2.5848   -3.6283 H   0  0  0  0  0  0  0  0  0  0  0  0
   -2.6406    0.1583   -4.2120 H   0  0  0  0  0  0  0  0  0  0  0  0
   -3.6199   -2.5295   -1.5467 H   0  0  0  0  0  0  0  0  0  0  0  0
   -3.8374   -3.0511    0.1133 H   0  0  0  0  0  0  0  0  0  0  0  0
   -1.3817   -3.6813    0.2495 H   0  0  0  0  0  0  0  0  0  0  0  0
   -2.2894   -4.5800   -0.9803 H   0  0  0  0  0  0  0  0  0  0  0  0
   -0.2360   -3.7769   -1.6424 H   0  0  0  0  0  0  0  0  0  0  0  0
  1  2  1  0
  2  3  1  0
  3  4  1  0
  4  5  2  0
  4  6  1  0
  6  7  1  0
  7  8  1  0
  8  9  1  0
  8 10  1  0
  8 11  1  0
  2 12  1  0
 12 13  2  0
 12 14  1  0
 14 15  1  0
 15 16  1  0
 16 17  2  0
 17 18  1  0
 18 19  2  0
 19 20  1  0
 20 21  2  0
 21 22  1  0
 22 23  2  0
 23 24  1  0
 24 25  2  0
 25 26  1  0
 26 27  2  0
 27 28  1  0
 28 29  1  0
 29 30  1  0
 30 31  1  0
 28 32  1  0
 32 33  2  0
 32 15  1  0
 21 16  1  0
 27 22  1  0
  1 34  1  0
  1 35  1  0
  1 36  1  0
  2 37  1  6
  3 38  1  0
  6 39  1  0
  6 40  1  0
  7 41  1  0
  7 42  1  0
 14 43  1  0
 15 44  1  1
 17 45  1  0
 18 46  1  0
 19 47  1  0
 20 48  1  0
 23 49  1  0
 24 50  1  0
 25 51  1  0
 29 52  1  0
 29 53  1  0
 30 54  1  0
 30 55  1  0
 31 56  1  0
M  END
>  <CID>  (72) 
90

>  <Energy>  (72) 
53.83375580272379

$$$$

     RDKit          3D

 56 58  0  0  0  0  0  0  0  0999 V2000
    1.8580   -1.2877   -1.7300 C   0  0  0  0  0  0  0  0  0  0  0  0
    2.0915   -0.4766   -0.4638 C   0  0  2  0  0  0  0  0  0  0  0  0
    3.3746   -0.8021    0.1411 N   0  0  0  0  0  0  0  0  0  0  0  0
    4.1063    0.1474    0.8103 C   0  0  0  0  0  0  0  0  0  0  0  0
    3.7675    1.3228    0.8959 O   0  0  0  0  0  0  0  0  0  0  0  0
    5.3499   -0.4027    1.4764 C   0  0  0  0  0  0  0  0  0  0  0  0
    6.4123    0.6707    1.6879 C   0  0  0  0  0  0  0  0  0  0  0  0
    7.0950    1.0525    0.3927 C   0  0  0  0  0  0  0  0  0  0  0  0
    8.0419    1.9908    0.6158 F   0  0  0  0  0  0  0  0  0  0  0  0
    7.7118   -0.0214   -0.1522 F   0  0  0  0  0  0  0  0  0  0  0  0
    6.2405    1.5402   -0.5258 F   0  0  0  0  0  0  0  0  0  0  0  0
    0.9933   -0.7999    0.5624 C   0  0  0  0  0  0  0  0  0  0  0  0
    1.0043   -1.8254    1.2406 O   0  0  0  0  0  0  0  0  0  0  0  0
   -0.0244    0.1213    0.6206 N   0  0  0  0  0  0  0  0  0  0  0  0
   -1.1500   -0.0579    1.5298 C   0  0  1  0  0  0  0  0  0  0  0  0
   -2.0039    1.1849    1.5917 C   0  0  0  0  0  0  0  0  0  0  0  0
   -2.1623    1.8521    2.8212 C   0  0  0  0  0  0  0  0  0  0  0  0
   -3.0116    2.9488    2.9293 C   0  0  0  0  0  0  0  0  0  0  0  0
   -3.7190    3.3811    1.8160 C   0  0  0  0  0  0  0  0  0  0  0  0
   -3.5605    2.7270    0.5916 C   0  0  0  0  0  0  0  0  0  0  0  0
   -2.6885    1.6276    0.4424 C   0  0  0  0  0  0  0  0  0  0  0  0
   -2.4914    1.0006   -0.8911 C   0  0  0  0  0  0  0  0  0  0  0  0
   -2.3680    1.8551   -2.0116 C   0  0  0  0  0  0  0  0  0  0  0  0
   -2.2636    1.3555   -3.3032 C   0  0  0  0  0  0  0  0  0  0  0  0
   -2.2878   -0.0083   -3.4599 C   0  0  0  0  0  0  0  0  0  0  0  0
   -2.3745   -0.8677   -2.4270 N   0  0  0  0  0  0  0  0  0  0  0  0
   -2.4383   -0.3867   -1.1551 C   0  0  0  0  0  0  0  0  0  0  0  0
   -2.4785   -1.3956   -0.1480 N   0  0  0  0  0  0  0  0  0  0  0  0
   -3.0318   -2.6984   -0.5246 C   0  0  0  0  0  0  0  0  0  0  0  0
   -4.5617   -2.7030   -0.5235 C   0  0  0  0  0  0  0  0  0  0  0  0
   -5.0672   -4.0244   -0.6997 O   0  0  0  0  0  0  0  0  0  0  0  0
   -2.0788   -1.2418    1.1730 C   0  0  0  0  0  0  0  0  0  0  0  0
   -2.5127   -1.9822    2.0653 O   0  0  0  0  0  0  0  0  0  0  0  0
    1.8648   -2.3641   -1.5229 H   0  0  0  0  0  0  0  0  0  0  0  0
    2.6398   -1.0865   -2.4701 H   0  0  0  0  0  0  0  0  0  0  0  0
    0.8889   -1.0427   -2.1776 H   0  0  0  0  0  0  0  0  0  0  0  0
    2.0657    0.5915   -0.7076 H   0  0  0  0  0  0  0  0  0  0  0  0
    3.5831   -1.7838    0.2848 H   0  0  0  0  0  0  0  0  0  0  0  0
    5.7538   -1.2373    0.8921 H   0  0  0  0  0  0  0  0  0  0  0  0
    5.0384   -0.8023    2.4490 H   0  0  0  0  0  0  0  0  0  0  0  0
    7.1703    0.2848    2.3796 H   0  0  0  0  0  0  0  0  0  0  0  0
    5.9820    1.5639    2.1543 H   0  0  0  0  0  0  0  0  0  0  0  0
    0.0911    1.0149    0.1600 H   0  0  0  0  0  0  0  0  0  0  0  0
   -0.7212   -0.2797    2.5159 H   0  0  0  0  0  0  0  0  0  0  0  0
   -1.6359    1.5047    3.7091 H   0  0  0  0  0  0  0  0  0  0  0  0
   -3.1338    3.4527    3.8848 H   0  0  0  0  0  0  0  0  0  0  0  0
   -4.3984    4.2261    1.8972 H   0  0  0  0  0  0  0  0  0  0  0  0
   -4.1430    3.0880   -0.2549 H   0  0  0  0  0  0  0  0  0  0  0  0
   -2.3575    2.9366   -1.8814 H   0  0  0  0  0  0  0  0  0  0  0  0
   -2.1810    2.0161   -4.1589 H   0  0  0  0  0  0  0  0  0  0  0  0
   -2.2300   -0.4664   -4.4430 H   0  0  0  0  0  0  0  0  0  0  0  0
   -2.6773   -3.4615    0.1809 H   0  0  0  0  0  0  0  0  0  0  0  0
   -2.6424   -3.0323   -1.4936 H   0  0  0  0  0  0  0  0  0  0  0  0
   -4.9608   -2.3071    0.4166 H   0  0  0  0  0  0  0  0  0  0  0  0
   -4.9510   -2.0813   -1.3358 H   0  0  0  0  0  0  0  0  0  0  0  0
   -4.8183   -4.5307    0.0943 H   0  0  0  0  0  0  0  0  0  0  0  0
  1  2  1  0
  2  3  1  0
  3  4  1  0
  4  5  2  0
  4  6  1  0
  6  7  1  0
  7  8  1  0
  8  9  1  0
  8 10  1  0
  8 11  1  0
  2 12  1  0
 12 13  2  0
 12 14  1  0
 14 15  1  0
 15 16  1  0
 16 17  2  0
 17 18  1  0
 18 19  2  0
 19 20  1  0
 20 21  2  0
 21 22  1  0
 22 23  2  0
 23 24  1  0
 24 25  2  0
 25 26  1  0
 26 27  2  0
 27 28  1  0
 28 29  1  0
 29 30  1  0
 30 31  1  0
 28 32  1  0
 32 33  2  0
 32 15  1  0
 21 16  1  0
 27 22  1  0
  1 34  1  0
  1 35  1  0
  1 36  1  0
  2 37  1  6
  3 38  1  0
  6 39  1  0
  6 40  1  0
  7 41  1  0
  7 42  1  0
 14 43  1  0
 15 44  1  1
 17 45  1  0
 18 46  1  0
 19 47  1  0
 20 48  1  0
 23 49  1  0
 24 50  1  0
 25 51  1  0
 29 52  1  0
 29 53  1  0
 30 54  1  0
 30 55  1  0
 31 56  1  0
M  END
>  <CID>  (73) 
46

>  <Energy>  (73) 
53.97404905439158

$$$$

     RDKit          3D

 56 58  0  0  0  0  0  0  0  0999 V2000
    1.7768   -0.4274   -1.5348 C   0  0  0  0  0  0  0  0  0  0  0  0
    2.1374   -0.0415   -0.1050 C   0  0  2  0  0  0  0  0  0  0  0  0
    3.3762   -0.6755    0.3243 N   0  0  0  0  0  0  0  0  0  0  0  0
    4.6081   -0.1985   -0.0370 C   0  0  0  0  0  0  0  0  0  0  0  0
    4.7663    0.7611   -0.7833 O   0  0  0  0  0  0  0  0  0  0  0  0
    5.7606   -0.9993    0.5312 C   0  0  0  0  0  0  0  0  0  0  0  0
    7.0492   -0.1869    0.5973 C   0  0  0  0  0  0  0  0  0  0  0  0
    7.0222    0.8255    1.7215 C   0  0  0  0  0  0  0  0  0  0  0  0
    8.1809    1.5207    1.7589 F   0  0  0  0  0  0  0  0  0  0  0  0
    6.8870    0.2042    2.9156 F   0  0  0  0  0  0  0  0  0  0  0  0
    6.0150    1.7105    1.6064 F   0  0  0  0  0  0  0  0  0  0  0  0
    1.0220   -0.4862    0.8563 C   0  0  0  0  0  0  0  0  0  0  0  0
    1.1396   -1.4702    1.5840 O   0  0  0  0  0  0  0  0  0  0  0  0
   -0.1158    0.2815    0.8085 N   0  0  0  0  0  0  0  0  0  0  0  0
   -1.2744   -0.0228    1.6437 C   0  0  1  0  0  0  0  0  0  0  0  0
   -2.2438    1.1344    1.6819 C   0  0  0  0  0  0  0  0  0  0  0  0
   -2.5286    1.7563    2.9124 C   0  0  0  0  0  0  0  0  0  0  0  0
   -3.4760    2.7724    2.9923 C   0  0  0  0  0  0  0  0  0  0  0  0
   -4.1563    3.1684    1.8488 C   0  0  0  0  0  0  0  0  0  0  0  0
   -3.8746    2.5586    0.6239 C   0  0  0  0  0  0  0  0  0  0  0  0
   -2.9038    1.5419    0.5065 C   0  0  0  0  0  0  0  0  0  0  0  0
   -2.5786    0.9613   -0.8197 C   0  0  0  0  0  0  0  0  0  0  0  0
   -2.4480    1.8422   -1.9177 C   0  0  0  0  0  0  0  0  0  0  0  0
   -2.2105    1.3739   -3.2036 C   0  0  0  0  0  0  0  0  0  0  0  0
   -2.1111    0.0150   -3.3774 C   0  0  0  0  0  0  0  0  0  0  0  0
   -2.2061   -0.8681   -2.3650 N   0  0  0  0  0  0  0  0  0  0  0  0
   -2.4012   -0.4120   -1.0941 C   0  0  0  0  0  0  0  0  0  0  0  0
   -2.4389   -1.4352   -0.1021 N   0  0  0  0  0  0  0  0  0  0  0  0
   -2.8994   -2.7617   -0.5422 C   0  0  0  0  0  0  0  0  0  0  0  0
   -4.3575   -2.7810   -1.0201 C   0  0  0  0  0  0  0  0  0  0  0  0
   -5.2464   -2.4349    0.0384 O   0  0  0  0  0  0  0  0  0  0  0  0
   -2.0532   -1.2932    1.2274 C   0  0  0  0  0  0  0  0  0  0  0  0
   -2.3417   -2.1291    2.0931 O   0  0  0  0  0  0  0  0  0  0  0  0
    0.8588    0.0731   -1.8583 H   0  0  0  0  0  0  0  0  0  0  0  0
    2.5733   -0.1535   -2.2341 H   0  0  0  0  0  0  0  0  0  0  0  0
    1.6137   -1.5076   -1.6228 H   0  0  0  0  0  0  0  0  0  0  0  0
    2.2605    1.0453   -0.0288 H   0  0  0  0  0  0  0  0  0  0  0  0
    3.2826   -1.4673    0.9558 H   0  0  0  0  0  0  0  0  0  0  0  0
    5.9071   -1.8589   -0.1335 H   0  0  0  0  0  0  0  0  0  0  0  0
    5.4983   -1.3898    1.5208 H   0  0  0  0  0  0  0  0  0  0  0  0
    7.2424    0.3234   -0.3528 H   0  0  0  0  0  0  0  0  0  0  0  0
    7.8889   -0.8710    0.7666 H   0  0  0  0  0  0  0  0  0  0  0  0
   -0.1260    1.1238    0.2492 H   0  0  0  0  0  0  0  0  0  0  0  0
   -0.8834   -0.2156    2.6518 H   0  0  0  0  0  0  0  0  0  0  0  0
   -2.0252    1.4335    3.8226 H   0  0  0  0  0  0  0  0  0  0  0  0
   -3.6960    3.2390    3.9492 H   0  0  0  0  0  0  0  0  0  0  0  0
   -4.9119    3.9478    1.9076 H   0  0  0  0  0  0  0  0  0  0  0  0
   -4.4396    2.8843   -0.2482 H   0  0  0  0  0  0  0  0  0  0  0  0
   -2.5347    2.9184   -1.7733 H   0  0  0  0  0  0  0  0  0  0  0  0
   -2.1184    2.0538   -4.0431 H   0  0  0  0  0  0  0  0  0  0  0  0
   -1.9409   -0.4179   -4.3590 H   0  0  0  0  0  0  0  0  0  0  0  0
   -2.2325   -3.1199   -1.3357 H   0  0  0  0  0  0  0  0  0  0  0  0
   -2.7994   -3.4785    0.2805 H   0  0  0  0  0  0  0  0  0  0  0  0
   -4.5289   -2.0884   -1.8489 H   0  0  0  0  0  0  0  0  0  0  0  0
   -4.6146   -3.7898   -1.3594 H   0  0  0  0  0  0  0  0  0  0  0  0
   -6.1494   -2.4885   -0.3156 H   0  0  0  0  0  0  0  0  0  0  0  0
  1  2  1  0
  2  3  1  0
  3  4  1  0
  4  5  2  0
  4  6  1  0
  6  7  1  0
  7  8  1  0
  8  9  1  0
  8 10  1  0
  8 11  1  0
  2 12  1  0
 12 13  2  0
 12 14  1  0
 14 15  1  0
 15 16  1  0
 16 17  2  0
 17 18  1  0
 18 19  2  0
 19 20  1  0
 20 21  2  0
 21 22  1  0
 22 23  2  0
 23 24  1  0
 24 25  2  0
 25 26  1  0
 26 27  2  0
 27 28  1  0
 28 29  1  0
 29 30  1  0
 30 31  1  0
 28 32  1  0
 32 33  2  0
 32 15  1  0
 21 16  1  0
 27 22  1  0
  1 34  1  0
  1 35  1  0
  1 36  1  0
  2 37  1  6
  3 38  1  0
  6 39  1  0
  6 40  1  0
  7 41  1  0
  7 42  1  0
 14 43  1  0
 15 44  1  1
 17 45  1  0
 18 46  1  0
 19 47  1  0
 20 48  1  0
 23 49  1  0
 24 50  1  0
 25 51  1  0
 29 52  1  0
 29 53  1  0
 30 54  1  0
 30 55  1  0
 31 56  1  0
M  END
>  <CID>  (74) 
32

>  <Energy>  (74) 
54.149573028841665

$$$$

     RDKit          3D

 56 58  0  0  0  0  0  0  0  0999 V2000
    2.2268    1.5515    3.6379 C   0  0  0  0  0  0  0  0  0  0  0  0
    1.6952    0.4428    2.7394 C   0  0  2  0  0  0  0  0  0  0  0  0
    2.1255    0.6583    1.3538 N   0  0  0  0  0  0  0  0  0  0  0  0
    3.2491    0.0518    0.8478 C   0  0  0  0  0  0  0  0  0  0  0  0
    3.9288   -0.7449    1.4833 O   0  0  0  0  0  0  0  0  0  0  0  0
    3.6111    0.4958   -0.5544 C   0  0  0  0  0  0  0  0  0  0  0  0
    4.4314   -0.5608   -1.2886 C   0  0  0  0  0  0  0  0  0  0  0  0
    3.5582   -1.6865   -1.7961 C   0  0  0  0  0  0  0  0  0  0  0  0
    2.7121   -1.2236   -2.7463 F   0  0  0  0  0  0  0  0  0  0  0  0
    4.3069   -2.6558   -2.3629 F   0  0  0  0  0  0  0  0  0  0  0  0
    2.8126   -2.2435   -0.8231 F   0  0  0  0  0  0  0  0  0  0  0  0
    0.1602    0.3382    2.8246 C   0  0  0  0  0  0  0  0  0  0  0  0
   -0.4811    0.6443    3.8250 O   0  0  0  0  0  0  0  0  0  0  0  0
   -0.4125   -0.2715    1.7289 N   0  0  0  0  0  0  0  0  0  0  0  0
   -1.8391   -0.5665    1.6674 C   0  0  1  0  0  0  0  0  0  0  0  0
   -2.6975    0.6563    1.4530 C   0  0  0  0  0  0  0  0  0  0  0  0
   -3.6363    1.0133    2.4417 C   0  0  0  0  0  0  0  0  0  0  0  0
   -4.5026    2.0857    2.2526 C   0  0  0  0  0  0  0  0  0  0  0  0
   -4.4487    2.8085    1.0700 C   0  0  0  0  0  0  0  0  0  0  0  0
   -3.5125    2.4689    0.0911 C   0  0  0  0  0  0  0  0  0  0  0  0
   -2.6045    1.4015    0.2660 C   0  0  0  0  0  0  0  0  0  0  0  0
   -1.5865    1.1106   -0.7672 C   0  0  0  0  0  0  0  0  0  0  0  0
   -0.9073    2.1981   -1.3635 C   0  0  0  0  0  0  0  0  0  0  0  0
   -0.0178    2.0144   -2.4141 C   0  0  0  0  0  0  0  0  0  0  0  0
    0.1863    0.7298   -2.8539 C   0  0  0  0  0  0  0  0  0  0  0  0
   -0.4015   -0.3435   -2.2914 N   0  0  0  0  0  0  0  0  0  0  0  0
   -1.2619   -0.1713   -1.2498 C   0  0  0  0  0  0  0  0  0  0  0  0
   -1.7898   -1.3863   -0.7236 N   0  0  0  0  0  0  0  0  0  0  0  0
   -1.8578   -2.5217   -1.6517 C   0  0  0  0  0  0  0  0  0  0  0  0
   -0.6286   -3.4315   -1.5723 C   0  0  0  0  0  0  0  0  0  0  0  0
   -0.6366   -4.3794   -2.6372 O   0  0  0  0  0  0  0  0  0  0  0  0
   -2.1690   -1.6201    0.5938 C   0  0  0  0  0  0  0  0  0  0  0  0
   -2.7349   -2.6681    0.9276 O   0  0  0  0  0  0  0  0  0  0  0  0
    1.9495    1.3799    4.6833 H   0  0  0  0  0  0  0  0  0  0  0  0
    1.8222    2.5259    3.3416 H   0  0  0  0  0  0  0  0  0  0  0  0
    3.3188    1.6125    3.5818 H   0  0  0  0  0  0  0  0  0  0  0  0
    2.0908   -0.5193    3.0867 H   0  0  0  0  0  0  0  0  0  0  0  0
    1.6110    1.3317    0.7987 H   0  0  0  0  0  0  0  0  0  0  0  0
    2.7089    0.7526   -1.1182 H   0  0  0  0  0  0  0  0  0  0  0  0
    4.2066    1.4104   -0.4503 H   0  0  0  0  0  0  0  0  0  0  0  0
    4.9273   -0.0928   -2.1470 H   0  0  0  0  0  0  0  0  0  0  0  0
    5.2228   -0.9661   -0.6487 H   0  0  0  0  0  0  0  0  0  0  0  0
    0.2054   -0.6500    1.0196 H   0  0  0  0  0  0  0  0  0  0  0  0
   -2.0940   -1.0255    2.6324 H   0  0  0  0  0  0  0  0  0  0  0  0
   -3.6957    0.4478    3.3711 H   0  0  0  0  0  0  0  0  0  0  0  0
   -5.2226    2.3469    3.0239 H   0  0  0  0  0  0  0  0  0  0  0  0
   -5.1321    3.6379    0.9072 H   0  0  0  0  0  0  0  0  0  0  0  0
   -3.5070    3.0526   -0.8282 H   0  0  0  0  0  0  0  0  0  0  0  0
   -1.0875    3.2145   -1.0147 H   0  0  0  0  0  0  0  0  0  0  0  0
    0.4809    2.8543   -2.8848 H   0  0  0  0  0  0  0  0  0  0  0  0
    0.8531    0.5130   -3.6843 H   0  0  0  0  0  0  0  0  0  0  0  0
   -2.0193   -2.1673   -2.6779 H   0  0  0  0  0  0  0  0  0  0  0  0
   -2.7494   -3.1216   -1.4281 H   0  0  0  0  0  0  0  0  0  0  0  0
   -0.6196   -3.9824   -0.6263 H   0  0  0  0  0  0  0  0  0  0  0  0
    0.3058   -2.8646   -1.6291 H   0  0  0  0  0  0  0  0  0  0  0  0
   -0.4536   -3.8852   -3.4555 H   0  0  0  0  0  0  0  0  0  0  0  0
  1  2  1  0
  2  3  1  0
  3  4  1  0
  4  5  2  0
  4  6  1  0
  6  7  1  0
  7  8  1  0
  8  9  1  0
  8 10  1  0
  8 11  1  0
  2 12  1  0
 12 13  2  0
 12 14  1  0
 14 15  1  0
 15 16  1  0
 16 17  2  0
 17 18  1  0
 18 19  2  0
 19 20  1  0
 20 21  2  0
 21 22  1  0
 22 23  2  0
 23 24  1  0
 24 25  2  0
 25 26  1  0
 26 27  2  0
 27 28  1  0
 28 29  1  0
 29 30  1  0
 30 31  1  0
 28 32  1  0
 32 33  2  0
 32 15  1  0
 21 16  1  0
 27 22  1  0
  1 34  1  0
  1 35  1  0
  1 36  1  0
  2 37  1  1
  3 38  1  0
  6 39  1  0
  6 40  1  0
  7 41  1  0
  7 42  1  0
 14 43  1  0
 15 44  1  1
 17 45  1  0
 18 46  1  0
 19 47  1  0
 20 48  1  0
 23 49  1  0
 24 50  1  0
 25 51  1  0
 29 52  1  0
 29 53  1  0
 30 54  1  0
 30 55  1  0
 31 56  1  0
M  END
>  <CID>  (75) 
21

>  <Energy>  (75) 
54.64854659903354

$$$$

     RDKit          3D

 56 58  0  0  0  0  0  0  0  0999 V2000
    2.1933    1.5671    3.6485 C   0  0  0  0  0  0  0  0  0  0  0  0
    1.6768    0.4532    2.7476 C   0  0  2  0  0  0  0  0  0  0  0  0
    2.1107    0.6731    1.3638 N   0  0  0  0  0  0  0  0  0  0  0  0
    3.2455    0.0824    0.8643 C   0  0  0  0  0  0  0  0  0  0  0  0
    3.9349   -0.7018    1.5049 O   0  0  0  0  0  0  0  0  0  0  0  0
    3.6062    0.5278   -0.5377 C   0  0  0  0  0  0  0  0  0  0  0  0
    4.4434   -0.5190   -1.2666 C   0  0  0  0  0  0  0  0  0  0  0  0
    3.5876   -1.6583   -1.7738 C   0  0  0  0  0  0  0  0  0  0  0  0
    2.8483   -2.2242   -0.8011 F   0  0  0  0  0  0  0  0  0  0  0  0
    2.7366   -1.2096   -2.7262 F   0  0  0  0  0  0  0  0  0  0  0  0
    4.3513   -2.6176   -2.3373 F   0  0  0  0  0  0  0  0  0  0  0  0
    0.1426    0.3331    2.8261 C   0  0  0  0  0  0  0  0  0  0  0  0
   -0.5060    0.6298    3.8247 O   0  0  0  0  0  0  0  0  0  0  0  0
   -0.4195   -0.2793    1.7264 N   0  0  0  0  0  0  0  0  0  0  0  0
   -1.8432   -0.5865    1.6571 C   0  0  1  0  0  0  0  0  0  0  0  0
   -2.7109    0.6294    1.4405 C   0  0  0  0  0  0  0  0  0  0  0  0
   -3.6587    0.9758    2.4242 C   0  0  0  0  0  0  0  0  0  0  0  0
   -4.5330    2.0412    2.2325 C   0  0  0  0  0  0  0  0  0  0  0  0
   -4.4783    2.7674    1.0521 C   0  0  0  0  0  0  0  0  0  0  0  0
   -3.5335    2.4382    0.0778 C   0  0  0  0  0  0  0  0  0  0  0  0
   -2.6174    1.3781    0.2556 C   0  0  0  0  0  0  0  0  0  0  0  0
   -1.5914    1.0980   -0.7725 C   0  0  0  0  0  0  0  0  0  0  0  0
   -0.9180    2.1924   -1.3630 C   0  0  0  0  0  0  0  0  0  0  0  0
   -0.0212    2.0182   -2.4090 C   0  0  0  0  0  0  0  0  0  0  0  0
    0.1965    0.7363   -2.8499 C   0  0  0  0  0  0  0  0  0  0  0  0
   -0.3852   -0.3431   -2.2925 N   0  0  0  0  0  0  0  0  0  0  0  0
   -1.2532   -0.1800   -1.2558 C   0  0  0  0  0  0  0  0  0  0  0  0
   -1.7745   -1.4004   -0.7353 N   0  0  0  0  0  0  0  0  0  0  0  0
   -1.8286   -2.5337   -1.6669 C   0  0  0  0  0  0  0  0  0  0  0  0
   -0.5936   -3.4351   -1.5816 C   0  0  0  0  0  0  0  0  0  0  0  0
   -0.5754   -4.3636   -2.6631 O   0  0  0  0  0  0  0  0  0  0  0  0
   -2.1584   -1.6405    0.5795 C   0  0  0  0  0  0  0  0  0  0  0  0
   -2.7168   -2.6941    0.9079 O   0  0  0  0  0  0  0  0  0  0  0  0
    3.2850    1.6389    3.5975 H   0  0  0  0  0  0  0  0  0  0  0  0
    1.9129    1.3928    4.6925 H   0  0  0  0  0  0  0  0  0  0  0  0
    1.7806    2.5375    3.3501 H   0  0  0  0  0  0  0  0  0  0  0  0
    2.0806   -0.5049    3.0962 H   0  0  0  0  0  0  0  0  0  0  0  0
    1.5895    1.3387    0.8053 H   0  0  0  0  0  0  0  0  0  0  0  0
    4.1887    1.4509   -0.4338 H   0  0  0  0  0  0  0  0  0  0  0  0
    2.7026    0.7709   -1.1051 H   0  0  0  0  0  0  0  0  0  0  0  0
    5.2384   -0.9116   -0.6234 H   0  0  0  0  0  0  0  0  0  0  0  0
    4.9351   -0.0463   -2.1248 H   0  0  0  0  0  0  0  0  0  0  0  0
    0.2052   -0.6510    1.0195 H   0  0  0  0  0  0  0  0  0  0  0  0
   -2.0991   -1.0496    2.6199 H   0  0  0  0  0  0  0  0  0  0  0  0
   -3.7188    0.4075    3.3519 H   0  0  0  0  0  0  0  0  0  0  0  0
   -5.2598    2.2943    3.0001 H   0  0  0  0  0  0  0  0  0  0  0  0
   -5.1678    3.5913    0.8871 H   0  0  0  0  0  0  0  0  0  0  0  0
   -3.5276    3.0241   -0.8400 H   0  0  0  0  0  0  0  0  0  0  0  0
   -1.1088    3.2065   -1.0133 H   0  0  0  0  0  0  0  0  0  0  0  0
    0.4727    2.8633   -2.8754 H   0  0  0  0  0  0  0  0  0  0  0  0
    0.8700    0.5266   -3.6766 H   0  0  0  0  0  0  0  0  0  0  0  0
   -1.9863   -2.1773   -2.6932 H   0  0  0  0  0  0  0  0  0  0  0  0
   -2.7174   -3.1404   -1.4504 H   0  0  0  0  0  0  0  0  0  0  0  0
    0.3372   -2.8603   -1.6115 H   0  0  0  0  0  0  0  0  0  0  0  0
   -0.5975   -4.0024   -0.6455 H   0  0  0  0  0  0  0  0  0  0  0  0
   -0.3720   -3.8543   -3.4671 H   0  0  0  0  0  0  0  0  0  0  0  0
  1  2  1  0
  2  3  1  0
  3  4  1  0
  4  5  2  0
  4  6  1  0
  6  7  1  0
  7  8  1  0
  8  9  1  0
  8 10  1  0
  8 11  1  0
  2 12  1  0
 12 13  2  0
 12 14  1  0
 14 15  1  0
 15 16  1  0
 16 17  2  0
 17 18  1  0
 18 19  2  0
 19 20  1  0
 20 21  2  0
 21 22  1  0
 22 23  2  0
 23 24  1  0
 24 25  2  0
 25 26  1  0
 26 27  2  0
 27 28  1  0
 28 29  1  0
 29 30  1  0
 30 31  1  0
 28 32  1  0
 32 33  2  0
 32 15  1  0
 21 16  1  0
 27 22  1  0
  1 34  1  0
  1 35  1  0
  1 36  1  0
  2 37  1  1
  3 38  1  0
  6 39  1  0
  6 40  1  0
  7 41  1  0
  7 42  1  0
 14 43  1  0
 15 44  1  1
 17 45  1  0
 18 46  1  0
 19 47  1  0
 20 48  1  0
 23 49  1  0
 24 50  1  0
 25 51  1  0
 29 52  1  0
 29 53  1  0
 30 54  1  0
 30 55  1  0
 31 56  1  0
M  END
>  <CID>  (76) 
94

>  <Energy>  (76) 
54.649428393104536

$$$$

     RDKit          3D

 56 58  0  0  0  0  0  0  0  0999 V2000
    2.1205    1.3231    3.9260 C   0  0  0  0  0  0  0  0  0  0  0  0
    1.5411    0.2203    3.0506 C   0  0  2  0  0  0  0  0  0  0  0  0
    2.1148    0.2745    1.7038 N   0  0  0  0  0  0  0  0  0  0  0  0
    3.2555   -0.4170    1.3699 C   0  0  0  0  0  0  0  0  0  0  0  0
    3.8558   -1.1494    2.1456 O   0  0  0  0  0  0  0  0  0  0  0  0
    3.6923   -0.1766   -0.0556 C   0  0  0  0  0  0  0  0  0  0  0  0
    4.8916   -1.0327   -0.4414 C   0  0  0  0  0  0  0  0  0  0  0  0
    5.2931   -0.7684   -1.8700 C   0  0  0  0  0  0  0  0  0  0  0  0
    4.2741   -1.0276   -2.7204 F   0  0  0  0  0  0  0  0  0  0  0  0
    5.6483    0.5240   -2.0440 F   0  0  0  0  0  0  0  0  0  0  0  0
    6.3398   -1.5375   -2.2320 F   0  0  0  0  0  0  0  0  0  0  0  0
    0.0044    0.3126    2.9734 C   0  0  0  0  0  0  0  0  0  0  0  0
   -0.6904    0.7745    3.8730 O   0  0  0  0  0  0  0  0  0  0  0  0
   -0.5291   -0.3053    1.8615 N   0  0  0  0  0  0  0  0  0  0  0  0
   -1.9662   -0.3916    1.6411 C   0  0  1  0  0  0  0  0  0  0  0  0
   -2.5684    0.8987    1.1384 C   0  0  0  0  0  0  0  0  0  0  0  0
   -3.5278    1.5584    1.9321 C   0  0  0  0  0  0  0  0  0  0  0  0
   -4.1784    2.6976    1.4682 C   0  0  0  0  0  0  0  0  0  0  0  0
   -3.8868    3.1851    0.2025 C   0  0  0  0  0  0  0  0  0  0  0  0
   -2.9256    2.5460   -0.5836 C   0  0  0  0  0  0  0  0  0  0  0  0
   -2.2288    1.4051   -0.1287 C   0  0  0  0  0  0  0  0  0  0  0  0
   -1.1615    0.8016   -0.9593 C   0  0  0  0  0  0  0  0  0  0  0  0
   -0.2526    1.6683   -1.6107 C   0  0  0  0  0  0  0  0  0  0  0  0
    0.7227    1.1878   -2.4750 C   0  0  0  0  0  0  0  0  0  0  0  0
    0.7893   -0.1706   -2.6625 C   0  0  0  0  0  0  0  0  0  0  0  0
   -0.0141   -1.0420   -2.0233 N   0  0  0  0  0  0  0  0  0  0  0  0
   -0.9853   -0.5774   -1.1888 C   0  0  0  0  0  0  0  0  0  0  0  0
   -1.7703   -1.5958   -0.5725 N   0  0  0  0  0  0  0  0  0  0  0  0
   -2.0410   -2.8016   -1.3737 C   0  0  0  0  0  0  0  0  0  0  0  0
   -3.3951   -2.7218   -2.0910 C   0  0  0  0  0  0  0  0  0  0  0  0
   -3.3690   -1.7346   -3.1202 O   0  0  0  0  0  0  0  0  0  0  0  0
   -2.3602   -1.5321    0.6841 C   0  0  0  0  0  0  0  0  0  0  0  0
   -3.1976   -2.3694    1.0461 O   0  0  0  0  0  0  0  0  0  0  0  0
    1.8730    2.3135    3.5276 H   0  0  0  0  0  0  0  0  0  0  0  0
    1.7240    1.2657    4.9454 H   0  0  0  0  0  0  0  0  0  0  0  0
    3.2118    1.2487    3.9811 H   0  0  0  0  0  0  0  0  0  0  0  0
    1.7785   -0.7551    3.4921 H   0  0  0  0  0  0  0  0  0  0  0  0
    1.6888    0.9038    1.0321 H   0  0  0  0  0  0  0  0  0  0  0  0
    2.8462   -0.4064   -0.7093 H   0  0  0  0  0  0  0  0  0  0  0  0
    3.9280    0.8881   -0.1658 H   0  0  0  0  0  0  0  0  0  0  0  0
    5.7384   -0.8206    0.2227 H   0  0  0  0  0  0  0  0  0  0  0  0
    4.6494   -2.0955   -0.3197 H   0  0  0  0  0  0  0  0  0  0  0  0
    0.0999   -0.8012    1.2399 H   0  0  0  0  0  0  0  0  0  0  0  0
   -2.4096   -0.6475    2.6131 H   0  0  0  0  0  0  0  0  0  0  0  0
   -3.7763    1.1766    2.9218 H   0  0  0  0  0  0  0  0  0  0  0  0
   -4.9198    3.1931    2.0894 H   0  0  0  0  0  0  0  0  0  0  0  0
   -4.4032    4.0634   -0.1753 H   0  0  0  0  0  0  0  0  0  0  0  0
   -2.7298    2.9512   -1.5755 H   0  0  0  0  0  0  0  0  0  0  0  0
   -0.3152    2.7450   -1.4573 H   0  0  0  0  0  0  0  0  0  0  0  0
    1.3973    1.8584   -2.9956 H   0  0  0  0  0  0  0  0  0  0  0  0
    1.5181   -0.6142   -3.3357 H   0  0  0  0  0  0  0  0  0  0  0  0
   -2.0546   -3.6644   -0.6958 H   0  0  0  0  0  0  0  0  0  0  0  0
   -1.2448   -2.9900   -2.1003 H   0  0  0  0  0  0  0  0  0  0  0  0
   -3.6214   -3.6856   -2.5578 H   0  0  0  0  0  0  0  0  0  0  0  0
   -4.2038   -2.4716   -1.3975 H   0  0  0  0  0  0  0  0  0  0  0  0
   -4.2701   -1.6819   -3.4819 H   0  0  0  0  0  0  0  0  0  0  0  0
  1  2  1  0
  2  3  1  0
  3  4  1  0
  4  5  2  0
  4  6  1  0
  6  7  1  0
  7  8  1  0
  8  9  1  0
  8 10  1  0
  8 11  1  0
  2 12  1  0
 12 13  2  0
 12 14  1  0
 14 15  1  0
 15 16  1  0
 16 17  2  0
 17 18  1  0
 18 19  2  0
 19 20  1  0
 20 21  2  0
 21 22  1  0
 22 23  2  0
 23 24  1  0
 24 25  2  0
 25 26  1  0
 26 27  2  0
 27 28  1  0
 28 29  1  0
 29 30  1  0
 30 31  1  0
 28 32  1  0
 32 33  2  0
 32 15  1  0
 21 16  1  0
 27 22  1  0
  1 34  1  0
  1 35  1  0
  1 36  1  0
  2 37  1  1
  3 38  1  0
  6 39  1  0
  6 40  1  0
  7 41  1  0
  7 42  1  0
 14 43  1  0
 15 44  1  1
 17 45  1  0
 18 46  1  0
 19 47  1  0
 20 48  1  0
 23 49  1  0
 24 50  1  0
 25 51  1  0
 29 52  1  0
 29 53  1  0
 30 54  1  0
 30 55  1  0
 31 56  1  0
M  END
>  <CID>  (77) 
24

>  <Energy>  (77) 
54.79324657473472

$$$$

     RDKit          3D

 56 58  0  0  0  0  0  0  0  0999 V2000
    2.0834    0.8830    4.1021 C   0  0  0  0  0  0  0  0  0  0  0  0
    1.4837    0.0033    3.0132 C   0  0  2  0  0  0  0  0  0  0  0  0
    2.0581    0.3531    1.7110 N   0  0  0  0  0  0  0  0  0  0  0  0
    2.8040   -0.5322    0.9670 C   0  0  0  0  0  0  0  0  0  0  0  0
    2.9962   -1.7008    1.2909 O   0  0  0  0  0  0  0  0  0  0  0  0
    3.3661    0.0887   -0.2918 C   0  0  0  0  0  0  0  0  0  0  0  0
    4.1363   -0.9233   -1.1292 C   0  0  0  0  0  0  0  0  0  0  0  0
    4.6383   -0.2920   -2.4038 C   0  0  0  0  0  0  0  0  0  0  0  0
    3.6091    0.1439   -3.1681 F   0  0  0  0  0  0  0  0  0  0  0  0
    5.3483   -1.1740   -3.1354 F   0  0  0  0  0  0  0  0  0  0  0  0
    5.4346    0.7697   -2.1448 F   0  0  0  0  0  0  0  0  0  0  0  0
   -0.0528    0.1212    2.9750 C   0  0  0  0  0  0  0  0  0  0  0  0
   -0.7246    0.4242    3.9569 O   0  0  0  0  0  0  0  0  0  0  0  0
   -0.6173   -0.2831    1.7844 N   0  0  0  0  0  0  0  0  0  0  0  0
   -2.0610   -0.3049    1.5913 C   0  0  1  0  0  0  0  0  0  0  0  0
   -2.6257    1.0502    1.2429 C   0  0  0  0  0  0  0  0  0  0  0  0
   -3.4973    1.6760    2.1581 C   0  0  0  0  0  0  0  0  0  0  0  0
   -4.1025    2.8915    1.8559 C   0  0  0  0  0  0  0  0  0  0  0  0
   -3.8530    3.4926    0.6319 C   0  0  0  0  0  0  0  0  0  0  0  0
   -2.9793    2.8862   -0.2733 C   0  0  0  0  0  0  0  0  0  0  0  0
   -2.3263    1.6674    0.0173 C   0  0  0  0  0  0  0  0  0  0  0  0
   -1.3490    1.1008   -0.9405 C   0  0  0  0  0  0  0  0  0  0  0  0
   -0.4609    1.9890   -1.5920 C   0  0  0  0  0  0  0  0  0  0  0  0
    0.4012    1.5584   -2.5932 C   0  0  0  0  0  0  0  0  0  0  0  0
    0.3824    0.2240   -2.9142 C   0  0  0  0  0  0  0  0  0  0  0  0
   -0.4008   -0.6723   -2.2849 N   0  0  0  0  0  0  0  0  0  0  0  0
   -1.2561   -0.2547   -1.3094 C   0  0  0  0  0  0  0  0  0  0  0  0
   -2.0362   -1.2992   -0.7362 N   0  0  0  0  0  0  0  0  0  0  0  0
   -2.2967   -2.4649   -1.5948 C   0  0  0  0  0  0  0  0  0  0  0  0
   -1.3151   -3.6124   -1.3527 C   0  0  0  0  0  0  0  0  0  0  0  0
   -1.5793   -4.6796   -2.2592 O   0  0  0  0  0  0  0  0  0  0  0  0
   -2.5202   -1.3540    0.5639 C   0  0  0  0  0  0  0  0  0  0  0  0
   -3.2841   -2.2572    0.9278 O   0  0  0  0  0  0  0  0  0  0  0  0
    1.8418    1.9390    3.9344 H   0  0  0  0  0  0  0  0  0  0  0  0
    3.1745    0.7895    4.1229 H   0  0  0  0  0  0  0  0  0  0  0  0
    1.6995    0.6069    5.0901 H   0  0  0  0  0  0  0  0  0  0  0  0
    1.7092   -1.0450    3.2399 H   0  0  0  0  0  0  0  0  0  0  0  0
    1.8842    1.2885    1.3616 H   0  0  0  0  0  0  0  0  0  0  0  0
    4.0225    0.9198    0.0003 H   0  0  0  0  0  0  0  0  0  0  0  0
    2.5344    0.5070   -0.8679 H   0  0  0  0  0  0  0  0  0  0  0  0
    3.4937   -1.7782   -1.3751 H   0  0  0  0  0  0  0  0  0  0  0  0
    4.9845   -1.3166   -0.5556 H   0  0  0  0  0  0  0  0  0  0  0  0
   -0.0053   -0.6394    1.0608 H   0  0  0  0  0  0  0  0  0  0  0  0
   -2.4929   -0.6323    2.5474 H   0  0  0  0  0  0  0  0  0  0  0  0
   -3.7097    1.2089    3.1197 H   0  0  0  0  0  0  0  0  0  0  0  0
   -4.7742    3.3590    2.5714 H   0  0  0  0  0  0  0  0  0  0  0  0
   -4.3339    4.4338    0.3789 H   0  0  0  0  0  0  0  0  0  0  0  0
   -2.8174    3.3842   -1.2280 H   0  0  0  0  0  0  0  0  0  0  0  0
   -0.4538    3.0473   -1.3339 H   0  0  0  0  0  0  0  0  0  0  0  0
    1.0580    2.2481   -3.1118 H   0  0  0  0  0  0  0  0  0  0  0  0
    1.0191   -0.1783   -3.6984 H   0  0  0  0  0  0  0  0  0  0  0  0
   -2.3066   -2.1752   -2.6525 H   0  0  0  0  0  0  0  0  0  0  0  0
   -3.3145   -2.8295   -1.4054 H   0  0  0  0  0  0  0  0  0  0  0  0
   -0.2810   -3.2863   -1.4971 H   0  0  0  0  0  0  0  0  0  0  0  0
   -1.4116   -3.9951   -0.3320 H   0  0  0  0  0  0  0  0  0  0  0  0
   -0.9240   -5.3748   -2.0746 H   0  0  0  0  0  0  0  0  0  0  0  0
  1  2  1  0
  2  3  1  0
  3  4  1  0
  4  5  2  0
  4  6  1  0
  6  7  1  0
  7  8  1  0
  8  9  1  0
  8 10  1  0
  8 11  1  0
  2 12  1  0
 12 13  2  0
 12 14  1  0
 14 15  1  0
 15 16  1  0
 16 17  2  0
 17 18  1  0
 18 19  2  0
 19 20  1  0
 20 21  2  0
 21 22  1  0
 22 23  2  0
 23 24  1  0
 24 25  2  0
 25 26  1  0
 26 27  2  0
 27 28  1  0
 28 29  1  0
 29 30  1  0
 30 31  1  0
 28 32  1  0
 32 33  2  0
 32 15  1  0
 21 16  1  0
 27 22  1  0
  1 34  1  0
  1 35  1  0
  1 36  1  0
  2 37  1  1
  3 38  1  0
  6 39  1  0
  6 40  1  0
  7 41  1  0
  7 42  1  0
 14 43  1  0
 15 44  1  1
 17 45  1  0
 18 46  1  0
 19 47  1  0
 20 48  1  0
 23 49  1  0
 24 50  1  0
 25 51  1  0
 29 52  1  0
 29 53  1  0
 30 54  1  0
 30 55  1  0
 31 56  1  0
M  END
>  <CID>  (78) 
35

>  <Energy>  (78) 
54.80712900683342

$$$$

     RDKit          3D

 56 58  0  0  0  0  0  0  0  0999 V2000
    1.6853    0.4408   -1.2622 C   0  0  0  0  0  0  0  0  0  0  0  0
    1.9647    0.4346    0.2364 C   0  0  2  0  0  0  0  0  0  0  0  0
    3.2357   -0.2084    0.5380 N   0  0  0  0  0  0  0  0  0  0  0  0
    4.4375    0.4365    0.3972 C   0  0  0  0  0  0  0  0  0  0  0  0
    4.5362    1.5929    0.0028 O   0  0  0  0  0  0  0  0  0  0  0  0
    5.6236   -0.4209    0.7780 C   0  0  0  0  0  0  0  0  0  0  0  0
    6.9377    0.3315    0.6056 C   0  0  0  0  0  0  0  0  0  0  0  0
    8.1123   -0.5340    0.9827 C   0  0  0  0  0  0  0  0  0  0  0  0
    8.0308   -0.9350    2.2695 F   0  0  0  0  0  0  0  0  0  0  0  0
    8.1747   -1.6379    0.2077 F   0  0  0  0  0  0  0  0  0  0  0  0
    9.2734    0.1392    0.8342 F   0  0  0  0  0  0  0  0  0  0  0  0
    0.8561   -0.3338    0.9759 C   0  0  0  0  0  0  0  0  0  0  0  0
    1.0314   -1.4612    1.4340 O   0  0  0  0  0  0  0  0  0  0  0  0
   -0.3475    0.3242    1.0516 N   0  0  0  0  0  0  0  0  0  0  0  0
   -1.4987   -0.2804    1.7146 C   0  0  1  0  0  0  0  0  0  0  0  0
   -2.6011    0.7298    1.9186 C   0  0  0  0  0  0  0  0  0  0  0  0
   -3.0219    1.0354    3.2270 C   0  0  0  0  0  0  0  0  0  0  0  0
   -4.0939    1.8946    3.4452 C   0  0  0  0  0  0  0  0  0  0  0  0
   -4.7628    2.4461    2.3611 C   0  0  0  0  0  0  0  0  0  0  0  0
   -4.3455    2.1515    1.0607 C   0  0  0  0  0  0  0  0  0  0  0  0
   -3.2470    1.3033    0.8054 C   0  0  0  0  0  0  0  0  0  0  0  0
   -2.7897    1.0658   -0.5890 C   0  0  0  0  0  0  0  0  0  0  0  0
   -2.7443    2.1736   -1.4671 C   0  0  0  0  0  0  0  0  0  0  0  0
   -2.4081    2.0305   -2.8071 C   0  0  0  0  0  0  0  0  0  0  0  0
   -2.1239    0.7655   -3.2589 C   0  0  0  0  0  0  0  0  0  0  0  0
   -2.1276   -0.3205   -2.4624 N   0  0  0  0  0  0  0  0  0  0  0  0
   -2.4133   -0.1810   -1.1373 C   0  0  0  0  0  0  0  0  0  0  0  0
   -2.3336   -1.3941   -0.3908 N   0  0  0  0  0  0  0  0  0  0  0  0
   -2.5282   -2.6445   -1.1305 C   0  0  0  0  0  0  0  0  0  0  0  0
   -3.9930   -2.8952   -1.4965 C   0  0  0  0  0  0  0  0  0  0  0  0
   -4.1225   -4.0541   -2.3171 O   0  0  0  0  0  0  0  0  0  0  0  0
   -2.1082   -1.4944    0.9755 C   0  0  0  0  0  0  0  0  0  0  0  0
   -2.4522   -2.4953    1.6156 O   0  0  0  0  0  0  0  0  0  0  0  0
    2.4908    0.9345   -1.8157 H   0  0  0  0  0  0  0  0  0  0  0  0
    0.7519    0.9667   -1.4866 H   0  0  0  0  0  0  0  0  0  0  0  0
    1.5915   -0.5803   -1.6501 H   0  0  0  0  0  0  0  0  0  0  0  0
    1.9973    1.4625    0.6160 H   0  0  0  0  0  0  0  0  0  0  0  0
    3.1910   -1.1560    0.9054 H   0  0  0  0  0  0  0  0  0  0  0  0
    5.6132   -1.3192    0.1496 H   0  0  0  0  0  0  0  0  0  0  0  0
    5.4992   -0.7352    1.8208 H   0  0  0  0  0  0  0  0  0  0  0  0
    7.0486    0.6615   -0.4341 H   0  0  0  0  0  0  0  0  0  0  0  0
    6.9379    1.2346    1.2270 H   0  0  0  0  0  0  0  0  0  0  0  0
   -0.4148    1.2817    0.7324 H   0  0  0  0  0  0  0  0  0  0  0  0
   -1.1376   -0.6530    2.6824 H   0  0  0  0  0  0  0  0  0  0  0  0
   -2.5271    0.5833    4.0855 H   0  0  0  0  0  0  0  0  0  0  0  0
   -4.4185    2.1164    4.4589 H   0  0  0  0  0  0  0  0  0  0  0  0
   -5.6141    3.1024    2.5235 H   0  0  0  0  0  0  0  0  0  0  0  0
   -4.9061    2.5919    0.2372 H   0  0  0  0  0  0  0  0  0  0  0  0
   -2.9801    3.1738   -1.1055 H   0  0  0  0  0  0  0  0  0  0  0  0
   -2.3840    2.8829   -3.4769 H   0  0  0  0  0  0  0  0  0  0  0  0
   -1.8702    0.5808   -4.2987 H   0  0  0  0  0  0  0  0  0  0  0  0
   -1.8923   -2.6596   -2.0243 H   0  0  0  0  0  0  0  0  0  0  0  0
   -2.1686   -3.4941   -0.5358 H   0  0  0  0  0  0  0  0  0  0  0  0
   -4.5917   -3.0488   -0.5927 H   0  0  0  0  0  0  0  0  0  0  0  0
   -4.4266   -2.0494   -2.0396 H   0  0  0  0  0  0  0  0  0  0  0  0
   -3.6261   -3.8824   -3.1359 H   0  0  0  0  0  0  0  0  0  0  0  0
  1  2  1  0
  2  3  1  0
  3  4  1  0
  4  5  2  0
  4  6  1  0
  6  7  1  0
  7  8  1  0
  8  9  1  0
  8 10  1  0
  8 11  1  0
  2 12  1  0
 12 13  2  0
 12 14  1  0
 14 15  1  0
 15 16  1  0
 16 17  2  0
 17 18  1  0
 18 19  2  0
 19 20  1  0
 20 21  2  0
 21 22  1  0
 22 23  2  0
 23 24  1  0
 24 25  2  0
 25 26  1  0
 26 27  2  0
 27 28  1  0
 28 29  1  0
 29 30  1  0
 30 31  1  0
 28 32  1  0
 32 33  2  0
 32 15  1  0
 21 16  1  0
 27 22  1  0
  1 34  1  0
  1 35  1  0
  1 36  1  0
  2 37  1  1
  3 38  1  0
  6 39  1  0
  6 40  1  0
  7 41  1  0
  7 42  1  0
 14 43  1  0
 15 44  1  1
 17 45  1  0
 18 46  1  0
 19 47  1  0
 20 48  1  0
 23 49  1  0
 24 50  1  0
 25 51  1  0
 29 52  1  0
 29 53  1  0
 30 54  1  0
 30 55  1  0
 31 56  1  0
M  END
>  <CID>  (79) 
62

>  <Energy>  (79) 
54.90542644011114

$$$$

     RDKit          3D

 56 58  0  0  0  0  0  0  0  0999 V2000
    2.4495    2.0172    2.9707 C   0  0  0  0  0  0  0  0  0  0  0  0
    1.9033    0.6884    2.4582 C   0  0  2  0  0  0  0  0  0  0  0  0
    2.2910    0.4944    1.0550 N   0  0  0  0  0  0  0  0  0  0  0  0
    2.7005   -0.7222    0.5708 C   0  0  0  0  0  0  0  0  0  0  0  0
    2.6740   -1.7518    1.2396 O   0  0  0  0  0  0  0  0  0  0  0  0
    3.1673   -0.7091   -0.8683 C   0  0  0  0  0  0  0  0  0  0  0  0
    4.5568   -1.3267   -0.9990 C   0  0  0  0  0  0  0  0  0  0  0  0
    5.6300   -0.4325   -0.4152 C   0  0  0  0  0  0  0  0  0  0  0  0
    6.8530   -0.9829   -0.5845 F   0  0  0  0  0  0  0  0  0  0  0  0
    5.6350    0.7697   -1.0376 F   0  0  0  0  0  0  0  0  0  0  0  0
    5.4532   -0.2091    0.9019 F   0  0  0  0  0  0  0  0  0  0  0  0
    0.3715    0.6093    2.6593 C   0  0  0  0  0  0  0  0  0  0  0  0
   -0.2066    1.1582    3.5951 O   0  0  0  0  0  0  0  0  0  0  0  0
   -0.2706   -0.2311    1.7794 N   0  0  0  0  0  0  0  0  0  0  0  0
   -1.7022   -0.4972    1.8320 C   0  0  1  0  0  0  0  0  0  0  0  0
   -2.5581    0.7064    1.5198 C   0  0  0  0  0  0  0  0  0  0  0  0
   -3.4801    1.1609    2.4840 C   0  0  0  0  0  0  0  0  0  0  0  0
   -4.3558    2.2032    2.1984 C   0  0  0  0  0  0  0  0  0  0  0  0
   -4.3295    2.7957    0.9436 C   0  0  0  0  0  0  0  0  0  0  0  0
   -3.4100    2.3582   -0.0124 C   0  0  0  0  0  0  0  0  0  0  0  0
   -2.4910    1.3208    0.2580 C   0  0  0  0  0  0  0  0  0  0  0  0
   -1.4916    0.9260   -0.7611 C   0  0  0  0  0  0  0  0  0  0  0  0
   -0.8349    1.9550   -1.4762 C   0  0  0  0  0  0  0  0  0  0  0  0
    0.0208    1.6773   -2.5336 C   0  0  0  0  0  0  0  0  0  0  0  0
    0.2116    0.3577   -2.8623 C   0  0  0  0  0  0  0  0  0  0  0  0
   -0.3486   -0.6629   -2.1818 N   0  0  0  0  0  0  0  0  0  0  0  0
   -1.1662   -0.3980   -1.1223 C   0  0  0  0  0  0  0  0  0  0  0  0
   -1.6662   -1.5620   -0.4569 N   0  0  0  0  0  0  0  0  0  0  0  0
   -1.7725   -2.7853   -1.2615 C   0  0  0  0  0  0  0  0  0  0  0  0
   -3.0042   -2.7830   -2.1711 C   0  0  0  0  0  0  0  0  0  0  0  0
   -2.9696   -3.8881   -3.0721 O   0  0  0  0  0  0  0  0  0  0  0  0
   -2.1052   -1.6294    0.8631 C   0  0  0  0  0  0  0  0  0  0  0  0
   -2.8292   -2.5490    1.2584 O   0  0  0  0  0  0  0  0  0  0  0  0
    1.9957    2.8619    2.4402 H   0  0  0  0  0  0  0  0  0  0  0  0
    2.2423    2.1419    4.0384 H   0  0  0  0  0  0  0  0  0  0  0  0
    3.5368    2.0738    2.8287 H   0  0  0  0  0  0  0  0  0  0  0  0
    2.3368   -0.1235    3.0550 H   0  0  0  0  0  0  0  0  0  0  0  0
    2.1929    1.2845    0.4296 H   0  0  0  0  0  0  0  0  0  0  0  0
    3.1525    0.3063   -1.2792 H   0  0  0  0  0  0  0  0  0  0  0  0
    2.4480   -1.3059   -1.4421 H   0  0  0  0  0  0  0  0  0  0  0  0
    4.7729   -1.4909   -2.0611 H   0  0  0  0  0  0  0  0  0  0  0  0
    4.5931   -2.3063   -0.5093 H   0  0  0  0  0  0  0  0  0  0  0  0
    0.3075   -0.8224    1.1930 H   0  0  0  0  0  0  0  0  0  0  0  0
   -1.9061   -0.8574    2.8494 H   0  0  0  0  0  0  0  0  0  0  0  0
   -3.5200    0.6934    3.4677 H   0  0  0  0  0  0  0  0  0  0  0  0
   -5.0633    2.5417    2.9518 H   0  0  0  0  0  0  0  0  0  0  0  0
   -5.0214    3.5998    0.7062 H   0  0  0  0  0  0  0  0  0  0  0  0
   -3.4257    2.8396   -0.9888 H   0  0  0  0  0  0  0  0  0  0  0  0
   -1.0087    2.9997   -1.2164 H   0  0  0  0  0  0  0  0  0  0  0  0
    0.5002    2.4724   -3.0946 H   0  0  0  0  0  0  0  0  0  0  0  0
    0.8451    0.0708   -3.6977 H   0  0  0  0  0  0  0  0  0  0  0  0
   -1.8251   -3.6636   -0.6044 H   0  0  0  0  0  0  0  0  0  0  0  0
   -0.8570   -2.9434   -1.8456 H   0  0  0  0  0  0  0  0  0  0  0  0
   -3.0675   -1.8649   -2.7642 H   0  0  0  0  0  0  0  0  0  0  0  0
   -3.9211   -2.8541   -1.5766 H   0  0  0  0  0  0  0  0  0  0  0  0
   -2.2333   -3.7316   -3.6899 H   0  0  0  0  0  0  0  0  0  0  0  0
  1  2  1  0
  2  3  1  0
  3  4  1  0
  4  5  2  0
  4  6  1  0
  6  7  1  0
  7  8  1  0
  8  9  1  0
  8 10  1  0
  8 11  1  0
  2 12  1  0
 12 13  2  0
 12 14  1  0
 14 15  1  0
 15 16  1  0
 16 17  2  0
 17 18  1  0
 18 19  2  0
 19 20  1  0
 20 21  2  0
 21 22  1  0
 22 23  2  0
 23 24  1  0
 24 25  2  0
 25 26  1  0
 26 27  2  0
 27 28  1  0
 28 29  1  0
 29 30  1  0
 30 31  1  0
 28 32  1  0
 32 33  2  0
 32 15  1  0
 21 16  1  0
 27 22  1  0
  1 34  1  0
  1 35  1  0
  1 36  1  0
  2 37  1  1
  3 38  1  0
  6 39  1  0
  6 40  1  0
  7 41  1  0
  7 42  1  0
 14 43  1  0
 15 44  1  1
 17 45  1  0
 18 46  1  0
 19 47  1  0
 20 48  1  0
 23 49  1  0
 24 50  1  0
 25 51  1  0
 29 52  1  0
 29 53  1  0
 30 54  1  0
 30 55  1  0
 31 56  1  0
M  END
>  <CID>  (80) 
82

>  <Energy>  (80) 
55.097214337861374

$$$$

     RDKit          3D

 56 58  0  0  0  0  0  0  0  0999 V2000
    2.0878    1.2703    3.9231 C   0  0  0  0  0  0  0  0  0  0  0  0
    1.4884    0.1706    3.0577 C   0  0  2  0  0  0  0  0  0  0  0  0
    2.0349    0.2229    1.6991 N   0  0  0  0  0  0  0  0  0  0  0  0
    3.1845   -0.4444    1.3480 C   0  0  0  0  0  0  0  0  0  0  0  0
    3.8219   -1.1493    2.1192 O   0  0  0  0  0  0  0  0  0  0  0  0
    3.5682   -0.2286   -0.0969 C   0  0  0  0  0  0  0  0  0  0  0  0
    4.8770   -0.9193   -0.4562 C   0  0  0  0  0  0  0  0  0  0  0  0
    5.2351   -0.6554   -1.8964 C   0  0  0  0  0  0  0  0  0  0  0  0
    5.3981    0.6674   -2.1206 F   0  0  0  0  0  0  0  0  0  0  0  0
    4.2638   -1.0907   -2.7291 F   0  0  0  0  0  0  0  0  0  0  0  0
    6.3825   -1.2764   -2.2368 F   0  0  0  0  0  0  0  0  0  0  0  0
   -0.0493    0.2743    3.0032 C   0  0  0  0  0  0  0  0  0  0  0  0
   -0.7302    0.7373    3.9125 O   0  0  0  0  0  0  0  0  0  0  0  0
   -0.5996   -0.3307    1.8924 N   0  0  0  0  0  0  0  0  0  0  0  0
   -2.0388   -0.3838    1.6698 C   0  0  1  0  0  0  0  0  0  0  0  0
   -2.6122    0.9355    1.2157 C   0  0  0  0  0  0  0  0  0  0  0  0
   -3.5696    1.5770    2.0267 C   0  0  0  0  0  0  0  0  0  0  0  0
   -4.1940    2.7470    1.6068 C   0  0  0  0  0  0  0  0  0  0  0  0
   -3.8780    3.2835    0.3677 C   0  0  0  0  0  0  0  0  0  0  0  0
   -2.9194    2.6606   -0.4350 C   0  0  0  0  0  0  0  0  0  0  0  0
   -2.2471    1.4878   -0.0243 C   0  0  0  0  0  0  0  0  0  0  0  0
   -1.1845    0.9006   -0.8758 C   0  0  0  0  0  0  0  0  0  0  0  0
   -0.2750    1.7859   -1.5034 C   0  0  0  0  0  0  0  0  0  0  0  0
    0.6801    1.3373   -2.4063 C   0  0  0  0  0  0  0  0  0  0  0  0
    0.7192   -0.0090   -2.6672 C   0  0  0  0  0  0  0  0  0  0  0  0
   -0.0884   -0.8981   -2.0575 N   0  0  0  0  0  0  0  0  0  0  0  0
   -1.0165   -0.4704   -1.1584 C   0  0  0  0  0  0  0  0  0  0  0  0
   -1.7830   -1.5204   -0.5662 N   0  0  0  0  0  0  0  0  0  0  0  0
   -1.9305   -2.7563   -1.3493 C   0  0  0  0  0  0  0  0  0  0  0  0
   -3.0069   -2.6377   -2.4289 C   0  0  0  0  0  0  0  0  0  0  0  0
   -3.1112   -3.8615   -3.1503 O   0  0  0  0  0  0  0  0  0  0  0  0
   -2.4441   -1.4694    0.6553 C   0  0  0  0  0  0  0  0  0  0  0  0
   -3.3557   -2.2577    0.9321 O   0  0  0  0  0  0  0  0  0  0  0  0
    3.1794    1.1910    3.9606 H   0  0  0  0  0  0  0  0  0  0  0  0
    1.7080    1.2159    4.9487 H   0  0  0  0  0  0  0  0  0  0  0  0
    1.8389    2.2618    3.5279 H   0  0  0  0  0  0  0  0  0  0  0  0
    1.7285   -0.8070    3.4924 H   0  0  0  0  0  0  0  0  0  0  0  0
    1.5812    0.8346    1.0301 H   0  0  0  0  0  0  0  0  0  0  0  0
    2.7573   -0.6229   -0.7175 H   0  0  0  0  0  0  0  0  0  0  0  0
    3.6428    0.8502   -0.2771 H   0  0  0  0  0  0  0  0  0  0  0  0
    5.6844   -0.5615    0.1932 H   0  0  0  0  0  0  0  0  0  0  0  0
    4.7906   -1.9996   -0.2919 H   0  0  0  0  0  0  0  0  0  0  0  0
    0.0170   -0.8536    1.2806 H   0  0  0  0  0  0  0  0  0  0  0  0
   -2.4870   -0.6764    2.6288 H   0  0  0  0  0  0  0  0  0  0  0  0
   -3.8368    1.1572    2.9960 H   0  0  0  0  0  0  0  0  0  0  0  0
   -4.9328    3.2287    2.2421 H   0  0  0  0  0  0  0  0  0  0  0  0
   -4.3729    4.1882    0.0238 H   0  0  0  0  0  0  0  0  0  0  0  0
   -2.7064    3.1083   -1.4047 H   0  0  0  0  0  0  0  0  0  0  0  0
   -0.3209    2.8555   -1.2999 H   0  0  0  0  0  0  0  0  0  0  0  0
    1.3564    2.0243   -2.9030 H   0  0  0  0  0  0  0  0  0  0  0  0
    1.4265   -0.4300   -3.3774 H   0  0  0  0  0  0  0  0  0  0  0  0
   -0.9726   -3.0655   -1.7841 H   0  0  0  0  0  0  0  0  0  0  0  0
   -2.1972   -3.5858   -0.6813 H   0  0  0  0  0  0  0  0  0  0  0  0
   -3.9803   -2.4146   -1.9793 H   0  0  0  0  0  0  0  0  0  0  0  0
   -2.7651   -1.8404   -3.1391 H   0  0  0  0  0  0  0  0  0  0  0  0
   -3.8464   -3.7571   -3.7785 H   0  0  0  0  0  0  0  0  0  0  0  0
  1  2  1  0
  2  3  1  0
  3  4  1  0
  4  5  2  0
  4  6  1  0
  6  7  1  0
  7  8  1  0
  8  9  1  0
  8 10  1  0
  8 11  1  0
  2 12  1  0
 12 13  2  0
 12 14  1  0
 14 15  1  0
 15 16  1  0
 16 17  2  0
 17 18  1  0
 18 19  2  0
 19 20  1  0
 20 21  2  0
 21 22  1  0
 22 23  2  0
 23 24  1  0
 24 25  2  0
 25 26  1  0
 26 27  2  0
 27 28  1  0
 28 29  1  0
 29 30  1  0
 30 31  1  0
 28 32  1  0
 32 33  2  0
 32 15  1  0
 21 16  1  0
 27 22  1  0
  1 34  1  0
  1 35  1  0
  1 36  1  0
  2 37  1  1
  3 38  1  0
  6 39  1  0
  6 40  1  0
  7 41  1  0
  7 42  1  0
 14 43  1  0
 15 44  1  1
 17 45  1  0
 18 46  1  0
 19 47  1  0
 20 48  1  0
 23 49  1  0
 24 50  1  0
 25 51  1  0
 29 52  1  0
 29 53  1  0
 30 54  1  0
 30 55  1  0
 31 56  1  0
M  END
>  <CID>  (81) 
85

>  <Energy>  (81) 
55.370132901867905

$$$$

     RDKit          3D

 56 58  0  0  0  0  0  0  0  0999 V2000
    1.7598    0.2405   -1.3059 C   0  0  0  0  0  0  0  0  0  0  0  0
    2.0230    0.3710    0.1898 C   0  0  2  0  0  0  0  0  0  0  0  0
    3.2942   -0.2344    0.5612 N   0  0  0  0  0  0  0  0  0  0  0  0
    4.4958    0.3949    0.3636 C   0  0  0  0  0  0  0  0  0  0  0  0
    4.5964    1.5062   -0.1437 O   0  0  0  0  0  0  0  0  0  0  0  0
    5.6801   -0.4182    0.8365 C   0  0  0  0  0  0  0  0  0  0  0  0
    6.9966    0.2998    0.5655 C   0  0  0  0  0  0  0  0  0  0  0  0
    8.1697   -0.5222    1.0327 C   0  0  0  0  0  0  0  0  0  0  0  0
    9.3330    0.1178    0.7881 F   0  0  0  0  0  0  0  0  0  0  0  0
    8.1027   -0.7604    2.3598 F   0  0  0  0  0  0  0  0  0  0  0  0
    8.2149   -1.7140    0.3997 F   0  0  0  0  0  0  0  0  0  0  0  0
    0.9113   -0.3339    0.9862 C   0  0  0  0  0  0  0  0  0  0  0  0
    1.0950   -1.4074    1.5566 O   0  0  0  0  0  0  0  0  0  0  0  0
   -0.2977    0.3177    0.9831 N   0  0  0  0  0  0  0  0  0  0  0  0
   -1.4599   -0.2312    1.6766 C   0  0  1  0  0  0  0  0  0  0  0  0
   -2.5510    0.8026    1.8217 C   0  0  0  0  0  0  0  0  0  0  0  0
   -2.9704    1.1879    3.1090 C   0  0  0  0  0  0  0  0  0  0  0  0
   -4.0264    2.0790    3.2750 C   0  0  0  0  0  0  0  0  0  0  0  0
   -4.6809    2.5835    2.1596 C   0  0  0  0  0  0  0  0  0  0  0  0
   -4.2664    2.2087    0.8793 C   0  0  0  0  0  0  0  0  0  0  0  0
   -3.1852    1.3252    0.6780 C   0  0  0  0  0  0  0  0  0  0  0  0
   -2.7257    0.9989   -0.6946 C   0  0  0  0  0  0  0  0  0  0  0  0
   -2.6323    2.0520   -1.6333 C   0  0  0  0  0  0  0  0  0  0  0  0
   -2.2744    1.8203   -2.9553 C   0  0  0  0  0  0  0  0  0  0  0  0
   -2.0165    0.5233   -3.3265 C   0  0  0  0  0  0  0  0  0  0  0  0
   -2.0699   -0.5146   -2.4698 N   0  0  0  0  0  0  0  0  0  0  0  0
   -2.3842   -0.2885   -1.1619 C   0  0  0  0  0  0  0  0  0  0  0  0
   -2.3654   -1.4553   -0.3431 N   0  0  0  0  0  0  0  0  0  0  0  0
   -2.6564   -2.7333   -1.0122 C   0  0  0  0  0  0  0  0  0  0  0  0
   -4.0764   -2.8180   -1.5874 C   0  0  0  0  0  0  0  0  0  0  0  0
   -5.0522   -2.7304   -0.5527 O   0  0  0  0  0  0  0  0  0  0  0  0
   -2.0707   -1.4899    1.0163 C   0  0  0  0  0  0  0  0  0  0  0  0
   -2.3123   -2.4779    1.7214 O   0  0  0  0  0  0  0  0  0  0  0  0
    1.6927   -0.8118   -1.6043 H   0  0  0  0  0  0  0  0  0  0  0  0
    2.5607    0.7023   -1.8922 H   0  0  0  0  0  0  0  0  0  0  0  0
    0.8182    0.7238   -1.5846 H   0  0  0  0  0  0  0  0  0  0  0  0
    2.0468    1.4290    0.4758 H   0  0  0  0  0  0  0  0  0  0  0  0
    3.2474   -1.1398    1.0228 H   0  0  0  0  0  0  0  0  0  0  0  0
    5.6603   -1.3853    0.3206 H   0  0  0  0  0  0  0  0  0  0  0  0
    5.5608   -0.6044    1.9103 H   0  0  0  0  0  0  0  0  0  0  0  0
    7.0995    0.5030   -0.5069 H   0  0  0  0  0  0  0  0  0  0  0  0
    7.0072    1.2707    1.0747 H   0  0  0  0  0  0  0  0  0  0  0  0
   -0.3700    1.2343    0.5626 H   0  0  0  0  0  0  0  0  0  0  0  0
   -1.1057   -0.5424    2.6685 H   0  0  0  0  0  0  0  0  0  0  0  0
   -2.4871    0.7748    3.9930 H   0  0  0  0  0  0  0  0  0  0  0  0
   -4.3496    2.3618    4.2737 H   0  0  0  0  0  0  0  0  0  0  0  0
   -5.5197    3.2640    2.2824 H   0  0  0  0  0  0  0  0  0  0  0  0
   -4.8143    2.6118    0.0291 H   0  0  0  0  0  0  0  0  0  0  0  0
   -2.8449    3.0773   -1.3335 H   0  0  0  0  0  0  0  0  0  0  0  0
   -2.2116    2.6308   -3.6727 H   0  0  0  0  0  0  0  0  0  0  0  0
   -1.7451    0.2713   -4.3476 H   0  0  0  0  0  0  0  0  0  0  0  0
   -2.5239   -3.5589   -0.3041 H   0  0  0  0  0  0  0  0  0  0  0  0
   -1.9135   -2.8935   -1.8029 H   0  0  0  0  0  0  0  0  0  0  0  0
   -4.2756   -2.0233   -2.3117 H   0  0  0  0  0  0  0  0  0  0  0  0
   -4.2067   -3.7807   -2.0926 H   0  0  0  0  0  0  0  0  0  0  0  0
   -5.9241   -2.8143   -0.9727 H   0  0  0  0  0  0  0  0  0  0  0  0
  1  2  1  0
  2  3  1  0
  3  4  1  0
  4  5  2  0
  4  6  1  0
  6  7  1  0
  7  8  1  0
  8  9  1  0
  8 10  1  0
  8 11  1  0
  2 12  1  0
 12 13  2  0
 12 14  1  0
 14 15  1  0
 15 16  1  0
 16 17  2  0
 17 18  1  0
 18 19  2  0
 19 20  1  0
 20 21  2  0
 21 22  1  0
 22 23  2  0
 23 24  1  0
 24 25  2  0
 25 26  1  0
 26 27  2  0
 27 28  1  0
 28 29  1  0
 29 30  1  0
 30 31  1  0
 28 32  1  0
 32 33  2  0
 32 15  1  0
 21 16  1  0
 27 22  1  0
  1 34  1  0
  1 35  1  0
  1 36  1  0
  2 37  1  1
  3 38  1  0
  6 39  1  0
  6 40  1  0
  7 41  1  0
  7 42  1  0
 14 43  1  0
 15 44  1  1
 17 45  1  0
 18 46  1  0
 19 47  1  0
 20 48  1  0
 23 49  1  0
 24 50  1  0
 25 51  1  0
 29 52  1  0
 29 53  1  0
 30 54  1  0
 30 55  1  0
 31 56  1  0
M  END
>  <CID>  (82) 
54

>  <Energy>  (82) 
55.48797714469566

$$$$

     RDKit          3D

 56 58  0  0  0  0  0  0  0  0999 V2000
    2.1045    0.9600    3.9796 C   0  0  0  0  0  0  0  0  0  0  0  0
    1.4634    0.0298    2.9601 C   0  0  2  0  0  0  0  0  0  0  0  0
    1.9913    0.2974    1.6196 N   0  0  0  0  0  0  0  0  0  0  0  0
    3.0006   -0.4533    1.0650 C   0  0  0  0  0  0  0  0  0  0  0  0
    3.5041   -1.4244    1.6141 O   0  0  0  0  0  0  0  0  0  0  0  0
    3.4264    0.0467   -0.2954 C   0  0  0  0  0  0  0  0  0  0  0  0
    4.4126   -0.8984   -0.9698 C   0  0  0  0  0  0  0  0  0  0  0  0
    4.7555   -0.4097   -2.3537 C   0  0  0  0  0  0  0  0  0  0  0  0
    3.6490   -0.3295   -3.1276 F   0  0  0  0  0  0  0  0  0  0  0  0
    5.3126    0.8201   -2.3124 F   0  0  0  0  0  0  0  0  0  0  0  0
    5.6257   -1.2393   -2.9640 F   0  0  0  0  0  0  0  0  0  0  0  0
   -0.0722    0.1656    2.9531 C   0  0  0  0  0  0  0  0  0  0  0  0
   -0.7223    0.5307    3.9272 O   0  0  0  0  0  0  0  0  0  0  0  0
   -0.6594   -0.3006    1.7946 N   0  0  0  0  0  0  0  0  0  0  0  0
   -2.1061   -0.3422    1.6267 C   0  0  1  0  0  0  0  0  0  0  0  0
   -2.6999    1.0001    1.2772 C   0  0  0  0  0  0  0  0  0  0  0  0
   -3.5972    1.6021    2.1826 C   0  0  0  0  0  0  0  0  0  0  0  0
   -4.2323    2.8006    1.8730 C   0  0  0  0  0  0  0  0  0  0  0  0
   -3.9864    3.4084    0.6512 C   0  0  0  0  0  0  0  0  0  0  0  0
   -3.0878    2.8258   -0.2452 C   0  0  0  0  0  0  0  0  0  0  0  0
   -2.4079    1.6237    0.0526 C   0  0  0  0  0  0  0  0  0  0  0  0
   -1.4136    1.0760   -0.8976 C   0  0  0  0  0  0  0  0  0  0  0  0
   -0.5264    1.9771   -1.5319 C   0  0  0  0  0  0  0  0  0  0  0  0
    0.3573    1.5594   -2.5189 C   0  0  0  0  0  0  0  0  0  0  0  0
    0.3515    0.2277   -2.8535 C   0  0  0  0  0  0  0  0  0  0  0  0
   -0.4384   -0.6801   -2.2470 N   0  0  0  0  0  0  0  0  0  0  0  0
   -1.3028   -0.2761   -1.2727 C   0  0  0  0  0  0  0  0  0  0  0  0
   -2.0694   -1.3332   -0.7021 N   0  0  0  0  0  0  0  0  0  0  0  0
   -2.3013   -2.5025   -1.5599 C   0  0  0  0  0  0  0  0  0  0  0  0
   -1.2685   -3.6125   -1.3442 C   0  0  0  0  0  0  0  0  0  0  0  0
   -1.3813   -4.6113   -2.3546 O   0  0  0  0  0  0  0  0  0  0  0  0
   -2.5543   -1.3972    0.5990 C   0  0  0  0  0  0  0  0  0  0  0  0
   -3.3105   -2.3078    0.9594 O   0  0  0  0  0  0  0  0  0  0  0  0
    1.8678    2.0074    3.7611 H   0  0  0  0  0  0  0  0  0  0  0  0
    1.7473    0.7423    4.9915 H   0  0  0  0  0  0  0  0  0  0  0  0
    3.1946    0.8561    3.9732 H   0  0  0  0  0  0  0  0  0  0  0  0
    1.6867   -1.0092    3.2297 H   0  0  0  0  0  0  0  0  0  0  0  0
    1.6298    1.1054    1.1263 H   0  0  0  0  0  0  0  0  0  0  0  0
    3.8729    1.0400   -0.1695 H   0  0  0  0  0  0  0  0  0  0  0  0
    2.5297    0.1562   -0.9120 H   0  0  0  0  0  0  0  0  0  0  0  0
    3.9855   -1.9061   -1.0351 H   0  0  0  0  0  0  0  0  0  0  0  0
    5.3275   -0.9784   -0.3716 H   0  0  0  0  0  0  0  0  0  0  0  0
   -0.0592   -0.7124    1.0899 H   0  0  0  0  0  0  0  0  0  0  0  0
   -2.5155   -0.6761    2.5901 H   0  0  0  0  0  0  0  0  0  0  0  0
   -3.8079    1.1296    3.1418 H   0  0  0  0  0  0  0  0  0  0  0  0
   -4.9244    3.2495    2.5808 H   0  0  0  0  0  0  0  0  0  0  0  0
   -4.4906    4.3361    0.3930 H   0  0  0  0  0  0  0  0  0  0  0  0
   -2.9298    3.3276   -1.1988 H   0  0  0  0  0  0  0  0  0  0  0  0
   -0.5350    3.0340   -1.2672 H   0  0  0  0  0  0  0  0  0  0  0  0
    1.0180    2.2589   -3.0191 H   0  0  0  0  0  0  0  0  0  0  0  0
    1.0074   -0.1630   -3.6273 H   0  0  0  0  0  0  0  0  0  0  0  0
   -3.2994   -2.9117   -1.3570 H   0  0  0  0  0  0  0  0  0  0  0  0
   -2.3412   -2.2008   -2.6145 H   0  0  0  0  0  0  0  0  0  0  0  0
   -0.2439   -3.2279   -1.3613 H   0  0  0  0  0  0  0  0  0  0  0  0
   -1.4202   -4.0932   -0.3726 H   0  0  0  0  0  0  0  0  0  0  0  0
   -1.1168   -4.1977   -3.1948 H   0  0  0  0  0  0  0  0  0  0  0  0
  1  2  1  0
  2  3  1  0
  3  4  1  0
  4  5  2  0
  4  6  1  0
  6  7  1  0
  7  8  1  0
  8  9  1  0
  8 10  1  0
  8 11  1  0
  2 12  1  0
 12 13  2  0
 12 14  1  0
 14 15  1  0
 15 16  1  0
 16 17  2  0
 17 18  1  0
 18 19  2  0
 19 20  1  0
 20 21  2  0
 21 22  1  0
 22 23  2  0
 23 24  1  0
 24 25  2  0
 25 26  1  0
 26 27  2  0
 27 28  1  0
 28 29  1  0
 29 30  1  0
 30 31  1  0
 28 32  1  0
 32 33  2  0
 32 15  1  0
 21 16  1  0
 27 22  1  0
  1 34  1  0
  1 35  1  0
  1 36  1  0
  2 37  1  1
  3 38  1  0
  6 39  1  0
  6 40  1  0
  7 41  1  0
  7 42  1  0
 14 43  1  0
 15 44  1  1
 17 45  1  0
 18 46  1  0
 19 47  1  0
 20 48  1  0
 23 49  1  0
 24 50  1  0
 25 51  1  0
 29 52  1  0
 29 53  1  0
 30 54  1  0
 30 55  1  0
 31 56  1  0
M  END
>  <CID>  (83) 
2

>  <Energy>  (83) 
55.550534858614185

$$$$

     RDKit          3D

 56 58  0  0  0  0  0  0  0  0999 V2000
    1.5448   -2.7285   -1.7574 C   0  0  0  0  0  0  0  0  0  0  0  0
    1.5541   -1.3928   -1.0224 C   0  0  2  0  0  0  0  0  0  0  0  0
    2.8762   -1.1116   -0.4654 N   0  0  0  0  0  0  0  0  0  0  0  0
    3.2960    0.1874   -0.2404 C   0  0  0  0  0  0  0  0  0  0  0  0
    2.6293    1.1794   -0.5445 O   0  0  0  0  0  0  0  0  0  0  0  0
    4.6432    0.2602    0.4580 C   0  0  0  0  0  0  0  0  0  0  0  0
    5.1587    1.6970    0.5471 C   0  0  0  0  0  0  0  0  0  0  0  0
    6.4681    1.7472    1.2986 C   0  0  0  0  0  0  0  0  0  0  0  0
    7.4106    0.9933    0.6876 F   0  0  0  0  0  0  0  0  0  0  0  0
    6.3288    1.2830    2.5621 F   0  0  0  0  0  0  0  0  0  0  0  0
    6.9290    3.0168    1.3725 F   0  0  0  0  0  0  0  0  0  0  0  0
    0.5825   -1.4120    0.1709 C   0  0  0  0  0  0  0  0  0  0  0  0
    0.4747   -2.3815    0.9288 O   0  0  0  0  0  0  0  0  0  0  0  0
   -0.0602   -0.2056    0.3820 N   0  0  0  0  0  0  0  0  0  0  0  0
   -0.9649   -0.0097    1.5076 C   0  0  1  0  0  0  0  0  0  0  0  0
   -1.5026    1.4039    1.5530 C   0  0  0  0  0  0  0  0  0  0  0  0
   -1.2324    2.2138    2.6785 C   0  0  0  0  0  0  0  0  0  0  0  0
   -1.8036    3.4802    2.7975 C   0  0  0  0  0  0  0  0  0  0  0  0
   -2.6530    3.9479    1.7998 C   0  0  0  0  0  0  0  0  0  0  0  0
   -2.9197    3.1495    0.6787 C   0  0  0  0  0  0  0  0  0  0  0  0
   -2.3374    1.8715    0.5148 C   0  0  0  0  0  0  0  0  0  0  0  0
   -2.5814    1.0855   -0.7263 C   0  0  0  0  0  0  0  0  0  0  0  0
   -2.5516    1.7899   -1.9544 C   0  0  0  0  0  0  0  0  0  0  0  0
   -2.8479    1.1640   -3.1594 C   0  0  0  0  0  0  0  0  0  0  0  0
   -3.1545   -0.1748   -3.1230 C   0  0  0  0  0  0  0  0  0  0  0  0
   -3.1640   -0.8992   -1.9855 N   0  0  0  0  0  0  0  0  0  0  0  0
   -2.8554   -0.3042   -0.8012 C   0  0  0  0  0  0  0  0  0  0  0  0
   -2.8601   -1.1814    0.3305 N   0  0  0  0  0  0  0  0  0  0  0  0
   -3.6149   -2.4396    0.2350 C   0  0  0  0  0  0  0  0  0  0  0  0
   -2.7215   -3.6782    0.3818 C   0  0  0  0  0  0  0  0  0  0  0  0
   -1.6794   -3.6974   -0.5899 O   0  0  0  0  0  0  0  0  0  0  0  0
   -2.1851   -0.9648    1.5210 C   0  0  0  0  0  0  0  0  0  0  0  0
   -2.5563   -1.4860    2.5808 O   0  0  0  0  0  0  0  0  0  0  0  0
    0.5439   -2.9369   -2.1590 H   0  0  0  0  0  0  0  0  0  0  0  0
    1.8228   -3.5606   -1.1015 H   0  0  0  0  0  0  0  0  0  0  0  0
    2.2541   -2.7197   -2.5949 H   0  0  0  0  0  0  0  0  0  0  0  0
    1.2741   -0.5904   -1.7185 H   0  0  0  0  0  0  0  0  0  0  0  0
    3.3976   -1.8922   -0.0771 H   0  0  0  0  0  0  0  0  0  0  0  0
    4.5209   -0.1637    1.4682 H   0  0  0  0  0  0  0  0  0  0  0  0
    5.3508   -0.3765   -0.0931 H   0  0  0  0  0  0  0  0  0  0  0  0
    4.4263    2.3423    1.0589 H   0  0  0  0  0  0  0  0  0  0  0  0
    5.2921    2.1133   -0.4671 H   0  0  0  0  0  0  0  0  0  0  0  0
    0.2359    0.6109   -0.1583 H   0  0  0  0  0  0  0  0  0  0  0  0
   -0.3757   -0.2264    2.4117 H   0  0  0  0  0  0  0  0  0  0  0  0
   -0.5938    1.8437    3.4842 H   0  0  0  0  0  0  0  0  0  0  0  0
   -1.6085    4.0860    3.6790 H   0  0  0  0  0  0  0  0  0  0  0  0
   -3.1196    4.9265    1.8944 H   0  0  0  0  0  0  0  0  0  0  0  0
   -3.6060    3.5446   -0.0729 H   0  0  0  0  0  0  0  0  0  0  0  0
   -2.2996    2.8508   -1.9778 H   0  0  0  0  0  0  0  0  0  0  0  0
   -2.8257    1.7130   -4.0912 H   0  0  0  0  0  0  0  0  0  0  0  0
   -3.3876   -0.7240   -4.0263 H   0  0  0  0  0  0  0  0  0  0  0  0
   -4.3393   -2.4457    1.0609 H   0  0  0  0  0  0  0  0  0  0  0  0
   -4.1886   -2.5046   -0.6935 H   0  0  0  0  0  0  0  0  0  0  0  0
   -3.3092   -4.5923    0.2767 H   0  0  0  0  0  0  0  0  0  0  0  0
   -2.2420   -3.6987    1.3674 H   0  0  0  0  0  0  0  0  0  0  0  0
   -0.8735   -4.0026   -0.1258 H   0  0  0  0  0  0  0  0  0  0  0  0
  1  2  1  0
  2  3  1  0
  3  4  1  0
  4  5  2  0
  4  6  1  0
  6  7  1  0
  7  8  1  0
  8  9  1  0
  8 10  1  0
  8 11  1  0
  2 12  1  0
 12 13  2  0
 12 14  1  0
 14 15  1  0
 15 16  1  0
 16 17  2  0
 17 18  1  0
 18 19  2  0
 19 20  1  0
 20 21  2  0
 21 22  1  0
 22 23  2  0
 23 24  1  0
 24 25  2  0
 25 26  1  0
 26 27  2  0
 27 28  1  0
 28 29  1  0
 29 30  1  0
 30 31  1  0
 28 32  1  0
 32 33  2  0
 32 15  1  0
 21 16  1  0
 27 22  1  0
  1 34  1  0
  1 35  1  0
  1 36  1  0
  2 37  1  6
  3 38  1  0
  6 39  1  0
  6 40  1  0
  7 41  1  0
  7 42  1  0
 14 43  1  0
 15 44  1  1
 17 45  1  0
 18 46  1  0
 19 47  1  0
 20 48  1  0
 23 49  1  0
 24 50  1  0
 25 51  1  0
 29 52  1  0
 29 53  1  0
 30 54  1  0
 30 55  1  0
 31 56  1  0
M  END
>  <CID>  (84) 
41

>  <Energy>  (84) 
55.57320092629546

$$$$

     RDKit          3D

 56 58  0  0  0  0  0  0  0  0999 V2000
    3.6682    2.6938   -0.7305 C   0  0  0  0  0  0  0  0  0  0  0  0
    2.8753    1.6975    0.1103 C   0  0  2  0  0  0  0  0  0  0  0  0
    3.4960    0.3668    0.0342 N   0  0  0  0  0  0  0  0  0  0  0  0
    3.4428   -0.5341    1.0804 C   0  0  0  0  0  0  0  0  0  0  0  0
    2.7416   -0.3595    2.0769 O   0  0  0  0  0  0  0  0  0  0  0  0
    4.2741   -1.7830    0.8933 C   0  0  0  0  0  0  0  0  0  0  0  0
    5.1242   -2.0592    2.1313 C   0  0  0  0  0  0  0  0  0  0  0  0
    6.2522   -1.0583    2.2663 C   0  0  0  0  0  0  0  0  0  0  0  0
    7.0068   -1.3332    3.3528 F   0  0  0  0  0  0  0  0  0  0  0  0
    7.0617   -1.1039    1.1834 F   0  0  0  0  0  0  0  0  0  0  0  0
    5.8037    0.2083    2.3857 F   0  0  0  0  0  0  0  0  0  0  0  0
    1.3778    1.6752   -0.2783 C   0  0  0  0  0  0  0  0  0  0  0  0
    0.8551    2.5785   -0.9250 O   0  0  0  0  0  0  0  0  0  0  0  0
    0.6552    0.6598    0.3242 N   0  0  0  0  0  0  0  0  0  0  0  0
   -0.7727    0.4030    0.1161 C   0  0  1  0  0  0  0  0  0  0  0  0
   -1.7288    1.3710    0.7913 C   0  0  0  0  0  0  0  0  0  0  0  0
   -1.3104    2.6041    1.3378 C   0  0  0  0  0  0  0  0  0  0  0  0
   -2.2115    3.4848    1.9375 C   0  0  0  0  0  0  0  0  0  0  0  0
   -3.5557    3.1634    1.9954 C   0  0  0  0  0  0  0  0  0  0  0  0
   -3.9881    1.9445    1.4746 C   0  0  0  0  0  0  0  0  0  0  0  0
   -3.0892    1.0149    0.8934 C   0  0  0  0  0  0  0  0  0  0  0  0
   -3.5951   -0.3086    0.4624 C   0  0  0  0  0  0  0  0  0  0  0  0
   -4.4832   -1.0003    1.3197 C   0  0  0  0  0  0  0  0  0  0  0  0
   -5.0975   -2.1826    0.9338 C   0  0  0  0  0  0  0  0  0  0  0  0
   -4.8081   -2.6642   -0.3183 C   0  0  0  0  0  0  0  0  0  0  0  0
   -3.9371   -2.0659   -1.1590 N   0  0  0  0  0  0  0  0  0  0  0  0
   -3.3123   -0.9192   -0.7692 C   0  0  0  0  0  0  0  0  0  0  0  0
   -2.3570   -0.4279   -1.7031 N   0  0  0  0  0  0  0  0  0  0  0  0
   -2.5959   -0.7194   -3.1316 C   0  0  0  0  0  0  0  0  0  0  0  0
   -1.9223   -2.0152   -3.6107 C   0  0  0  0  0  0  0  0  0  0  0  0
   -2.7429   -3.1550   -3.3607 O   0  0  0  0  0  0  0  0  0  0  0  0
   -1.1246    0.1449   -1.3798 C   0  0  0  0  0  0  0  0  0  0  0  0
   -0.2898    0.3359   -2.2797 O   0  0  0  0  0  0  0  0  0  0  0  0
    4.7107    2.7389   -0.3898 H   0  0  0  0  0  0  0  0  0  0  0  0
    3.6712    2.4054   -1.7846 H   0  0  0  0  0  0  0  0  0  0  0  0
    3.2453    3.7018   -0.6617 H   0  0  0  0  0  0  0  0  0  0  0  0
    2.9083    2.0242    1.1599 H   0  0  0  0  0  0  0  0  0  0  0  0
    3.9198    0.0952   -0.8488 H   0  0  0  0  0  0  0  0  0  0  0  0
    3.5738   -2.6107    0.7280 H   0  0  0  0  0  0  0  0  0  0  0  0
    4.9020   -1.7083    0.0013 H   0  0  0  0  0  0  0  0  0  0  0  0
    5.5503   -3.0695    2.0547 H   0  0  0  0  0  0  0  0  0  0  0  0
    4.5086   -2.0417    3.0423 H   0  0  0  0  0  0  0  0  0  0  0  0
    1.1186    0.1450    1.0673 H   0  0  0  0  0  0  0  0  0  0  0  0
   -0.8959   -0.5685    0.6197 H   0  0  0  0  0  0  0  0  0  0  0  0
   -0.2691    2.9081    1.3098 H   0  0  0  0  0  0  0  0  0  0  0  0
   -1.8547    4.4254    2.3499 H   0  0  0  0  0  0  0  0  0  0  0  0
   -4.2671    3.8515    2.4495 H   0  0  0  0  0  0  0  0  0  0  0  0
   -5.0524    1.7197    1.5333 H   0  0  0  0  0  0  0  0  0  0  0  0
   -4.7113   -0.6051    2.3082 H   0  0  0  0  0  0  0  0  0  0  0  0
   -5.7898   -2.7003    1.5886 H   0  0  0  0  0  0  0  0  0  0  0  0
   -5.2677   -3.5736   -0.6914 H   0  0  0  0  0  0  0  0  0  0  0  0
   -2.1889    0.1172   -3.7135 H   0  0  0  0  0  0  0  0  0  0  0  0
   -3.6755   -0.7377   -3.3266 H   0  0  0  0  0  0  0  0  0  0  0  0
   -1.7613   -1.9745   -4.6941 H   0  0  0  0  0  0  0  0  0  0  0  0
   -0.9582   -2.1818   -3.1294 H   0  0  0  0  0  0  0  0  0  0  0  0
   -3.1292   -3.0172   -2.4665 H   0  0  0  0  0  0  0  0  0  0  0  0
  1  2  1  0
  2  3  1  0
  3  4  1  0
  4  5  2  0
  4  6  1  0
  6  7  1  0
  7  8  1  0
  8  9  1  0
  8 10  1  0
  8 11  1  0
  2 12  1  0
 12 13  2  0
 12 14  1  0
 14 15  1  0
 15 16  1  0
 16 17  2  0
 17 18  1  0
 18 19  2  0
 19 20  1  0
 20 21  2  0
 21 22  1  0
 22 23  2  0
 23 24  1  0
 24 25  2  0
 25 26  1  0
 26 27  2  0
 27 28  1  0
 28 29  1  0
 29 30  1  0
 30 31  1  0
 28 32  1  0
 32 33  2  0
 32 15  1  0
 21 16  1  0
 27 22  1  0
  1 34  1  0
  1 35  1  0
  1 36  1  0
  2 37  1  1
  3 38  1  0
  6 39  1  0
  6 40  1  0
  7 41  1  0
  7 42  1  0
 14 43  1  0
 15 44  1  1
 17 45  1  0
 18 46  1  0
 19 47  1  0
 20 48  1  0
 23 49  1  0
 24 50  1  0
 25 51  1  0
 29 52  1  0
 29 53  1  0
 30 54  1  0
 30 55  1  0
 31 56  1  0
M  END
>  <CID>  (85) 
39

>  <Energy>  (85) 
55.88229392989891

$$$$

     RDKit          3D

 56 58  0  0  0  0  0  0  0  0999 V2000
    3.3423    3.2419   -0.8303 C   0  0  0  0  0  0  0  0  0  0  0  0
    2.7184    2.2383    0.1311 C   0  0  2  0  0  0  0  0  0  0  0  0
    3.4279    0.9521    0.0440 N   0  0  0  0  0  0  0  0  0  0  0  0
    3.6377    0.1521    1.1457 C   0  0  0  0  0  0  0  0  0  0  0  0
    3.1249    0.3942    2.2366 O   0  0  0  0  0  0  0  0  0  0  0  0
    4.5130   -1.0504    0.8664 C   0  0  0  0  0  0  0  0  0  0  0  0
    4.8314   -1.8122    2.1515 C   0  0  0  0  0  0  0  0  0  0  0  0
    5.8214   -2.9127    1.8999 C   0  0  0  0  0  0  0  0  0  0  0  0
    6.0649   -3.5998    3.0307 F   0  0  0  0  0  0  0  0  0  0  0  0
    5.3575   -3.7797    0.9733 F   0  0  0  0  0  0  0  0  0  0  0  0
    6.9955   -2.4185    1.4610 F   0  0  0  0  0  0  0  0  0  0  0  0
    1.1977    2.1079   -0.1167 C   0  0  0  0  0  0  0  0  0  0  0  0
    0.5329    3.0209   -0.6007 O   0  0  0  0  0  0  0  0  0  0  0  0
    0.6320    0.9624    0.3944 N   0  0  0  0  0  0  0  0  0  0  0  0
   -0.7579    0.5463    0.1940 C   0  0  1  0  0  0  0  0  0  0  0  0
   -1.8129    1.3158    0.9614 C   0  0  0  0  0  0  0  0  0  0  0  0
   -1.5402    2.5249    1.6308 C   0  0  0  0  0  0  0  0  0  0  0  0
   -2.5402    3.2395    2.2938 C   0  0  0  0  0  0  0  0  0  0  0  0
   -3.8397    2.7642    2.3015 C   0  0  0  0  0  0  0  0  0  0  0  0
   -4.1254    1.5577    1.6676 C   0  0  0  0  0  0  0  0  0  0  0  0
   -3.1209    0.7929    1.0177 C   0  0  0  0  0  0  0  0  0  0  0  0
   -3.4681   -0.5352    0.4654 C   0  0  0  0  0  0  0  0  0  0  0  0
   -4.2605   -1.4022    1.2566 C   0  0  0  0  0  0  0  0  0  0  0  0
   -4.7352   -2.6111    0.7647 C   0  0  0  0  0  0  0  0  0  0  0  0
   -4.3983   -2.9438   -0.5239 C   0  0  0  0  0  0  0  0  0  0  0  0
   -3.6048   -2.1757   -1.3034 N   0  0  0  0  0  0  0  0  0  0  0  0
   -3.1217   -0.9973   -0.8138 C   0  0  0  0  0  0  0  0  0  0  0  0
   -2.2297   -0.3251   -1.6957 N   0  0  0  0  0  0  0  0  0  0  0  0
   -2.4077   -0.5603   -3.1400 C   0  0  0  0  0  0  0  0  0  0  0  0
   -1.5122   -1.6867   -3.6846 C   0  0  0  0  0  0  0  0  0  0  0  0
   -2.0161   -2.9844   -3.3661 O   0  0  0  0  0  0  0  0  0  0  0  0
   -1.0961    0.3942   -1.3157 C   0  0  0  0  0  0  0  0  0  0  0  0
   -0.3163    0.7999   -2.1887 O   0  0  0  0  0  0  0  0  0  0  0  0
    3.1714    2.9515   -1.8677 H   0  0  0  0  0  0  0  0  0  0  0  0
    4.4249    3.3104   -0.6765 H   0  0  0  0  0  0  0  0  0  0  0  0
    2.9108    4.2368   -0.6846 H   0  0  0  0  0  0  0  0  0  0  0  0
    2.8260    2.6194    1.1570 H   0  0  0  0  0  0  0  0  0  0  0  0
    3.7237    0.6335   -0.8781 H   0  0  0  0  0  0  0  0  0  0  0  0
    5.4375   -0.6999    0.3792 H   0  0  0  0  0  0  0  0  0  0  0  0
    3.9863   -1.7115    0.1623 H   0  0  0  0  0  0  0  0  0  0  0  0
    3.9122   -2.2417    2.5647 H   0  0  0  0  0  0  0  0  0  0  0  0
    5.2354   -1.1299    2.9119 H   0  0  0  0  0  0  0  0  0  0  0  0
    1.2026    0.4115    1.0326 H   0  0  0  0  0  0  0  0  0  0  0  0
   -0.7477   -0.4737    0.6014 H   0  0  0  0  0  0  0  0  0  0  0  0
   -0.5395    2.9470    1.6433 H   0  0  0  0  0  0  0  0  0  0  0  0
   -2.2999    4.1721    2.7904 H   0  0  0  0  0  0  0  0  0  0  0  0
   -4.6303    3.3257    2.8004 H   0  0  0  0  0  0  0  0  0  0  0  0
   -5.1563    1.2068    1.6914 H   0  0  0  0  0  0  0  0  0  0  0  0
   -4.5234   -1.1285    2.2789 H   0  0  0  0  0  0  0  0  0  0  0  0
   -5.3532   -3.2636    1.3726 H   0  0  0  0  0  0  0  0  0  0  0  0
   -4.7470   -3.8694   -0.9748 H   0  0  0  0  0  0  0  0  0  0  0  0
   -3.4645   -0.7542   -3.3544 H   0  0  0  0  0  0  0  0  0  0  0  0
   -2.1485    0.3691   -3.6625 H   0  0  0  0  0  0  0  0  0  0  0  0
   -0.4879   -1.6189   -3.3023 H   0  0  0  0  0  0  0  0  0  0  0  0
   -1.4673   -1.6215   -4.7771 H   0  0  0  0  0  0  0  0  0  0  0  0
   -2.5589   -2.8810   -2.5552 H   0  0  0  0  0  0  0  0  0  0  0  0
  1  2  1  0
  2  3  1  0
  3  4  1  0
  4  5  2  0
  4  6  1  0
  6  7  1  0
  7  8  1  0
  8  9  1  0
  8 10  1  0
  8 11  1  0
  2 12  1  0
 12 13  2  0
 12 14  1  0
 14 15  1  0
 15 16  1  0
 16 17  2  0
 17 18  1  0
 18 19  2  0
 19 20  1  0
 20 21  2  0
 21 22  1  0
 22 23  2  0
 23 24  1  0
 24 25  2  0
 25 26  1  0
 26 27  2  0
 27 28  1  0
 28 29  1  0
 29 30  1  0
 30 31  1  0
 28 32  1  0
 32 33  2  0
 32 15  1  0
 21 16  1  0
 27 22  1  0
  1 34  1  0
  1 35  1  0
  1 36  1  0
  2 37  1  1
  3 38  1  0
  6 39  1  0
  6 40  1  0
  7 41  1  0
  7 42  1  0
 14 43  1  0
 15 44  1  1
 17 45  1  0
 18 46  1  0
 19 47  1  0
 20 48  1  0
 23 49  1  0
 24 50  1  0
 25 51  1  0
 29 52  1  0
 29 53  1  0
 30 54  1  0
 30 55  1  0
 31 56  1  0
M  END
>  <CID>  (86) 
52

>  <Energy>  (86) 
57.95283998584359

$$$$

     RDKit          3D

 56 58  0  0  0  0  0  0  0  0999 V2000
    1.4328    2.0692    2.3027 C   0  0  0  0  0  0  0  0  0  0  0  0
    1.8823    1.0726    1.2431 C   0  0  2  0  0  0  0  0  0  0  0  0
    3.2851    0.7194    1.4351 N   0  0  0  0  0  0  0  0  0  0  0  0
    3.7276   -0.5745    1.3318 C   0  0  0  0  0  0  0  0  0  0  0  0
    2.9782   -1.5321    1.1869 O   0  0  0  0  0  0  0  0  0  0  0  0
    5.2334   -0.7007    1.4316 C   0  0  0  0  0  0  0  0  0  0  0  0
    5.6944   -2.1320    1.1760 C   0  0  0  0  0  0  0  0  0  0  0  0
    7.1879   -2.2586    1.3267 C   0  0  0  0  0  0  0  0  0  0  0  0
    7.8389   -1.4641    0.4567 F   0  0  0  0  0  0  0  0  0  0  0  0
    7.5849   -1.9194    2.5703 F   0  0  0  0  0  0  0  0  0  0  0  0
    7.5862   -3.5261    1.1031 F   0  0  0  0  0  0  0  0  0  0  0  0
    1.7533    1.6941   -0.1617 C   0  0  0  0  0  0  0  0  0  0  0  0
    2.6971    2.2986   -0.6823 O   0  0  0  0  0  0  0  0  0  0  0  0
    0.5604    1.6791   -0.8124 N   0  0  0  0  0  0  0  0  0  0  0  0
   -0.6505    0.9081   -0.5268 C   0  0  1  0  0  0  0  0  0  0  0  0
   -1.7749    1.7601    0.0153 C   0  0  0  0  0  0  0  0  0  0  0  0
   -1.7277    3.1695   -0.0016 C   0  0  0  0  0  0  0  0  0  0  0  0
   -2.8119    3.9296    0.4351 C   0  0  0  0  0  0  0  0  0  0  0  0
   -3.9634    3.2934    0.8781 C   0  0  0  0  0  0  0  0  0  0  0  0
   -4.0214    1.8987    0.8964 C   0  0  0  0  0  0  0  0  0  0  0  0
   -2.9318    1.1027    0.4782 C   0  0  0  0  0  0  0  0  0  0  0  0
   -3.0261   -0.3771    0.5322 C   0  0  0  0  0  0  0  0  0  0  0  0
   -3.5865   -0.9673    1.6882 C   0  0  0  0  0  0  0  0  0  0  0  0
   -3.8128   -2.3348    1.7673 C   0  0  0  0  0  0  0  0  0  0  0  0
   -3.4892   -3.0960    0.6733 C   0  0  0  0  0  0  0  0  0  0  0  0
   -2.9396   -2.5845   -0.4463 N   0  0  0  0  0  0  0  0  0  0  0  0
   -2.6586   -1.2562   -0.5092 C   0  0  0  0  0  0  0  0  0  0  0  0
   -2.0015   -0.8438   -1.7098 N   0  0  0  0  0  0  0  0  0  0  0  0
   -2.2323   -1.6597   -2.9103 C   0  0  0  0  0  0  0  0  0  0  0  0
   -3.5781   -1.3447   -3.5718 C   0  0  0  0  0  0  0  0  0  0  0  0
   -3.7120   -2.0253   -4.8206 O   0  0  0  0  0  0  0  0  0  0  0  0
   -1.1441    0.2451   -1.8298 C   0  0  0  0  0  0  0  0  0  0  0  0
   -0.7553    0.6633   -2.9287 O   0  0  0  0  0  0  0  0  0  0  0  0
    1.6020    1.6701    3.3096 H   0  0  0  0  0  0  0  0  0  0  0  0
    0.3667    2.2961    2.2046 H   0  0  0  0  0  0  0  0  0  0  0  0
    1.9835    3.0135    2.2211 H   0  0  0  0  0  0  0  0  0  0  0  0
    1.2829    0.1629    1.3170 H   0  0  0  0  0  0  0  0  0  0  0  0
    3.9566    1.4717    1.3645 H   0  0  0  0  0  0  0  0  0  0  0  0
    5.5326   -0.3751    2.4364 H   0  0  0  0  0  0  0  0  0  0  0  0
    5.6890   -0.0195    0.7038 H   0  0  0  0  0  0  0  0  0  0  0  0
    5.2030   -2.8154    1.8805 H   0  0  0  0  0  0  0  0  0  0  0  0
    5.3984   -2.4491    0.1671 H   0  0  0  0  0  0  0  0  0  0  0  0
    0.5947    2.1017   -1.7361 H   0  0  0  0  0  0  0  0  0  0  0  0
   -0.3888    0.1246    0.1860 H   0  0  0  0  0  0  0  0  0  0  0  0
   -0.8549    3.6985   -0.3783 H   0  0  0  0  0  0  0  0  0  0  0  0
   -2.7632    5.0166    0.4098 H   0  0  0  0  0  0  0  0  0  0  0  0
   -4.8204    3.8807    1.2013 H   0  0  0  0  0  0  0  0  0  0  0  0
   -4.9457    1.4317    1.2329 H   0  0  0  0  0  0  0  0  0  0  0  0
   -3.8600   -0.3509    2.5413 H   0  0  0  0  0  0  0  0  0  0  0  0
   -4.2434   -2.7862    2.6531 H   0  0  0  0  0  0  0  0  0  0  0  0
   -3.6636   -4.1690    0.6599 H   0  0  0  0  0  0  0  0  0  0  0  0
   -2.1429   -2.7296   -2.6878 H   0  0  0  0  0  0  0  0  0  0  0  0
   -1.4371   -1.4759   -3.6439 H   0  0  0  0  0  0  0  0  0  0  0  0
   -4.4108   -1.6504   -2.9290 H   0  0  0  0  0  0  0  0  0  0  0  0
   -3.6866   -0.2697   -3.7578 H   0  0  0  0  0  0  0  0  0  0  0  0
   -3.0167   -1.6838   -5.4116 H   0  0  0  0  0  0  0  0  0  0  0  0
  1  2  1  0
  2  3  1  0
  3  4  1  0
  4  5  2  0
  4  6  1  0
  6  7  1  0
  7  8  1  0
  8  9  1  0
  8 10  1  0
  8 11  1  0
  2 12  1  0
 12 13  2  0
 12 14  1  0
 14 15  1  0
 15 16  1  0
 16 17  2  0
 17 18  1  0
 18 19  2  0
 19 20  1  0
 20 21  2  0
 21 22  1  0
 22 23  2  0
 23 24  1  0
 24 25  2  0
 25 26  1  0
 26 27  2  0
 27 28  1  0
 28 29  1  0
 29 30  1  0
 30 31  1  0
 28 32  1  0
 32 33  2  0
 32 15  1  0
 21 16  1  0
 27 22  1  0
  1 34  1  0
  1 35  1  0
  1 36  1  0
  2 37  1  6
  3 38  1  0
  6 39  1  0
  6 40  1  0
  7 41  1  0
  7 42  1  0
 14 43  1  0
 15 44  1  1
 17 45  1  0
 18 46  1  0
 19 47  1  0
 20 48  1  0
 23 49  1  0
 24 50  1  0
 25 51  1  0
 29 52  1  0
 29 53  1  0
 30 54  1  0
 30 55  1  0
 31 56  1  0
M  END
>  <CID>  (87) 
60

>  <Energy>  (87) 
58.02651104449522

$$$$

     RDKit          3D

 56 58  0  0  0  0  0  0  0  0999 V2000
    3.9783    2.1174   -1.7181 C   0  0  0  0  0  0  0  0  0  0  0  0
    3.2521    1.7497   -0.4280 C   0  0  2  0  0  0  0  0  0  0  0  0
    3.8583    0.5452    0.1545 N   0  0  0  0  0  0  0  0  0  0  0  0
    4.0218    0.3936    1.5101 C   0  0  0  0  0  0  0  0  0  0  0  0
    3.6134    1.2093    2.3295 O   0  0  0  0  0  0  0  0  0  0  0  0
    4.7289   -0.8810    1.9239 C   0  0  0  0  0  0  0  0  0  0  0  0
    3.9918   -1.5622    3.0709 C   0  0  0  0  0  0  0  0  0  0  0  0
    2.6837   -2.1608    2.6184 C   0  0  0  0  0  0  0  0  0  0  0  0
    2.0078   -2.6914    3.6574 F   0  0  0  0  0  0  0  0  0  0  0  0
    2.8999   -3.1496    1.7174 F   0  0  0  0  0  0  0  0  0  0  0  0
    1.8834   -1.2443    2.0307 F   0  0  0  0  0  0  0  0  0  0  0  0
    1.7297    1.6271   -0.6891 C   0  0  0  0  0  0  0  0  0  0  0  0
    1.1338    2.4405   -1.3897 O   0  0  0  0  0  0  0  0  0  0  0  0
    1.1017    0.6224    0.0073 N   0  0  0  0  0  0  0  0  0  0  0  0
   -0.3171    0.2714   -0.0647 C   0  0  1  0  0  0  0  0  0  0  0  0
   -1.3013    1.2266    0.5804 C   0  0  0  0  0  0  0  0  0  0  0  0
   -0.9863    2.5619    0.9005 C   0  0  0  0  0  0  0  0  0  0  0  0
   -1.9423    3.4277    1.4239 C   0  0  0  0  0  0  0  0  0  0  0  0
   -3.2361    2.9777    1.6384 C   0  0  0  0  0  0  0  0  0  0  0  0
   -3.5603    1.6533    1.3502 C   0  0  0  0  0  0  0  0  0  0  0  0
   -2.6045    0.7479    0.8397 C   0  0  0  0  0  0  0  0  0  0  0  0
   -2.9897   -0.6674    0.6284 C   0  0  0  0  0  0  0  0  0  0  0  0
   -3.7438   -1.3083    1.6400 C   0  0  0  0  0  0  0  0  0  0  0  0
   -4.2614   -2.5884    1.4688 C   0  0  0  0  0  0  0  0  0  0  0  0
   -4.0174   -3.2128    0.2725 C   0  0  0  0  0  0  0  0  0  0  0  0
   -3.2732   -2.6610   -0.7068 N   0  0  0  0  0  0  0  0  0  0  0  0
   -2.7247   -1.4257   -0.5291 C   0  0  0  0  0  0  0  0  0  0  0  0
   -1.8802   -0.9970   -1.5980 N   0  0  0  0  0  0  0  0  0  0  0  0
   -2.1598   -1.5506   -2.9401 C   0  0  0  0  0  0  0  0  0  0  0  0
   -2.9946   -0.5759   -3.7829 C   0  0  0  0  0  0  0  0  0  0  0  0
   -2.1891    0.3974   -4.4361 O   0  0  0  0  0  0  0  0  0  0  0  0
   -0.7883   -0.1391   -1.4863 C   0  0  0  0  0  0  0  0  0  0  0  0
   -0.2007    0.2367   -2.5079 O   0  0  0  0  0  0  0  0  0  0  0  0
    5.0542    2.2328   -1.5399 H   0  0  0  0  0  0  0  0  0  0  0  0
    3.6007    3.0552   -2.1339 H   0  0  0  0  0  0  0  0  0  0  0  0
    3.8445    1.3393   -2.4776 H   0  0  0  0  0  0  0  0  0  0  0  0
    3.3693    2.5732    0.2902 H   0  0  0  0  0  0  0  0  0  0  0  0
    4.1336   -0.1961   -0.4799 H   0  0  0  0  0  0  0  0  0  0  0  0
    4.8412   -1.5631    1.0734 H   0  0  0  0  0  0  0  0  0  0  0  0
    5.7338   -0.5963    2.2480 H   0  0  0  0  0  0  0  0  0  0  0  0
    3.8018   -0.8619    3.8852 H   0  0  0  0  0  0  0  0  0  0  0  0
    4.6242   -2.3594    3.4740 H   0  0  0  0  0  0  0  0  0  0  0  0
    1.6480    0.1384    0.7058 H   0  0  0  0  0  0  0  0  0  0  0  0
   -0.3343   -0.6513    0.5380 H   0  0  0  0  0  0  0  0  0  0  0  0
    0.0098    2.9658    0.7306 H   0  0  0  0  0  0  0  0  0  0  0  0
   -1.6745    4.4606    1.6422 H   0  0  0  0  0  0  0  0  0  0  0  0
   -3.9902    3.6514    2.0286 H   0  0  0  0  0  0  0  0  0  0  0  0
   -4.5869    1.3289    1.5262 H   0  0  0  0  0  0  0  0  0  0  0  0
   -3.9458   -0.7975    2.5798 H   0  0  0  0  0  0  0  0  0  0  0  0
   -4.8530   -3.0683    2.2427 H   0  0  0  0  0  0  0  0  0  0  0  0
   -4.4124   -4.2044    0.0603 H   0  0  0  0  0  0  0  0  0  0  0  0
   -2.6798   -2.5132   -2.8778 H   0  0  0  0  0  0  0  0  0  0  0  0
   -1.2035   -1.7495   -3.4438 H   0  0  0  0  0  0  0  0  0  0  0  0
   -3.7437   -0.0568   -3.1786 H   0  0  0  0  0  0  0  0  0  0  0  0
   -3.5203   -1.1295   -4.5666 H   0  0  0  0  0  0  0  0  0  0  0  0
   -1.4303    0.6119   -3.8516 H   0  0  0  0  0  0  0  0  0  0  0  0
  1  2  1  0
  2  3  1  0
  3  4  1  0
  4  5  2  0
  4  6  1  0
  6  7  1  0
  7  8  1  0
  8  9  1  0
  8 10  1  0
  8 11  1  0
  2 12  1  0
 12 13  2  0
 12 14  1  0
 14 15  1  0
 15 16  1  0
 16 17  2  0
 17 18  1  0
 18 19  2  0
 19 20  1  0
 20 21  2  0
 21 22  1  0
 22 23  2  0
 23 24  1  0
 24 25  2  0
 25 26  1  0
 26 27  2  0
 27 28  1  0
 28 29  1  0
 29 30  1  0
 30 31  1  0
 28 32  1  0
 32 33  2  0
 32 15  1  0
 21 16  1  0
 27 22  1  0
  1 34  1  0
  1 35  1  0
  1 36  1  0
  2 37  1  1
  3 38  1  0
  6 39  1  0
  6 40  1  0
  7 41  1  0
  7 42  1  0
 14 43  1  0
 15 44  1  1
 17 45  1  0
 18 46  1  0
 19 47  1  0
 20 48  1  0
 23 49  1  0
 24 50  1  0
 25 51  1  0
 29 52  1  0
 29 53  1  0
 30 54  1  0
 30 55  1  0
 31 56  1  0
M  END
>  <CID>  (88) 
11

>  <Energy>  (88) 
58.30241648941584

$$$$

     RDKit          3D

 56 58  0  0  0  0  0  0  0  0999 V2000
    2.2476    0.9686    3.0299 C   0  0  0  0  0  0  0  0  0  0  0  0
    2.2380    0.0103    1.8447 C   0  0  2  0  0  0  0  0  0  0  0  0
    3.4448    0.1399    1.0412 N   0  0  0  0  0  0  0  0  0  0  0  0
    4.6399   -0.4212    1.4088 C   0  0  0  0  0  0  0  0  0  0  0  0
    4.7928   -1.0559    2.4463 O   0  0  0  0  0  0  0  0  0  0  0  0
    5.7468   -0.1763    0.4076 C   0  0  0  0  0  0  0  0  0  0  0  0
    7.0613   -0.7989    0.8620 C   0  0  0  0  0  0  0  0  0  0  0  0
    8.1606   -0.5337   -0.1336 C   0  0  0  0  0  0  0  0  0  0  0  0
    9.3227   -1.0869    0.2747 F   0  0  0  0  0  0  0  0  0  0  0  0
    7.8616   -1.0514   -1.3439 F   0  0  0  0  0  0  0  0  0  0  0  0
    8.3693    0.7913   -0.2897 F   0  0  0  0  0  0  0  0  0  0  0  0
    1.0316    0.3174    0.9390 C   0  0  0  0  0  0  0  0  0  0  0  0
    1.1557    0.9902   -0.0823 O   0  0  0  0  0  0  0  0  0  0  0  0
   -0.1663   -0.1794    1.4078 N   0  0  0  0  0  0  0  0  0  0  0  0
   -1.4483   -0.1105    0.6955 C   0  0  1  0  0  0  0  0  0  0  0  0
   -2.0910    1.2505    0.5282 C   0  0  0  0  0  0  0  0  0  0  0  0
   -1.4053    2.4616    0.7396 C   0  0  0  0  0  0  0  0  0  0  0  0
   -2.0050    3.6952    0.4866 C   0  0  0  0  0  0  0  0  0  0  0  0
   -3.3062    3.7448    0.0168 C   0  0  0  0  0  0  0  0  0  0  0  0
   -4.0130    2.5586   -0.1656 C   0  0  0  0  0  0  0  0  0  0  0  0
   -3.4388    1.2959    0.1114 C   0  0  0  0  0  0  0  0  0  0  0  0
   -4.2801    0.0795    0.0052 C   0  0  0  0  0  0  0  0  0  0  0  0
   -5.5841    0.1312    0.5531 C   0  0  0  0  0  0  0  0  0  0  0  0
   -6.4802   -0.9187    0.4072 C   0  0  0  0  0  0  0  0  0  0  0  0
   -6.0555   -2.0168   -0.2971 C   0  0  0  0  0  0  0  0  0  0  0  0
   -4.8156   -2.1275   -0.8123 N   0  0  0  0  0  0  0  0  0  0  0  0
   -3.9182   -1.1189   -0.6380 C   0  0  0  0  0  0  0  0  0  0  0  0
   -2.6153   -1.3927   -1.1497 N   0  0  0  0  0  0  0  0  0  0  0  0
   -2.5213   -2.3357   -2.2834 C   0  0  0  0  0  0  0  0  0  0  0  0
   -2.4293   -1.5997   -3.6266 C   0  0  0  0  0  0  0  0  0  0  0  0
   -1.1146   -1.1214   -3.9019 O   0  0  0  0  0  0  0  0  0  0  0  0
   -1.4198   -0.8856   -0.6495 C   0  0  0  0  0  0  0  0  0  0  0  0
   -0.3614   -1.1081   -1.2514 O   0  0  0  0  0  0  0  0  0  0  0  0
    3.1023    0.7792    3.6872 H   0  0  0  0  0  0  0  0  0  0  0  0
    1.3341    0.8693    3.6256 H   0  0  0  0  0  0  0  0  0  0  0  0
    2.3114    2.0100    2.6939 H   0  0  0  0  0  0  0  0  0  0  0  0
    2.1683   -1.0250    2.1986 H   0  0  0  0  0  0  0  0  0  0  0  0
    3.3444    0.6188    0.1488 H   0  0  0  0  0  0  0  0  0  0  0  0
    5.8615    0.9068    0.2819 H   0  0  0  0  0  0  0  0  0  0  0  0
    5.4381   -0.5986   -0.5559 H   0  0  0  0  0  0  0  0  0  0  0  0
    7.3512   -0.3942    1.8388 H   0  0  0  0  0  0  0  0  0  0  0  0
    6.9399   -1.8810    0.9905 H   0  0  0  0  0  0  0  0  0  0  0  0
   -0.1548   -0.7164    2.2639 H   0  0  0  0  0  0  0  0  0  0  0  0
   -2.0982   -0.6857    1.3702 H   0  0  0  0  0  0  0  0  0  0  0  0
   -0.3775    2.4777    1.0874 H   0  0  0  0  0  0  0  0  0  0  0  0
   -1.4420    4.6128    0.6383 H   0  0  0  0  0  0  0  0  0  0  0  0
   -3.7730    4.7009   -0.2037 H   0  0  0  0  0  0  0  0  0  0  0  0
   -5.0356    2.6292   -0.5342 H   0  0  0  0  0  0  0  0  0  0  0  0
   -5.9150    1.0133    1.1004 H   0  0  0  0  0  0  0  0  0  0  0  0
   -7.4814   -0.8685    0.8195 H   0  0  0  0  0  0  0  0  0  0  0  0
   -6.7091   -2.8675   -0.4674 H   0  0  0  0  0  0  0  0  0  0  0  0
   -1.6284   -2.9579   -2.1441 H   0  0  0  0  0  0  0  0  0  0  0  0
   -3.3724   -3.0218   -2.3062 H   0  0  0  0  0  0  0  0  0  0  0  0
   -3.1203   -0.7516   -3.6666 H   0  0  0  0  0  0  0  0  0  0  0  0
   -2.6882   -2.2870   -4.4381 H   0  0  0  0  0  0  0  0  0  0  0  0
   -0.6586   -0.9587   -3.0478 H   0  0  0  0  0  0  0  0  0  0  0  0
  1  2  1  0
  2  3  1  0
  3  4  1  0
  4  5  2  0
  4  6  1  0
  6  7  1  0
  7  8  1  0
  8  9  1  0
  8 10  1  0
  8 11  1  0
  2 12  1  0
 12 13  2  0
 12 14  1  0
 14 15  1  0
 15 16  1  0
 16 17  2  0
 17 18  1  0
 18 19  2  0
 19 20  1  0
 20 21  2  0
 21 22  1  0
 22 23  2  0
 23 24  1  0
 24 25  2  0
 25 26  1  0
 26 27  2  0
 27 28  1  0
 28 29  1  0
 29 30  1  0
 30 31  1  0
 28 32  1  0
 32 33  2  0
 32 15  1  0
 21 16  1  0
 27 22  1  0
  1 34  1  0
  1 35  1  0
  1 36  1  0
  2 37  1  1
  3 38  1  0
  6 39  1  0
  6 40  1  0
  7 41  1  0
  7 42  1  0
 14 43  1  0
 15 44  1  1
 17 45  1  0
 18 46  1  0
 19 47  1  0
 20 48  1  0
 23 49  1  0
 24 50  1  0
 25 51  1  0
 29 52  1  0
 29 53  1  0
 30 54  1  0
 30 55  1  0
 31 56  1  0
M  END
>  <CID>  (89) 
0

>  <Energy>  (89) 
60.571650618980435

$$$$

     RDKit          3D

 56 58  0  0  0  0  0  0  0  0999 V2000
    2.4871    0.5151    2.7948 C   0  0  0  0  0  0  0  0  0  0  0  0
    2.3851   -0.2331    1.4710 C   0  0  2  0  0  0  0  0  0  0  0  0
    3.5613   -0.0157    0.6422 N   0  0  0  0  0  0  0  0  0  0  0  0
    4.7433   -0.6720    0.8576 C   0  0  0  0  0  0  0  0  0  0  0  0
    4.9033   -1.4967    1.7505 O   0  0  0  0  0  0  0  0  0  0  0  0
    5.8244   -0.3196   -0.1414 C   0  0  0  0  0  0  0  0  0  0  0  0
    7.2224   -0.5748    0.4109 C   0  0  0  0  0  0  0  0  0  0  0  0
    7.6264    0.4679    1.4301 C   0  0  0  0  0  0  0  0  0  0  0  0
    8.8735    0.2193    1.8898 F   0  0  0  0  0  0  0  0  0  0  0  0
    6.7992    0.5153    2.4904 F   0  0  0  0  0  0  0  0  0  0  0  0
    7.6431    1.6988    0.8686 F   0  0  0  0  0  0  0  0  0  0  0  0
    1.1561    0.2604    0.6863 C   0  0  0  0  0  0  0  0  0  0  0  0
    1.2650    1.0771   -0.2268 O   0  0  0  0  0  0  0  0  0  0  0  0
   -0.0428   -0.2539    1.1346 N   0  0  0  0  0  0  0  0  0  0  0  0
   -1.3429   -0.0350    0.4874 C   0  0  1  0  0  0  0  0  0  0  0  0
   -1.9332    1.3596    0.5665 C   0  0  0  0  0  0  0  0  0  0  0  0
   -1.1890    2.4927    0.9476 C   0  0  0  0  0  0  0  0  0  0  0  0
   -1.7468    3.7714    0.9448 C   0  0  0  0  0  0  0  0  0  0  0  0
   -3.0656    3.9464    0.5630 C   0  0  0  0  0  0  0  0  0  0  0  0
   -3.8289    2.8351    0.2137 C   0  0  0  0  0  0  0  0  0  0  0  0
   -3.2942    1.5256    0.2330 C   0  0  0  0  0  0  0  0  0  0  0  0
   -4.1845    0.3789   -0.0558 C   0  0  0  0  0  0  0  0  0  0  0  0
   -5.4638    0.3562    0.5453 C   0  0  0  0  0  0  0  0  0  0  0  0
   -6.3984   -0.6217    0.2318 C   0  0  0  0  0  0  0  0  0  0  0  0
   -6.0381   -1.5689   -0.6951 C   0  0  0  0  0  0  0  0  0  0  0  0
   -4.8231   -1.6082   -1.2764 N   0  0  0  0  0  0  0  0  0  0  0  0
   -3.8890   -0.6751   -0.9361 C   0  0  0  0  0  0  0  0  0  0  0  0
   -2.6171   -0.8730   -1.5424 N   0  0  0  0  0  0  0  0  0  0  0  0
   -2.6134   -1.5887   -2.8241 C   0  0  0  0  0  0  0  0  0  0  0  0
   -2.4274   -3.1021   -2.6721 C   0  0  0  0  0  0  0  0  0  0  0  0
   -2.7495   -3.7753   -3.8877 O   0  0  0  0  0  0  0  0  0  0  0  0
   -1.3806   -0.6121   -0.9557 C   0  0  0  0  0  0  0  0  0  0  0  0
   -0.3390   -0.9349   -1.5412 O   0  0  0  0  0  0  0  0  0  0  0  0
    3.3600    0.1884    3.3690 H   0  0  0  0  0  0  0  0  0  0  0  0
    1.5966    0.3519    3.4107 H   0  0  0  0  0  0  0  0  0  0  0  0
    2.5825    1.5945    2.6310 H   0  0  0  0  0  0  0  0  0  0  0  0
    2.2853   -1.3093    1.6538 H   0  0  0  0  0  0  0  0  0  0  0  0
    3.4419    0.6066   -0.1536 H   0  0  0  0  0  0  0  0  0  0  0  0
    5.6608   -0.9518   -1.0221 H   0  0  0  0  0  0  0  0  0  0  0  0
    5.7190    0.7233   -0.4610 H   0  0  0  0  0  0  0  0  0  0  0  0
    7.9394   -0.5465   -0.4178 H   0  0  0  0  0  0  0  0  0  0  0  0
    7.2931   -1.5728    0.8578 H   0  0  0  0  0  0  0  0  0  0  0  0
   -0.0197   -0.9237    1.8909 H   0  0  0  0  0  0  0  0  0  0  0  0
   -1.9943   -0.6851    1.0890 H   0  0  0  0  0  0  0  0  0  0  0  0
   -0.1476    2.4136    1.2421 H   0  0  0  0  0  0  0  0  0  0  0  0
   -1.1390    4.6281    1.2251 H   0  0  0  0  0  0  0  0  0  0  0  0
   -3.5021    4.9412    0.5394 H   0  0  0  0  0  0  0  0  0  0  0  0
   -4.8636    3.0026   -0.0827 H   0  0  0  0  0  0  0  0  0  0  0  0
   -5.7448    1.1226    1.2670 H   0  0  0  0  0  0  0  0  0  0  0  0
   -7.3822   -0.6284    0.6873 H   0  0  0  0  0  0  0  0  0  0  0  0
   -6.7281   -2.3500   -1.0013 H   0  0  0  0  0  0  0  0  0  0  0  0
   -1.8004   -1.1987   -3.4506 H   0  0  0  0  0  0  0  0  0  0  0  0
   -3.5272   -1.3571   -3.3871 H   0  0  0  0  0  0  0  0  0  0  0  0
   -1.3895   -3.3391   -2.4178 H   0  0  0  0  0  0  0  0  0  0  0  0
   -3.0586   -3.5176   -1.8807 H   0  0  0  0  0  0  0  0  0  0  0  0
   -3.7040   -3.6516   -4.0323 H   0  0  0  0  0  0  0  0  0  0  0  0
  1  2  1  0
  2  3  1  0
  3  4  1  0
  4  5  2  0
  4  6  1  0
  6  7  1  0
  7  8  1  0
  8  9  1  0
  8 10  1  0
  8 11  1  0
  2 12  1  0
 12 13  2  0
 12 14  1  0
 14 15  1  0
 15 16  1  0
 16 17  2  0
 17 18  1  0
 18 19  2  0
 19 20  1  0
 20 21  2  0
 21 22  1  0
 22 23  2  0
 23 24  1  0
 24 25  2  0
 25 26  1  0
 26 27  2  0
 27 28  1  0
 28 29  1  0
 29 30  1  0
 30 31  1  0
 28 32  1  0
 32 33  2  0
 32 15  1  0
 21 16  1  0
 27 22  1  0
  1 34  1  0
  1 35  1  0
  1 36  1  0
  2 37  1  1
  3 38  1  0
  6 39  1  0
  6 40  1  0
  7 41  1  0
  7 42  1  0
 14 43  1  0
 15 44  1  1
 17 45  1  0
 18 46  1  0
 19 47  1  0
 20 48  1  0
 23 49  1  0
 24 50  1  0
 25 51  1  0
 29 52  1  0
 29 53  1  0
 30 54  1  0
 30 55  1  0
 31 56  1  0
M  END
>  <CID>  (90) 
87

>  <Energy>  (90) 
62.10720511986585

$$$$

     RDKit          3D

 56 58  0  0  0  0  0  0  0  0999 V2000
    2.2846    1.0899    3.1591 C   0  0  0  0  0  0  0  0  0  0  0  0
    2.3300    0.3060    1.8528 C   0  0  2  0  0  0  0  0  0  0  0  0
    3.5294    0.6053    1.0845 N   0  0  0  0  0  0  0  0  0  0  0  0
    4.7509    0.0664    1.3890 C   0  0  0  0  0  0  0  0  0  0  0  0
    4.9458   -0.6531    2.3622 O   0  0  0  0  0  0  0  0  0  0  0  0
    5.8525    0.4870    0.4392 C   0  0  0  0  0  0  0  0  0  0  0  0
    7.0448   -0.4626    0.4793 C   0  0  0  0  0  0  0  0  0  0  0  0
    6.7578   -1.7645   -0.2366 C   0  0  0  0  0  0  0  0  0  0  0  0
    6.4851   -1.5378   -1.5419 F   0  0  0  0  0  0  0  0  0  0  0  0
    7.8383   -2.5762   -0.1876 F   0  0  0  0  0  0  0  0  0  0  0  0
    5.7163   -2.4351    0.2885 F   0  0  0  0  0  0  0  0  0  0  0  0
    1.1122    0.6777    0.9883 C   0  0  0  0  0  0  0  0  0  0  0  0
    1.1919    1.5307    0.1062 O   0  0  0  0  0  0  0  0  0  0  0  0
   -0.0478    0.0177    1.3353 N   0  0  0  0  0  0  0  0  0  0  0  0
   -1.3185    0.1148    0.6050 C   0  0  1  0  0  0  0  0  0  0  0  0
   -2.0716    1.4284    0.6948 C   0  0  0  0  0  0  0  0  0  0  0  0
   -1.4874    2.6244    1.1539 C   0  0  0  0  0  0  0  0  0  0  0  0
   -2.1920    3.8285    1.1608 C   0  0  0  0  0  0  0  0  0  0  0  0
   -3.5002    3.8638    0.7095 C   0  0  0  0  0  0  0  0  0  0  0  0
   -4.1065    2.6864    0.2789 C   0  0  0  0  0  0  0  0  0  0  0  0
   -3.4220    1.4488    0.2852 C   0  0  0  0  0  0  0  0  0  0  0  0
   -4.1496    0.2184   -0.0985 C   0  0  0  0  0  0  0  0  0  0  0  0
   -5.4481    0.0165    0.4226 C   0  0  0  0  0  0  0  0  0  0  0  0
   -6.2352   -1.0541    0.0192 C   0  0  0  0  0  0  0  0  0  0  0  0
   -5.7070   -1.9134   -0.9129 C   0  0  0  0  0  0  0  0  0  0  0  0
   -4.4646   -1.7821   -1.4167 N   0  0  0  0  0  0  0  0  0  0  0  0
   -3.6774   -0.7536   -0.9965 C   0  0  0  0  0  0  0  0  0  0  0  0
   -2.3614   -0.7641   -1.5355 N   0  0  0  0  0  0  0  0  0  0  0  0
   -2.2030   -1.3801   -2.8604 C   0  0  0  0  0  0  0  0  0  0  0  0
   -1.8217   -2.8614   -2.8057 C   0  0  0  0  0  0  0  0  0  0  0  0
   -1.7193   -3.3865   -4.1279 O   0  0  0  0  0  0  0  0  0  0  0  0
   -1.2001   -0.3968   -0.8585 C   0  0  0  0  0  0  0  0  0  0  0  0
   -0.0936   -0.5746   -1.3839 O   0  0  0  0  0  0  0  0  0  0  0  0
    2.3013    2.1697    2.9715 H   0  0  0  0  0  0  0  0  0  0  0  0
    1.3716    0.8664    3.7210 H   0  0  0  0  0  0  0  0  0  0  0  0
    3.1415    0.8509    3.7968 H   0  0  0  0  0  0  0  0  0  0  0  0
    2.3135   -0.7705    2.0591 H   0  0  0  0  0  0  0  0  0  0  0  0
    3.4008    1.1835    0.2571 H   0  0  0  0  0  0  0  0  0  0  0  0
    6.1756    1.4872    0.7516 H   0  0  0  0  0  0  0  0  0  0  0  0
    5.4584    0.5715   -0.5798 H   0  0  0  0  0  0  0  0  0  0  0  0
    7.3490   -0.6694    1.5113 H   0  0  0  0  0  0  0  0  0  0  0  0
    7.8971    0.0216   -0.0116 H   0  0  0  0  0  0  0  0  0  0  0  0
   -0.0023   -0.6678    2.0762 H   0  0  0  0  0  0  0  0  0  0  0  0
   -1.9264   -0.6316    1.1363 H   0  0  0  0  0  0  0  0  0  0  0  0
   -0.4605    2.6554    1.5035 H   0  0  0  0  0  0  0  0  0  0  0  0
   -1.7059    4.7387    1.5032 H   0  0  0  0  0  0  0  0  0  0  0  0
   -4.0494    4.8012    0.6933 H   0  0  0  0  0  0  0  0  0  0  0  0
   -5.1357    2.7436   -0.0731 H   0  0  0  0  0  0  0  0  0  0  0  0
   -5.8620    0.7133    1.1504 H   0  0  0  0  0  0  0  0  0  0  0  0
   -7.2357   -1.1983    0.4109 H   0  0  0  0  0  0  0  0  0  0  0  0
   -6.2751   -2.7596   -1.2887 H   0  0  0  0  0  0  0  0  0  0  0  0
   -3.1098   -1.2326   -3.4614 H   0  0  0  0  0  0  0  0  0  0  0  0
   -1.4202   -0.8383   -3.4079 H   0  0  0  0  0  0  0  0  0  0  0  0
   -2.5700   -3.4471   -2.2638 H   0  0  0  0  0  0  0  0  0  0  0  0
   -0.8572   -2.9979   -2.3062 H   0  0  0  0  0  0  0  0  0  0  0  0
   -1.4115   -4.3047   -4.0404 H   0  0  0  0  0  0  0  0  0  0  0  0
  1  2  1  0
  2  3  1  0
  3  4  1  0
  4  5  2  0
  4  6  1  0
  6  7  1  0
  7  8  1  0
  8  9  1  0
  8 10  1  0
  8 11  1  0
  2 12  1  0
 12 13  2  0
 12 14  1  0
 14 15  1  0
 15 16  1  0
 16 17  2  0
 17 18  1  0
 18 19  2  0
 19 20  1  0
 20 21  2  0
 21 22  1  0
 22 23  2  0
 23 24  1  0
 24 25  2  0
 25 26  1  0
 26 27  2  0
 27 28  1  0
 28 29  1  0
 29 30  1  0
 30 31  1  0
 28 32  1  0
 32 33  2  0
 32 15  1  0
 21 16  1  0
 27 22  1  0
  1 34  1  0
  1 35  1  0
  1 36  1  0
  2 37  1  1
  3 38  1  0
  6 39  1  0
  6 40  1  0
  7 41  1  0
  7 42  1  0
 14 43  1  0
 15 44  1  1
 17 45  1  0
 18 46  1  0
 19 47  1  0
 20 48  1  0
 23 49  1  0
 24 50  1  0
 25 51  1  0
 29 52  1  0
 29 53  1  0
 30 54  1  0
 30 55  1  0
 31 56  1  0
M  END
>  <CID>  (91) 
76

>  <Energy>  (91) 
62.23139774118637

$$$$

     RDKit          3D

 56 58  0  0  0  0  0  0  0  0999 V2000
    2.3229    1.3159    3.0525 C   0  0  0  0  0  0  0  0  0  0  0  0
    2.3825    0.3320    1.8898 C   0  0  2  0  0  0  0  0  0  0  0  0
    3.5813    0.5199    1.0855 N   0  0  0  0  0  0  0  0  0  0  0  0
    4.8089    0.0547    1.4749 C   0  0  0  0  0  0  0  0  0  0  0  0
    5.0102   -0.4968    2.5510 O   0  0  0  0  0  0  0  0  0  0  0  0
    5.9088    0.3346    0.4728 C   0  0  0  0  0  0  0  0  0  0  0  0
    7.1080   -0.5888    0.6576 C   0  0  0  0  0  0  0  0  0  0  0  0
    6.8311   -1.9863    0.1478 C   0  0  0  0  0  0  0  0  0  0  0  0
    7.9173   -2.7733    0.3183 F   0  0  0  0  0  0  0  0  0  0  0  0
    5.7940   -2.5766    0.7692 F   0  0  0  0  0  0  0  0  0  0  0  0
    6.5571   -1.9619   -1.1766 F   0  0  0  0  0  0  0  0  0  0  0  0
    1.1632    0.5429    0.9738 C   0  0  0  0  0  0  0  0  0  0  0  0
    1.2433    1.2252   -0.0462 O   0  0  0  0  0  0  0  0  0  0  0  0
    0.0051   -0.0460    1.4350 N   0  0  0  0  0  0  0  0  0  0  0  0
   -1.2722   -0.0813    0.7106 C   0  0  1  0  0  0  0  0  0  0  0  0
   -2.0233    1.2279    0.5531 C   0  0  0  0  0  0  0  0  0  0  0  0
   -1.4370    2.4891    0.7690 C   0  0  0  0  0  0  0  0  0  0  0  0
   -2.1398    3.6717    0.5361 C   0  0  0  0  0  0  0  0  0  0  0  0
   -3.4470    3.6193    0.0821 C   0  0  0  0  0  0  0  0  0  0  0  0
   -4.0560    2.3814   -0.1074 C   0  0  0  0  0  0  0  0  0  0  0  0
   -3.3746    1.1693    0.1470 C   0  0  0  0  0  0  0  0  0  0  0  0
   -4.1066   -0.1123    0.0300 C   0  0  0  0  0  0  0  0  0  0  0  0
   -5.3948   -0.2009    0.6060 C   0  0  0  0  0  0  0  0  0  0  0  0
   -6.1771   -1.3395    0.4660 C   0  0  0  0  0  0  0  0  0  0  0  0
   -5.6522   -2.3842   -0.2546 C   0  0  0  0  0  0  0  0  0  0  0  0
   -4.4200   -2.3617   -0.7974 N   0  0  0  0  0  0  0  0  0  0  0  0
   -3.6423   -1.2535   -0.6480 C   0  0  0  0  0  0  0  0  0  0  0  0
   -2.3349   -1.3670   -1.1961 N   0  0  0  0  0  0  0  0  0  0  0  0
   -2.1905   -2.1654   -2.4247 C   0  0  0  0  0  0  0  0  0  0  0  0
   -1.9879   -1.2741   -3.6571 C   0  0  0  0  0  0  0  0  0  0  0  0
   -3.1824   -0.5535   -3.9584 O   0  0  0  0  0  0  0  0  0  0  0  0
   -1.1698   -0.8468   -0.6378 C   0  0  0  0  0  0  0  0  0  0  0  0
   -0.0751   -1.0565   -1.1768 O   0  0  0  0  0  0  0  0  0  0  0  0
    3.1819    1.1958    3.7203 H   0  0  0  0  0  0  0  0  0  0  0  0
    1.4122    1.1730    3.6437 H   0  0  0  0  0  0  0  0  0  0  0  0
    2.3244    2.3513    2.6928 H   0  0  0  0  0  0  0  0  0  0  0  0
    2.3789   -0.6974    2.2668 H   0  0  0  0  0  0  0  0  0  0  0  0
    3.4473    0.9549    0.1757 H   0  0  0  0  0  0  0  0  0  0  0  0
    5.5164    0.2605   -0.5476 H   0  0  0  0  0  0  0  0  0  0  0  0
    6.2237    1.3731    0.6299 H   0  0  0  0  0  0  0  0  0  0  0  0
    7.4121   -0.6341    1.7091 H   0  0  0  0  0  0  0  0  0  0  0  0
    7.9576   -0.1786    0.0992 H   0  0  0  0  0  0  0  0  0  0  0  0
    0.0553   -0.5931    2.2830 H   0  0  0  0  0  0  0  0  0  0  0  0
   -1.8765   -0.7136    1.3766 H   0  0  0  0  0  0  0  0  0  0  0  0
   -0.4108    2.5858    1.1077 H   0  0  0  0  0  0  0  0  0  0  0  0
   -1.6530    4.6309    0.6935 H   0  0  0  0  0  0  0  0  0  0  0  0
   -3.9942    4.5357   -0.1207 H   0  0  0  0  0  0  0  0  0  0  0  0
   -5.0848    2.3673   -0.4650 H   0  0  0  0  0  0  0  0  0  0  0  0
   -5.8022    0.6365    1.1707 H   0  0  0  0  0  0  0  0  0  0  0  0
   -7.1694   -1.3993    0.8978 H   0  0  0  0  0  0  0  0  0  0  0  0
   -6.2148   -3.2988   -0.4168 H   0  0  0  0  0  0  0  0  0  0  0  0
   -1.3170   -2.8186   -2.3102 H   0  0  0  0  0  0  0  0  0  0  0  0
   -3.0549   -2.8150   -2.5919 H   0  0  0  0  0  0  0  0  0  0  0  0
   -1.7449   -1.8946   -4.5255 H   0  0  0  0  0  0  0  0  0  0  0  0
   -1.1796   -0.5519   -3.5074 H   0  0  0  0  0  0  0  0  0  0  0  0
   -2.9583    0.0726   -4.6678 H   0  0  0  0  0  0  0  0  0  0  0  0
  1  2  1  0
  2  3  1  0
  3  4  1  0
  4  5  2  0
  4  6  1  0
  6  7  1  0
  7  8  1  0
  8  9  1  0
  8 10  1  0
  8 11  1  0
  2 12  1  0
 12 13  2  0
 12 14  1  0
 14 15  1  0
 15 16  1  0
 16 17  2  0
 17 18  1  0
 18 19  2  0
 19 20  1  0
 20 21  2  0
 21 22  1  0
 22 23  2  0
 23 24  1  0
 24 25  2  0
 25 26  1  0
 26 27  2  0
 27 28  1  0
 28 29  1  0
 29 30  1  0
 30 31  1  0
 28 32  1  0
 32 33  2  0
 32 15  1  0
 21 16  1  0
 27 22  1  0
  1 34  1  0
  1 35  1  0
  1 36  1  0
  2 37  1  1
  3 38  1  0
  6 39  1  0
  6 40  1  0
  7 41  1  0
  7 42  1  0
 14 43  1  0
 15 44  1  1
 17 45  1  0
 18 46  1  0
 19 47  1  0
 20 48  1  0
 23 49  1  0
 24 50  1  0
 25 51  1  0
 29 52  1  0
 29 53  1  0
 30 54  1  0
 30 55  1  0
 31 56  1  0
M  END
>  <CID>  (92) 
34

>  <Energy>  (92) 
62.400945280356886

$$$$

     RDKit          3D

 56 58  0  0  0  0  0  0  0  0999 V2000
    2.3638    1.2744    3.1554 C   0  0  0  0  0  0  0  0  0  0  0  0
    2.4226    0.3618    1.9360 C   0  0  2  0  0  0  0  0  0  0  0  0
    3.6239    0.5912    1.1469 N   0  0  0  0  0  0  0  0  0  0  0  0
    4.8479    0.0963    1.5102 C   0  0  0  0  0  0  0  0  0  0  0  0
    5.0433   -0.5181    2.5530 O   0  0  0  0  0  0  0  0  0  0  0  0
    5.9512    0.4264    0.5272 C   0  0  0  0  0  0  0  0  0  0  0  0
    7.1486   -0.5073    0.6669 C   0  0  0  0  0  0  0  0  0  0  0  0
    6.8720   -1.8757    0.0830 C   0  0  0  0  0  0  0  0  0  0  0  0
    5.8307   -2.4958    0.6673 F   0  0  0  0  0  0  0  0  0  0  0  0
    7.9561   -2.6725    0.2185 F   0  0  0  0  0  0  0  0  0  0  0  0
    6.6057   -1.7815   -1.2397 F   0  0  0  0  0  0  0  0  0  0  0  0
    1.2068    0.6340    1.0323 C   0  0  0  0  0  0  0  0  0  0  0  0
    1.2855    1.3979    0.0722 O   0  0  0  0  0  0  0  0  0  0  0  0
    0.0515   -0.0007    1.4372 N   0  0  0  0  0  0  0  0  0  0  0  0
   -1.2181    0.0021    0.6989 C   0  0  1  0  0  0  0  0  0  0  0  0
   -1.9848    1.3064    0.6243 C   0  0  0  0  0  0  0  0  0  0  0  0
   -1.4169    2.5566    0.9355 C   0  0  0  0  0  0  0  0  0  0  0  0
   -2.1298    3.7449    0.7765 C   0  0  0  0  0  0  0  0  0  0  0  0
   -3.4298    3.7092    0.3028 C   0  0  0  0  0  0  0  0  0  0  0  0
   -4.0209    2.4800    0.0210 C   0  0  0  0  0  0  0  0  0  0  0  0
   -3.3297    1.2586    0.2007 C   0  0  0  0  0  0  0  0  0  0  0  0
   -4.0500   -0.0180   -0.0173 C   0  0  0  0  0  0  0  0  0  0  0  0
   -5.3594   -0.1370    0.5056 C   0  0  0  0  0  0  0  0  0  0  0  0
   -6.1529   -1.2456    0.2432 C   0  0  0  0  0  0  0  0  0  0  0  0
   -5.6221   -2.2273   -0.5554 C   0  0  0  0  0  0  0  0  0  0  0  0
   -4.3715   -2.1760   -1.0538 N   0  0  0  0  0  0  0  0  0  0  0  0
   -3.5703   -1.1145   -0.7555 C   0  0  0  0  0  0  0  0  0  0  0  0
   -2.2424   -1.2235   -1.2651 N   0  0  0  0  0  0  0  0  0  0  0  0
   -2.0697   -2.0762   -2.4520 C   0  0  0  0  0  0  0  0  0  0  0  0
   -2.5940   -1.4174   -3.7307 C   0  0  0  0  0  0  0  0  0  0  0  0
   -2.5349   -2.3226   -4.8307 O   0  0  0  0  0  0  0  0  0  0  0  0
   -1.0957   -0.6721   -0.6962 C   0  0  0  0  0  0  0  0  0  0  0  0
    0.0018   -0.7921   -1.2527 O   0  0  0  0  0  0  0  0  0  0  0  0
    2.3740    2.3296    2.8589 H   0  0  0  0  0  0  0  0  0  0  0  0
    3.2185    1.1081    3.8187 H   0  0  0  0  0  0  0  0  0  0  0  0
    1.4490    1.1023    3.7323 H   0  0  0  0  0  0  0  0  0  0  0  0
    2.4135   -0.6882    2.2511 H   0  0  0  0  0  0  0  0  0  0  0  0
    3.4954    1.0817    0.2648 H   0  0  0  0  0  0  0  0  0  0  0  0
    6.2672    1.4548    0.7394 H   0  0  0  0  0  0  0  0  0  0  0  0
    5.5613    0.4064   -0.4967 H   0  0  0  0  0  0  0  0  0  0  0  0
    7.4488   -0.6086    1.7156 H   0  0  0  0  0  0  0  0  0  0  0  0
    8.0007   -0.0694    0.1341 H   0  0  0  0  0  0  0  0  0  0  0  0
    0.1039   -0.6118    2.2403 H   0  0  0  0  0  0  0  0  0  0  0  0
   -1.8208   -0.6803    1.3153 H   0  0  0  0  0  0  0  0  0  0  0  0
   -0.3960    2.6415    1.2932 H   0  0  0  0  0  0  0  0  0  0  0  0
   -1.6557    4.6960    1.0057 H   0  0  0  0  0  0  0  0  0  0  0  0
   -3.9851    4.6316    0.1560 H   0  0  0  0  0  0  0  0  0  0  0  0
   -5.0452    2.4834   -0.3496 H   0  0  0  0  0  0  0  0  0  0  0  0
   -5.7776    0.6565    1.1240 H   0  0  0  0  0  0  0  0  0  0  0  0
   -7.1592   -1.3258    0.6380 H   0  0  0  0  0  0  0  0  0  0  0  0
   -6.1943   -3.1120   -0.8194 H   0  0  0  0  0  0  0  0  0  0  0  0
   -2.5447   -3.0518   -2.2902 H   0  0  0  0  0  0  0  0  0  0  0  0
   -1.0129   -2.3259   -2.6050 H   0  0  0  0  0  0  0  0  0  0  0  0
   -3.6318   -1.0862   -3.6240 H   0  0  0  0  0  0  0  0  0  0  0  0
   -1.9913   -0.5379   -3.9798 H   0  0  0  0  0  0  0  0  0  0  0  0
   -3.1362   -3.0598   -4.6269 H   0  0  0  0  0  0  0  0  0  0  0  0
  1  2  1  0
  2  3  1  0
  3  4  1  0
  4  5  2  0
  4  6  1  0
  6  7  1  0
  7  8  1  0
  8  9  1  0
  8 10  1  0
  8 11  1  0
  2 12  1  0
 12 13  2  0
 12 14  1  0
 14 15  1  0
 15 16  1  0
 16 17  2  0
 17 18  1  0
 18 19  2  0
 19 20  1  0
 20 21  2  0
 21 22  1  0
 22 23  2  0
 23 24  1  0
 24 25  2  0
 25 26  1  0
 26 27  2  0
 27 28  1  0
 28 29  1  0
 29 30  1  0
 30 31  1  0
 28 32  1  0
 32 33  2  0
 32 15  1  0
 21 16  1  0
 27 22  1  0
  1 34  1  0
  1 35  1  0
  1 36  1  0
  2 37  1  1
  3 38  1  0
  6 39  1  0
  6 40  1  0
  7 41  1  0
  7 42  1  0
 14 43  1  0
 15 44  1  1
 17 45  1  0
 18 46  1  0
 19 47  1  0
 20 48  1  0
 23 49  1  0
 24 50  1  0
 25 51  1  0
 29 52  1  0
 29 53  1  0
 30 54  1  0
 30 55  1  0
 31 56  1  0
M  END
>  <CID>  (93) 
74

>  <Energy>  (93) 
63.874082620879676

$$$$

     RDKit          3D

 56 58  0  0  0  0  0  0  0  0999 V2000
    3.7817    1.7509   -1.6855 C   0  0  0  0  0  0  0  0  0  0  0  0
    3.0407    1.3721   -0.4031 C   0  0  2  0  0  0  0  0  0  0  0  0
    3.5563    0.0917    0.1084 N   0  0  0  0  0  0  0  0  0  0  0  0
    3.7402   -0.1386    1.4523 C   0  0  0  0  0  0  0  0  0  0  0  0
    3.3708    0.6418    2.3231 O   0  0  0  0  0  0  0  0  0  0  0  0
    4.3411   -1.4933    1.7655 C   0  0  0  0  0  0  0  0  0  0  0  0
    5.0611   -1.5033    3.1101 C   0  0  0  0  0  0  0  0  0  0  0  0
    6.4124   -0.8270    3.0271 C   0  0  0  0  0  0  0  0  0  0  0  0
    7.2015   -1.4607    2.1261 F   0  0  0  0  0  0  0  0  0  0  0  0
    7.0363   -0.8811    4.2231 F   0  0  0  0  0  0  0  0  0  0  0  0
    6.3268    0.4650    2.6600 F   0  0  0  0  0  0  0  0  0  0  0  0
    1.5119    1.3671   -0.6505 C   0  0  0  0  0  0  0  0  0  0  0  0
    0.9657    2.2197   -1.3495 O   0  0  0  0  0  0  0  0  0  0  0  0
    0.8163    0.4268    0.0827 N   0  0  0  0  0  0  0  0  0  0  0  0
   -0.6266    0.1814    0.0025 C   0  0  1  0  0  0  0  0  0  0  0  0
   -1.5376    1.2518    0.5702 C   0  0  0  0  0  0  0  0  0  0  0  0
   -1.0828    2.5392    0.9261 C   0  0  0  0  0  0  0  0  0  0  0  0
   -1.9561    3.5289    1.3799 C   0  0  0  0  0  0  0  0  0  0  0  0
   -3.3082    3.2531    1.4870 C   0  0  0  0  0  0  0  0  0  0  0  0
   -3.7725    1.9754    1.1735 C   0  0  0  0  0  0  0  0  0  0  0  0
   -2.9016    0.9422    0.7506 C   0  0  0  0  0  0  0  0  0  0  0  0
   -3.4365   -0.4288    0.5750 C   0  0  0  0  0  0  0  0  0  0  0  0
   -4.3289   -0.9227    1.5573 C   0  0  0  0  0  0  0  0  0  0  0  0
   -4.9770   -2.1437    1.4076 C   0  0  0  0  0  0  0  0  0  0  0  0
   -4.7121   -2.8672    0.2719 C   0  0  0  0  0  0  0  0  0  0  0  0
   -3.8441   -2.4569   -0.6742 N   0  0  0  0  0  0  0  0  0  0  0  0
   -3.1847   -1.2750   -0.5195 C   0  0  0  0  0  0  0  0  0  0  0  0
   -2.2527   -0.9874   -1.5583 N   0  0  0  0  0  0  0  0  0  0  0  0
   -2.5550   -1.5617   -2.8819 C   0  0  0  0  0  0  0  0  0  0  0  0
   -3.6995   -0.8213   -3.5852 C   0  0  0  0  0  0  0  0  0  0  0  0
   -3.7901   -1.2097   -4.9559 O   0  0  0  0  0  0  0  0  0  0  0  0
   -1.0663   -0.2667   -1.4224 C   0  0  0  0  0  0  0  0  0  0  0  0
   -0.3435   -0.0700   -2.4091 O   0  0  0  0  0  0  0  0  0  0  0  0
    3.4571    2.7273   -2.0662 H   0  0  0  0  0  0  0  0  0  0  0  0
    4.8632    1.7942   -1.5158 H   0  0  0  0  0  0  0  0  0  0  0  0
    3.5982    1.0076   -2.4740 H   0  0  0  0  0  0  0  0  0  0  0  0
    3.2248    2.1453    0.3551 H   0  0  0  0  0  0  0  0  0  0  0  0
    3.7881   -0.6235   -0.5733 H   0  0  0  0  0  0  0  0  0  0  0  0
    3.5083   -2.2069    1.7953 H   0  0  0  0  0  0  0  0  0  0  0  0
    5.0110   -1.8093    0.9574 H   0  0  0  0  0  0  0  0  0  0  0  0
    5.2112   -2.5432    3.4275 H   0  0  0  0  0  0  0  0  0  0  0  0
    4.4585   -1.0164    3.8878 H   0  0  0  0  0  0  0  0  0  0  0  0
    1.3500   -0.1262    0.7422 H   0  0  0  0  0  0  0  0  0  0  0  0
   -0.7341   -0.7045    0.6456 H   0  0  0  0  0  0  0  0  0  0  0  0
   -0.0325    2.8094    0.8493 H   0  0  0  0  0  0  0  0  0  0  0  0
   -1.5709    4.5136    1.6416 H   0  0  0  0  0  0  0  0  0  0  0  0
   -3.9987    4.0222    1.8235 H   0  0  0  0  0  0  0  0  0  0  0  0
   -4.8409    1.7861    1.2748 H   0  0  0  0  0  0  0  0  0  0  0  0
   -4.5392   -0.3386    2.4531 H   0  0  0  0  0  0  0  0  0  0  0  0
   -5.6747   -2.5086    2.1552 H   0  0  0  0  0  0  0  0  0  0  0  0
   -5.1866   -3.8261    0.0877 H   0  0  0  0  0  0  0  0  0  0  0  0
   -1.6692   -1.5296   -3.5279 H   0  0  0  0  0  0  0  0  0  0  0  0
   -2.7854   -2.6344   -2.8053 H   0  0  0  0  0  0  0  0  0  0  0  0
   -3.5600    0.2657   -3.5434 H   0  0  0  0  0  0  0  0  0  0  0  0
   -4.6575   -1.0527   -3.1088 H   0  0  0  0  0  0  0  0  0  0  0  0
   -3.0077   -0.8436   -5.4050 H   0  0  0  0  0  0  0  0  0  0  0  0
  1  2  1  0
  2  3  1  0
  3  4  1  0
  4  5  2  0
  4  6  1  0
  6  7  1  0
  7  8  1  0
  8  9  1  0
  8 10  1  0
  8 11  1  0
  2 12  1  0
 12 13  2  0
 12 14  1  0
 14 15  1  0
 15 16  1  0
 16 17  2  0
 17 18  1  0
 18 19  2  0
 19 20  1  0
 20 21  2  0
 21 22  1  0
 22 23  2  0
 23 24  1  0
 24 25  2  0
 25 26  1  0
 26 27  2  0
 27 28  1  0
 28 29  1  0
 29 30  1  0
 30 31  1  0
 28 32  1  0
 32 33  2  0
 32 15  1  0
 21 16  1  0
 27 22  1  0
  1 34  1  0
  1 35  1  0
  1 36  1  0
  2 37  1  1
  3 38  1  0
  6 39  1  0
  6 40  1  0
  7 41  1  0
  7 42  1  0
 14 43  1  0
 15 44  1  1
 17 45  1  0
 18 46  1  0
 19 47  1  0
 20 48  1  0
 23 49  1  0
 24 50  1  0
 25 51  1  0
 29 52  1  0
 29 53  1  0
 30 54  1  0
 30 55  1  0
 31 56  1  0
M  END
>  <CID>  (94) 
61

>  <Energy>  (94) 
64.37910517760912

$$$$

     RDKit          3D

 56 58  0  0  0  0  0  0  0  0999 V2000
    3.5452    1.7547   -2.1687 C   0  0  0  0  0  0  0  0  0  0  0  0
    3.0072    1.6007   -0.7478 C   0  0  2  0  0  0  0  0  0  0  0  0
    3.6226    0.4284   -0.1122 N   0  0  0  0  0  0  0  0  0  0  0  0
    3.9255    0.3976    1.2299 C   0  0  0  0  0  0  0  0  0  0  0  0
    3.5920    1.2777    2.0134 O   0  0  0  0  0  0  0  0  0  0  0  0
    4.6863   -0.8452    1.6412 C   0  0  0  0  0  0  0  0  0  0  0  0
    5.0448   -0.8240    3.1229 C   0  0  0  0  0  0  0  0  0  0  0  0
    5.8263   -2.0540    3.5094 C   0  0  0  0  0  0  0  0  0  0  0  0
    5.1121   -3.1760    3.2755 F   0  0  0  0  0  0  0  0  0  0  0  0
    6.9758   -2.1422    2.8070 F   0  0  0  0  0  0  0  0  0  0  0  0
    6.1440   -2.0333    4.8208 F   0  0  0  0  0  0  0  0  0  0  0  0
    1.4606    1.5757   -0.7825 C   0  0  0  0  0  0  0  0  0  0  0  0
    0.8228    2.4400   -1.3779 O   0  0  0  0  0  0  0  0  0  0  0  0
    0.8819    0.5562   -0.0571 N   0  0  0  0  0  0  0  0  0  0  0  0
   -0.5496    0.2364   -0.0374 C   0  0  1  0  0  0  0  0  0  0  0  0
   -1.4729    1.2313    0.6364 C   0  0  0  0  0  0  0  0  0  0  0  0
   -1.0600    2.5213    1.0266 C   0  0  0  0  0  0  0  0  0  0  0  0
   -1.9514    3.4458    1.5730 C   0  0  0  0  0  0  0  0  0  0  0  0
   -3.2796    3.0989    1.7447 C   0  0  0  0  0  0  0  0  0  0  0  0
   -3.6987    1.8139    1.4048 C   0  0  0  0  0  0  0  0  0  0  0  0
   -2.8059    0.8454    0.8834 C   0  0  0  0  0  0  0  0  0  0  0  0
   -3.2879   -0.5403    0.6752 C   0  0  0  0  0  0  0  0  0  0  0  0
   -4.0875   -1.1181    1.6916 C   0  0  0  0  0  0  0  0  0  0  0  0
   -4.6952   -2.3567    1.5300 C   0  0  0  0  0  0  0  0  0  0  0  0
   -4.4966   -3.0033    0.3365 C   0  0  0  0  0  0  0  0  0  0  0  0
   -3.7151   -2.5126   -0.6445 N   0  0  0  0  0  0  0  0  0  0  0  0
   -3.0746   -1.3230   -0.4722 C   0  0  0  0  0  0  0  0  0  0  0  0
   -2.1998   -0.9696   -1.5412 N   0  0  0  0  0  0  0  0  0  0  0  0
   -2.5044   -1.5548   -2.8590 C   0  0  0  0  0  0  0  0  0  0  0  0
   -3.5723   -0.7557   -3.6076 C   0  0  0  0  0  0  0  0  0  0  0  0
   -3.8369   -1.3548   -4.8734 O   0  0  0  0  0  0  0  0  0  0  0  0
   -1.0574   -0.1772   -1.4490 C   0  0  0  0  0  0  0  0  0  0  0  0
   -0.4149    0.1067   -2.4690 O   0  0  0  0  0  0  0  0  0  0  0  0
    3.1152    2.6291   -2.6717 H   0  0  0  0  0  0  0  0  0  0  0  0
    3.3035    0.8693   -2.7718 H   0  0  0  0  0  0  0  0  0  0  0  0
    4.6358    1.8687   -2.1621 H   0  0  0  0  0  0  0  0  0  0  0  0
    3.2845    2.4893   -0.1648 H   0  0  0  0  0  0  0  0  0  0  0  0
    3.8657   -0.3614   -0.7022 H   0  0  0  0  0  0  0  0  0  0  0  0
    4.0654   -1.7188    1.4089 H   0  0  0  0  0  0  0  0  0  0  0  0
    5.5960   -0.9041    1.0330 H   0  0  0  0  0  0  0  0  0  0  0  0
    5.6364    0.0692    3.3555 H   0  0  0  0  0  0  0  0  0  0  0  0
    4.1330   -0.7666    3.7298 H   0  0  0  0  0  0  0  0  0  0  0  0
    1.5014   -0.0140    0.4992 H   0  0  0  0  0  0  0  0  0  0  0  0
   -0.5659   -0.6769    0.5751 H   0  0  0  0  0  0  0  0  0  0  0  0
   -0.0316    2.8464    0.9019 H   0  0  0  0  0  0  0  0  0  0  0  0
   -1.6034    4.4396    1.8438 H   0  0  0  0  0  0  0  0  0  0  0  0
   -3.9857    3.8188    2.1497 H   0  0  0  0  0  0  0  0  0  0  0  0
   -4.7477    1.5662    1.5598 H   0  0  0  0  0  0  0  0  0  0  0  0
   -4.2495   -0.5883    2.6305 H   0  0  0  0  0  0  0  0  0  0  0  0
   -5.3132   -2.7881    2.3077 H   0  0  0  0  0  0  0  0  0  0  0  0
   -4.9550   -3.9654    0.1301 H   0  0  0  0  0  0  0  0  0  0  0  0
   -2.7881   -2.6103   -2.7739 H   0  0  0  0  0  0  0  0  0  0  0  0
   -1.5992   -1.5835   -3.4788 H   0  0  0  0  0  0  0  0  0  0  0  0
   -4.5090   -0.7256   -3.0429 H   0  0  0  0  0  0  0  0  0  0  0  0
   -3.2328    0.2734   -3.7729 H   0  0  0  0  0  0  0  0  0  0  0  0
   -4.4422   -0.7568   -5.3455 H   0  0  0  0  0  0  0  0  0  0  0  0
  1  2  1  0
  2  3  1  0
  3  4  1  0
  4  5  2  0
  4  6  1  0
  6  7  1  0
  7  8  1  0
  8  9  1  0
  8 10  1  0
  8 11  1  0
  2 12  1  0
 12 13  2  0
 12 14  1  0
 14 15  1  0
 15 16  1  0
 16 17  2  0
 17 18  1  0
 18 19  2  0
 19 20  1  0
 20 21  2  0
 21 22  1  0
 22 23  2  0
 23 24  1  0
 24 25  2  0
 25 26  1  0
 26 27  2  0
 27 28  1  0
 28 29  1  0
 29 30  1  0
 30 31  1  0
 28 32  1  0
 32 33  2  0
 32 15  1  0
 21 16  1  0
 27 22  1  0
  1 34  1  0
  1 35  1  0
  1 36  1  0
  2 37  1  1
  3 38  1  0
  6 39  1  0
  6 40  1  0
  7 41  1  0
  7 42  1  0
 14 43  1  0
 15 44  1  1
 17 45  1  0
 18 46  1  0
 19 47  1  0
 20 48  1  0
 23 49  1  0
 24 50  1  0
 25 51  1  0
 29 52  1  0
 29 53  1  0
 30 54  1  0
 30 55  1  0
 31 56  1  0
M  END
>  <CID>  (95) 
13

>  <Energy>  (95) 
66.2485704030401

$$$$

     RDKit          3D

 56 58  0  0  0  0  0  0  0  0999 V2000
    2.2569   -2.8635    0.7291 C   0  0  0  0  0  0  0  0  0  0  0  0
    1.8620   -1.4191    1.0262 C   0  0  2  0  0  0  0  0  0  0  0  0
    3.0797   -0.6588    1.3330 N   0  0  0  0  0  0  0  0  0  0  0  0
    3.5867    0.3316    0.5321 C   0  0  0  0  0  0  0  0  0  0  0  0
    3.0723    0.6958   -0.5180 O   0  0  0  0  0  0  0  0  0  0  0  0
    4.8533    0.9456    1.0868 C   0  0  0  0  0  0  0  0  0  0  0  0
    5.3226    2.1270    0.2469 C   0  0  0  0  0  0  0  0  0  0  0  0
    6.6136    2.6878    0.7851 C   0  0  0  0  0  0  0  0  0  0  0  0
    7.0219    3.7455    0.0548 F   0  0  0  0  0  0  0  0  0  0  0  0
    6.4713    3.1036    2.0625 F   0  0  0  0  0  0  0  0  0  0  0  0
    7.5974    1.7642    0.7583 F   0  0  0  0  0  0  0  0  0  0  0  0
    1.0039   -1.3595    2.3011 C   0  0  0  0  0  0  0  0  0  0  0  0
    1.5161   -1.5968    3.4037 O   0  0  0  0  0  0  0  0  0  0  0  0
   -0.3111   -1.0162    2.3044 N   0  0  0  0  0  0  0  0  0  0  0  0
   -1.2576   -0.5847    1.2625 C   0  0  1  0  0  0  0  0  0  0  0  0
   -1.0810    0.8174    0.7236 C   0  0  0  0  0  0  0  0  0  0  0  0
    0.0882    1.5710    0.9244 C   0  0  0  0  0  0  0  0  0  0  0  0
    0.2683    2.8103    0.3148 C   0  0  0  0  0  0  0  0  0  0  0  0
   -0.7266    3.3290   -0.4940 C   0  0  0  0  0  0  0  0  0  0  0  0
   -1.9152    2.6224   -0.6583 C   0  0  0  0  0  0  0  0  0  0  0  0
   -2.1339    1.3757   -0.0312 C   0  0  0  0  0  0  0  0  0  0  0  0
   -3.4678    0.7339   -0.1368 C   0  0  0  0  0  0  0  0  0  0  0  0
   -4.6066    1.5547    0.0292 C   0  0  0  0  0  0  0  0  0  0  0  0
   -5.8924    1.0663   -0.1554 C   0  0  0  0  0  0  0  0  0  0  0  0
   -6.0241   -0.2503   -0.5152 C   0  0  0  0  0  0  0  0  0  0  0  0
   -4.9756   -1.0810   -0.6566 N   0  0  0  0  0  0  0  0  0  0  0  0
   -3.7159   -0.6200   -0.4279 C   0  0  0  0  0  0  0  0  0  0  0  0
   -2.7005   -1.6140   -0.5358 N   0  0  0  0  0  0  0  0  0  0  0  0
   -3.0003   -2.7731   -1.3945 C   0  0  0  0  0  0  0  0  0  0  0  0
   -2.8829   -2.4436   -2.8831 C   0  0  0  0  0  0  0  0  0  0  0  0
   -3.1134   -3.6137   -3.6576 O   0  0  0  0  0  0  0  0  0  0  0  0
   -1.4713   -1.6005    0.1127 C   0  0  0  0  0  0  0  0  0  0  0  0
   -0.5857   -2.4047   -0.1915 O   0  0  0  0  0  0  0  0  0  0  0  0
    2.8151   -2.9260   -0.2108 H   0  0  0  0  0  0  0  0  0  0  0  0
    2.9070   -3.2650    1.5198 H   0  0  0  0  0  0  0  0  0  0  0  0
    1.3889   -3.5273    0.6663 H   0  0  0  0  0  0  0  0  0  0  0  0
    1.3549   -0.9638    0.1734 H   0  0  0  0  0  0  0  0  0  0  0  0
    3.5042   -0.8523    2.2320 H   0  0  0  0  0  0  0  0  0  0  0  0
    4.6611    1.2669    2.1175 H   0  0  0  0  0  0  0  0  0  0  0  0
    5.6230    0.1655    1.1141 H   0  0  0  0  0  0  0  0  0  0  0  0
    5.4671    1.8201   -0.7959 H   0  0  0  0  0  0  0  0  0  0  0  0
    4.5554    2.9105    0.2471 H   0  0  0  0  0  0  0  0  0  0  0  0
   -0.6786   -1.0240    3.2467 H   0  0  0  0  0  0  0  0  0  0  0  0
   -2.1975   -0.5787    1.8335 H   0  0  0  0  0  0  0  0  0  0  0  0
    0.8988    1.2025    1.5431 H   0  0  0  0  0  0  0  0  0  0  0  0
    1.1979    3.3540    0.4594 H   0  0  0  0  0  0  0  0  0  0  0  0
   -0.5810    4.2824   -0.9902 H   0  0  0  0  0  0  0  0  0  0  0  0
   -2.6844    3.0606   -1.2904 H   0  0  0  0  0  0  0  0  0  0  0  0
   -4.4922    2.6022    0.3030 H   0  0  0  0  0  0  0  0  0  0  0  0
   -6.7567    1.7026   -0.0359 H   0  0  0  0  0  0  0  0  0  0  0  0
   -6.9977   -0.6959   -0.6966 H   0  0  0  0  0  0  0  0  0  0  0  0
   -3.9921   -3.1826   -1.1605 H   0  0  0  0  0  0  0  0  0  0  0  0
   -2.3125   -3.6009   -1.1707 H   0  0  0  0  0  0  0  0  0  0  0  0
   -3.6161   -1.6856   -3.1804 H   0  0  0  0  0  0  0  0  0  0  0  0
   -1.8801   -2.0663   -3.1138 H   0  0  0  0  0  0  0  0  0  0  0  0
   -2.9368   -3.3814   -4.5844 H   0  0  0  0  0  0  0  0  0  0  0  0
  1  2  1  0
  2  3  1  0
  3  4  1  0
  4  5  2  0
  4  6  1  0
  6  7  1  0
  7  8  1  0
  8  9  1  0
  8 10  1  0
  8 11  1  0
  2 12  1  0
 12 13  2  0
 12 14  1  0
 14 15  1  0
 15 16  1  0
 16 17  2  0
 17 18  1  0
 18 19  2  0
 19 20  1  0
 20 21  2  0
 21 22  1  0
 22 23  2  0
 23 24  1  0
 24 25  2  0
 25 26  1  0
 26 27  2  0
 27 28  1  0
 28 29  1  0
 29 30  1  0
 30 31  1  0
 28 32  1  0
 32 33  2  0
 32 15  1  0
 21 16  1  0
 27 22  1  0
  1 34  1  0
  1 35  1  0
  1 36  1  0
  2 37  1  6
  3 38  1  0
  6 39  1  0
  6 40  1  0
  7 41  1  0
  7 42  1  0
 14 43  1  0
 15 44  1  1
 17 45  1  0
 18 46  1  0
 19 47  1  0
 20 48  1  0
 23 49  1  0
 24 50  1  0
 25 51  1  0
 29 52  1  0
 29 53  1  0
 30 54  1  0
 30 55  1  0
 31 56  1  0
M  END
>  <CID>  (96) 
14

>  <Energy>  (96) 
66.7300048894069

$$$$

     RDKit          3D

 56 58  0  0  0  0  0  0  0  0999 V2000
    2.1634    0.7365    2.9726 C   0  0  0  0  0  0  0  0  0  0  0  0
    2.3564   -0.0820    1.6984 C   0  0  2  0  0  0  0  0  0  0  0  0
    3.6347    0.2071    1.0629 N   0  0  0  0  0  0  0  0  0  0  0  0
    4.8148   -0.3016    1.5443 C   0  0  0  0  0  0  0  0  0  0  0  0
    4.8824   -0.9869    2.5577 O   0  0  0  0  0  0  0  0  0  0  0  0
    6.0255    0.0952    0.7313 C   0  0  0  0  0  0  0  0  0  0  0  0
    7.2618   -0.6822    1.1666 C   0  0  0  0  0  0  0  0  0  0  0  0
    8.5026   -0.1665    0.4839 C   0  0  0  0  0  0  0  0  0  0  0  0
    9.5823   -0.8911    0.8479 F   0  0  0  0  0  0  0  0  0  0  0  0
    8.7456    1.1216    0.8093 F   0  0  0  0  0  0  0  0  0  0  0  0
    8.3894   -0.2405   -0.8593 F   0  0  0  0  0  0  0  0  0  0  0  0
    1.2169    0.2370    0.7107 C   0  0  0  0  0  0  0  0  0  0  0  0
    1.3883    0.9885   -0.2468 O   0  0  0  0  0  0  0  0  0  0  0  0
    0.0257   -0.3726    1.0389 N   0  0  0  0  0  0  0  0  0  0  0  0
   -1.2934   -0.1459    0.4429 C   0  0  1  0  0  0  0  0  0  0  0  0
   -1.9071    1.2387    0.4255 C   0  0  0  0  0  0  0  0  0  0  0  0
   -1.1731    2.4266    0.6035 C   0  0  0  0  0  0  0  0  0  0  0  0
   -1.7646    3.6817    0.4703 C   0  0  0  0  0  0  0  0  0  0  0  0
   -3.1090    3.7771    0.1535 C   0  0  0  0  0  0  0  0  0  0  0  0
   -3.8624    2.6140   -0.0084 C   0  0  0  0  0  0  0  0  0  0  0  0
   -3.2928    1.3286    0.1471 C   0  0  0  0  0  0  0  0  0  0  0  0
   -4.1683    0.1311    0.0575 C   0  0  0  0  0  0  0  0  0  0  0  0
   -5.4284    0.1911    0.7028 C   0  0  0  0  0  0  0  0  0  0  0  0
   -6.3530   -0.8399    0.6026 C   0  0  0  0  0  0  0  0  0  0  0  0
   -6.0041   -1.9309   -0.1562 C   0  0  0  0  0  0  0  0  0  0  0  0
   -4.8179   -2.0403   -0.7821 N   0  0  0  0  0  0  0  0  0  0  0  0
   -3.8882   -1.0527   -0.6534 C   0  0  0  0  0  0  0  0  0  0  0  0
   -2.6481   -1.3289   -1.3067 N   0  0  0  0  0  0  0  0  0  0  0  0
   -2.6820   -2.3113   -2.4028 C   0  0  0  0  0  0  0  0  0  0  0  0
   -3.2964   -1.7540   -3.6875 C   0  0  0  0  0  0  0  0  0  0  0  0
   -3.3635   -2.7833   -4.6765 O   0  0  0  0  0  0  0  0  0  0  0  0
   -1.4052   -0.8061   -0.9555 C   0  0  0  0  0  0  0  0  0  0  0  0
   -0.4228   -0.9376   -1.6914 O   0  0  0  0  0  0  0  0  0  0  0  0
    2.2366    1.8087    2.7641 H   0  0  0  0  0  0  0  0  0  0  0  0
    1.1738    0.5557    3.4154 H   0  0  0  0  0  0  0  0  0  0  0  0
    2.9211    0.4910    3.7301 H   0  0  0  0  0  0  0  0  0  0  0  0
    2.3294   -1.1514    1.9320 H   0  0  0  0  0  0  0  0  0  0  0  0
    3.6037    0.7400    0.1978 H   0  0  0  0  0  0  0  0  0  0  0  0
    5.8177   -0.0847   -0.3297 H   0  0  0  0  0  0  0  0  0  0  0  0
    6.1769    1.1723    0.8681 H   0  0  0  0  0  0  0  0  0  0  0  0
    7.3976   -0.6175    2.2534 H   0  0  0  0  0  0  0  0  0  0  0  0
    7.1276   -1.7460    0.9237 H   0  0  0  0  0  0  0  0  0  0  0  0
    0.0366   -0.9794    1.8465 H   0  0  0  0  0  0  0  0  0  0  0  0
   -1.9160   -0.7478    1.1211 H   0  0  0  0  0  0  0  0  0  0  0  0
   -0.1100    2.4139    0.8182 H   0  0  0  0  0  0  0  0  0  0  0  0
   -1.1599    4.5827    0.5797 H   0  0  0  0  0  0  0  0  0  0  0  0
   -3.5737    4.7521    0.0272 H   0  0  0  0  0  0  0  0  0  0  0  0
   -4.9126    2.7243   -0.2707 H   0  0  0  0  0  0  0  0  0  0  0  0
   -5.7051    1.0699    1.2884 H   0  0  0  0  0  0  0  0  0  0  0  0
   -7.3245   -0.7740    1.0848 H   0  0  0  0  0  0  0  0  0  0  0  0
   -6.6826   -2.7676   -0.2929 H   0  0  0  0  0  0  0  0  0  0  0  0
   -3.2011   -3.2218   -2.0796 H   0  0  0  0  0  0  0  0  0  0  0  0
   -1.6683   -2.6630   -2.6325 H   0  0  0  0  0  0  0  0  0  0  0  0
   -2.6835   -0.9313   -4.0787 H   0  0  0  0  0  0  0  0  0  0  0  0
   -4.3106   -1.3808   -3.5140 H   0  0  0  0  0  0  0  0  0  0  0  0
   -3.6825   -2.3658   -5.4948 H   0  0  0  0  0  0  0  0  0  0  0  0
  1  2  1  0
  2  3  1  0
  3  4  1  0
  4  5  2  0
  4  6  1  0
  6  7  1  0
  7  8  1  0
  8  9  1  0
  8 10  1  0
  8 11  1  0
  2 12  1  0
 12 13  2  0
 12 14  1  0
 14 15  1  0
 15 16  1  0
 16 17  2  0
 17 18  1  0
 18 19  2  0
 19 20  1  0
 20 21  2  0
 21 22  1  0
 22 23  2  0
 23 24  1  0
 24 25  2  0
 25 26  1  0
 26 27  2  0
 27 28  1  0
 28 29  1  0
 29 30  1  0
 30 31  1  0
 28 32  1  0
 32 33  2  0
 32 15  1  0
 21 16  1  0
 27 22  1  0
  1 34  1  0
  1 35  1  0
  1 36  1  0
  2 37  1  1
  3 38  1  0
  6 39  1  0
  6 40  1  0
  7 41  1  0
  7 42  1  0
 14 43  1  0
 15 44  1  1
 17 45  1  0
 18 46  1  0
 19 47  1  0
 20 48  1  0
 23 49  1  0
 24 50  1  0
 25 51  1  0
 29 52  1  0
 29 53  1  0
 30 54  1  0
 30 55  1  0
 31 56  1  0
M  END
>  <CID>  (97) 
78

>  <Energy>  (97) 
67.42167763472497

$$$$

     RDKit          3D

 56 58  0  0  0  0  0  0  0  0999 V2000
    2.0020    1.5878    0.8770 C   0  0  0  0  0  0  0  0  0  0  0  0
    1.8571    0.1373    1.3150 C   0  0  2  0  0  0  0  0  0  0  0  0
    3.0682   -0.4779    1.8683 N   0  0  0  0  0  0  0  0  0  0  0  0
    4.3530   -0.5491    1.4324 C   0  0  0  0  0  0  0  0  0  0  0  0
    5.1259   -1.2727    2.0610 O   0  0  0  0  0  0  0  0  0  0  0  0
    4.8006    0.2429    0.2245 C   0  0  0  0  0  0  0  0  0  0  0  0
    6.2783    0.0273   -0.1005 C   0  0  0  0  0  0  0  0  0  0  0  0
    7.1794    0.8964    0.7496 C   0  0  0  0  0  0  0  0  0  0  0  0
    7.0268    0.6950    2.0702 F   0  0  0  0  0  0  0  0  0  0  0  0
    6.9336    2.2065    0.5077 F   0  0  0  0  0  0  0  0  0  0  0  0
    8.4775    0.6726    0.4433 F   0  0  0  0  0  0  0  0  0  0  0  0
    1.2842   -0.7230    0.1714 C   0  0  0  0  0  0  0  0  0  0  0  0
    1.9836   -1.1119   -0.7666 O   0  0  0  0  0  0  0  0  0  0  0  0
   -0.0321   -1.0690    0.1587 N   0  0  0  0  0  0  0  0  0  0  0  0
   -1.0811   -0.8330    1.1526 C   0  0  1  0  0  0  0  0  0  0  0  0
   -1.5430    0.6005    1.2195 C   0  0  0  0  0  0  0  0  0  0  0  0
   -1.4743    1.2938    2.4451 C   0  0  0  0  0  0  0  0  0  0  0  0
   -1.9538    2.5951    2.5561 C   0  0  0  0  0  0  0  0  0  0  0  0
   -2.5264    3.2103    1.4524 C   0  0  0  0  0  0  0  0  0  0  0  0
   -2.6134    2.5230    0.2397 C   0  0  0  0  0  0  0  0  0  0  0  0
   -2.1196    1.2092    0.0905 C   0  0  0  0  0  0  0  0  0  0  0  0
   -2.2176    0.5187   -1.2177 C   0  0  0  0  0  0  0  0  0  0  0  0
   -1.9092    1.2553   -2.3839 C   0  0  0  0  0  0  0  0  0  0  0  0
   -2.0728    0.7129   -3.6516 C   0  0  0  0  0  0  0  0  0  0  0  0
   -2.5568   -0.5693   -3.7352 C   0  0  0  0  0  0  0  0  0  0  0  0
   -2.8438   -1.3219   -2.6553 N   0  0  0  0  0  0  0  0  0  0  0  0
   -2.6395   -0.8150   -1.4104 C   0  0  0  0  0  0  0  0  0  0  0  0
   -2.8902   -1.7447   -0.3522 N   0  0  0  0  0  0  0  0  0  0  0  0
   -3.8477   -2.8246   -0.6329 C   0  0  0  0  0  0  0  0  0  0  0  0
   -5.2996   -2.3530   -0.5462 C   0  0  0  0  0  0  0  0  0  0  0  0
   -6.1833   -3.4438   -0.7879 O   0  0  0  0  0  0  0  0  0  0  0  0
   -2.3255   -1.7140    0.9167 C   0  0  0  0  0  0  0  0  0  0  0  0
   -2.8095   -2.3416    1.8658 O   0  0  0  0  0  0  0  0  0  0  0  0
    2.5000    1.6779   -0.0927 H   0  0  0  0  0  0  0  0  0  0  0  0
    1.0193    2.0530    0.7517 H   0  0  0  0  0  0  0  0  0  0  0  0
    2.5600    2.1724    1.6152 H   0  0  0  0  0  0  0  0  0  0  0  0
    1.1660    0.1187    2.1602 H   0  0  0  0  0  0  0  0  0  0  0  0
    2.9350   -1.0795    2.6732 H   0  0  0  0  0  0  0  0  0  0  0  0
    4.2089   -0.0797   -0.6355 H   0  0  0  0  0  0  0  0  0  0  0  0
    4.6148    1.3056    0.3985 H   0  0  0  0  0  0  0  0  0  0  0  0
    6.5619   -1.0252    0.0089 H   0  0  0  0  0  0  0  0  0  0  0  0
    6.4473    0.2917   -1.1512 H   0  0  0  0  0  0  0  0  0  0  0  0
   -0.2666   -1.6531   -0.6380 H   0  0  0  0  0  0  0  0  0  0  0  0
   -0.6577   -1.1426    2.1161 H   0  0  0  0  0  0  0  0  0  0  0  0
   -1.0592    0.8146    3.3306 H   0  0  0  0  0  0  0  0  0  0  0  0
   -1.8971    3.1206    3.5063 H   0  0  0  0  0  0  0  0  0  0  0  0
   -2.9184    4.2213    1.5339 H   0  0  0  0  0  0  0  0  0  0  0  0
   -3.0944    3.0292   -0.5964 H   0  0  0  0  0  0  0  0  0  0  0  0
   -1.5331    2.2746   -2.3085 H   0  0  0  0  0  0  0  0  0  0  0  0
   -1.8385    1.2823   -4.5439 H   0  0  0  0  0  0  0  0  0  0  0  0
   -2.7249   -1.0490   -4.6954 H   0  0  0  0  0  0  0  0  0  0  0  0
   -3.6440   -3.2874   -1.6059 H   0  0  0  0  0  0  0  0  0  0  0  0
   -3.7039   -3.6429    0.0845 H   0  0  0  0  0  0  0  0  0  0  0  0
   -5.5049   -1.5736   -1.2870 H   0  0  0  0  0  0  0  0  0  0  0  0
   -5.5132   -1.9474    0.4484 H   0  0  0  0  0  0  0  0  0  0  0  0
   -7.0883   -3.1020   -0.6887 H   0  0  0  0  0  0  0  0  0  0  0  0
  1  2  1  0
  2  3  1  0
  3  4  1  0
  4  5  2  0
  4  6  1  0
  6  7  1  0
  7  8  1  0
  8  9  1  0
  8 10  1  0
  8 11  1  0
  2 12  1  0
 12 13  2  0
 12 14  1  0
 14 15  1  0
 15 16  1  0
 16 17  2  0
 17 18  1  0
 18 19  2  0
 19 20  1  0
 20 21  2  0
 21 22  1  0
 22 23  2  0
 23 24  1  0
 24 25  2  0
 25 26  1  0
 26 27  2  0
 27 28  1  0
 28 29  1  0
 29 30  1  0
 30 31  1  0
 28 32  1  0
 32 33  2  0
 32 15  1  0
 21 16  1  0
 27 22  1  0
  1 34  1  0
  1 35  1  0
  1 36  1  0
  2 37  1  1
  3 38  1  0
  6 39  1  0
  6 40  1  0
  7 41  1  0
  7 42  1  0
 14 43  1  0
 15 44  1  1
 17 45  1  0
 18 46  1  0
 19 47  1  0
 20 48  1  0
 23 49  1  0
 24 50  1  0
 25 51  1  0
 29 52  1  0
 29 53  1  0
 30 54  1  0
 30 55  1  0
 31 56  1  0
M  END
>  <CID>  (98) 
16

>  <Energy>  (98) 
70.00449580142222

$$$$

     RDKit          3D

 56 58  0  0  0  0  0  0  0  0999 V2000
    0.8074   -2.2889    0.6101 C   0  0  0  0  0  0  0  0  0  0  0  0
    1.0249   -0.8807    1.1474 C   0  0  2  0  0  0  0  0  0  0  0  0
    2.4481   -0.6140    1.3305 N   0  0  0  0  0  0  0  0  0  0  0  0
    3.2389   -0.1453    0.3139 C   0  0  0  0  0  0  0  0  0  0  0  0
    2.8352    0.0227   -0.8319 O   0  0  0  0  0  0  0  0  0  0  0  0
    4.6649    0.1203    0.7396 C   0  0  0  0  0  0  0  0  0  0  0  0
    5.3993    0.9742   -0.2858 C   0  0  0  0  0  0  0  0  0  0  0  0
    6.8004    1.2831    0.1684 C   0  0  0  0  0  0  0  0  0  0  0  0
    7.4296    2.0852   -0.7151 F   0  0  0  0  0  0  0  0  0  0  0  0
    6.7921    1.9093    1.3643 F   0  0  0  0  0  0  0  0  0  0  0  0
    7.5352    0.1587    0.2945 F   0  0  0  0  0  0  0  0  0  0  0  0
    0.3610   -0.7506    2.5157 C   0  0  0  0  0  0  0  0  0  0  0  0
    0.9079   -1.2305    3.5175 O   0  0  0  0  0  0  0  0  0  0  0  0
   -0.8097   -0.1024    2.7087 N   0  0  0  0  0  0  0  0  0  0  0  0
   -1.7997    0.5729    1.8625 C   0  0  1  0  0  0  0  0  0  0  0  0
   -1.3410    1.6136    0.8850 C   0  0  0  0  0  0  0  0  0  0  0  0
   -1.0046    2.8902    1.4013 C   0  0  0  0  0  0  0  0  0  0  0  0
   -0.7196    3.9665    0.5685 C   0  0  0  0  0  0  0  0  0  0  0  0
   -0.7706    3.7902   -0.8015 C   0  0  0  0  0  0  0  0  0  0  0  0
   -1.0588    2.5276   -1.3203 C   0  0  0  0  0  0  0  0  0  0  0  0
   -1.3057    1.3997   -0.4969 C   0  0  0  0  0  0  0  0  0  0  0  0
   -1.4316    0.0672   -1.1272 C   0  0  0  0  0  0  0  0  0  0  0  0
   -0.5619   -0.2109   -2.2175 C   0  0  0  0  0  0  0  0  0  0  0  0
   -0.6472   -1.3765   -2.9652 C   0  0  0  0  0  0  0  0  0  0  0  0
   -1.6258   -2.2656   -2.6178 C   0  0  0  0  0  0  0  0  0  0  0  0
   -2.4531   -2.0678   -1.5721 N   0  0  0  0  0  0  0  0  0  0  0  0
   -2.3228   -0.9556   -0.7845 C   0  0  0  0  0  0  0  0  0  0  0  0
   -3.1742   -0.9765    0.3572 N   0  0  0  0  0  0  0  0  0  0  0  0
   -4.3065   -1.9378    0.3135 C   0  0  0  0  0  0  0  0  0  0  0  0
   -5.4867   -1.4146   -0.5183 C   0  0  0  0  0  0  0  0  0  0  0  0
   -5.2461   -1.4834   -1.9280 O   0  0  0  0  0  0  0  0  0  0  0  0
   -3.0531   -0.2384    1.5170 C   0  0  0  0  0  0  0  0  0  0  0  0
   -3.9208   -0.3258    2.4065 O   0  0  0  0  0  0  0  0  0  0  0  0
   -0.2586   -2.5172    0.5164 H   0  0  0  0  0  0  0  0  0  0  0  0
    1.2784   -2.4161   -0.3701 H   0  0  0  0  0  0  0  0  0  0  0  0
    1.2400   -3.0412    1.2815 H   0  0  0  0  0  0  0  0  0  0  0  0
    0.6489   -0.1365    0.4577 H   0  0  0  0  0  0  0  0  0  0  0  0
    2.8272   -0.7683    2.2600 H   0  0  0  0  0  0  0  0  0  0  0  0
    4.6509    0.6282    1.7098 H   0  0  0  0  0  0  0  0  0  0  0  0
    5.1690   -0.8472    0.8689 H   0  0  0  0  0  0  0  0  0  0  0  0
    5.4401    0.4596   -1.2532 H   0  0  0  0  0  0  0  0  0  0  0  0
    4.8525    1.9100   -0.4484 H   0  0  0  0  0  0  0  0  0  0  0  0
   -1.0899   -0.1734    3.6804 H   0  0  0  0  0  0  0  0  0  0  0  0
   -2.2562    1.2209    2.6354 H   0  0  0  0  0  0  0  0  0  0  0  0
   -0.9930    3.0603    2.4763 H   0  0  0  0  0  0  0  0  0  0  0  0
   -0.4851    4.9403    0.9908 H   0  0  0  0  0  0  0  0  0  0  0  0
   -0.5769    4.6230   -1.4726 H   0  0  0  0  0  0  0  0  0  0  0  0
   -1.0778    2.4294   -2.4061 H   0  0  0  0  0  0  0  0  0  0  0  0
    0.2255    0.4952   -2.4879 H   0  0  0  0  0  0  0  0  0  0  0  0
    0.0271   -1.5668   -3.7930 H   0  0  0  0  0  0  0  0  0  0  0  0
   -1.7733   -3.1915   -3.1661 H   0  0  0  0  0  0  0  0  0  0  0  0
   -3.9635   -2.9133   -0.0515 H   0  0  0  0  0  0  0  0  0  0  0  0
   -4.6694   -2.1311    1.3302 H   0  0  0  0  0  0  0  0  0  0  0  0
   -6.3757   -2.0263   -0.3149 H   0  0  0  0  0  0  0  0  0  0  0  0
   -5.7227   -0.3742   -0.2630 H   0  0  0  0  0  0  0  0  0  0  0  0
   -4.3229   -1.7801   -2.0593 H   0  0  0  0  0  0  0  0  0  0  0  0
  1  2  1  0
  2  3  1  0
  3  4  1  0
  4  5  2  0
  4  6  1  0
  6  7  1  0
  7  8  1  0
  8  9  1  0
  8 10  1  0
  8 11  1  0
  2 12  1  0
 12 13  2  0
 12 14  1  0
 14 15  1  0
 15 16  1  0
 16 17  2  0
 17 18  1  0
 18 19  2  0
 19 20  1  0
 20 21  2  0
 21 22  1  0
 22 23  2  0
 23 24  1  0
 24 25  2  0
 25 26  1  0
 26 27  2  0
 27 28  1  0
 28 29  1  0
 29 30  1  0
 30 31  1  0
 28 32  1  0
 32 33  2  0
 32 15  1  0
 21 16  1  0
 27 22  1  0
  1 34  1  0
  1 35  1  0
  1 36  1  0
  2 37  1  6
  3 38  1  0
  6 39  1  0
  6 40  1  0
  7 41  1  0
  7 42  1  0
 14 43  1  0
 15 44  1  1
 17 45  1  0
 18 46  1  0
 19 47  1  0
 20 48  1  0
 23 49  1  0
 24 50  1  0
 25 51  1  0
 29 52  1  0
 29 53  1  0
 30 54  1  0
 30 55  1  0
 31 56  1  0
M  END
>  <CID>  (99) 
56

>  <Energy>  (99) 
71.57249306389501

$$$$

     RDKit          3D

 56 58  0  0  0  0  0  0  0  0999 V2000
    2.1026   -0.3257    2.9932 C   0  0  0  0  0  0  0  0  0  0  0  0
    2.3680   -0.4470    1.4970 C   0  0  2  0  0  0  0  0  0  0  0  0
    3.6721    0.0888    1.1420 N   0  0  0  0  0  0  0  0  0  0  0  0
    4.8350   -0.6015    1.3636 C   0  0  0  0  0  0  0  0  0  0  0  0
    4.8654   -1.7121    1.8845 O   0  0  0  0  0  0  0  0  0  0  0  0
    6.0705    0.1290    0.8938 C   0  0  0  0  0  0  0  0  0  0  0  0
    7.3381   -0.5429    1.4039 C   0  0  0  0  0  0  0  0  0  0  0  0
    8.5658    0.1939    0.9365 C   0  0  0  0  0  0  0  0  0  0  0  0
    9.6862   -0.3995    1.4000 F   0  0  0  0  0  0  0  0  0  0  0  0
    8.5682    1.4739    1.3693 F   0  0  0  0  0  0  0  0  0  0  0  0
    8.6369    0.2171   -0.4122 F   0  0  0  0  0  0  0  0  0  0  0  0
    1.2865    0.3437    0.7277 C   0  0  0  0  0  0  0  0  0  0  0  0
    1.5297    1.4756    0.3203 O   0  0  0  0  0  0  0  0  0  0  0  0
    0.1159   -0.3523    0.5829 N   0  0  0  0  0  0  0  0  0  0  0  0
   -1.2341   -0.0055    0.1057 C   0  0  1  0  0  0  0  0  0  0  0  0
   -1.8550    1.3662   -0.0015 C   0  0  0  0  0  0  0  0  0  0  0  0
   -1.1629    2.5597   -0.2544 C   0  0  0  0  0  0  0  0  0  0  0  0
   -1.8280    3.7724   -0.4538 C   0  0  0  0  0  0  0  0  0  0  0  0
   -3.2124    3.8089   -0.4642 C   0  0  0  0  0  0  0  0  0  0  0  0
   -3.9282    2.6275   -0.2747 C   0  0  0  0  0  0  0  0  0  0  0  0
   -3.2748    1.4039   -0.0193 C   0  0  0  0  0  0  0  0  0  0  0  0
   -4.1005    0.1857    0.1745 C   0  0  0  0  0  0  0  0  0  0  0  0
   -5.1898    0.2567    1.0716 C   0  0  0  0  0  0  0  0  0  0  0  0
   -6.0702   -0.8074    1.2115 C   0  0  0  0  0  0  0  0  0  0  0  0
   -5.8498   -1.9273    0.4408 C   0  0  0  0  0  0  0  0  0  0  0  0
   -4.8071   -2.0537   -0.4083 N   0  0  0  0  0  0  0  0  0  0  0  0
   -3.9161   -1.0334   -0.5164 C   0  0  0  0  0  0  0  0  0  0  0  0
   -2.7961   -1.3052   -1.3686 N   0  0  0  0  0  0  0  0  0  0  0  0
   -2.9921   -2.3175   -2.4266 C   0  0  0  0  0  0  0  0  0  0  0  0
   -3.8087   -1.7711   -3.6037 C   0  0  0  0  0  0  0  0  0  0  0  0
   -3.0594   -0.8314   -4.3748 O   0  0  0  0  0  0  0  0  0  0  0  0
   -1.5244   -0.7486   -1.2212 C   0  0  0  0  0  0  0  0  0  0  0  0
   -0.6548   -0.8859   -2.0834 O   0  0  0  0  0  0  0  0  0  0  0  0
    2.2042    0.7174    3.3195 H   0  0  0  0  0  0  0  0  0  0  0  0
    1.0916   -0.6608    3.2485 H   0  0  0  0  0  0  0  0  0  0  0  0
    2.8180   -0.9232    3.5703 H   0  0  0  0  0  0  0  0  0  0  0  0
    2.3377   -1.4997    1.1920 H   0  0  0  0  0  0  0  0  0  0  0  0
    3.6773    0.9968    0.6833 H   0  0  0  0  0  0  0  0  0  0  0  0
    6.0587    0.1440   -0.2035 H   0  0  0  0  0  0  0  0  0  0  0  0
    6.0231    1.1653    1.2475 H   0  0  0  0  0  0  0  0  0  0  0  0
    7.3831   -1.5817    1.0542 H   0  0  0  0  0  0  0  0  0  0  0  0
    7.3228   -0.5816    2.5000 H   0  0  0  0  0  0  0  0  0  0  0  0
    0.1600   -1.3177    0.8706 H   0  0  0  0  0  0  0  0  0  0  0  0
   -1.7994   -0.5326    0.8908 H   0  0  0  0  0  0  0  0  0  0  0  0
   -0.0889    2.5923   -0.3552 H   0  0  0  0  0  0  0  0  0  0  0  0
   -1.2519    4.6764   -0.6401 H   0  0  0  0  0  0  0  0  0  0  0  0
   -3.7306    4.7461   -0.6487 H   0  0  0  0  0  0  0  0  0  0  0  0
   -5.0141    2.6722   -0.3366 H   0  0  0  0  0  0  0  0  0  0  0  0
   -5.3630    1.1603    1.6550 H   0  0  0  0  0  0  0  0  0  0  0  0
   -6.9186   -0.7522    1.8897 H   0  0  0  0  0  0  0  0  0  0  0  0
   -6.5096   -2.7873    0.5040 H   0  0  0  0  0  0  0  0  0  0  0  0
   -2.0146   -2.6438   -2.8004 H   0  0  0  0  0  0  0  0  0  0  0  0
   -3.4699   -3.2115   -2.0052 H   0  0  0  0  0  0  0  0  0  0  0  0
   -4.7292   -1.2820   -3.2718 H   0  0  0  0  0  0  0  0  0  0  0  0
   -4.0870   -2.5909   -4.2734 H   0  0  0  0  0  0  0  0  0  0  0  0
   -2.4764   -0.3409   -3.7655 H   0  0  0  0  0  0  0  0  0  0  0  0
  1  2  1  0
  2  3  1  0
  3  4  1  0
  4  5  2  0
  4  6  1  0
  6  7  1  0
  7  8  1  0
  8  9  1  0
  8 10  1  0
  8 11  1  0
  2 12  1  0
 12 13  2  0
 12 14  1  0
 14 15  1  0
 15 16  1  0
 16 17  2  0
 17 18  1  0
 18 19  2  0
 19 20  1  0
 20 21  2  0
 21 22  1  0
 22 23  2  0
 23 24  1  0
 24 25  2  0
 25 26  1  0
 26 27  2  0
 27 28  1  0
 28 29  1  0
 29 30  1  0
 30 31  1  0
 28 32  1  0
 32 33  2  0
 32 15  1  0
 21 16  1  0
 27 22  1  0
  1 34  1  0
  1 35  1  0
  1 36  1  0
  2 37  1  6
  3 38  1  0
  6 39  1  0
  6 40  1  0
  7 41  1  0
  7 42  1  0
 14 43  1  0
 15 44  1  1
 17 45  1  0
 18 46  1  0
 19 47  1  0
 20 48  1  0
 23 49  1  0
 24 50  1  0
 25 51  1  0
 29 52  1  0
 29 53  1  0
 30 54  1  0
 30 55  1  0
 31 56  1  0
M  END
>  <CID>  (100) 
42

>  <Energy>  (100) 
74.52570383245005

$$$$

     RDKit          3D

 56 58  0  0  0  0  0  0  0  0999 V2000
    1.7499   -0.0271    2.2412 C   0  0  0  0  0  0  0  0  0  0  0  0
    2.2618   -0.2507    0.8242 C   0  0  2  0  0  0  0  0  0  0  0  0
    3.6609    0.1403    0.6950 N   0  0  0  0  0  0  0  0  0  0  0  0
    4.6952   -0.6139    1.1895 C   0  0  0  0  0  0  0  0  0  0  0  0
    4.5374   -1.6640    1.8010 O   0  0  0  0  0  0  0  0  0  0  0  0
    6.0543   -0.0247    0.8862 C   0  0  0  0  0  0  0  0  0  0  0  0
    7.1749   -0.8237    1.5409 C   0  0  0  0  0  0  0  0  0  0  0  0
    8.5155   -0.1751    1.3064 C   0  0  0  0  0  0  0  0  0  0  0  0
    8.7898   -0.0772   -0.0131 F   0  0  0  0  0  0  0  0  0  0  0  0
    8.5554    1.0694    1.8294 F   0  0  0  0  0  0  0  0  0  0  0  0
    9.5047   -0.8917    1.8807 F   0  0  0  0  0  0  0  0  0  0  0  0
    1.4617    0.5774   -0.1958 C   0  0  0  0  0  0  0  0  0  0  0  0
    1.9941    1.3432   -1.0003 O   0  0  0  0  0  0  0  0  0  0  0  0
    0.1544    0.4396   -0.1956 N   0  0  0  0  0  0  0  0  0  0  0  0
   -1.3193    0.3173   -0.2265 C   0  0  1  0  0  0  0  0  0  0  0  0
   -2.0563    1.5871    0.1173 C   0  0  0  0  0  0  0  0  0  0  0  0
   -1.4210    2.8431    0.1610 C   0  0  0  0  0  0  0  0  0  0  0  0
   -2.1476    4.0043    0.4098 C   0  0  0  0  0  0  0  0  0  0  0  0
   -3.5185    3.9298    0.6071 C   0  0  0  0  0  0  0  0  0  0  0  0
   -4.1579    2.6907    0.5683 C   0  0  0  0  0  0  0  0  0  0  0  0
   -3.4457    1.4959    0.3372 C   0  0  0  0  0  0  0  0  0  0  0  0
   -4.1592    0.1955    0.3399 C   0  0  0  0  0  0  0  0  0  0  0  0
   -5.1055   -0.0433    1.3601 C   0  0  0  0  0  0  0  0  0  0  0  0
   -5.8899   -1.1896    1.3669 C   0  0  0  0  0  0  0  0  0  0  0  0
   -5.7220   -2.0826    0.3365 C   0  0  0  0  0  0  0  0  0  0  0  0
   -4.8207   -1.9126   -0.6505 N   0  0  0  0  0  0  0  0  0  0  0  0
   -4.0163   -0.8154   -0.6347 C   0  0  0  0  0  0  0  0  0  0  0  0
   -3.0509   -0.7752   -1.6838 N   0  0  0  0  0  0  0  0  0  0  0  0
   -3.3487   -1.5478   -2.8953 C   0  0  0  0  0  0  0  0  0  0  0  0
   -2.7413   -2.9574   -2.8588 C   0  0  0  0  0  0  0  0  0  0  0  0
   -1.3188   -2.9370   -2.7334 O   0  0  0  0  0  0  0  0  0  0  0  0
   -1.7951   -0.1893   -1.5997 C   0  0  0  0  0  0  0  0  0  0  0  0
   -1.0472   -0.0947   -2.5817 O   0  0  0  0  0  0  0  0  0  0  0  0
    0.7032   -0.3381    2.3390 H   0  0  0  0  0  0  0  0  0  0  0  0
    1.8095    1.0306    2.5231 H   0  0  0  0  0  0  0  0  0  0  0  0
    2.3331   -0.5987    2.9697 H   0  0  0  0  0  0  0  0  0  0  0  0
    2.1748   -1.3071    0.5542 H   0  0  0  0  0  0  0  0  0  0  0  0
    3.8506    0.9466    0.1044 H   0  0  0  0  0  0  0  0  0  0  0  0
    6.1859   -0.0159   -0.2025 H   0  0  0  0  0  0  0  0  0  0  0  0
    6.0676    1.0148    1.2375 H   0  0  0  0  0  0  0  0  0  0  0  0
    7.1890   -1.8428    1.1400 H   0  0  0  0  0  0  0  0  0  0  0  0
    6.9968   -0.9098    2.6182 H   0  0  0  0  0  0  0  0  0  0  0  0
    0.1482    0.9685   -1.0724 H   0  0  0  0  0  0  0  0  0  0  0  0
   -1.5225   -0.4520    0.5289 H   0  0  0  0  0  0  0  0  0  0  0  0
   -0.3511    2.9444   -0.0087 H   0  0  0  0  0  0  0  0  0  0  0  0
   -1.6418    4.9666    0.4363 H   0  0  0  0  0  0  0  0  0  0  0  0
   -4.0920    4.8350    0.7883 H   0  0  0  0  0  0  0  0  0  0  0  0
   -5.2362    2.6686    0.7118 H   0  0  0  0  0  0  0  0  0  0  0  0
   -5.2427    0.6779    2.1636 H   0  0  0  0  0  0  0  0  0  0  0  0
   -6.6193   -1.3670    2.1489 H   0  0  0  0  0  0  0  0  0  0  0  0
   -6.3166   -2.9895    0.2741 H   0  0  0  0  0  0  0  0  0  0  0  0
   -4.4314   -1.5935   -3.0634 H   0  0  0  0  0  0  0  0  0  0  0  0
   -2.9290   -1.0072   -3.7535 H   0  0  0  0  0  0  0  0  0  0  0  0
   -3.1369   -3.5423   -2.0228 H   0  0  0  0  0  0  0  0  0  0  0  0
   -2.9840   -3.4857   -3.7860 H   0  0  0  0  0  0  0  0  0  0  0  0
   -0.9838   -2.1441   -3.1967 H   0  0  0  0  0  0  0  0  0  0  0  0
  1  2  1  0
  2  3  1  0
  3  4  1  0
  4  5  2  0
  4  6  1  0
  6  7  1  0
  7  8  1  0
  8  9  1  0
  8 10  1  0
  8 11  1  0
  2 12  1  0
 12 13  2  0
 12 14  1  0
 14 15  1  0
 15 16  1  0
 16 17  2  0
 17 18  1  0
 18 19  2  0
 19 20  1  0
 20 21  2  0
 21 22  1  0
 22 23  2  0
 23 24  1  0
 24 25  2  0
 25 26  1  0
 26 27  2  0
 27 28  1  0
 28 29  1  0
 29 30  1  0
 30 31  1  0
 28 32  1  0
 32 33  2  0
 32 15  1  0
 21 16  1  0
 27 22  1  0
  1 34  1  0
  1 35  1  0
  1 36  1  0
  2 37  1  6
  3 38  1  0
  6 39  1  0
  6 40  1  0
  7 41  1  0
  7 42  1  0
 14 43  1  0
 15 44  1  1
 17 45  1  0
 18 46  1  0
 19 47  1  0
 20 48  1  0
 23 49  1  0
 24 50  1  0
 25 51  1  0
 29 52  1  0
 29 53  1  0
 30 54  1  0
 30 55  1  0
 31 56  1  0
M  END
>  <CID>  (101) 
98

>  <Energy>  (101) 
105.54913747358383

$$$$
