REMARK  Name = 5284607
REMARK  20 active torsions:
REMARK  status: ('A' for Active; 'I' for Inactive)
REMARK    1  A    between atoms: C_3  and  C_4
REMARK    2  A    between atoms: C_3  and  C_8
REMARK    3  A    between atoms: C_3  and  C_12
REMARK    4  A    between atoms: C_4  and  C_6
REMARK    5  A    between atoms: C_5  and  C_7
REMARK    6  A    between atoms: C_5  and  C_9
REMARK    7  A    between atoms: C_5  and  C_14
REMARK    8  A    between atoms: C_6  and  C_7
REMARK    9  A    between atoms: C_8  and  C_10
REMARK   10  A    between atoms: C_9  and  C_13
REMARK   11  A    between atoms: C_10  and  C_11
REMARK   12  A    between atoms: C_11  and  C_15
REMARK   13  A    between atoms: C_13  and  C_16
REMARK   14  A    between atoms: C_15  and  C_17
REMARK   15  A    between atoms: C_15  and  C_18
REMARK   16  A    between atoms: C_16  and  C_19
REMARK   17  A    between atoms: C_19  and  C_21
REMARK   18  A    between atoms: C_20  and  C_22
REMARK   19  A    between atoms: C_22  and  C_23
REMARK   20  A    between atoms: C_24  and  C_29
REMARK                            x       y       z     vdW  Elec       q    Type
REMARK                         _______ _______ _______ _____ _____    ______ ____
ROOT
ATOM      1  C   UNL     1      -0.350  -2.385  -2.443  0.00  0.00    +0.000 C 
ATOM      2  C   UNL     1       0.966  -2.103  -2.375  0.00  0.00    +0.000 C 
ATOM      3  C   UNL     1      -1.427  -1.364  -2.688  0.00  0.00    +0.000 C 
ENDROOT
BRANCH   1   4
ATOM      4  C   UNL     1      -0.828  -3.818  -2.310  0.00  0.00    +0.000 C 
BRANCH   4   5
ATOM      5  C   UNL     1      -1.732  -4.023  -1.089  0.00  0.00    +0.000 C 
BRANCH   5   6
ATOM      6  C   UNL     1      -0.981  -3.707   0.209  0.00  0.00    +0.000 C 
BRANCH   6   7
ATOM      7  C   UNL     1      -1.817  -3.831   1.500  0.00  0.00    +0.000 C 
ATOM      8  C   UNL     1      -2.311  -5.267   1.707  0.00  0.00    +0.000 C 
BRANCH   7   9
ATOM      9  C   UNL     1      -3.006  -2.855   1.592  0.00  0.00    +0.000 C 
BRANCH   9  10
ATOM     10  C   UNL     1      -2.601  -1.381   1.481  0.00  0.00    +0.000 C 
BRANCH  10  11
ATOM     11  C   UNL     1      -3.812  -0.461   1.673  0.00  0.00    +0.000 C 
BRANCH  11  12
ATOM     12  C   UNL     1      -3.454   1.037   1.597  0.00  0.00    +0.000 C 
ATOM     13  C   UNL     1      -4.506   1.917   2.278  0.00  0.00    +0.000 C 
BRANCH  12  14
ATOM     14  C   UNL     1      -3.194   1.487   0.142  0.00  0.00    +0.000 C 
BRANCH  14  15
ATOM     15  C   UNL     1      -2.744   2.943  -0.021  0.00  0.00    +0.000 C 
BRANCH  15  16
ATOM     16  C   UNL     1      -2.555   3.361  -1.485  0.00  0.00    +0.000 C 
BRANCH  16  17
ATOM     17  C   UNL     1      -2.040   4.794  -1.718  0.00  0.00    +0.000 C 
ATOM     18  C   UNL     1      -1.962   5.077  -3.221  0.00  0.00    +0.000 C 
ATOM     19  C   UNL     1      -0.673   5.035  -1.076  0.00  0.00    +0.000 C 
ENDBRANCH  16  17
ENDBRANCH  15  16
ENDBRANCH  14  15
ENDBRANCH  12  14
ENDBRANCH  11  12
ENDBRANCH  10  11
ENDBRANCH   9  10
ENDBRANCH   7   9
ENDBRANCH   6   7
ENDBRANCH   5   6
ENDBRANCH   4   5
ENDBRANCH   1   4
BRANCH   2  20
ATOM     20  C   UNL     1       1.627  -0.764  -2.521  0.00  0.00    +0.000 C 
BRANCH  20  23
ATOM     21  O   UNL     1       0.234   0.473  -0.482  0.00  0.00    +0.000 OA
ATOM     22  O   UNL     1       5.449  -0.150   0.468  0.00  0.00    +0.000 OA
ATOM     23  C   UNL     1       2.323  -0.344  -1.271  0.00  0.00    +0.000 C 
ATOM     24  C   UNL     1       3.634  -0.519  -1.022  0.00  0.00    +0.000 C 
ATOM     25  C   UNL     1       1.435   0.331  -0.274  0.00  0.00    +0.000 C 
ATOM     26  C   UNL     1       2.029   0.822   0.979  0.00  0.00    +0.000 A 
ATOM     27  C   UNL     1       3.387   0.655   1.229  0.00  0.00    +0.000 A 
ATOM     28  C   UNL     1       4.250  -0.017   0.244  0.00  0.00    +0.000 C 
ATOM     29  C   UNL     1       4.598  -1.226  -1.937  0.00  0.00    +0.000 C 
ATOM     30  C   UNL     1       1.218   1.462   1.925  0.00  0.00    +0.000 A 
ATOM     31  C   UNL     1       3.940   1.128   2.426  0.00  0.00    +0.000 A 
ATOM     32  C   UNL     1       1.771   1.932   3.117  0.00  0.00    +0.000 A 
ATOM     33  C   UNL     1       3.131   1.765   3.367  0.00  0.00    +0.000 A 
ENDBRANCH  20  23
ENDBRANCH   2  20
TORSDOF 14
