REMARK  Name = 71375225
REMARK  12 active torsions:
REMARK  status: ('A' for Active; 'I' for Inactive)
REMARK    1  A    between atoms: C_5  and  C_6
REMARK    2  A    between atoms: C_5  and  C_9
REMARK    3  A    between atoms: C_6  and  C_11
REMARK    4  A    between atoms: C_7  and  C_8
REMARK    5  A    between atoms: C_7  and  C_10
REMARK    6  A    between atoms: C_8  and  C_14
REMARK    7  A    between atoms: C_9  and  C_16
REMARK    8  A    between atoms: C_12  and  C_13
REMARK    9  A    between atoms: C_12  and  C_17
REMARK   10  A    between atoms: C_13  and  C_15
REMARK   11  A    between atoms: C_14  and  C_18
REMARK   12  A    between atoms: C_15  and  C_19
REMARK                            x       y       z     vdW  Elec       q    Type
REMARK                         _______ _______ _______ _____ _____    ______ ____
ROOT
ATOM      1  C   UNL     1       0.157   2.365   0.543  0.00  0.00    +0.000 C 
ENDROOT
BRANCH   1   2
ATOM      2  C   UNL     1       1.626   2.470   0.222  0.00  0.00    +0.000 C 
ATOM      3  C   UNL     1       2.582   1.560   0.483  0.00  0.00    +0.000 C 
BRANCH   2   5
ATOM      4  O   UNL     1       1.353   4.654  -0.714  0.00  0.00    +0.000 OA
ATOM      5  C   UNL     1       2.102   3.731  -0.414  0.00  0.00    +0.000 C 
ENDBRANCH   2   5
BRANCH   3   6
ATOM      6  C   UNL     1       2.395   0.206   1.112  0.00  0.00    +0.000 C 
BRANCH   6   7
ATOM      7  C   UNL     1       2.848  -0.907   0.159  0.00  0.00    +0.000 C 
BRANCH   7   8
ATOM      8  C   UNL     1       2.678  -2.299   0.763  0.00  0.00    +0.000 C 
BRANCH   8  10
ATOM      9  O   UNL     1       3.654  -3.270  -1.241  0.00  0.00    +0.000 OA
ATOM     10  C   UNL     1       3.129  -3.421  -0.142  0.00  0.00    +0.000 C 
ENDBRANCH   8  10
ENDBRANCH   7   8
ENDBRANCH   6   7
ENDBRANCH   3   6
ENDBRANCH   1   2
BRANCH   1  11
ATOM     11  C   UNL     1      -0.669   1.703  -0.567  0.00  0.00    +0.000 C 
BRANCH  11  12
ATOM     12  C   UNL     1      -2.128   1.591  -0.218  0.00  0.00    +0.000 C 
ATOM     13  C   UNL     1      -2.876   0.474  -0.220  0.00  0.00    +0.000 C 
BRANCH  13  15
ATOM     14  O   UNL     1      -5.108  -0.261   0.230  0.00  0.00    +0.000 OA
ATOM     15  C   UNL     1      -4.301   0.660   0.178  0.00  0.00    +0.000 C 
ENDBRANCH  13  15
BRANCH  13  16
ATOM     16  C   UNL     1      -2.413  -0.927  -0.522  0.00  0.00    +0.000 C 
BRANCH  16  17
ATOM     17  C   UNL     1      -1.960  -1.690   0.722  0.00  0.00    +0.000 C 
BRANCH  17  19
ATOM     18  O   UNL     1      -1.543  -3.546  -0.757  0.00  0.00    +0.000 OA
ATOM     19  C   UNL     1      -1.526  -3.092   0.383  0.00  0.00    +0.000 C 
ENDBRANCH  17  19
ENDBRANCH  16  17
ENDBRANCH  13  16
ENDBRANCH  11  12
ENDBRANCH   1  11
TORSDOF 12
