REMARK  Name = 447278
REMARK  23 active torsions:
REMARK  status: ('A' for Active; 'I' for Inactive)
REMARK    1  A    between atoms: P_1  and  O_3
REMARK    2  A    between atoms: P_1  and  O_4
REMARK    3  A    between atoms: P_1  and  O_5
REMARK    4  A    between atoms: P_2  and  O_4
REMARK    5  A    between atoms: P_2  and  O_7
REMARK    6  A    between atoms: P_2  and  O_8
REMARK    7  A    between atoms: O_3  and  C_22
REMARK    8  A    between atoms: N_10  and  C_11
REMARK    9  A    between atoms: N_10  and  C_16
REMARK   10  A    between atoms: N_10  and  C_21
REMARK   11  A    between atoms: C_11  and  C_12
REMARK   12  A    between atoms: C_12  and  C_17
REMARK   13  A    between atoms: C_13  and  C_14
REMARK   14  A    between atoms: C_13  and  C_15
REMARK   15  A    between atoms: C_14  and  C_23
REMARK   16  A    between atoms: C_15  and  C_19
REMARK   17  A    between atoms: C_16  and  C_22
REMARK   18  A    between atoms: C_18  and  C_20
REMARK   19  A    between atoms: C_18  and  C_25
REMARK   20  A    between atoms: C_20  and  C_24
REMARK   21  A    between atoms: C_24  and  C_26
REMARK   22  A    between atoms: C_27  and  C_28
REMARK   23  A    between atoms: C_27  and  C_29
REMARK                            x       y       z     vdW  Elec       q    Type
REMARK                         _______ _______ _______ _____ _____    ______ ____
ROOT
ATOM      1  N   UNL     1      -0.558  -2.763  -1.493  0.00  0.00    +0.000 NA
ATOM      2  C   UNL     1       0.018  -3.060  -2.805  0.00  0.00    +0.000 C 
ENDROOT
BRANCH   1   3
ATOM      3  C   UNL     1       0.395  -2.026  -0.670  0.00  0.00    +0.000 C 
BRANCH   3   4
ATOM      4  C   UNL     1       1.393  -2.986  -0.028  0.00  0.00    +0.000 C 
BRANCH   4   6
ATOM      5  C   UNL     1       3.711  -2.191   0.712  0.00  0.00    +0.000 C 
ATOM      6  C   UNL     1       2.372  -2.248   0.842  0.00  0.00    +0.000 C 
ATOM      7  C   UNL     1       4.495  -2.884  -0.368  0.00  0.00    +0.000 C 
BRANCH   5   8
ATOM      8  C   UNL     1       4.533  -1.349   1.670  0.00  0.00    +0.000 C 
BRANCH   8   9
ATOM      9  C   UNL     1       5.273  -0.190   0.991  0.00  0.00    +0.000 C 
BRANCH   9  11
ATOM     10  C   UNL     1       3.702   1.818   0.650  0.00  0.00    +0.000 C 
ATOM     11  C   UNL     1       4.343   0.711   0.225  0.00  0.00    +0.000 C 
ATOM     12  C   UNL     1       3.888   2.286   2.071  0.00  0.00    +0.000 C 
BRANCH  10  13
ATOM     13  C   UNL     1       2.751   2.649  -0.184  0.00  0.00    +0.000 C 
BRANCH  13  14
ATOM     14  C   UNL     1       1.288   2.204  -0.038  0.00  0.00    +0.000 C 
BRANCH  14  15
ATOM     15  C   UNL     1       0.379   3.071  -0.865  0.00  0.00    +0.000 C 
ATOM     16  C   UNL     1       0.028   2.918  -2.156  0.00  0.00    +0.000 C 
ATOM     17  C   UNL     1      -0.889   3.826  -2.925  0.00  0.00    +0.000 C 
ATOM     18  C   UNL     1       0.557   1.755  -2.954  0.00  0.00    +0.000 C 
ENDBRANCH  14  15
ENDBRANCH  13  14
ENDBRANCH  10  13
ENDBRANCH   9  11
ENDBRANCH   8   9
ENDBRANCH   5   8
ENDBRANCH   4   6
ENDBRANCH   3   4
ENDBRANCH   1   3
BRANCH   1  19
ATOM     19  C   UNL     1      -1.802  -2.006  -1.643  0.00  0.00    +0.000 C 
BRANCH  19  20
ATOM     20  C   UNL     1      -2.630  -2.076  -0.370  0.00  0.00    +0.000 C 
BRANCH  20  21
ATOM     21  O   UNL     1      -3.817  -1.316  -0.555  0.00  0.00    +0.000 OA
BRANCH  21  22
ATOM     22  P   UNL     1      -4.649  -0.798   0.730  0.00  0.00    +0.000 P 
ATOM     23  O   UNL     1      -5.882  -0.007   0.400  0.00  0.00    +0.000 OA
BRANCH  22  24
ATOM     24  O   UNL     1      -4.926  -2.134   1.599  0.00  0.00    +0.000 OA
ATOM     25  H   UNL     1      -5.537  -2.083   2.365  0.00  0.00    +0.000 HD
ENDBRANCH  22  24
BRANCH  22  26
ATOM     26  O   UNL     1      -3.566   0.005   1.622  0.00  0.00    +0.000 OA
BRANCH  26  27
ATOM     27  P   UNL     1      -2.758   1.374   1.329  0.00  0.00    +0.000 P 
ATOM     28  O   UNL     1      -2.271   1.525  -0.082  0.00  0.00    +0.000 OA
BRANCH  27  29
ATOM     29  O   UNL     1      -3.775   2.524   1.836  0.00  0.00    +0.000 OA
ATOM     30  H   UNL     1      -3.539   3.464   1.689  0.00  0.00    +0.000 HD
ENDBRANCH  27  29
BRANCH  27  31
ATOM     31  O   UNL     1      -1.603   1.366   2.460  0.00  0.00    +0.000 OA
ATOM     32  H   UNL     1      -0.923   2.074   2.450  0.00  0.00    +0.000 HD
ENDBRANCH  27  31
ENDBRANCH  26  27
ENDBRANCH  22  26
ENDBRANCH  21  22
ENDBRANCH  20  21
ENDBRANCH  19  20
ENDBRANCH   1  19
TORSDOF 18
