REMARK  Name = 5282182
REMARK  22 active torsions:
REMARK  status: ('A' for Active; 'I' for Inactive)
REMARK    1  A    between atoms: O_1  and  C_20
REMARK    2  A    between atoms: O_1  and  C_22
REMARK    3  A    between atoms: C_3  and  C_4
REMARK    4  A    between atoms: C_3  and  C_7
REMARK    5  A    between atoms: C_4  and  C_8
REMARK    6  A    between atoms: C_5  and  C_6
REMARK    7  A    between atoms: C_5  and  C_12
REMARK    8  A    between atoms: C_6  and  C_9
REMARK    9  A    between atoms: C_7  and  C_13
REMARK   10  A    between atoms: C_9  and  C_16
REMARK   11  A    between atoms: C_10  and  C_11
REMARK   12  A    between atoms: C_11  and  C_14
REMARK   13  A    between atoms: C_14  and  C_20
REMARK   14  A    between atoms: C_15  and  C_17
REMARK   15  A    between atoms: C_15  and  C_18
REMARK   16  A    between atoms: C_17  and  C_23
REMARK   17  A    between atoms: C_18  and  C_24
REMARK   18  A    between atoms: C_19  and  C_26
REMARK   19  A    between atoms: C_19  and  C_27
REMARK   20  A    between atoms: C_21  and  C_22
REMARK   21  A    between atoms: C_25  and  C_28
REMARK   22  A    between atoms: C_25  and  C_29
REMARK                            x       y       z     vdW  Elec       q    Type
REMARK                         _______ _______ _______ _____ _____    ______ ____
ROOT
ATOM      1  C   UNL     1       0.247  -1.601   1.046  0.00  0.00    +0.000 C 
ENDROOT
BRANCH   1   3
ATOM      2  C   UNL     1       2.053  -2.340  -0.612  0.00  0.00    +0.000 C 
ATOM      3  C   UNL     1       1.479  -2.342   0.608  0.00  0.00    +0.000 C 
ATOM      4  C   UNL     1       1.454  -1.525  -1.728  0.00  0.00    +0.000 C 
BRANCH   2   5
ATOM      5  C   UNL     1       3.297  -3.120  -0.980  0.00  0.00    +0.000 C 
BRANCH   5   6
ATOM      6  C   UNL     1       4.405  -2.211  -1.526  0.00  0.00    +0.000 C 
BRANCH   6   8
ATOM      7  C   UNL     1       5.411  -0.020  -0.672  0.00  0.00    +0.000 C 
ATOM      8  C   UNL     1       4.875  -1.241  -0.475  0.00  0.00    +0.000 C 
ATOM      9  C   UNL     1       5.595   0.510  -2.070  0.00  0.00    +0.000 C 
BRANCH   7  10
ATOM     10  C   UNL     1       5.813   0.921   0.443  0.00  0.00    +0.000 C 
BRANCH  10  11
ATOM     11  C   UNL     1       5.154   2.304   0.364  0.00  0.00    +0.000 C 
BRANCH  11  12
ATOM     12  C   UNL     1       3.660   2.260   0.518  0.00  0.00    +0.000 C 
ATOM     13  C   UNL     1       2.943   2.330   1.655  0.00  0.00    +0.000 C 
ATOM     14  C   UNL     1       3.636   2.458   2.986  0.00  0.00    +0.000 C 
ATOM     15  C   UNL     1       1.444   2.281   1.740  0.00  0.00    +0.000 C 
ENDBRANCH  11  12
ENDBRANCH  10  11
ENDBRANCH   7  10
ENDBRANCH   6   8
ENDBRANCH   5   6
ENDBRANCH   2   5
ENDBRANCH   1   3
BRANCH   1  16
ATOM     16  C   UNL     1      -1.013  -2.434   0.812  0.00  0.00    +0.000 C 
BRANCH  16  18
ATOM     17  O   UNL     1      -2.275  -0.563   1.716  0.00  0.00    +0.000 OA
ATOM     18  C   UNL     1      -2.258  -1.692   1.245  0.00  0.00    +0.000 C 
BRANCH  18  19
ATOM     19  O   UNL     1      -3.346  -2.490   1.038  0.00  0.00    +0.000 OA
BRANCH  19  20
ATOM     20  C   UNL     1      -4.605  -1.925   1.417  0.00  0.00    +0.000 C 
BRANCH  20  22
ATOM     21  C   UNL     1      -5.519   0.105   0.161  0.00  0.00    +0.000 C 
ATOM     22  C   UNL     1      -5.173  -1.195   0.242  0.00  0.00    +0.000 C 
ATOM     23  C   UNL     1      -5.343   1.007   1.356  0.00  0.00    +0.000 C 
BRANCH  21  24
ATOM     24  C   UNL     1      -6.122   0.765  -1.061  0.00  0.00    +0.000 C 
BRANCH  24  25
ATOM     25  C   UNL     1      -5.270   1.907  -1.631  0.00  0.00    +0.000 C 
BRANCH  25  26
ATOM     26  C   UNL     1      -3.897   1.452  -2.043  0.00  0.00    +0.000 C 
ATOM     27  C   UNL     1      -2.707   1.952  -1.660  0.00  0.00    +0.000 C 
ATOM     28  C   UNL     1      -2.509   3.086  -0.695  0.00  0.00    +0.000 C 
ATOM     29  C   UNL     1      -1.428   1.362  -2.193  0.00  0.00    +0.000 C 
ENDBRANCH  25  26
ENDBRANCH  24  25
ENDBRANCH  21  24
ENDBRANCH  20  22
ENDBRANCH  19  20
ENDBRANCH  18  19
ENDBRANCH  16  18
ENDBRANCH   1  16
TORSDOF 15
