REMARK  Name = 5282367
REMARK  17 active torsions:
REMARK  status: ('A' for Active; 'I' for Inactive)
REMARK    1  A    between atoms: C_3  and  C_4
REMARK    2  A    between atoms: C_3  and  C_8
REMARK    3  A    between atoms: C_4  and  C_12
REMARK    4  A    between atoms: C_5  and  C_7
REMARK    5  A    between atoms: C_6  and  C_9
REMARK    6  A    between atoms: C_6  and  C_10
REMARK    7  A    between atoms: C_7  and  C_13
REMARK    8  A    between atoms: C_8  and  C_21
REMARK    9  A    between atoms: C_9  and  C_23
REMARK   10  A    between atoms: C_10  and  C_18
REMARK   11  A    between atoms: C_11  and  C_24
REMARK   12  A    between atoms: C_17  and  C_19
REMARK   13  A    between atoms: C_17  and  C_27
REMARK   14  A    between atoms: C_19  and  C_22
REMARK   15  A    between atoms: C_22  and  C_28
REMARK   16  A    between atoms: C_31  and  C_32
REMARK   17  A    between atoms: C_31  and  C_33
REMARK                            x       y       z     vdW  Elec       q    Type
REMARK                         _______ _______ _______ _____ _____    ______ ____
ROOT
ATOM      1  C   UNL     1      -4.988  -0.733  -0.965  0.00  0.00    +0.000 C 
ATOM      2  C   UNL     1      -4.153   0.198  -1.468  0.00  0.00    +0.000 C 
ATOM      3  C   UNL     1      -5.892  -0.528   0.220  0.00  0.00    +0.000 C 
ENDROOT
BRANCH   1   4
ATOM      4  C   UNL     1      -5.042  -2.116  -1.588  0.00  0.00    +0.000 C 
BRANCH   4   5
ATOM      5  C   UNL     1      -4.086  -3.104  -0.909  0.00  0.00    +0.000 C 
BRANCH   5   7
ATOM      6  C   UNL     1      -1.783  -2.369  -0.053  0.00  0.00    +0.000 C 
ATOM      7  C   UNL     1      -2.657  -2.651  -1.039  0.00  0.00    +0.000 C 
ATOM      8  C   UNL     1      -2.208  -2.498   1.388  0.00  0.00    +0.000 C 
BRANCH   6   9
ATOM      9  C   UNL     1      -0.338  -1.970  -0.264  0.00  0.00    +0.000 C 
BRANCH   9  10
ATOM     10  C   UNL     1       0.677  -2.985   0.277  0.00  0.00    +0.000 C 
BRANCH  10  12
ATOM     11  C   UNL     1       3.120  -2.414   0.777  0.00  0.00    +0.000 C 
ATOM     12  C   UNL     1       2.099  -2.637  -0.072  0.00  0.00    +0.000 C 
ATOM     13  C   UNL     1       2.906  -2.501   2.265  0.00  0.00    +0.000 C 
BRANCH  11  14
ATOM     14  C   UNL     1       4.533  -2.090   0.349  0.00  0.00    +0.000 C 
BRANCH  14  15
ATOM     15  C   UNL     1       4.744  -0.587   0.152  0.00  0.00    +0.000 C 
BRANCH  15  16
ATOM     16  C   UNL     1       6.145  -0.291  -0.305  0.00  0.00    +0.000 C 
ATOM     17  C   UNL     1       6.529   0.245  -1.478  0.00  0.00    +0.000 C 
ATOM     18  C   UNL     1       7.952   0.517  -1.877  0.00  0.00    +0.000 C 
ATOM     19  C   UNL     1       5.507   0.612  -2.521  0.00  0.00    +0.000 C 
ENDBRANCH  15  16
ENDBRANCH  14  15
ENDBRANCH  11  14
ENDBRANCH  10  12
ENDBRANCH   9  10
ENDBRANCH   6   9
ENDBRANCH   5   7
ENDBRANCH   4   5
ENDBRANCH   1   4
BRANCH   2  20
ATOM     20  C   UNL     1      -3.944   1.611  -1.008  0.00  0.00    +0.000 C 
BRANCH  20  23
ATOM     21  O   UNL     1      -3.213   0.969   1.578  0.00  0.00    +0.000 OA
ATOM     22  O   UNL     1       0.711   3.074  -1.366  0.00  0.00    +0.000 OA
ATOM     23  C   UNL     1      -2.547   1.837  -0.533  0.00  0.00    +0.000 C 
ATOM     24  C   UNL     1      -1.552   2.349  -1.281  0.00  0.00    +0.000 C 
ATOM     25  C   UNL     1      -0.985   1.679   1.477  0.00  0.00    +0.000 A 
ATOM     26  C   UNL     1      -2.318   1.459   0.896  0.00  0.00    +0.000 C 
ATOM     27  C   UNL     1       0.039   2.223   0.709  0.00  0.00    +0.000 A 
ATOM     28  C   UNL     1      -0.195   2.585  -0.698  0.00  0.00    +0.000 C 
ATOM     29  C   UNL     1      -1.668   2.715  -2.737  0.00  0.00    +0.000 C 
ATOM     30  C   UNL     1      -0.748   1.338   2.815  0.00  0.00    +0.000 A 
ATOM     31  C   UNL     1       1.304   2.428   1.275  0.00  0.00    +0.000 A 
ATOM     32  C   UNL     1       0.512   1.543   3.377  0.00  0.00    +0.000 A 
ATOM     33  C   UNL     1       1.538   2.088   2.608  0.00  0.00    +0.000 A 
ENDBRANCH  20  23
ENDBRANCH   2  20
TORSDOF 11
