REMARK  Name = 5282176
REMARK  10 active torsions:
REMARK  status: ('A' for Active; 'I' for Inactive)
REMARK    1  A    between atoms: O_2  and  C_11
REMARK    2  A    between atoms: C_9  and  C_10
REMARK    3  A    between atoms: C_9  and  C_11
REMARK    4  A    between atoms: C_10  and  C_12
REMARK    5  A    between atoms: C_11  and  C_14
REMARK    6  A    between atoms: C_12  and  C_15
REMARK    7  A    between atoms: C_13  and  C_17
REMARK    8  A    between atoms: C_16  and  C_18
REMARK    9  A    between atoms: C_16  and  C_20
REMARK   10  A    between atoms: C_19  and  C_21
REMARK                            x       y       z     vdW  Elec       q    Type
REMARK                         _______ _______ _______ _____ _____    ______ ____
ROOT
ATOM      1  C   UNL     1       1.292   0.971  -0.022  0.00  0.00    +0.000 C 
ATOM      2  C   UNL     1       0.098   0.646   0.500  0.00  0.00    +0.000 C 
ENDROOT
BRANCH   1   4
ATOM      3  C   UNL     1       3.707   1.110  -0.104  0.00  0.00    +0.000 C 
ATOM      4  C   UNL     1       2.608   0.709   0.570  0.00  0.00    +0.000 C 
ATOM      5  C   UNL     1       2.642   0.008   1.903  0.00  0.00    +0.000 C 
BRANCH   3   6
ATOM      6  C   UNL     1       5.156   0.946   0.274  0.00  0.00    +0.000 C 
BRANCH   6   7
ATOM      7  O   UNL     1       5.716   2.250   0.458  0.00  0.00    +0.000 OA
ATOM      8  H   UNL     1       5.229   2.679   1.182  0.00  0.00    +0.000 HD
ENDBRANCH   6   7
BRANCH   6   9
ATOM      9  C   UNL     1       5.971   0.223  -0.809  0.00  0.00    +0.000 C 
BRANCH   9  10
ATOM     10  C   UNL     1       5.442  -1.154  -1.224  0.00  0.00    +0.000 C 
BRANCH  10  11
ATOM     11  C   UNL     1       5.446  -2.223  -0.129  0.00  0.00    +0.000 C 
ATOM     12  C   UNL     1       4.992  -3.591  -0.612  0.00  0.00    +0.000 C 
ENDBRANCH  10  11
ENDBRANCH   9  10
ENDBRANCH   6   9
ENDBRANCH   3   6
ENDBRANCH   1   4
BRANCH   2  14
ATOM     13  C   UNL     1      -2.344   0.619   0.361  0.00  0.00    +0.000 C 
ATOM     14  C   UNL     1      -1.155   0.943  -0.162  0.00  0.00    +0.000 C 
BRANCH  13  22
ATOM     15  O   UNL     1      -3.995  -1.639   1.265  0.00  0.00    +0.000 OA
ATOM     16  O   UNL     1      -3.561   1.968  -1.102  0.00  0.00    +0.000 OA
ATOM     17  N   UNL     1      -4.669   0.116  -0.217  0.00  0.00    +0.000 N 
ATOM     18  C   UNL     1      -6.749  -0.785  -0.793  0.00  0.00    +0.000 C 
ATOM     19  C   UNL     1      -5.951   0.496  -0.781  0.00  0.00    +0.000 C 
ATOM     20  C   UNL     1      -6.261  -1.506   0.449  0.00  0.00    +0.000 C 
ATOM     21  C   UNL     1      -4.819  -1.068   0.566  0.00  0.00    +0.000 C 
ATOM     22  C   UNL     1      -3.565   0.963  -0.390  0.00  0.00    +0.000 C 
ENDBRANCH  13  22
ENDBRANCH   2  14
TORSDOF 8
