REMARK  Name = 5315659
REMARK  15 active torsions:
REMARK  status: ('A' for Active; 'I' for Inactive)
REMARK    1  A    between atoms: O_1  and  C_12
REMARK    2  A    between atoms: O_2  and  C_13
REMARK    3  A    between atoms: C_3  and  C_4
REMARK    4  A    between atoms: C_3  and  C_5
REMARK    5  A    between atoms: C_4  and  C_6
REMARK    6  A    between atoms: C_5  and  C_7
REMARK    7  A    between atoms: C_7  and  C_18
REMARK    8  A    between atoms: C_8  and  C_9
REMARK    9  A    between atoms: C_9  and  C_16
REMARK   10  A    between atoms: C_14  and  C_15
REMARK   11  A    between atoms: C_14  and  C_19
REMARK   12  A    between atoms: C_15  and  C_17
REMARK   13  A    between atoms: C_17  and  C_20
REMARK   14  A    between atoms: C_21  and  C_22
REMARK   15  A    between atoms: C_21  and  C_23
REMARK                            x       y       z     vdW  Elec       q    Type
REMARK                         _______ _______ _______ _____ _____    ______ ____
ROOT
ATOM      1  C   UNL     1       1.958  -1.476  -0.268  0.00  0.00    +0.000 A 
ATOM      2  C   UNL     1      -0.780  -1.875  -0.039  0.00  0.00    +0.000 A 
ATOM      3  C   UNL     1       1.115  -1.154  -1.331  0.00  0.00    +0.000 A 
ATOM      4  C   UNL     1       1.426  -1.998   0.911  0.00  0.00    +0.000 A 
ATOM      5  C   UNL     1      -0.260  -1.354  -1.216  0.00  0.00    +0.000 A 
ATOM      6  C   UNL     1       0.050  -2.199   1.026  0.00  0.00    +0.000 A 
ENDROOT
BRANCH   5   7
ATOM      7  O   UNL     1      -1.069  -1.034  -2.266  0.00  0.00    +0.000 OA
ATOM      8  H   UNL     1      -0.525  -0.680  -2.990  0.00  0.00    +0.000 HD
ENDBRANCH   5   7
BRANCH   6   9
ATOM      9  O   UNL     1      -0.453  -2.711   2.184  0.00  0.00    +0.000 OA
ATOM     10  H   UNL     1      -1.380  -2.452   2.300  0.00  0.00    +0.000 HD
ENDBRANCH   6   9
BRANCH   1  11
ATOM     11  C   UNL     1       3.429  -1.261  -0.390  0.00  0.00    +0.000 C 
BRANCH  11  12
ATOM     12  C   UNL     1       3.908   0.129   0.068  0.00  0.00    +0.000 C 
BRANCH  12  13
ATOM     13  C   UNL     1       5.413   0.335  -0.134  0.00  0.00    +0.000 C 
BRANCH  13  14
ATOM     14  C   UNL     1       5.844   1.734   0.308  0.00  0.00    +0.000 C 
ATOM     15  C   UNL     1       7.330   1.959   0.073  0.00  0.00    +0.000 C 
ENDBRANCH  13  14
ENDBRANCH  12  13
ENDBRANCH  11  12
ENDBRANCH   1  11
BRANCH   2  16
ATOM     16  C   UNL     1      -2.267  -2.092   0.085  0.00  0.00    +0.000 C 
BRANCH  16  18
ATOM     17  C   UNL     1      -3.936  -0.149   0.046  0.00  0.00    +0.000 C 
ATOM     18  C   UNL     1      -2.975  -0.887   0.637  0.00  0.00    +0.000 C 
ATOM     19  C   UNL     1      -4.416  -0.506  -1.337  0.00  0.00    +0.000 C 
BRANCH  17  20
ATOM     20  C   UNL     1      -4.633   1.034   0.686  0.00  0.00    +0.000 C 
BRANCH  20  21
ATOM     21  C   UNL     1      -4.003   2.388   0.334  0.00  0.00    +0.000 C 
BRANCH  21  22
ATOM     22  C   UNL     1      -2.612   2.538   0.883  0.00  0.00    +0.000 C 
ATOM     23  C   UNL     1      -1.470   2.763   0.206  0.00  0.00    +0.000 C 
ATOM     24  C   UNL     1      -0.107   2.903   0.822  0.00  0.00    +0.000 C 
ATOM     25  C   UNL     1      -1.492   2.913  -1.292  0.00  0.00    +0.000 C 
ENDBRANCH  21  22
ENDBRANCH  20  21
ENDBRANCH  17  20
ENDBRANCH  16  18
ENDBRANCH   2  16
TORSDOF 11
