REMARK  Name = 
REMARK  25 active torsions:
REMARK  status: ('A' for Active; 'I' for Inactive)
REMARK    1  A    between atoms: C_1  and  C_2
REMARK    2  A    between atoms: C_2  and  C_3
REMARK    3  A    between atoms: C_4  and  C_5
REMARK    4  A    between atoms: C_5  and  C_6
REMARK    5  A    between atoms: C_6  and  C_7
REMARK    6  A    between atoms: C_7  and  C_8
REMARK    7  A    between atoms: C_9  and  C_10
REMARK    8  A    between atoms: C_10  and  C_11
REMARK    9  A    between atoms: C_11  and  C_12
REMARK   10  A    between atoms: C_12  and  C_13
REMARK   11  A    between atoms: C_14  and  C_15
REMARK   12  A    between atoms: C_15  and  C_16
REMARK   13  A    between atoms: C_16  and  C_17
REMARK   14  A    between atoms: C_17  and  C_18
REMARK   15  A    between atoms: C_19  and  C_20
REMARK   16  A    between atoms: C_20  and  C_21
REMARK   17  A    between atoms: C_21  and  C_22
REMARK   18  A    between atoms: C_22  and  C_23
REMARK   19  A    between atoms: C_24  and  C_25
REMARK   20  A    between atoms: C_25  and  C_26
REMARK   21  A    between atoms: C_26  and  C_27
REMARK   22  A    between atoms: C_27  and  C_28
REMARK   23  A    between atoms: C_29  and  C_30
REMARK   24  A    between atoms: C_30  and  C_31
REMARK   25  A    between atoms: C_32  and  C_33
REMARK                            x       y       z     vdW  Elec       q    Type
REMARK                         _______ _______ _______ _____ _____    ______ ____
ROOT
ATOM      1  C   UNL     1      -0.516   0.737   0.690  0.00  0.00    +0.000 C 
ATOM      2  C   UNL     1      -1.120   1.288   1.947  0.00  0.00    +0.000 C 
ATOM      3  C   UNL     1      -1.315  -0.017  -0.059  0.00  0.00    +0.000 C 
ENDROOT
BRANCH   1   4
ATOM      4  C   UNL     1       0.980   0.644   0.618  0.00  0.00    +0.000 C 
BRANCH   4   5
ATOM      5  C   UNL     1       1.373  -0.009  -0.676  0.00  0.00    +0.000 C 
BRANCH   5   8
ATOM      6  C   UNL     1       2.394  -1.852   0.632  0.00  0.00    +0.000 C 
ATOM      7  C   UNL     1       1.857  -1.231   1.887  0.00  0.00    +0.000 C 
ATOM      8  C   UNL     1       1.965  -1.351  -0.510  0.00  0.00    +0.000 C 
BRANCH   6   9
ATOM      9  C   UNL     1       3.709  -2.557   0.780  0.00  0.00    +0.000 C 
BRANCH   9  10
ATOM     10  C   UNL     1       4.578  -1.616   1.607  0.00  0.00    +0.000 C 
BRANCH  10  13
ATOM     11  C   UNL     1       5.670  -0.657  -0.405  0.00  0.00    +0.000 C 
ATOM     12  C   UNL     1       5.787  -2.039  -0.957  0.00  0.00    +0.000 C 
ATOM     13  C   UNL     1       5.104  -0.509   0.776  0.00  0.00    +0.000 C 
BRANCH  11  14
ATOM     14  C   UNL     1       6.509   0.411  -1.031  0.00  0.00    +0.000 C 
BRANCH  14  15
ATOM     15  C   UNL     1       7.756  -0.222  -1.635  0.00  0.00    +0.000 C 
BRANCH  15  18
ATOM     16  C   UNL     1       9.581  -0.502  -0.004  0.00  0.00    +0.000 C 
ATOM     17  C   UNL     1       9.636  -1.964  -0.332  0.00  0.00    +0.000 C 
ATOM     18  C   UNL     1       8.940   0.285  -0.878  0.00  0.00    +0.000 C 
BRANCH  16  19
ATOM     19  C   UNL     1      10.813   0.095   0.606  0.00  0.00    +0.000 C 
BRANCH  19  20
ATOM     20  C   UNL     1      11.851   0.264  -0.485  0.00  0.00    +0.000 C 
BRANCH  20  24
ATOM     21  C   UNL     1      14.046   1.277   1.066  0.00  0.00    +0.000 C 
ATOM     22  C   UNL     1      12.913   2.131   0.579  0.00  0.00    +0.000 C 
ATOM     23  C   UNL     1      11.995   2.649   1.646  0.00  0.00    +0.000 C 
ATOM     24  C   UNL     1      12.302   1.694  -0.530  0.00  0.00    +0.000 C 
ENDBRANCH  20  24
ENDBRANCH  19  20
ENDBRANCH  16  19
ENDBRANCH  15  18
ENDBRANCH  14  15
ENDBRANCH  11  14
ENDBRANCH  10  13
ENDBRANCH   9  10
ENDBRANCH   6   9
ENDBRANCH   5   8
ENDBRANCH   4   5
ENDBRANCH   1   4
BRANCH   3  25
ATOM     25  C   UNL     1      -2.452  -0.810   0.506  0.00  0.00    +0.000 C 
BRANCH  25  26
ATOM     26  C   UNL     1      -3.373  -1.190  -0.644  0.00  0.00    +0.000 C 
BRANCH  26  27
ATOM     27  C   UNL     1      -4.477  -0.175  -0.633  0.00  0.00    +0.000 C 
ATOM     28  C   UNL     1      -4.319   0.982  -1.573  0.00  0.00    +0.000 C 
ATOM     29  C   UNL     1      -4.962   0.130   0.577  0.00  0.00    +0.000 C 
BRANCH  29  30
ATOM     30  C   UNL     1      -6.002   1.172   0.708  0.00  0.00    +0.000 C 
BRANCH  30  31
ATOM     31  C   UNL     1      -7.272   0.592   0.196  0.00  0.00    +0.000 C 
ATOM     32  C   UNL     1      -7.562  -0.663   0.533  0.00  0.00    +0.000 C 
ATOM     33  C   UNL     1      -6.780  -1.403   1.563  0.00  0.00    +0.000 C 
ATOM     34  C   UNL     1      -8.826  -1.202   0.030  0.00  0.00    +0.000 C 
ATOM     35  O   UNL     1      -9.088  -2.430   0.189  0.00  0.00    +0.000 OA
ATOM     36  C   UNL     1      -9.880  -0.279  -0.406  0.00  0.00    +0.000 A 
ATOM     37  C   UNL     1     -11.194  -0.698  -0.552  0.00  0.00    +0.000 A 
ATOM     38  C   UNL     1     -12.216   0.213  -0.495  0.00  0.00    +0.000 A 
ATOM     39  C   UNL     1     -11.962   1.567  -0.497  0.00  0.00    +0.000 A 
ATOM     40  C   UNL     1     -10.660   1.983  -0.689  0.00  0.00    +0.000 A 
ATOM     41  C   UNL     1      -9.622   1.068  -0.620  0.00  0.00    +0.000 A 
ATOM     42  C   UNL     1      -8.247   1.502  -0.384  0.00  0.00    +0.000 C 
ATOM     43  O   UNL     1      -7.913   2.688  -0.646  0.00  0.00    +0.000 OA
ENDBRANCH  30  31
ENDBRANCH  29  30
ENDBRANCH  26  27
ENDBRANCH  25  26
ENDBRANCH   3  25
TORSDOF 17
