REMARK  Name = 5281249
REMARK  16 active torsions:
REMARK  status: ('A' for Active; 'I' for Inactive)
REMARK    1  A    between atoms: O_1  and  C_27
REMARK    2  A    between atoms: O_2  and  C_28
REMARK    3  A    between atoms: C_5  and  C_9
REMARK    4  A    between atoms: C_5  and  C_13
REMARK    5  A    between atoms: C_6  and  C_10
REMARK    6  A    between atoms: C_6  and  C_14
REMARK    7  A    between atoms: C_7  and  C_11
REMARK    8  A    between atoms: C_8  and  C_12
REMARK    9  A    between atoms: C_15  and  C_21
REMARK   10  A    between atoms: C_15  and  C_23
REMARK   11  A    between atoms: C_16  and  C_22
REMARK   12  A    between atoms: C_16  and  C_24
REMARK   13  A    between atoms: C_17  and  C_19
REMARK   14  A    between atoms: C_18  and  C_20
REMARK   15  A    between atoms: C_25  and  C_27
REMARK   16  A    between atoms: C_26  and  C_28
REMARK                            x       y       z     vdW  Elec       q    Type
REMARK                         _______ _______ _______ _____ _____    ______ ____
ROOT
ATOM      1  C   UNL     1      -0.738  -1.542  -0.129  0.00  0.00    +0.000 C 
ATOM      2  C   UNL     1       0.227  -0.629  -0.333  0.00  0.00    +0.000 C 
ENDROOT
BRANCH   1   4
ATOM      3  C   UNL     1      -3.126  -2.303  -0.085  0.00  0.00    +0.000 C 
ATOM      4  C   UNL     1      -2.170  -1.374  -0.294  0.00  0.00    +0.000 C 
ATOM      5  C   UNL     1      -2.761  -3.702   0.337  0.00  0.00    +0.000 C 
BRANCH   3   6
ATOM      6  C   UNL     1      -4.556  -2.103  -0.259  0.00  0.00    +0.000 C 
ATOM      7  C   UNL     1      -5.214  -0.988   0.093  0.00  0.00    +0.000 C 
BRANCH   7   9
ATOM      8  C   UNL     1      -7.384   0.293   0.241  0.00  0.00    +0.000 C 
ATOM      9  C   UNL     1      -6.638  -0.786  -0.080  0.00  0.00    +0.000 C 
ATOM     10  C   UNL     1      -6.696   1.498   0.835  0.00  0.00    +0.000 C 
BRANCH   8  11
ATOM     11  C   UNL     1      -8.828   0.374   0.014  0.00  0.00    +0.000 C 
ATOM     12  C   UNL     1      -9.616   1.419   0.313  0.00  0.00    +0.000 C 
BRANCH  12  14
ATOM     13  O   UNL     1     -11.674   0.517  -0.453  0.00  0.00    +0.000 OA
ATOM     14  C   UNL     1     -11.072   1.451   0.057  0.00  0.00    +0.000 C 
BRANCH  14  15
ATOM     15  O   UNL     1     -11.653   2.607   0.444  0.00  0.00    +0.000 OA
ATOM     16  H   UNL     1     -12.618   2.611   0.267  0.00  0.00    +0.000 HD
ENDBRANCH  14  15
ENDBRANCH  12  14
ENDBRANCH   8  11
ENDBRANCH   7   9
ENDBRANCH   3   6
ENDBRANCH   1   4
BRANCH   2  18
ATOM     17  C   UNL     1       2.628   0.116  -0.372  0.00  0.00    +0.000 C 
ATOM     18  C   UNL     1       1.658  -0.802  -0.167  0.00  0.00    +0.000 C 
ATOM     19  C   UNL     1       2.389   1.530  -0.840  0.00  0.00    +0.000 C 
BRANCH  17  20
ATOM     20  C   UNL     1       4.020  -0.281  -0.133  0.00  0.00    +0.000 C 
ATOM     21  C   UNL     1       5.112   0.487  -0.281  0.00  0.00    +0.000 C 
BRANCH  21  23
ATOM     22  C   UNL     1       7.621   0.738  -0.115  0.00  0.00    +0.000 C 
ATOM     23  C   UNL     1       6.465   0.049   0.000  0.00  0.00    +0.000 C 
ATOM     24  C   UNL     1       7.569   2.156  -0.632  0.00  0.00    +0.000 C 
BRANCH  22  25
ATOM     25  C   UNL     1       8.934   0.176   0.204  0.00  0.00    +0.000 C 
ATOM     26  C   UNL     1      10.111   0.816   0.107  0.00  0.00    +0.000 C 
BRANCH  26  28
ATOM     27  O   UNL     1      11.518  -0.954   0.830  0.00  0.00    +0.000 OA
ATOM     28  C   UNL     1      11.413   0.199   0.438  0.00  0.00    +0.000 C 
BRANCH  28  29
ATOM     29  O   UNL     1      12.458   1.037   0.260  0.00  0.00    +0.000 OA
ATOM     30  H   UNL     1      13.313   0.612   0.483  0.00  0.00    +0.000 HD
ENDBRANCH  28  29
ENDBRANCH  26  28
ENDBRANCH  22  25
ENDBRANCH  21  23
ENDBRANCH  17  20
ENDBRANCH   2  18
TORSDOF 12
