REMARK  Name = 
REMARK  3 active torsions:
REMARK  status: ('A' for Active; 'I' for Inactive)
REMARK    1  A    between atoms: C_5  and  C_6
REMARK    2  A    between atoms: C_9  and  N_10
REMARK    3  A    between atoms: C_21  and  C_22
REMARK                            x       y       z     vdW  Elec       q    Type
REMARK                         _______ _______ _______ _____ _____    ______ ____
ROOT
ATOM      1  C   UNL     1      -2.507   0.661   2.610  0.00  0.00    +0.000 A 
ATOM      2  N   UNL     1      -1.241   0.209   2.759  0.00  0.00    +0.000 NA
ATOM      3  N   UNL     1      -0.867  -0.361   1.615  0.00  0.00    +0.000 N 
ATOM      4  C   UNL     1       0.387  -0.502   1.134  0.00  0.00    +0.000 A 
ATOM      5  C   UNL     1       0.684  -0.375  -0.215  0.00  0.00    +0.000 A 
ATOM      6  C   UNL     1      -0.370  -0.485  -1.114  0.00  0.00    +0.000 A 
ATOM      7  N   UNL     1      -1.611  -0.572  -0.578  0.00  0.00    +0.000 NA
ATOM      8  C   UNL     1      -1.831  -0.144   0.688  0.00  0.00    +0.000 A 
ATOM      9  C   UNL     1      -2.950   0.376   1.325  0.00  0.00    +0.000 A 
ENDROOT
BRANCH   9  10
ATOM     10  C   UNL     1      -4.331   0.150   0.905  0.00  0.00    +0.000 A 
ATOM     11  C   UNL     1      -5.311  -0.126   1.849  0.00  0.00    +0.000 A 
ATOM     12  C   UNL     1      -6.649   0.170   1.629  0.00  0.00    +0.000 A 
ATOM     13  N   UNL     1      -7.039   0.286   0.339  0.00  0.00    +0.000 NA
ATOM     14  C   UNL     1      -6.096   0.438  -0.623  0.00  0.00    +0.000 A 
ATOM     15  C   UNL     1      -6.517   0.751  -1.910  0.00  0.00    +0.000 A 
ATOM     16  C   UNL     1      -5.557   1.060  -2.865  0.00  0.00    +0.000 A 
ATOM     17  C   UNL     1      -4.410   1.682  -2.387  0.00  0.00    +0.000 A 
ATOM     18  C   UNL     1      -4.010   1.534  -1.065  0.00  0.00    +0.000 A 
ATOM     19  C   UNL     1      -4.761   0.647  -0.308  0.00  0.00    +0.000 A 
ENDBRANCH   9  10
BRANCH   5  20
ATOM     20  C   UNL     1       2.073  -0.246  -0.675  0.00  0.00    +0.000 A 
ATOM     21  C   UNL     1       3.021  -1.211  -0.380  0.00  0.00    +0.000 A 
ATOM     22  C   UNL     1       4.358  -0.923  -0.310  0.00  0.00    +0.000 A 
ATOM     23  C   UNL     1       4.749   0.400  -0.459  0.00  0.00    +0.000 A 
ATOM     24  C   UNL     1       3.914   1.206  -1.223  0.00  0.00    +0.000 A 
ATOM     25  C   UNL     1       2.548   0.984  -1.099  0.00  0.00    +0.000 A 
BRANCH  23  26
ATOM     26  N   UNL     1       6.091   0.779  -0.148  0.00  0.00    +0.000 N 
ATOM     27  C   UNL     1       7.047   0.705  -1.250  0.00  0.00    +0.000 C 
ATOM     28  C   UNL     1       8.428   0.766  -0.609  0.00  0.00    +0.000 C 
ATOM     29  N   UNL     1       8.611  -0.478   0.135  0.00  0.00    +0.000 NA
ATOM     30  C   UNL     1       7.506  -0.716   1.049  0.00  0.00    +0.000 C 
ATOM     31  C   UNL     1       6.641   0.519   1.179  0.00  0.00    +0.000 C 
ATOM     32  H   UNL     1       9.477  -0.421   0.670  0.00  0.00    +0.000 HD
ENDBRANCH  23  26
ENDBRANCH   5  20
TORSDOF 3
