REMARK  Name = 65999
REMARK  11 active torsions:
REMARK  status: ('A' for Active; 'I' for Inactive)
REMARK    1  A    between atoms: O_1  and  C_39
REMARK    2  A    between atoms: N_3  and  C_10
REMARK    3  A    between atoms: N_5  and  C_25
REMARK    4  A    between atoms: C_8  and  C_11
REMARK    5  A    between atoms: C_10  and  C_17
REMARK    6  A    between atoms: C_11  and  C_18
REMARK    7  A    between atoms: C_12  and  C_16
REMARK    8  A    between atoms: C_14  and  C_19
REMARK    9  A    between atoms: C_18  and  C_24
REMARK   10  A    between atoms: C_26  and  C_31
REMARK   11  A    between atoms: C_34  and  C_39
REMARK                            x       y       z     vdW  Elec       q    Type
REMARK                         _______ _______ _______ _____ _____    ______ ____
ROOT
ATOM      1  N   UNL     1      -0.042   2.546  -0.755  0.00  0.00    +0.000 N 
ATOM      2  N   UNL     1      -0.501   3.862   0.977  0.00  0.00    +0.000 NA
ATOM      3  C   UNL     1      -1.161   2.008  -0.173  0.00  0.00    +0.000 A 
ATOM      4  C   UNL     1       0.313   3.651  -0.033  0.00  0.00    +0.000 A 
ATOM      5  C   UNL     1      -1.427   2.847   0.906  0.00  0.00    +0.000 A 
ATOM      6  C   UNL     1      -3.034   0.635   0.344  0.00  0.00    +0.000 A 
ATOM      7  C   UNL     1      -1.939   0.893  -0.487  0.00  0.00    +0.000 A 
ATOM      8  C   UNL     1      -2.532   2.572   1.730  0.00  0.00    +0.000 A 
ATOM      9  C   UNL     1      -3.327   1.458   1.433  0.00  0.00    +0.000 A 
ATOM     10  C   UNL     1      -2.886   3.423   2.906  0.00  0.00    +0.000 C 
ENDROOT
BRANCH   6  13
ATOM     11  N   UNL     1      -3.649  -1.747   0.595  0.00  0.00    +0.000 N 
ATOM     12  N   UNL     1      -4.939  -0.489  -0.707  0.00  0.00    +0.000 NA
ATOM     13  C   UNL     1      -3.876  -0.505   0.067  0.00  0.00    +0.000 A 
ATOM     14  C   UNL     1      -4.629  -2.586   0.130  0.00  0.00    +0.000 A 
ATOM     15  C   UNL     1      -5.421  -1.778  -0.680  0.00  0.00    +0.000 A 
ATOM     16  C   UNL     1      -2.572  -2.121   1.485  0.00  0.00    +0.000 C 
ATOM     17  C   UNL     1      -4.883  -3.942   0.343  0.00  0.00    +0.000 A 
ATOM     18  C   UNL     1      -6.537  -2.338  -1.325  0.00  0.00    +0.000 A 
ATOM     19  C   UNL     1      -5.997  -4.483  -0.306  0.00  0.00    +0.000 A 
ATOM     20  C   UNL     1      -6.811  -3.697  -1.126  0.00  0.00    +0.000 A 
ENDBRANCH   6  13
BRANCH   1  21
ATOM     21  C   UNL     1       0.637   2.034  -1.923  0.00  0.00    +0.000 C 
BRANCH  21  22
ATOM     22  C   UNL     1       1.706   1.043  -1.547  0.00  0.00    +0.000 A 
ATOM     23  C   UNL     1       1.386  -0.305  -1.450  0.00  0.00    +0.000 A 
ATOM     24  C   UNL     1       2.997   1.490  -1.301  0.00  0.00    +0.000 A 
ATOM     25  C   UNL     1       3.677  -0.784  -0.852  0.00  0.00    +0.000 A 
ATOM     26  C   UNL     1       2.376  -1.222  -1.101  0.00  0.00    +0.000 A 
ATOM     27  C   UNL     1       3.987   0.572  -0.951  0.00  0.00    +0.000 A 
BRANCH  25  28
ATOM     28  C   UNL     1       4.705  -1.736  -0.490  0.00  0.00    +0.000 A 
ATOM     29  C   UNL     1       4.950  -2.068   0.845  0.00  0.00    +0.000 A 
ATOM     30  C   UNL     1       5.461  -2.330  -1.502  0.00  0.00    +0.000 A 
ATOM     31  C   UNL     1       5.948  -2.989   1.164  0.00  0.00    +0.000 A 
ATOM     32  C   UNL     1       6.458  -3.251  -1.182  0.00  0.00    +0.000 A 
ATOM     33  C   UNL     1       6.702  -3.581   0.151  0.00  0.00    +0.000 A 
BRANCH  29  35
ATOM     34  O   UNL     1       3.013  -1.095   1.857  0.00  0.00    +0.000 OA
ATOM     35  C   UNL     1       4.184  -1.474   1.934  0.00  0.00    +0.000 C 
BRANCH  35  36
ATOM     36  O   UNL     1       4.908  -1.376   3.081  0.00  0.00    +0.000 OA
ATOM     37  H   UNL     1       4.386  -0.977   3.809  0.00  0.00    +0.000 HD
ENDBRANCH  35  36
ENDBRANCH  29  35
ENDBRANCH  25  28
ENDBRANCH  21  22
ENDBRANCH   1  21
BRANCH   4  38
ATOM     38  C   UNL     1       1.484   4.480  -0.388  0.00  0.00    +0.000 C 
BRANCH  38  39
ATOM     39  C   UNL     1       1.177   5.990  -0.340  0.00  0.00    +0.000 C 
ATOM     40  C   UNL     1       0.094   6.395  -1.327  0.00  0.00    +0.000 C 
ENDBRANCH  38  39
ENDBRANCH   4  38
TORSDOF 8
