REMARK  Name = 10249180
REMARK  4 active torsions:
REMARK  status: ('A' for Active; 'I' for Inactive)
REMARK    1  A    between atoms: N_3  and  C_7
REMARK    2  A    between atoms: N_3  and  C_11
REMARK    3  A    between atoms: C_9  and  C_12
REMARK    4  A    between atoms: C_11  and  C_13
REMARK                            x       y       z     vdW  Elec       q    Type
REMARK                         _______ _______ _______ _____ _____    ______ ____
ROOT
ATOM      1 BR   UNL     1       3.166  -4.521   0.122  0.00  0.00    +0.000 Br
ATOM      2  N   UNL     1       0.155  -1.803   0.027  0.00  0.00    +0.000 N 
ATOM      3  N   UNL     1       2.461  -1.109   0.036  0.00  0.00    +0.000 NA
ATOM      4  N   UNL     1      -0.585  -2.948   0.047  0.00  0.00    +0.000 NA
ATOM      5  C   UNL     1      -0.311  -0.480  -0.015  0.00  0.00    +0.000 A 
ATOM      6  C   UNL     1       1.520  -2.092   0.048  0.00  0.00    +0.000 A 
ATOM      7  C   UNL     1       2.030   0.119   0.011  0.00  0.00    +0.000 A 
ATOM      8  C   UNL     1       0.588   0.519  -0.028  0.00  0.00    +0.000 A 
ATOM      9  C   UNL     1       1.632  -3.463   0.081  0.00  0.00    +0.000 A 
ATOM     10  C   UNL     1       0.313  -3.931   0.079  0.00  0.00    +0.000 A 
ENDROOT
BRANCH   7  11
ATOM     11  C   UNL     1       3.023   1.226   0.002  0.00  0.00    +0.000 A 
ATOM     12  C   UNL     1       2.696   2.456   0.568  0.00  0.00    +0.000 A 
ATOM     13  C   UNL     1       4.276   1.029  -0.573  0.00  0.00    +0.000 A 
ATOM     14  C   UNL     1       3.627   3.494   0.560  0.00  0.00    +0.000 A 
ATOM     15  C   UNL     1       5.208   2.067  -0.581  0.00  0.00    +0.000 A 
ATOM     16  C   UNL     1       4.883   3.300  -0.015  0.00  0.00    +0.000 A 
ENDBRANCH   7  11
BRANCH   5  17
ATOM     17  N   UNL     1      -1.663  -0.288  -0.049  0.00  0.00    +0.000 N 
ATOM     18  H   UNL     1      -2.255  -1.112  -0.047  0.00  0.00    +0.000 HD
BRANCH  17  19
ATOM     19  C   UNL     1      -2.252   1.017  -0.102  0.00  0.00    +0.000 C 
BRANCH  19  21
ATOM     20  N   UNL     1      -5.788   0.929   1.200  0.00  0.00    +0.000 NA
ATOM     21  C   UNL     1      -3.753   0.957  -0.082  0.00  0.00    +0.000 A 
ATOM     22  C   UNL     1      -4.468   0.874  -1.263  0.00  0.00    +0.000 A 
ATOM     23  C   UNL     1      -4.440   0.981   1.112  0.00  0.00    +0.000 A 
ATOM     24  C   UNL     1      -5.856   0.819  -1.214  0.00  0.00    +0.000 A 
ATOM     25  C   UNL     1      -6.463   0.849   0.031  0.00  0.00    +0.000 A 
ENDBRANCH  19  21
ENDBRANCH  17  19
ENDBRANCH   5  17
TORSDOF 4
