REMARK  Name = 5330286
REMARK  5 active torsions:
REMARK  status: ('A' for Active; 'I' for Inactive)
REMARK    1  A    between atoms: N_3  and  C_10
REMARK    2  A    between atoms: N_5  and  C_28
REMARK    3  A    between atoms: C_18  and  C_22
REMARK    4  A    between atoms: C_19  and  C_21
REMARK    5  A    between atoms: C_22  and  C_29
REMARK                            x       y       z     vdW  Elec       q    Type
REMARK                         _______ _______ _______ _____ _____    ______ ____
ROOT
ATOM      1  O   UNL     1      -3.988   2.398  -0.016  0.00  0.00    +0.000 OA
ATOM      2  N   UNL     1      -2.398   0.720  -0.011  0.00  0.00    +0.000 N 
ATOM      3  N   UNL     1      -0.790  -1.051   0.029  0.00  0.00    +0.000 NA
ATOM      4  N   UNL     1      -1.465  -3.347   0.085  0.00  0.00    +0.000 NA
ATOM      5  N   UNL     1       0.805  -2.770   0.082  0.00  0.00    +0.000 N 
ATOM      6  N   UNL     1       1.965  -0.689   0.035  0.00  0.00    +0.000 NA
ATOM      7  C   UNL     1      -2.094  -0.669   0.012  0.00  0.00    +0.000 A 
ATOM      8  C   UNL     1      -3.701   1.199  -0.009  0.00  0.00    +0.000 A 
ATOM      9  C   UNL     1      -3.140  -1.583   0.022  0.00  0.00    +0.000 A 
ATOM     10  C   UNL     1      -4.812   0.186   0.001  0.00  0.00    +0.000 A 
ATOM     11  C   UNL     1      -4.552  -1.138  -0.005  0.00  0.00    +0.000 A 
ATOM     12  C   UNL     1      -2.745  -2.919   0.064  0.00  0.00    +0.000 A 
ATOM     13  C   UNL     1      -5.592  -2.234  -0.052  0.00  0.00    +0.000 C 
ATOM     14  C   UNL     1      -0.549  -2.372   0.064  0.00  0.00    +0.000 A 
ATOM     15  C   UNL     1       4.382  -0.676   0.051  0.00  0.00    +0.000 A 
ATOM     16  C   UNL     1       2.011  -2.044   0.071  0.00  0.00    +0.000 A 
ATOM     17  C   UNL     1       4.397  -2.066   0.087  0.00  0.00    +0.000 A 
ATOM     18  C   UNL     1       3.151  -0.041   0.027  0.00  0.00    +0.000 A 
ATOM     19  C   UNL     1       3.197  -2.768   0.097  0.00  0.00    +0.000 A 
ATOM     20  H   UNL     1       0.912  -3.779   0.108  0.00  0.00    +0.000 HD
ENDROOT
BRANCH  15  21
ATOM     21  N   UNL     1       5.574   0.058   0.041  0.00  0.00    +0.000 N 
ATOM     22  N   UNL     1       7.918   1.671  -0.190  0.00  0.00    +0.000 NA
ATOM     23  C   UNL     1       5.612   1.391   0.653  0.00  0.00    +0.000 C 
ATOM     24  C   UNL     1       6.511  -0.160  -1.069  0.00  0.00    +0.000 C 
ATOM     25  C   UNL     1       7.051   1.789   0.981  0.00  0.00    +0.000 C 
ATOM     26  C   UNL     1       7.918   0.293  -0.679  0.00  0.00    +0.000 C 
ATOM     27  H   UNL     1       8.869   1.936   0.067  0.00  0.00    +0.000 HD
ENDBRANCH  15  21
BRANCH   2  28
ATOM     28  C   UNL     1      -1.293   1.635  -0.023  0.00  0.00    +0.000 C 
ATOM     29  C   UNL     1      -1.308   2.598   1.155  0.00  0.00    +0.000 C 
ATOM     30  C   UNL     1      -1.303   2.561  -1.236  0.00  0.00    +0.000 C 
ATOM     31  C   UNL     1      -0.346   3.688   0.713  0.00  0.00    +0.000 C 
ATOM     32  C   UNL     1      -0.574   3.829  -0.790  0.00  0.00    +0.000 C 
ENDBRANCH   2  28
BRANCH  10  34
ATOM     33  O   UNL     1      -6.765   0.899   1.090  0.00  0.00    +0.000 OA
ATOM     34  C   UNL     1      -6.202   0.686   0.021  0.00  0.00    +0.000 C 
ATOM     35  C   UNL     1      -6.875   0.925  -1.300  0.00  0.00    +0.000 C 
ENDBRANCH  10  34
TORSDOF 3
