REMARK  Name = 10117987
REMARK  10 active torsions:
REMARK  status: ('A' for Active; 'I' for Inactive)
REMARK    1  A    between atoms: O_1  and  C_28
REMARK    2  A    between atoms: O_1  and  C_32
REMARK    3  A    between atoms: O_3  and  C_34
REMARK    4  A    between atoms: O_3  and  C_37
REMARK    5  A    between atoms: N_4  and  C_17
REMARK    6  A    between atoms: N_5  and  C_19
REMARK    7  A    between atoms: N_6  and  C_18
REMARK    8  A    between atoms: C_17  and  C_18
REMARK    9  A    between atoms: C_30  and  C_31
REMARK   10  A    between atoms: C_32  and  C_34
REMARK                            x       y       z     vdW  Elec       q    Type
REMARK                         _______ _______ _______ _____ _____    ______ ____
ROOT
ATOM      1  N   UNL     1      -2.469   1.813   0.668  0.00  0.00    +0.000 N 
ATOM      2  N   UNL     1      -3.066   3.012   0.476  0.00  0.00    +0.000 NA
ATOM      3  N   UNL     1      -5.295  -0.897   0.300  0.00  0.00    +0.000 N 
ATOM      4  N   UNL     1      -2.998  -0.557   0.719  0.00  0.00    +0.000 NA
ATOM      5  N   UNL     1      -6.863   0.602  -0.099  0.00  0.00    +0.000 NA
ATOM      6  N   UNL     1      -6.398  -1.646   0.135  0.00  0.00    +0.000 NA
ATOM      7  N   UNL     1      -3.881  -2.760   0.690  0.00  0.00    +0.000 N 
ATOM      8  C   UNL     1      -3.328   0.758   0.571  0.00  0.00    +0.000 A 
ATOM      9  C   UNL     1      -4.551   1.327   0.299  0.00  0.00    +0.000 A 
ATOM     10  C   UNL     1      -4.351   2.701   0.249  0.00  0.00    +0.000 A 
ATOM     11  C   UNL     1      -5.591   0.438   0.157  0.00  0.00    +0.000 A 
ATOM     12  C   UNL     1      -4.004  -1.400   0.580  0.00  0.00    +0.000 A 
ATOM     13  C   UNL     1      -7.313  -0.696  -0.102  0.00  0.00    +0.000 A 
ATOM     14  H   UNL     1      -4.675  -3.383   0.577  0.00  0.00    +0.000 HD
ATOM     15  H   UNL     1      -2.983  -3.188   0.889  0.00  0.00    +0.000 HD
ENDROOT
BRANCH  13  17
ATOM     16  O   UNL     1      -9.228  -2.290  -0.372  0.00  0.00    +0.000 OA
ATOM     17  C   UNL     1      -8.728  -1.026  -0.355  0.00  0.00    +0.000 A 
ATOM     18  C   UNL     1      -9.722  -0.110  -0.607  0.00  0.00    +0.000 A 
ATOM     19  C   UNL     1     -10.909  -0.859  -0.791  0.00  0.00    +0.000 A 
ATOM     20  C   UNL     1     -10.556  -2.179  -0.638  0.00  0.00    +0.000 A 
ENDBRANCH  13  17
BRANCH   1  21
ATOM     21  C   UNL     1      -1.036   1.759   0.946  0.00  0.00    +0.000 C 
BRANCH  21  22
ATOM     22  C   UNL     1      -0.212   1.649  -0.333  0.00  0.00    +0.000 C 
BRANCH  22  23
ATOM     23  N   UNL     1       1.215   1.624  -0.012  0.00  0.00    +0.000 NA
ATOM     24  N   UNL     1       3.932   0.780  -0.273  0.00  0.00    +0.000 N 
ATOM     25  C   UNL     1       2.012   2.032  -1.176  0.00  0.00    +0.000 C 
ATOM     26  C   UNL     1       1.621   0.282   0.425  0.00  0.00    +0.000 C 
ATOM     27  C   UNL     1       3.504   2.064  -0.837  0.00  0.00    +0.000 C 
ATOM     28  C   UNL     1       3.099   0.257   0.818  0.00  0.00    +0.000 C 
BRANCH  24  29
ATOM     29  C   UNL     1       5.286   0.429  -0.292  0.00  0.00    +0.000 A 
ATOM     30  C   UNL     1       5.658  -0.913  -0.369  0.00  0.00    +0.000 A 
ATOM     31  C   UNL     1       6.264   1.422  -0.235  0.00  0.00    +0.000 A 
ATOM     32  C   UNL     1       7.008  -1.262  -0.390  0.00  0.00    +0.000 A 
ATOM     33  C   UNL     1       7.614   1.073  -0.256  0.00  0.00    +0.000 A 
ATOM     34  C   UNL     1       7.987  -0.269  -0.333  0.00  0.00    +0.000 A 
BRANCH  34  35
ATOM     35  O   UNL     1       9.304  -0.610  -0.353  0.00  0.00    +0.000 OA
BRANCH  35  36
ATOM     36  C   UNL     1       9.657  -1.872   0.211  0.00  0.00    +0.000 C 
BRANCH  36  37
ATOM     37  C   UNL     1      11.071  -1.794   0.753  0.00  0.00    +0.000 C 
BRANCH  37  38
ATOM     38  O   UNL     1      11.962  -1.493  -0.314  0.00  0.00    +0.000 OA
ATOM     39  C   UNL     1      13.303  -1.385   0.141  0.00  0.00    +0.000 C 
ENDBRANCH  37  38
ENDBRANCH  36  37
ENDBRANCH  35  36
ENDBRANCH  34  35
ENDBRANCH  24  29
ENDBRANCH  22  23
ENDBRANCH  21  22
ENDBRANCH   1  21
TORSDOF 9
