REMARK  Name = 126495573
REMARK  6 active torsions:
REMARK  status: ('A' for Active; 'I' for Inactive)
REMARK    1  A    between atoms: O_3  and  C_25
REMARK    2  A    between atoms: O_3  and  C_31
REMARK    3  A    between atoms: N_4  and  C_10
REMARK    4  A    between atoms: N_7  and  C_16
REMARK    5  A    between atoms: C_19  and  C_23
REMARK    6  A    between atoms: C_22  and  C_26
REMARK                            x       y       z     vdW  Elec       q    Type
REMARK                         _______ _______ _______ _____ _____    ______ ____
ROOT
ATOM      1  S   UNL     1       5.075  -0.515   0.260  0.00  0.00    +0.000 S 
ATOM      2  N   UNL     1       0.083  -3.453   0.086  0.00  0.00    +0.000 N 
ATOM      3  N   UNL     1       1.300  -1.421   0.160  0.00  0.00    +0.000 NA
ATOM      4  N   UNL     1       2.452  -3.550   0.133  0.00  0.00    +0.000 NA
ATOM      5  C   UNL     1       1.360  -2.763   0.129  0.00  0.00    +0.000 A 
ATOM      6  C   UNL     1       2.757   0.587   0.238  0.00  0.00    +0.000 A 
ATOM      7  C   UNL     1       2.519  -0.820   0.200  0.00  0.00    +0.000 A 
ATOM      8  C   UNL     1       3.707  -1.549   0.207  0.00  0.00    +0.000 A 
ATOM      9  C   UNL     1       4.099   0.888   0.274  0.00  0.00    +0.000 A 
ATOM     10  C   UNL     1       3.652  -2.938   0.172  0.00  0.00    +0.000 A 
ATOM     11  C   UNL     1       4.764   2.212   0.318  0.00  0.00    +0.000 C 
ATOM     12  H   UNL     1       0.267  -4.455   0.066  0.00  0.00    +0.000 HD
ENDROOT
BRANCH   6  14
ATOM     13  F   UNL     1      -1.064   4.641   0.300  0.00  0.00    +0.000 F 
ATOM     14  C   UNL     1       1.762   1.630   0.240  0.00  0.00    +0.000 A 
ATOM     15  C   UNL     1       0.859   1.760  -0.815  0.00  0.00    +0.000 A 
ATOM     16  C   UNL     1       1.710   2.517   1.316  0.00  0.00    +0.000 A 
ATOM     17  C   UNL     1      -0.095   2.777  -0.795  0.00  0.00    +0.000 A 
ATOM     18  C   UNL     1       0.756   3.534   1.336  0.00  0.00    +0.000 A 
ATOM     19  C   UNL     1      -0.147   3.664   0.280  0.00  0.00    +0.000 A 
BRANCH  15  20
ATOM     20  O   UNL     1       0.886   0.907  -1.879  0.00  0.00    +0.000 OA
ATOM     21  C   UNL     1       1.710   1.276  -2.983  0.00  0.00    +0.000 C 
ENDBRANCH  15  20
ENDBRANCH   6  14
BRANCH   2  25
ATOM     22  N   UNL     1      -3.041  -1.875   0.059  0.00  0.00    +0.000 N 
ATOM     23  N   UNL     1      -3.486  -3.143   0.020  0.00  0.00    +0.000 NA
ATOM     24  C   UNL     1      -1.682  -1.768   0.090  0.00  0.00    +0.000 A 
ATOM     25  C   UNL     1      -1.204  -3.056   0.069  0.00  0.00    +0.000 A 
ATOM     26  C   UNL     1      -2.359  -3.860   0.026  0.00  0.00    +0.000 A 
BRANCH  22  28
ATOM     27  N   UNL     1      -4.713   2.119   0.120  0.00  0.00    +0.000 NA
ATOM     28  C   UNL     1      -4.034  -0.729   0.066  0.00  0.00    +0.000 C 
ATOM     29  C   UNL     1      -3.941   0.116   1.348  0.00  0.00    +0.000 C 
ATOM     30  C   UNL     1      -3.889   0.176  -1.169  0.00  0.00    +0.000 C 
ATOM     31  C   UNL     1      -4.872   1.345  -1.111  0.00  0.00    +0.000 C 
ATOM     32  C   UNL     1      -4.922   1.288   1.306  0.00  0.00    +0.000 C 
ATOM     33  H   UNL     1      -3.768   2.503   0.149  0.00  0.00    +0.000 HD
ENDBRANCH  22  28
ENDBRANCH   2  25
TORSDOF 4
