REMARK  Name = 118196485
REMARK  10 active torsions:
REMARK  status: ('A' for Active; 'I' for Inactive)
REMARK    1  A    between atoms: O_2  and  C_25
REMARK    2  A    between atoms: N_3  and  C_9
REMARK    3  A    between atoms: N_5  and  C_36
REMARK    4  A    between atoms: C_8  and  C_9
REMARK    5  A    between atoms: C_9  and  C_13
REMARK    6  A    between atoms: C_21  and  C_25
REMARK    7  A    between atoms: C_25  and  C_31
REMARK    8  A    between atoms: C_25  and  C_32
REMARK    9  A    between atoms: C_27  and  C_34
REMARK   10  A    between atoms: C_35  and  C_37
REMARK                            x       y       z     vdW  Elec       q    Type
REMARK                         _______ _______ _______ _____ _____    ______ ____
ROOT
ATOM      1  N   UNL     1      -0.770  -0.013   0.059  0.00  0.00    +0.000 N 
ATOM      2  N   UNL     1       0.753   3.167   0.114  0.00  0.00    +0.000 NA
ATOM      3  C   UNL     1      -1.913   0.752   0.123  0.00  0.00    +0.000 A 
ATOM      4  C   UNL     1       0.345   0.786   0.048  0.00  0.00    +0.000 A 
ATOM      5  C   UNL     1      -1.518   2.091   0.155  0.00  0.00    +0.000 A 
ATOM      6  C   UNL     1      -0.095   2.105   0.107  0.00  0.00    +0.000 A 
ATOM      7  C   UNL     1      -3.257   0.361   0.155  0.00  0.00    +0.000 A 
ATOM      8  C   UNL     1       1.703   0.477  -0.008  0.00  0.00    +0.000 A 
ATOM      9  C   UNL     1      -4.223   1.369   0.222  0.00  0.00    +0.000 A 
ATOM     10  C   UNL     1      -2.511   3.090   0.222  0.00  0.00    +0.000 A 
ATOM     11  C   UNL     1      -3.858   2.713   0.255  0.00  0.00    +0.000 A 
ATOM     12  C   UNL     1       2.581   1.556  -0.002  0.00  0.00    +0.000 A 
ATOM     13  C   UNL     1       2.064   2.843   0.059  0.00  0.00    +0.000 A 
ENDROOT
BRANCH  12  17
ATOM     14  N   UNL     1       4.821   1.809  -1.039  0.00  0.00    +0.000 N 
ATOM     15  N   UNL     1       6.100   1.454  -0.831  0.00  0.00    +0.000 NA
ATOM     16  N   UNL     1       6.135   0.746   0.292  0.00  0.00    +0.000 NA
ATOM     17  C   UNL     1       4.005   1.339  -0.057  0.00  0.00    +0.000 A 
ATOM     18  C   UNL     1       4.860   0.666   0.779  0.00  0.00    +0.000 A 
ATOM     19  C   UNL     1       4.471   2.593  -2.199  0.00  0.00    +0.000 C 
ATOM     20  C   UNL     1       4.572  -0.061   2.023  0.00  0.00    +0.000 C 
ENDBRANCH  12  17
BRANCH   9  21
ATOM     21  C   UNL     1      -5.669   0.996   0.258  0.00  0.00    +0.000 C 
ATOM     22  C   UNL     1      -6.030   0.187   1.526  0.00  0.00    +0.000 C 
ATOM     23  C   UNL     1      -6.096   0.199  -0.997  0.00  0.00    +0.000 C 
BRANCH  21  24
ATOM     24  O   UNL     1      -6.520   2.164   0.286  0.00  0.00    +0.000 OA
ATOM     25  H   UNL     1      -7.445   1.866   0.310  0.00  0.00    +0.000 HD
ENDBRANCH  21  24
ENDBRANCH   9  21
BRANCH   1  26
ATOM     26  C   UNL     1      -0.747  -1.461   0.009  0.00  0.00    +0.000 C 
BRANCH  26  28
ATOM     27  O   UNL     1      -0.703  -3.385  -3.800  0.00  0.00    +0.000 OA
ATOM     28  C   UNL     1      -0.216  -2.002  -1.316  0.00  0.00    +0.000 C 
ATOM     29  C   UNL     1      -0.921  -1.341  -2.506  0.00  0.00    +0.000 C 
ATOM     30  C   UNL     1      -0.376  -3.524  -1.397  0.00  0.00    +0.000 C 
ATOM     31  C   UNL     1       0.040  -4.037  -2.770  0.00  0.00    +0.000 C 
ATOM     32  C   UNL     1      -0.475  -1.976  -3.817  0.00  0.00    +0.000 C 
ENDBRANCH  26  28
BRANCH  26  33
ATOM     33  C   UNL     1      -0.058  -2.061   1.226  0.00  0.00    +0.000 A 
ATOM     34  C   UNL     1       1.272  -2.475   1.141  0.00  0.00    +0.000 A 
ATOM     35  C   UNL     1      -0.754  -2.196   2.426  0.00  0.00    +0.000 A 
ATOM     36  C   UNL     1       1.904  -3.025   2.256  0.00  0.00    +0.000 A 
ATOM     37  C   UNL     1      -0.122  -2.745   3.542  0.00  0.00    +0.000 A 
ATOM     38  C   UNL     1       1.207  -3.159   3.457  0.00  0.00    +0.000 A 
ENDBRANCH  26  33
ENDBRANCH   1  26
TORSDOF 6
