MODEL 1
REMARK VINA RESULT:    -7.231      0.000      0.000
REMARK INTER + INTRA:         -10.953
REMARK INTER:                  -9.320
REMARK INTRA:                  -1.634
REMARK CONF_INDEPENDENT:        2.088
REMARK UNBOUND:                 1.634
REMARK  Name = 6322
REMARK  7 active torsions:
REMARK  status: ('A' for Active; 'I' for Inactive)
REMARK    1  A    between atoms: O_1  and  C_11
REMARK    2  A    between atoms: N_3  and  CA_9
REMARK    3  A    between atoms: NE_4  and  CD_10
REMARK    4  A    between atoms: CB_7  and  CG_8
REMARK    5  A    between atoms: CB_7  and  CA_9
REMARK    6  A    between atoms: CG_8  and  CD_10
REMARK    7  A    between atoms: CA_9  and  C_11
REMARK                            x       y       z     vdW  Elec       q    Type
REMARK                         _______ _______ _______ _____ _____    ______ ____
ROOT
ATOM      1  CG  ARG A   1      -0.329  -2.496  -4.390  0.00  0.00    +0.000 C 
ENDROOT
BRANCH   1   2
ATOM      2  CB  ARG A   1      -1.198  -1.229  -4.383  0.00  0.00    +0.000 C 
BRANCH   2   3
ATOM      3  CA  ARG A   1      -0.939  -0.341  -5.609  0.00  0.00    +0.000 C 
BRANCH   3   4
ATOM      4  N   ARG A   1      -2.184   0.293  -6.035  0.00  0.00    +0.000 NA
ATOM      5  H1  ARG A   1      -2.894   0.177  -5.313  0.00  0.00    +0.000 HD
ATOM      6  H2  ARG A   1      -2.544  -0.182  -6.863  0.00  0.00    +0.000 HD
ENDBRANCH   3   4
BRANCH   3   8
ATOM      7  OXT ARG A   1       0.717  -1.175  -7.191  0.00  0.00    +0.000 OA
ATOM      8  C   ARG A   1      -0.444  -1.137  -6.803  0.00  0.00    +0.000 C 
BRANCH   8   9
ATOM      9  O   ARG A   1      -1.443  -1.841  -7.399  0.00  0.00    +0.000 OA
ATOM     10  H   ARG A   1      -2.322  -1.612  -7.029  0.00  0.00    +0.000 HD
ENDBRANCH   8   9
ENDBRANCH   3   8
ENDBRANCH   2   3
ENDBRANCH   1   2
BRANCH   1  11
ATOM     11  CD  ARG A   1      -0.259  -3.162  -3.020  0.00  0.00    +0.000 C 
BRANCH  11  12
ATOM     12  NE  ARG A   1       1.135  -3.443  -2.674  0.00  0.00    +0.000 NA
ATOM     13  NH1 ARG A   1       2.672  -4.955  -1.822  0.00  0.00    +0.000 N 
ATOM     14  NH2 ARG A   1       0.499  -5.637  -1.928  0.00  0.00    +0.000 N 
ATOM     15  CZ  ARG A   1       1.388  -4.613  -2.175  0.00  0.00    +0.000 C 
ATOM     16 HH11 ARG A   1       3.439  -4.303  -1.945  0.00  0.00    +0.000 HD
ATOM     17 HH12 ARG A   1       2.891  -5.865  -1.431  0.00  0.00    +0.000 HD
ATOM     18 HH21 ARG A   1       0.813  -6.516  -1.532  0.00  0.00    +0.000 HD
ATOM     19 HH22 ARG A   1      -0.491  -5.553  -2.126  0.00  0.00    +0.000 HD
ENDBRANCH  11  12
ENDBRANCH   1  11
TORSDOF 7
ENDMDL
MODEL 2
REMARK VINA RESULT:    -6.553      4.476      6.580
REMARK INTER + INTRA:         -10.929
REMARK INTER:                  -8.641
REMARK INTRA:                  -2.288
REMARK CONF_INDEPENDENT:        2.088
REMARK UNBOUND:                 2.288
REMARK  Name = 6322
REMARK  7 active torsions:
REMARK  status: ('A' for Active; 'I' for Inactive)
REMARK    1  A    between atoms: O_1  and  C_11
REMARK    2  A    between atoms: N_3  and  CA_9
REMARK    3  A    between atoms: NE_4  and  CD_10
REMARK    4  A    between atoms: CB_7  and  CG_8
REMARK    5  A    between atoms: CB_7  and  CA_9
REMARK    6  A    between atoms: CG_8  and  CD_10
REMARK    7  A    between atoms: CA_9  and  C_11
REMARK                            x       y       z     vdW  Elec       q    Type
REMARK                         _______ _______ _______ _____ _____    ______ ____
ROOT
ATOM      1  CG  ARG A   1       0.518  -5.753  -1.028  0.00  0.00    +0.000 C 
ENDROOT
BRANCH   1   2
ATOM      2  CB  ARG A   1       1.721  -5.752  -0.071  0.00  0.00    +0.000 C 
BRANCH   2   3
ATOM      3  CA  ARG A   1       2.937  -5.028  -0.669  0.00  0.00    +0.000 C 
BRANCH   3   4
ATOM      4  N   ARG A   1       2.798  -4.939  -2.120  0.00  0.00    +0.000 NA
ATOM      5  H1  ARG A   1       3.720  -4.886  -2.551  0.00  0.00    +0.000 HD
ATOM      6  H2  ARG A   1       2.321  -4.071  -2.366  0.00  0.00    +0.000 HD
ENDBRANCH   3   4
BRANCH   3   8
ATOM      7  OXT ARG A   1       4.771  -5.904   0.675  0.00  0.00    +0.000 OA
ATOM      8  C   ARG A   1       4.234  -5.775  -0.418  0.00  0.00    +0.000 C 
BRANCH   8   9
ATOM      9  O   ARG A   1       4.738  -6.323  -1.555  0.00  0.00    +0.000 OA
ATOM     10  H   ARG A   1       4.038  -6.747  -2.097  0.00  0.00    +0.000 HD
ENDBRANCH   8   9
ENDBRANCH   3   8
ENDBRANCH   2   3
ENDBRANCH   1   2
BRANCH   1  11
ATOM     11  CD  ARG A   1      -0.075  -4.360  -1.216  0.00  0.00    +0.000 C 
BRANCH  11  12
ATOM     12  NE  ARG A   1       0.245  -3.859  -2.554  0.00  0.00    +0.000 NA
ATOM     13  NH1 ARG A   1      -0.505  -3.381  -4.694  0.00  0.00    +0.000 N 
ATOM     14  NH2 ARG A   1      -2.031  -4.228  -3.228  0.00  0.00    +0.000 N 
ATOM     15  CZ  ARG A   1      -0.724  -3.836  -3.415  0.00  0.00    +0.000 C 
ATOM     16 HH11 ARG A   1       0.412  -3.058  -4.985  0.00  0.00    +0.000 HD
ATOM     17 HH12 ARG A   1      -1.249  -3.355  -5.383  0.00  0.00    +0.000 HD
ATOM     18 HH21 ARG A   1      -2.708  -4.164  -3.980  0.00  0.00    +0.000 HD
ATOM     19 HH22 ARG A   1      -2.365  -4.593  -2.343  0.00  0.00    +0.000 HD
ENDBRANCH  11  12
ENDBRANCH   1  11
TORSDOF 7
ENDMDL
MODEL 3
REMARK VINA RESULT:    -5.585      2.136      2.799
REMARK INTER + INTRA:         -11.352
REMARK INTER:                  -7.673
REMARK INTRA:                  -3.680
REMARK CONF_INDEPENDENT:        2.088
REMARK UNBOUND:                 3.680
REMARK  Name = 6322
REMARK  7 active torsions:
REMARK  status: ('A' for Active; 'I' for Inactive)
REMARK    1  A    between atoms: O_1  and  C_11
REMARK    2  A    between atoms: N_3  and  CA_9
REMARK    3  A    between atoms: NE_4  and  CD_10
REMARK    4  A    between atoms: CB_7  and  CG_8
REMARK    5  A    between atoms: CB_7  and  CA_9
REMARK    6  A    between atoms: CG_8  and  CD_10
REMARK    7  A    between atoms: CA_9  and  C_11
REMARK                            x       y       z     vdW  Elec       q    Type
REMARK                         _______ _______ _______ _____ _____    ______ ____
ROOT
ATOM      1  CG  ARG A   1      -2.016   0.510  -4.938  0.00  0.00    +0.000 C 
ENDROOT
BRANCH   1   2
ATOM      2  CB  ARG A   1      -0.695   0.661  -5.707  0.00  0.00    +0.000 C 
BRANCH   2   3
ATOM      3  CA  ARG A   1      -0.541  -0.398  -6.809  0.00  0.00    +0.000 C 
BRANCH   3   4
ATOM      4  N   ARG A   1      -1.756  -1.204  -6.897  0.00  0.00    +0.000 NA
ATOM      5  H1  ARG A   1      -2.571  -0.594  -6.935  0.00  0.00    +0.000 HD
ATOM      6  H2  ARG A   1      -1.859  -1.761  -6.049  0.00  0.00    +0.000 HD
ENDBRANCH   3   4
BRANCH   3   8
ATOM      7  OXT ARG A   1       1.780  -1.127  -6.654  0.00  0.00    +0.000 OA
ATOM      8  C   ARG A   1       0.587  -1.372  -6.520  0.00  0.00    +0.000 C 
BRANCH   8   9
ATOM      9  O   ARG A   1       0.128  -2.566  -6.059  0.00  0.00    +0.000 OA
ATOM     10  H   ARG A   1      -0.843  -2.554  -5.921  0.00  0.00    +0.000 HD
ENDBRANCH   8   9
ENDBRANCH   3   8
ENDBRANCH   2   3
ENDBRANCH   1   2
BRANCH   1  11
ATOM     11  CD  ARG A   1      -1.871  -0.373  -3.702  0.00  0.00    +0.000 C 
BRANCH  11  12
ATOM     12  NE  ARG A   1      -1.070  -1.555  -4.025  0.00  0.00    +0.000 NA
ATOM     13  NH1 ARG A   1      -0.579  -3.772  -3.559  0.00  0.00    +0.000 N 
ATOM     14  NH2 ARG A   1      -2.194  -2.780  -2.291  0.00  0.00    +0.000 N 
ATOM     15  CZ  ARG A   1      -1.291  -2.620  -3.319  0.00  0.00    +0.000 C 
ATOM     16 HH11 ARG A   1       0.125  -3.809  -4.288  0.00  0.00    +0.000 HD
ATOM     17 HH12 ARG A   1      -0.737  -4.615  -3.018  0.00  0.00    +0.000 HD
ATOM     18 HH21 ARG A   1      -2.281  -3.666  -1.807  0.00  0.00    +0.000 HD
ATOM     19 HH22 ARG A   1      -2.799  -2.029  -1.980  0.00  0.00    +0.000 HD
ENDBRANCH  11  12
ENDBRANCH   1  11
TORSDOF 7
ENDMDL
MODEL 4
REMARK VINA RESULT:    -5.333      5.687      6.821
REMARK INTER + INTRA:         -10.716
REMARK INTER:                  -7.421
REMARK INTRA:                  -3.296
REMARK CONF_INDEPENDENT:        2.088
REMARK UNBOUND:                 3.296
REMARK  Name = 6322
REMARK  7 active torsions:
REMARK  status: ('A' for Active; 'I' for Inactive)
REMARK    1  A    between atoms: O_1  and  C_11
REMARK    2  A    between atoms: N_3  and  CA_9
REMARK    3  A    between atoms: NE_4  and  CD_10
REMARK    4  A    between atoms: CB_7  and  CG_8
REMARK    5  A    between atoms: CB_7  and  CA_9
REMARK    6  A    between atoms: CG_8  and  CD_10
REMARK    7  A    between atoms: CA_9  and  C_11
REMARK                            x       y       z     vdW  Elec       q    Type
REMARK                         _______ _______ _______ _____ _____    ______ ____
ROOT
ATOM      1  CG  ARG A   1       1.054  -4.212   0.032  0.00  0.00    +0.000 C 
ENDROOT
BRANCH   1   2
ATOM      2  CB  ARG A   1       1.176  -5.199   1.203  0.00  0.00    +0.000 C 
BRANCH   2   3
ATOM      3  CA  ARG A   1       0.840  -6.639   0.784  0.00  0.00    +0.000 C 
BRANCH   3   4
ATOM      4  N   ARG A   1       2.039  -7.301   0.277  0.00  0.00    +0.000 NA
ATOM      5  H1  ARG A   1       2.866  -6.773   0.552  0.00  0.00    +0.000 HD
ATOM      6  H2  ARG A   1       2.027  -7.298  -0.742  0.00  0.00    +0.000 HD
ENDBRANCH   3   4
BRANCH   3   8
ATOM      7  OXT ARG A   1      -1.337  -7.061  -0.228  0.00  0.00    +0.000 OA
ATOM      8  C   ARG A   1      -0.175  -6.690  -0.343  0.00  0.00    +0.000 C 
BRANCH   8   9
ATOM      9  O   ARG A   1       0.342  -6.245  -1.519  0.00  0.00    +0.000 OA
ATOM     10  H   ARG A   1       1.194  -6.683  -1.732  0.00  0.00    +0.000 HD
ENDBRANCH   8   9
ENDBRANCH   3   8
ENDBRANCH   2   3
ENDBRANCH   1   2
BRANCH   1  11
ATOM     11  CD  ARG A   1       2.368  -4.039  -0.723  0.00  0.00    +0.000 C 
BRANCH  11  12
ATOM     12  NE  ARG A   1       2.911  -5.350  -1.083  0.00  0.00    +0.000 NA
ATOM     13  NH1 ARG A   1       4.760  -6.745  -1.167  0.00  0.00    +0.000 N 
ATOM     14  NH2 ARG A   1       5.077  -4.656  -0.309  0.00  0.00    +0.000 N 
ATOM     15  CZ  ARG A   1       4.173  -5.541  -0.855  0.00  0.00    +0.000 C 
ATOM     16 HH11 ARG A   1       4.221  -7.499  -1.577  0.00  0.00    +0.000 HD
ATOM     17 HH12 ARG A   1       5.746  -6.914  -0.995  0.00  0.00    +0.000 HD
ATOM     18 HH21 ARG A   1       6.048  -4.917  -0.176  0.00  0.00    +0.000 HD
ATOM     19 HH22 ARG A   1       4.814  -3.719  -0.025  0.00  0.00    +0.000 HD
ENDBRANCH  11  12
ENDBRANCH   1  11
TORSDOF 7
ENDMDL
MODEL 5
REMARK VINA RESULT:    -5.133      4.924      6.972
REMARK INTER + INTRA:         -10.307
REMARK INTER:                  -7.221
REMARK INTRA:                  -3.086
REMARK CONF_INDEPENDENT:        2.088
REMARK UNBOUND:                 3.086
REMARK  Name = 6322
REMARK  7 active torsions:
REMARK  status: ('A' for Active; 'I' for Inactive)
REMARK    1  A    between atoms: O_1  and  C_11
REMARK    2  A    between atoms: N_3  and  CA_9
REMARK    3  A    between atoms: NE_4  and  CD_10
REMARK    4  A    between atoms: CB_7  and  CG_8
REMARK    5  A    between atoms: CB_7  and  CA_9
REMARK    6  A    between atoms: CG_8  and  CD_10
REMARK    7  A    between atoms: CA_9  and  C_11
REMARK                            x       y       z     vdW  Elec       q    Type
REMARK                         _______ _______ _______ _____ _____    ______ ____
ROOT
ATOM      1  CG  ARG A   1       2.255  -5.155   0.832  0.00  0.00    +0.000 C 
ENDROOT
BRANCH   1   2
ATOM      2  CB  ARG A   1       3.711  -5.438   1.232  0.00  0.00    +0.000 C 
BRANCH   2   3
ATOM      3  CA  ARG A   1       4.708  -4.953   0.169  0.00  0.00    +0.000 C 
BRANCH   3   4
ATOM      4  N   ARG A   1       4.279  -3.662  -0.363  0.00  0.00    +0.000 NA
ATOM      5  H1  ARG A   1       3.281  -3.537  -0.197  0.00  0.00    +0.000 HD
ATOM      6  H2  ARG A   1       4.401  -3.651  -1.376  0.00  0.00    +0.000 HD
ENDBRANCH   3   4
BRANCH   3   8
ATOM      7  OXT ARG A   1       5.605  -6.791  -1.156  0.00  0.00    +0.000 OA
ATOM      8  C   ARG A   1       4.785  -5.892  -1.022  0.00  0.00    +0.000 C 
BRANCH   8   9
ATOM      9  O   ARG A   1       3.808  -5.643  -1.934  0.00  0.00    +0.000 OA
ATOM     10  H   ARG A   1       3.817  -4.708  -2.232  0.00  0.00    +0.000 HD
ENDBRANCH   8   9
ENDBRANCH   3   8
ENDBRANCH   2   3
ENDBRANCH   1   2
BRANCH   1  11
ATOM     11  CD  ARG A   1       1.701  -6.204  -0.127  0.00  0.00    +0.000 C 
BRANCH  11  12
ATOM     12  NE  ARG A   1       0.521  -5.675  -0.815  0.00  0.00    +0.000 NA
ATOM     13  NH1 ARG A   1      -0.346  -4.113  -2.291  0.00  0.00    +0.000 N 
ATOM     14  NH2 ARG A   1       1.897  -4.025  -1.891  0.00  0.00    +0.000 N 
ATOM     15  CZ  ARG A   1       0.712  -4.668  -1.609  0.00  0.00    +0.000 C 
ATOM     16 HH11 ARG A   1      -1.286  -4.479  -2.187  0.00  0.00    +0.000 HD
ATOM     17 HH12 ARG A   1      -0.218  -3.325  -2.917  0.00  0.00    +0.000 HD
ATOM     18 HH21 ARG A   1       1.926  -3.242  -2.533  0.00  0.00    +0.000 HD
ATOM     19 HH22 ARG A   1       2.777  -4.304  -1.470  0.00  0.00    +0.000 HD
ENDBRANCH  11  12
ENDBRANCH   1  11
TORSDOF 7
ENDMDL
MODEL 6
REMARK VINA RESULT:    -5.118      4.761      5.841
REMARK INTER + INTRA:         -10.870
REMARK INTER:                  -7.206
REMARK INTRA:                  -3.663
REMARK CONF_INDEPENDENT:        2.088
REMARK UNBOUND:                 3.663
REMARK  Name = 6322
REMARK  7 active torsions:
REMARK  status: ('A' for Active; 'I' for Inactive)
REMARK    1  A    between atoms: O_1  and  C_11
REMARK    2  A    between atoms: N_3  and  CA_9
REMARK    3  A    between atoms: NE_4  and  CD_10
REMARK    4  A    between atoms: CB_7  and  CG_8
REMARK    5  A    between atoms: CB_7  and  CA_9
REMARK    6  A    between atoms: CG_8  and  CD_10
REMARK    7  A    between atoms: CA_9  and  C_11
REMARK                            x       y       z     vdW  Elec       q    Type
REMARK                         _______ _______ _______ _____ _____    ______ ____
ROOT
ATOM      1  CG  ARG A   1       1.417  -4.387   0.793  0.00  0.00    +0.000 C 
ENDROOT
BRANCH   1   2
ATOM      2  CB  ARG A   1       0.023  -4.892   0.389  0.00  0.00    +0.000 C 
BRANCH   2   3
ATOM      3  CA  ARG A   1      -0.022  -5.361  -1.073  0.00  0.00    +0.000 C 
BRANCH   3   4
ATOM      4  N   ARG A   1       0.430  -6.747  -1.163  0.00  0.00    +0.000 NA
ATOM      5  H1  ARG A   1       1.384  -6.822  -0.811  0.00  0.00    +0.000 HD
ATOM      6  H2  ARG A   1       0.468  -7.032  -2.142  0.00  0.00    +0.000 HD
ENDBRANCH   3   4
BRANCH   3   8
ATOM      7  OXT ARG A   1       0.708  -3.408  -2.334  0.00  0.00    +0.000 OA
ATOM      8  C   ARG A   1       0.907  -4.559  -1.966  0.00  0.00    +0.000 C 
BRANCH   8   9
ATOM      9  O   ARG A   1       2.025  -5.257  -2.300  0.00  0.00    +0.000 OA
ATOM     10  H   ARG A   1       2.107  -6.085  -1.782  0.00  0.00    +0.000 HD
ENDBRANCH   8   9
ENDBRANCH   3   8
ENDBRANCH   2   3
ENDBRANCH   1   2
BRANCH   1  11
ATOM     11  CD  ARG A   1       2.309  -5.505   1.323  0.00  0.00    +0.000 C 
BRANCH  11  12
ATOM     12  NE  ARG A   1       2.865  -6.270   0.205  0.00  0.00    +0.000 NA
ATOM     13  NH1 ARG A   1       4.679  -6.665  -1.183  0.00  0.00    +0.000 N 
ATOM     14  NH2 ARG A   1       4.930  -5.059   0.416  0.00  0.00    +0.000 N 
ATOM     15  CZ  ARG A   1       4.084  -5.993  -0.142  0.00  0.00    +0.000 C 
ATOM     16 HH11 ARG A   1       4.180  -7.385  -1.694  0.00  0.00    +0.000 HD
ATOM     17 HH12 ARG A   1       5.631  -6.464  -1.470  0.00  0.00    +0.000 HD
ATOM     18 HH21 ARG A   1       5.870  -4.928   0.059  0.00  0.00    +0.000 HD
ATOM     19 HH22 ARG A   1       4.651  -4.471   1.192  0.00  0.00    +0.000 HD
ENDBRANCH  11  12
ENDBRANCH   1  11
TORSDOF 7
ENDMDL
MODEL 7
REMARK VINA RESULT:    -4.926      5.685      6.962
REMARK INTER + INTRA:         -10.737
REMARK INTER:                  -7.014
REMARK INTRA:                  -3.723
REMARK CONF_INDEPENDENT:        2.088
REMARK UNBOUND:                 3.723
REMARK  Name = 6322
REMARK  7 active torsions:
REMARK  status: ('A' for Active; 'I' for Inactive)
REMARK    1  A    between atoms: O_1  and  C_11
REMARK    2  A    between atoms: N_3  and  CA_9
REMARK    3  A    between atoms: NE_4  and  CD_10
REMARK    4  A    between atoms: CB_7  and  CG_8
REMARK    5  A    between atoms: CB_7  and  CA_9
REMARK    6  A    between atoms: CG_8  and  CD_10
REMARK    7  A    between atoms: CA_9  and  C_11
REMARK                            x       y       z     vdW  Elec       q    Type
REMARK                         _______ _______ _______ _____ _____    ______ ____
ROOT
ATOM      1  CG  ARG A   1       2.507  -3.268   0.037  0.00  0.00    +0.000 C 
ENDROOT
BRANCH   1   2
ATOM      2  CB  ARG A   1       4.015  -3.549  -0.050  0.00  0.00    +0.000 C 
BRANCH   2   3
ATOM      3  CA  ARG A   1       4.318  -5.049  -0.181  0.00  0.00    +0.000 C 
BRANCH   3   4
ATOM      4  N   ARG A   1       4.101  -5.482  -1.559  0.00  0.00    +0.000 NA
ATOM      5  H1  ARG A   1       3.663  -4.731  -2.090  0.00  0.00    +0.000 HD
ATOM      6  H2  ARG A   1       3.442  -6.260  -1.574  0.00  0.00    +0.000 HD
ENDBRANCH   3   4
BRANCH   3   8
ATOM      7  OXT ARG A   1       3.091  -5.657   1.836  0.00  0.00    +0.000 OA
ATOM      8  C   ARG A   1       3.397  -5.901   0.675  0.00  0.00    +0.000 C 
BRANCH   8   9
ATOM      9  O   ARG A   1       2.913  -6.973  -0.005  0.00  0.00    +0.000 OA
ATOM     10  H   ARG A   1       2.457  -6.706  -0.832  0.00  0.00    +0.000 HD
ENDBRANCH   8   9
ENDBRANCH   3   8
ENDBRANCH   2   3
ENDBRANCH   1   2
BRANCH   1  11
ATOM     11  CD  ARG A   1       1.780  -3.582  -1.266  0.00  0.00    +0.000 C 
BRANCH  11  12
ATOM     12  NE  ARG A   1       1.608  -5.029  -1.404  0.00  0.00    +0.000 NA
ATOM     13  NH1 ARG A   1       0.286  -6.889  -0.994  0.00  0.00    +0.000 N 
ATOM     14  NH2 ARG A   1      -0.500  -4.878  -0.260  0.00  0.00    +0.000 N 
ATOM     15  CZ  ARG A   1       0.523  -5.537  -0.907  0.00  0.00    +0.000 C 
ATOM     16 HH11 ARG A   1       0.951  -7.508  -1.445  0.00  0.00    +0.000 HD
ATOM     17 HH12 ARG A   1      -0.556  -7.305  -0.613  0.00  0.00    +0.000 HD
ATOM     18 HH21 ARG A   1      -1.307  -5.383   0.089  0.00  0.00    +0.000 HD
ATOM     19 HH22 ARG A   1      -0.486  -3.877  -0.105  0.00  0.00    +0.000 HD
ENDBRANCH  11  12
ENDBRANCH   1  11
TORSDOF 7
ENDMDL
MODEL 8
REMARK VINA RESULT:    -4.715      6.388      7.479
REMARK INTER + INTRA:         -10.442
REMARK INTER:                  -6.803
REMARK INTRA:                  -3.638
REMARK CONF_INDEPENDENT:        2.088
REMARK UNBOUND:                 3.638
REMARK  Name = 6322
REMARK  7 active torsions:
REMARK  status: ('A' for Active; 'I' for Inactive)
REMARK    1  A    between atoms: O_1  and  C_11
REMARK    2  A    between atoms: N_3  and  CA_9
REMARK    3  A    between atoms: NE_4  and  CD_10
REMARK    4  A    between atoms: CB_7  and  CG_8
REMARK    5  A    between atoms: CB_7  and  CA_9
REMARK    6  A    between atoms: CG_8  and  CD_10
REMARK    7  A    between atoms: CA_9  and  C_11
REMARK                            x       y       z     vdW  Elec       q    Type
REMARK                         _______ _______ _______ _____ _____    ______ ____
ROOT
ATOM      1  CG  ARG A   1       2.947  -3.143   0.180  0.00  0.00    +0.000 C 
ENDROOT
BRANCH   1   2
ATOM      2  CB  ARG A   1       2.655  -4.473   0.891  0.00  0.00    +0.000 C 
BRANCH   2   3
ATOM      3  CA  ARG A   1       3.610  -5.590   0.445  0.00  0.00    +0.000 C 
BRANCH   3   4
ATOM      4  N   ARG A   1       4.873  -5.482   1.170  0.00  0.00    +0.000 NA
ATOM      5  H1  ARG A   1       5.492  -4.831   0.687  0.00  0.00    +0.000 HD
ATOM      6  H2  ARG A   1       5.351  -6.383   1.162  0.00  0.00    +0.000 HD
ENDBRANCH   3   4
BRANCH   3   8
ATOM      7  OXT ARG A   1       3.166  -5.259  -1.928  0.00  0.00    +0.000 OA
ATOM      8  C   ARG A   1       3.962  -5.494  -1.028  0.00  0.00    +0.000 C 
BRANCH   8   9
ATOM      9  O   ARG A   1       5.292  -5.674  -1.249  0.00  0.00    +0.000 OA
ATOM     10  H   ARG A   1       5.764  -5.942  -0.432  0.00  0.00    +0.000 HD
ENDBRANCH   8   9
ENDBRANCH   3   8
ENDBRANCH   2   3
ENDBRANCH   1   2
BRANCH   1  11
ATOM     11  CD  ARG A   1       3.841  -2.225   1.008  0.00  0.00    +0.000 C 
BRANCH  11  12
ATOM     12  NE  ARG A   1       4.586  -1.326   0.124  0.00  0.00    +0.000 NA
ATOM     13  NH1 ARG A   1       6.182  -1.102  -1.542  0.00  0.00    +0.000 N 
ATOM     14  NH2 ARG A   1       5.739  -3.215  -0.811  0.00  0.00    +0.000 N 
ATOM     15  CZ  ARG A   1       5.441  -1.877  -0.681  0.00  0.00    +0.000 C 
ATOM     16 HH11 ARG A   1       6.073  -0.094  -1.564  0.00  0.00    +0.000 HD
ATOM     17 HH12 ARG A   1       6.855  -1.513  -2.180  0.00  0.00    +0.000 HD
ATOM     18 HH21 ARG A   1       6.432  -3.533  -1.480  0.00  0.00    +0.000 HD
ATOM     19 HH22 ARG A   1       5.287  -3.928  -0.249  0.00  0.00    +0.000 HD
ENDBRANCH  11  12
ENDBRANCH   1  11
TORSDOF 7
ENDMDL
MODEL 9
REMARK VINA RESULT:    -4.474      5.623      7.210
REMARK INTER + INTRA:          -9.995
REMARK INTER:                  -6.562
REMARK INTRA:                  -3.433
REMARK CONF_INDEPENDENT:        2.088
REMARK UNBOUND:                 3.433
REMARK  Name = 6322
REMARK  7 active torsions:
REMARK  status: ('A' for Active; 'I' for Inactive)
REMARK    1  A    between atoms: O_1  and  C_11
REMARK    2  A    between atoms: N_3  and  CA_9
REMARK    3  A    between atoms: NE_4  and  CD_10
REMARK    4  A    between atoms: CB_7  and  CG_8
REMARK    5  A    between atoms: CB_7  and  CA_9
REMARK    6  A    between atoms: CG_8  and  CD_10
REMARK    7  A    between atoms: CA_9  and  C_11
REMARK                            x       y       z     vdW  Elec       q    Type
REMARK                         _______ _______ _______ _____ _____    ______ ____
ROOT
ATOM      1  CG  ARG A   1       4.576  -3.718   0.718  0.00  0.00    +0.000 C 
ENDROOT
BRANCH   1   2
ATOM      2  CB  ARG A   1       4.554  -5.252   0.789  0.00  0.00    +0.000 C 
BRANCH   2   3
ATOM      3  CA  ARG A   1       3.774  -5.875  -0.378  0.00  0.00    +0.000 C 
BRANCH   3   4
ATOM      4  N   ARG A   1       4.631  -5.964  -1.558  0.00  0.00    +0.000 NA
ATOM      5  H1  ARG A   1       4.801  -5.031  -1.930  0.00  0.00    +0.000 HD
ATOM      6  H2  ARG A   1       4.148  -6.479  -2.294  0.00  0.00    +0.000 HD
ENDBRANCH   3   4
BRANCH   3   8
ATOM      7  OXT ARG A   1       1.747  -4.570  -0.023  0.00  0.00    +0.000 OA
ATOM      8  C   ARG A   1       2.581  -5.032  -0.791  0.00  0.00    +0.000 C 
BRANCH   8   9
ATOM      9  O   ARG A   1       2.548  -4.813  -2.132  0.00  0.00    +0.000 OA
ATOM     10  H   ARG A   1       3.431  -4.568  -2.484  0.00  0.00    +0.000 HD
ENDBRANCH   8   9
ENDBRANCH   3   8
ENDBRANCH   2   3
ENDBRANCH   1   2
BRANCH   1  11
ATOM     11  CD  ARG A   1       5.445  -3.200  -0.423  0.00  0.00    +0.000 C 
BRANCH  11  12
ATOM     12  NE  ARG A   1       5.326  -1.744  -0.519  0.00  0.00    +0.000 NA
ATOM     13  NH1 ARG A   1       3.953   0.085  -0.892  0.00  0.00    +0.000 N 
ATOM     14  NH2 ARG A   1       2.981  -1.975  -0.989  0.00  0.00    +0.000 N 
ATOM     15  CZ  ARG A   1       4.148  -1.272  -0.784  0.00  0.00    +0.000 C 
ATOM     16 HH11 ARG A   1       4.721   0.736  -0.767  0.00  0.00    +0.000 HD
ATOM     17 HH12 ARG A   1       3.039   0.475  -1.099  0.00  0.00    +0.000 HD
ATOM     18 HH21 ARG A   1       2.111  -1.495  -1.191  0.00  0.00    +0.000 HD
ATOM     19 HH22 ARG A   1       2.945  -2.987  -0.949  0.00  0.00    +0.000 HD
ENDBRANCH  11  12
ENDBRANCH   1  11
TORSDOF 7
ENDMDL
