REMARK  Name = 60789
REMARK  12 active torsions:
REMARK  status: ('A' for Active; 'I' for Inactive)
REMARK    1  A    between atoms: O_1  and  C_11
REMARK    2  A    between atoms: O_2  and  C_18
REMARK    3  A    between atoms: O_3  and  C_22
REMARK    4  A    between atoms: O_4  and  C_23
REMARK    5  A    between atoms: N_5  and  C_8
REMARK    6  A    between atoms: N_5  and  C_9
REMARK    7  A    between atoms: C_6  and  C_7
REMARK    8  A    between atoms: C_6  and  C_8
REMARK    9  A    between atoms: C_7  and  C_10
REMARK   10  A    between atoms: C_9  and  C_11
REMARK   11  A    between atoms: C_10  and  C_12
REMARK   12  A    between atoms: C_11  and  C_13
REMARK                            x       y       z     vdW  Elec       q    Type
REMARK                         _______ _______ _______ _____ _____    ______ ____
ROOT
ATOM      1  N   UNL     1       0.792   1.284  -0.147  0.00  0.00    +0.000 NA
ATOM      2  H   UNL     1       0.814   1.709  -1.074  0.00  0.00    +0.000 HD
ENDROOT
BRANCH   1   3
ATOM      3  C   UNL     1      -0.397   0.452  -0.013  0.00  0.00    +0.000 C 
BRANCH   3   4
ATOM      4  C   UNL     1      -1.657   1.288  -0.227  0.00  0.00    +0.000 C 
BRANCH   4   5
ATOM      5  C   UNL     1      -2.919   0.435  -0.082  0.00  0.00    +0.000 C 
BRANCH   5   6
ATOM      6  C   UNL     1      -4.183   1.279  -0.261  0.00  0.00    +0.000 C 
BRANCH   6   7
ATOM      7  C   UNL     1      -5.433   0.454  -0.085  0.00  0.00    +0.000 A 
ATOM      8  C   UNL     1      -5.999  -0.169  -1.186  0.00  0.00    +0.000 A 
ATOM      9  C   UNL     1      -5.997   0.334   1.177  0.00  0.00    +0.000 A 
ATOM     10  C   UNL     1      -7.156  -0.931  -1.023  0.00  0.00    +0.000 A 
ATOM     11  C   UNL     1      -7.154  -0.429   1.340  0.00  0.00    +0.000 A 
ATOM     12  C   UNL     1      -7.733  -1.061   0.240  0.00  0.00    +0.000 A 
BRANCH  12  13
ATOM     13  O   UNL     1      -8.861  -1.806   0.399  0.00  0.00    +0.000 OA
ATOM     14  H   UNL     1      -9.123  -2.169  -0.465  0.00  0.00    +0.000 HD
ENDBRANCH  12  13
ENDBRANCH   6   7
ENDBRANCH   5   6
ENDBRANCH   4   5
ENDBRANCH   3   4
ENDBRANCH   1   3
BRANCH   1  15
ATOM     15  C   UNL     1       2.001   0.501   0.064  0.00  0.00    +0.000 C 
BRANCH  15  16
ATOM     16  C   UNL     1       3.252   1.371  -0.106  0.00  0.00    +0.000 C 
BRANCH  16  17
ATOM     17  C   UNL     1       4.518   0.572   0.111  0.00  0.00    +0.000 A 
ATOM     18  C   UNL     1       4.755  -0.544  -0.673  0.00  0.00    +0.000 A 
ATOM     19  C   UNL     1       5.411   0.972   1.090  0.00  0.00    +0.000 A 
ATOM     20  C   UNL     1       5.921  -1.282  -0.472  0.00  0.00    +0.000 A 
ATOM     21  C   UNL     1       6.577   0.234   1.291  0.00  0.00    +0.000 A 
ATOM     22  C   UNL     1       6.832  -0.893   0.510  0.00  0.00    +0.000 A 
BRANCH  20  23
ATOM     23  O   UNL     1       6.160  -2.381  -1.242  0.00  0.00    +0.000 OA
ATOM     24  H   UNL     1       5.423  -2.498  -1.865  0.00  0.00    +0.000 HD
ENDBRANCH  20  23
BRANCH  22  25
ATOM     25  O   UNL     1       7.975  -1.605   0.716  0.00  0.00    +0.000 OA
ATOM     26  H   UNL     1       7.989  -2.349   0.089  0.00  0.00    +0.000 HD
ENDBRANCH  22  25
ENDBRANCH  16  17
BRANCH  16  27
ATOM     27  O   UNL     1       3.294   1.925  -1.421  0.00  0.00    +0.000 OA
ATOM     28  H   UNL     1       4.157   2.358  -1.540  0.00  0.00    +0.000 HD
ENDBRANCH  16  27
ENDBRANCH  15  16
ENDBRANCH   1  15
TORSDOF 12
