REMARK  Name = 5287509
REMARK  13 active torsions:
REMARK  status: ('A' for Active; 'I' for Inactive)
REMARK    1  A    between atoms: O_3  and  C_9
REMARK    2  A    between atoms: O_4  and  C_16
REMARK    3  A    between atoms: O_4  and  C_21
REMARK    4  A    between atoms: O_5  and  C_15
REMARK    5  A    between atoms: O_6  and  C_28
REMARK    6  A    between atoms: O_7  and  C_28
REMARK    7  A    between atoms: N_8  and  C_9
REMARK    8  A    between atoms: N_8  and  C_10
REMARK    9  A    between atoms: C_9  and  C_12
REMARK   10  A    between atoms: C_10  and  C_11
REMARK   11  A    between atoms: C_11  and  C_13
REMARK   12  A    between atoms: C_17  and  C_18
REMARK   13  A    between atoms: C_18  and  C_28
REMARK                            x       y       z     vdW  Elec       q    Type
REMARK                         _______ _______ _______ _____ _____    ______ ____
ROOT
ATOM      1  C   UNL     1       0.414  -2.236   0.721  0.00  0.00    +0.000 A 
ATOM      2  C   UNL     1      -0.599  -1.632  -0.004  0.00  0.00    +0.000 A 
ATOM      3  C   UNL     1       1.089  -3.343   0.234  0.00  0.00    +0.000 A 
ATOM      4  C   UNL     1      -0.948  -2.149  -1.252  0.00  0.00    +0.000 A 
ATOM      5  C   UNL     1       0.741  -3.860  -1.014  0.00  0.00    +0.000 A 
ATOM      6  C   UNL     1      -0.277  -3.263  -1.757  0.00  0.00    +0.000 A 
ENDROOT
BRANCH   3   7
ATOM      7  O   UNL     1       2.087  -3.938   0.946  0.00  0.00    +0.000 OA
ATOM      8  H   UNL     1       2.208  -3.489   1.798  0.00  0.00    +0.000 HD
ENDBRANCH   3   7
BRANCH   4   9
ATOM      9  O   UNL     1      -1.942  -1.567  -1.977  0.00  0.00    +0.000 OA
BRANCH   9  13
ATOM     10 BR   UNL     1      -4.393  -2.373  -0.268  0.00  0.00    +0.000 Br
ATOM     11 BR   UNL     1      -0.545   1.078  -2.776  0.00  0.00    +0.000 Br
ATOM     12  C   UNL     1      -3.843   1.744  -0.338  0.00  0.00    +0.000 A 
ATOM     13  C   UNL     1      -2.575  -0.463  -1.431  0.00  0.00    +0.000 A 
ATOM     14  C   UNL     1      -4.333   0.463  -0.086  0.00  0.00    +0.000 A 
ATOM     15  C   UNL     1      -2.715   1.914  -1.141  0.00  0.00    +0.000 A 
ATOM     16  C   UNL     1      -3.695  -0.648  -0.636  0.00  0.00    +0.000 A 
ATOM     17  C   UNL     1      -2.076   0.803  -1.691  0.00  0.00    +0.000 A 
BRANCH  12  18
ATOM     18  C   UNL     1      -4.526   2.933   0.250  0.00  0.00    +0.000 C 
BRANCH  18  19
ATOM     19  C   UNL     1      -4.001   3.355   1.635  0.00  0.00    +0.000 C 
BRANCH  19  20
ATOM     20  O   UNL     1      -4.202   2.295   2.560  0.00  0.00    +0.000 OA
ATOM     21  H   UNL     1      -4.254   2.694   3.445  0.00  0.00    +0.000 HD
ENDBRANCH  19  20
BRANCH  19  22
ATOM     22  O   UNL     1      -2.628   3.707   1.534  0.00  0.00    +0.000 OA
ATOM     23  H   UNL     1      -2.437   4.325   2.260  0.00  0.00    +0.000 HD
ENDBRANCH  19  22
ENDBRANCH  18  19
ENDBRANCH  12  18
ENDBRANCH   9  13
ENDBRANCH   4   9
BRANCH   1  24
ATOM     24  C   UNL     1       0.779  -1.662   2.072  0.00  0.00    +0.000 C 
BRANCH  24  25
ATOM     25  O   UNL     1       0.439  -2.647   3.051  0.00  0.00    +0.000 OA
ATOM     26  H   UNL     1       0.797  -2.334   3.899  0.00  0.00    +0.000 HD
ENDBRANCH  24  25
BRANCH  24  27
ATOM     27  N   UNL     1       2.193  -1.283   2.180  0.00  0.00    +0.000 NA
ATOM     28  H   UNL     1       2.375  -0.936   3.121  0.00  0.00    +0.000 HD
BRANCH  27  29
ATOM     29  C   UNL     1       2.574  -0.270   1.202  0.00  0.00    +0.000 C 
BRANCH  29  30
ATOM     30  C   UNL     1       4.055   0.113   1.333  0.00  0.00    +0.000 C 
BRANCH  30  31
ATOM     31  C   UNL     1       4.451   1.168   0.356  0.00  0.00    +0.000 A 
ATOM     32  C   UNL     1       4.927   0.808  -0.904  0.00  0.00    +0.000 A 
ATOM     33  C   UNL     1       4.345   2.515   0.703  0.00  0.00    +0.000 A 
ATOM     34  C   UNL     1       5.297   1.795  -1.818  0.00  0.00    +0.000 A 
ATOM     35  C   UNL     1       4.715   3.502  -0.210  0.00  0.00    +0.000 A 
ATOM     36  C   UNL     1       5.191   3.142  -1.471  0.00  0.00    +0.000 A 
ENDBRANCH  30  31
ENDBRANCH  29  30
ENDBRANCH  27  29
ENDBRANCH  24  27
ENDBRANCH   1  24
TORSDOF 13
