REMARK  Name = 52941757
REMARK  14 active torsions:
REMARK  status: ('A' for Active; 'I' for Inactive)
REMARK    1  A    between atoms: O_1  and  C_14
REMARK    2  A    between atoms: O_2  and  C_15
REMARK    3  A    between atoms: O_3  and  C_19
REMARK    4  A    between atoms: O_3  and  C_21
REMARK    5  A    between atoms: O_4  and  C_18
REMARK    6  A    between atoms: N_7  and  C_13
REMARK    7  A    between atoms: N_7  and  C_17
REMARK    8  A    between atoms: N_8  and  CA_11
REMARK    9  A    between atoms: C_9  and  C_10
REMARK   10  A    between atoms: C_9  and  CA_11
REMARK   11  A    between atoms: CA_11  and  C_18
REMARK   12  A    between atoms: C_17  and  C_19
REMARK   13  A    between atoms: C_20  and  C_28
REMARK   14  A    between atoms: C_22  and  C_27
REMARK                            x       y       z     vdW  Elec       q    Type
REMARK                         _______ _______ _______ _____ _____    ______ ____
ROOT
ATOM      1  C   UNL     1      -3.659  -0.588  -0.686  0.00  0.00    +0.000 A 
ATOM      2  C   UNL     1      -2.268  -0.506  -0.643  0.00  0.00    +0.000 A 
ATOM      3  C   UNL     1      -1.525  -1.538  -0.069  0.00  0.00    +0.000 A 
ATOM      4  C   UNL     1      -4.309  -1.702  -0.154  0.00  0.00    +0.000 A 
ATOM      5  C   UNL     1      -2.175  -2.652   0.462  0.00  0.00    +0.000 A 
ATOM      6  C   UNL     1      -3.567  -2.734   0.420  0.00  0.00    +0.000 A 
ENDROOT
BRANCH   4   7
ATOM      7  O   UNL     1      -5.668  -1.799  -0.188  0.00  0.00    +0.000 OA
ATOM      8  H   UNL     1      -5.938  -2.636   0.226  0.00  0.00    +0.000 HD
ENDBRANCH   4   7
BRANCH   5   9
ATOM      9  O   UNL     1      -1.468  -3.671   1.027  0.00  0.00    +0.000 OA
ATOM     10  H   UNL     1      -2.086  -4.354   1.339  0.00  0.00    +0.000 HD
ENDBRANCH   5   9
BRANCH   3  11
ATOM     11  N   UNL     1      -0.132  -1.442  -0.031  0.00  0.00    +0.000 N 
ATOM     12  H   UNL     1       0.372  -2.320  -0.102  0.00  0.00    +0.000 HD
BRANCH  11  13
ATOM     13  C   UNL     1       0.638  -0.312   0.045  0.00  0.00    +0.000 C 
ATOM     14  C   UNL     1       0.300   0.847   0.637  0.00  0.00    +0.000 C 
BRANCH  14  16
ATOM     15  O   UNL     1       0.827   3.080   1.216  0.00  0.00    +0.000 OA
ATOM     16  C   UNL     1       1.173   2.041   0.665  0.00  0.00    +0.000 C 
ENDBRANCH  14  16
BRANCH  13  17
ATOM     17  C   UNL     1       1.983  -0.414  -0.635  0.00  0.00    +0.000 C 
BRANCH  17  18
ATOM     18  O   UNL     1       2.952  -0.873   0.300  0.00  0.00    +0.000 OA
BRANCH  18  19
ATOM     19  C   UNL     1       4.250  -0.494   0.080  0.00  0.00    +0.000 A 
ATOM     20  C   UNL     1       6.893   0.276  -0.368  0.00  0.00    +0.000 A 
ATOM     21  C   UNL     1       4.700  -0.272  -1.221  0.00  0.00    +0.000 A 
ATOM     22  C   UNL     1       5.121  -0.331   1.157  0.00  0.00    +0.000 A 
ATOM     23  C   UNL     1       6.022   0.113  -1.445  0.00  0.00    +0.000 A 
ATOM     24  C   UNL     1       6.443   0.054   0.933  0.00  0.00    +0.000 A 
ATOM     25  C   UNL     1       8.306   0.687  -0.608  0.00  0.00    +0.000 C 
ENDBRANCH  18  19
ENDBRANCH  17  18
ENDBRANCH  13  17
ENDBRANCH  11  13
ENDBRANCH   3  11
BRANCH   1  26
ATOM     26  C   UNL     1      -4.439   0.527  -1.303  0.00  0.00    +0.000 C 
BRANCH  26  27
ATOM     27  CA  UNL     1      -4.834   1.630  -0.298  0.00  0.00    +0.000 C 
BRANCH  27  28
ATOM     28  N   UNL     1      -5.593   2.682  -0.971  0.00  0.00    +0.000 NA
ATOM     29  H1  UNL     1      -5.934   3.352  -0.282  0.00  0.00    +0.000 HD
ATOM     30  H2  UNL     1      -6.421   2.280  -1.409  0.00  0.00    +0.000 HD
ENDBRANCH  27  28
BRANCH  27  32
ATOM     31  OXT UNL     1      -2.743   2.878  -0.314  0.00  0.00    +0.000 OA
ATOM     32  C   UNL     1      -3.617   2.298   0.318  0.00  0.00    +0.000 C 
BRANCH  32  33
ATOM     33  O   UNL     1      -3.612   2.215   1.673  0.00  0.00    +0.000 OA
ATOM     34  H   UNL     1      -2.829   2.658   2.064  0.00  0.00    +0.000 HD
ENDBRANCH  32  33
ENDBRANCH  27  32
ENDBRANCH  26  27
ENDBRANCH   1  26
TORSDOF 13
