REMARK  Name = 5274976
REMARK  8 active torsions:
REMARK  status: ('A' for Active; 'I' for Inactive)
REMARK    1  A    between atoms: O_1  and  C_12
REMARK    2  A    between atoms: O_1  and  C_14
REMARK    3  A    between atoms: O_2  and  C_11
REMARK    4  A    between atoms: C_3  and  C_4
REMARK    5  A    between atoms: C_3  and  C_5
REMARK    6  A    between atoms: C_4  and  C_6
REMARK    7  A    between atoms: C_5  and  C_7
REMARK    8  A    between atoms: C_6  and  C_10
REMARK                            x       y       z     vdW  Elec       q    Type
REMARK                         _______ _______ _______ _____ _____    ______ ____
ROOT
ATOM      1  C   UNL     1       1.620   0.988   0.513  0.00  0.00    +0.000 A 
ATOM      2  C   UNL     1       1.083   1.681  -0.561  0.00  0.00    +0.000 A 
ATOM      3  C   UNL     1       0.804   0.381   1.456  0.00  0.00    +0.000 A 
ATOM      4  C   UNL     1      -0.303   1.768  -0.696  0.00  0.00    +0.000 A 
ATOM      5  C   UNL     1      -1.135   1.162   0.245  0.00  0.00    +0.000 A 
ATOM      6  C   UNL     1      -0.581   0.469   1.322  0.00  0.00    +0.000 A 
ENDROOT
BRANCH   4   7
ATOM      7  O   UNL     1      -0.832   2.448  -1.751  0.00  0.00    +0.000 OA
ATOM      8  H   UNL     1      -0.107   2.799  -2.297  0.00  0.00    +0.000 HD
ENDBRANCH   4   7
BRANCH   5   9
ATOM      9  O   UNL     1      -2.490   1.240   0.125  0.00  0.00    +0.000 OA
BRANCH   9  10
ATOM     10  C   UNL     1      -3.194   0.054   0.006  0.00  0.00    +0.000 A 
ATOM     11  C   UNL     1      -2.728  -0.923  -0.855  0.00  0.00    +0.000 A 
ATOM     12  C   UNL     1      -4.346  -0.122   0.750  0.00  0.00    +0.000 A 
ATOM     13  C   UNL     1      -3.438  -2.117  -0.976  0.00  0.00    +0.000 A 
ATOM     14  C   UNL     1      -5.057  -1.317   0.629  0.00  0.00    +0.000 A 
ATOM     15  C   UNL     1      -4.603  -2.314  -0.234  0.00  0.00    +0.000 A 
ENDBRANCH   9  10
ENDBRANCH   5   9
BRANCH   1  16
ATOM     16  C   UNL     1       3.118   0.893   0.659  0.00  0.00    +0.000 C 
BRANCH  16  17
ATOM     17  C   UNL     1       3.732  -0.325  -0.041  0.00  0.00    +0.000 C 
BRANCH  17  18
ATOM     18  C   UNL     1       5.243  -0.446   0.182  0.00  0.00    +0.000 C 
BRANCH  18  19
ATOM     19  C   UNL     1       5.807  -1.686  -0.511  0.00  0.00    +0.000 C 
ATOM     20  C   UNL     1       7.300  -1.833  -0.261  0.00  0.00    +0.000 C 
ENDBRANCH  18  19
ENDBRANCH  17  18
ENDBRANCH  16  17
ENDBRANCH   1  16
TORSDOF 7
