REMARK  Name = 
REMARK  6 active torsions:
REMARK  status: ('A' for Active; 'I' for Inactive)
REMARK    1  A    between atoms: C_1  and  C_2
REMARK    2  A    between atoms: C_1  and  O_8
REMARK    3  A    between atoms: C_2  and  O_9
REMARK    4  A    between atoms: C_3  and  C_4
REMARK    5  A    between atoms: C_5  and  C_6
REMARK    6  A    between atoms: C_6  and  C_15
REMARK                            x       y       z     vdW  Elec       q    Type
REMARK                         _______ _______ _______ _____ _____    ______ ____
ROOT
ATOM      1  C   UNL     1       0.353   0.613   0.000  0.00  0.00    +0.000 C 
ATOM      2  C   UNL     1       1.059   1.040   0.000  0.00  0.00    +0.000 C 
ENDROOT
BRANCH   1   4
ATOM      3  C   UNL     1      -1.077   0.613   0.000  0.00  0.00    +0.000 C 
ATOM      4  C   UNL     1      -0.371   1.040   0.000  0.00  0.00    +0.000 C 
BRANCH   3   5
ATOM      5  C   UNL     1      -1.802   1.040   0.000  0.00  0.00    +0.000 C 
ATOM      6  O   UNL     1      -1.802   1.857   0.000  0.00  0.00    +0.000 OA
BRANCH   5   7
ATOM      7  O   UNL     1      -2.507   0.613   0.000  0.00  0.00    +0.000 OA
ATOM      8  H   UNL     1      -3.328   1.064   0.000  0.00  0.00    +0.000 HD
ENDBRANCH   5   7
ENDBRANCH   3   5
BRANCH   3   9
ATOM      9  O   UNL     1      -1.077  -0.204   0.000  0.00  0.00    +0.000 OA
ATOM     10  H   UNL     1      -1.889  -0.673   0.000  0.00  0.00    +0.000 HD
ENDBRANCH   3   9
ENDBRANCH   1   4
BRANCH   2  11
ATOM     11  C   UNL     1       1.783   0.613   0.000  0.00  0.00    +0.000 C 
ATOM     12  O   UNL     1       2.507   1.040   0.000  0.00  0.00    +0.000 OA
BRANCH  11  17
ATOM     13  C   UNL     1       1.077  -1.449   0.000  0.00  0.00    +0.000 A 
ATOM     14  C   UNL     1       1.783  -1.857   0.000  0.00  0.00    +0.000 A 
ATOM     15  C   UNL     1       2.507  -1.449   0.000  0.00  0.00    +0.000 A 
ATOM     16  C   UNL     1       2.507  -0.631   0.000  0.00  0.00    +0.000 A 
ATOM     17  C   UNL     1       1.783  -0.204   0.000  0.00  0.00    +0.000 A 
ATOM     18  C   UNL     1       1.077  -0.631   0.000  0.00  0.00    +0.000 A 
ENDBRANCH  11  17
ENDBRANCH   2  11
TORSDOF 6
