REMARK  Name = 46937113
REMARK  6 active torsions:
REMARK  status: ('A' for Active; 'I' for Inactive)
REMARK    1  A    between atoms: O_1  and  C_10
REMARK    2  A    between atoms: O_2  and  C_12
REMARK    3  A    between atoms: O_3  and  C_14
REMARK    4  A    between atoms: C_6  and  C_7
REMARK    5  A    between atoms: C_7  and  CA_13
REMARK    6  A    between atoms: CA_13  and  C_14
REMARK                            x       y       z     vdW  Elec       q    Type
REMARK                         _______ _______ _______ _____ _____    ______ ____
ROOT
ATOM      1  C   UNL     1      -0.132  -0.564   0.638  0.00  0.00    +0.000 A 
ATOM      2  C   UNL     1      -0.684   0.717   0.631  0.00  0.00    +0.000 A 
ATOM      3  C   UNL     1      -0.885  -1.651   0.195  0.00  0.00    +0.000 A 
ATOM      4  C   UNL     1      -1.990   0.911   0.180  0.00  0.00    +0.000 A 
ATOM      5  C   UNL     1      -2.191  -1.457  -0.256  0.00  0.00    +0.000 A 
ATOM      6  C   UNL     1      -2.744  -0.176  -0.263  0.00  0.00    +0.000 A 
ENDROOT
BRANCH   4   7
ATOM      7  O   UNL     1      -2.518   2.167   0.175  0.00  0.00    +0.000 OA
ATOM      8  H   UNL     1      -1.853   2.791   0.514  0.00  0.00    +0.000 HD
ENDBRANCH   4   7
BRANCH   6   9
ATOM      9  O   UNL     1      -4.020   0.001  -0.706  0.00  0.00    +0.000 OA
ATOM     10  H   UNL     1      -4.385  -0.861  -0.972  0.00  0.00    +0.000 HD
ENDBRANCH   6   9
BRANCH   1  11
ATOM     11  C   UNL     1       1.264  -0.771   1.119  0.00  0.00    +0.000 C 
BRANCH  11  13
ATOM     12  N   UNL     1       2.668  -1.642  -0.724  0.00  0.00    +0.000 NA
ATOM     13  CA  UNL     1       2.273  -0.652   0.003  0.00  0.00    +0.000 C 
ATOM     14  H   UNL     1       3.341  -1.328  -1.432  0.00  0.00    +0.000 HD
BRANCH  13  16
ATOM     15  OXT UNL     1       2.681   1.215  -1.415  0.00  0.00    +0.000 OA
ATOM     16  C   UNL     1       2.816   0.707  -0.322  0.00  0.00    +0.000 C 
BRANCH  16  17
ATOM     17  O   UNL     1       3.462   1.196   0.745  0.00  0.00    +0.000 OA
ATOM     18  H   UNL     1       3.846   2.082   0.572  0.00  0.00    +0.000 HD
ENDBRANCH  16  17
ENDBRANCH  13  16
ENDBRANCH  11  13
ENDBRANCH   1  11
TORSDOF 6
