REMARK  Name = 5289330
REMARK  7 active torsions:
REMARK  status: ('A' for Active; 'I' for Inactive)
REMARK    1  A    between atoms: O_1  and  C_7
REMARK    2  A    between atoms: O_1  and  C_8
REMARK    3  A    between atoms: O_3  and  N_5
REMARK    4  A    between atoms: N_5  and  C_10
REMARK    5  A    between atoms: C_6  and  C_11
REMARK    6  A    between atoms: C_8  and  C_10
REMARK    7  A    between atoms: C_11  and  C_12
REMARK                            x       y       z     vdW  Elec       q    Type
REMARK                         _______ _______ _______ _____ _____    ______ ____
ROOT
ATOM      1  C   UNL     1      -1.013   1.501   0.028  0.00  0.00    +0.000 A 
ATOM      2  C   UNL     1       1.367   1.488   0.115  0.00  0.00    +0.000 A 
ATOM      3  C   UNL     1       0.143   1.092   0.652  0.00  0.00    +0.000 A 
ATOM      4  C   UNL     1      -1.013   2.284  -1.102  0.00  0.00    +0.000 A 
ATOM      5  C   UNL     1       1.402   2.283  -1.031  0.00  0.00    +0.000 A 
ATOM      6  C   UNL     1       0.211   2.681  -1.639  0.00  0.00    +0.000 A 
ENDROOT
BRANCH   1   8
ATOM      7  O   UNL     1      -2.843   1.819   1.449  0.00  0.00    +0.000 OA
ATOM      8  C   UNL     1      -2.325   1.075   0.603  0.00  0.00    +0.000 C 
BRANCH   8   9
ATOM      9  C   UNL     1      -2.988  -0.156   0.204  0.00  0.00    +0.000 A 
ATOM     10  C   UNL     1      -2.399  -0.990  -0.747  0.00  0.00    +0.000 A 
ATOM     11  C   UNL     1      -4.212  -0.504   0.774  0.00  0.00    +0.000 A 
ATOM     12  C   UNL     1      -3.035  -2.171  -1.128  0.00  0.00    +0.000 A 
ATOM     13  C   UNL     1      -4.849  -1.685   0.393  0.00  0.00    +0.000 A 
ATOM     14  C   UNL     1      -4.260  -2.519  -0.558  0.00  0.00    +0.000 A 
ENDBRANCH   8   9
ENDBRANCH   1   8
BRANCH   2  15
ATOM     15  O   UNL     1       2.529   1.099   0.708  0.00  0.00    +0.000 OA
BRANCH  15  16
ATOM     16  C   UNL     1       2.519  -0.151   1.396  0.00  0.00    +0.000 C 
BRANCH  16  17
ATOM     17  C   UNL     1       3.906  -0.766   1.343  0.00  0.00    +0.000 C 
BRANCH  17  19
ATOM     18  O   UNL     1       3.482  -3.182  -0.185  0.00  0.00    +0.000 OA
ATOM     19  N   UNL     1       4.316  -1.028  -0.010  0.00  0.00    +0.000 N 
ATOM     20  C   UNL     1       4.067  -2.209  -0.647  0.00  0.00    +0.000 C 
BRANCH  19  21
ATOM     21  O   UNL     1       4.996   0.038  -0.617  0.00  0.00    +0.000 OA
ATOM     22  H   UNL     1       4.245   0.563  -0.944  0.00  0.00    +0.000 HD
ENDBRANCH  19  21
ENDBRANCH  17  19
ENDBRANCH  16  17
ENDBRANCH  15  16
ENDBRANCH   2  15
TORSDOF 7
