REMARK  Name = 5280911
REMARK  5 active torsions:
REMARK  status: ('A' for Active; 'I' for Inactive)
REMARK    1  A    between atoms: O_1  and  C_6
REMARK    2  A    between atoms: O_3  and  C_14
REMARK    3  A    between atoms: C_5  and  C_8
REMARK    4  A    between atoms: C_12  and  C_13
REMARK    5  A    between atoms: C_13  and  C_14
REMARK                            x       y       z     vdW  Elec       q    Type
REMARK                         _______ _______ _______ _____ _____    ______ ____
ROOT
ATOM      1  C   UNL     1      -1.363  -0.056   0.152  0.00  0.00    +0.000 A 
ATOM      2  C   UNL     1      -2.397  -0.932  -0.177  0.00  0.00    +0.000 A 
ATOM      3  C   UNL     1      -1.637   1.295   0.370  0.00  0.00    +0.000 A 
ATOM      4  C   UNL     1      -3.704  -0.459  -0.289  0.00  0.00    +0.000 A 
ATOM      5  C   UNL     1      -2.944   1.768   0.258  0.00  0.00    +0.000 A 
ATOM      6  C   UNL     1      -3.978   0.892  -0.072  0.00  0.00    +0.000 A 
ENDROOT
BRANCH   2   7
ATOM      7  O   UNL     1      -2.157  -2.257  -0.396  0.00  0.00    +0.000 OA
ATOM      8  H   UNL     1      -2.995  -2.701  -0.611  0.00  0.00    +0.000 HD
ENDBRANCH   2   7
BRANCH   1   9
ATOM      9  C   UNL     1       0.010  -0.526   0.275  0.00  0.00    +0.000 C 
ATOM     10  C   UNL     1       1.110   0.206  -0.002  0.00  0.00    +0.000 C 
BRANCH  10  12
ATOM     11  O   UNL     1       2.676  -1.531   0.526  0.00  0.00    +0.000 OA
ATOM     12  C   UNL     1       2.461  -0.388   0.152  0.00  0.00    +0.000 C 
BRANCH  12  14
ATOM     13  O   UNL     1       3.510   1.651  -0.575  0.00  0.00    +0.000 OA
ATOM     14  C   UNL     1       3.632   0.503  -0.198  0.00  0.00    +0.000 C 
BRANCH  14  15
ATOM     15  O   UNL     1       4.782  -0.167  -0.023  0.00  0.00    +0.000 OA
ATOM     16  H   UNL     1       5.566   0.381  -0.239  0.00  0.00    +0.000 HD
ENDBRANCH  14  15
ENDBRANCH  12  14
ENDBRANCH  10  12
ENDBRANCH   1   9
TORSDOF 5
