REMARK  Name = 1549789
REMARK  10 active torsions:
REMARK  status: ('A' for Active; 'I' for Inactive)
REMARK    1  A    between atoms: O_1  and  C_6
REMARK    2  A    between atoms: O_1  and  C_9
REMARK    3  A    between atoms: O_3  and  C_15
REMARK    4  A    between atoms: O_3  and  C_18
REMARK    5  A    between atoms: C_4  and  C_5
REMARK    6  A    between atoms: C_4  and  C_7
REMARK    7  A    between atoms: C_4  and  C_8
REMARK    8  A    between atoms: C_5  and  C_6
REMARK    9  A    between atoms: C_9  and  C_11
REMARK   10  A    between atoms: C_10  and  C_12
REMARK                            x       y       z     vdW  Elec       q    Type
REMARK                         _______ _______ _______ _____ _____    ______ ____
ROOT
ATOM      1  C   UNL     1       0.294   0.091   0.049  0.00  0.00    +0.000 C 
ATOM      2  C   UNL     1      -0.789   0.864   0.209  0.00  0.00    +0.000 C 
ENDROOT
BRANCH   2   3
ATOM      3  C   UNL     1      -2.179   0.383   0.129  0.00  0.00    +0.000 A 
ATOM      4  C   UNL     1      -2.440  -0.968   0.290  0.00  0.00    +0.000 A 
ATOM      5  C   UNL     1      -3.199   1.292  -0.107  0.00  0.00    +0.000 A 
ATOM      6  C   UNL     1      -4.794  -0.521  -0.023  0.00  0.00    +0.000 A 
ATOM      7  C   UNL     1      -3.757  -1.423   0.213  0.00  0.00    +0.000 A 
ATOM      8  C   UNL     1      -4.515   0.836  -0.183  0.00  0.00    +0.000 A 
BRANCH   6   9
ATOM      9  O   UNL     1      -6.078  -0.966  -0.098  0.00  0.00    +0.000 OA
ATOM     10  C   UNL     1      -7.090   0.010  -0.343  0.00  0.00    +0.000 C 
ENDBRANCH   6   9
ENDBRANCH   2   3
BRANCH   1  12
ATOM     11  O   UNL     1       1.877   1.873   0.370  0.00  0.00    +0.000 OA
ATOM     12  C   UNL     1       1.642   0.696   0.142  0.00  0.00    +0.000 C 
BRANCH  12  13
ATOM     13  O   UNL     1       2.562  -0.290  -0.069  0.00  0.00    +0.000 OA
BRANCH  13  14
ATOM     14  C   UNL     1       3.925   0.113  -0.014  0.00  0.00    +0.000 C 
BRANCH  14  15
ATOM     15  C   UNL     1       4.804  -1.105  -0.270  0.00  0.00    +0.000 C 
BRANCH  15  16
ATOM     16  C   UNL     1       6.311  -0.803  -0.216  0.00  0.00    +0.000 C 
ATOM     17  C   UNL     1       6.663   0.268  -1.251  0.00  0.00    +0.000 C 
ATOM     18  C   UNL     1       6.765  -0.350   1.172  0.00  0.00    +0.000 C 
ENDBRANCH  15  16
ENDBRANCH  14  15
ENDBRANCH  13  14
ENDBRANCH  12  13
ENDBRANCH   1  12
TORSDOF 7
