REMARK  Name = 114840
REMARK  5 active torsions:
REMARK  status: ('A' for Active; 'I' for Inactive)
REMARK    1  A    between atoms: O_1  and  C_14
REMARK    2  A    between atoms: O_2  and  C_15
REMARK    3  A    between atoms: O_3  and  C_20
REMARK    4  A    between atoms: C_5  and  C_10
REMARK    5  A    between atoms: C_10  and  C_12
REMARK                            x       y       z     vdW  Elec       q    Type
REMARK                         _______ _______ _______ _____ _____    ______ ____
ROOT
ATOM      1  N   UNL     1      -0.255  -1.847   0.752  0.00  0.00    +0.000 NA
ATOM      2  C   UNL     1       0.012  -0.437   0.409  0.00  0.00    +0.000 C 
ATOM      3  C   UNL     1       1.486  -0.117   0.241  0.00  0.00    +0.000 A 
ATOM      4  C   UNL     1       2.431  -1.145   0.066  0.00  0.00    +0.000 A 
ATOM      5  C   UNL     1       2.007  -2.590   0.117  0.00  0.00    +0.000 C 
ATOM      6  C   UNL     1       0.505  -2.767  -0.096  0.00  0.00    +0.000 C 
ATOM      7  C   UNL     1       1.920   1.217   0.240  0.00  0.00    +0.000 A 
ATOM      8  C   UNL     1       3.786  -0.825  -0.091  0.00  0.00    +0.000 A 
ATOM      9  C   UNL     1       3.269   1.526   0.072  0.00  0.00    +0.000 A 
ATOM     10  C   UNL     1       4.202   0.506  -0.094  0.00  0.00    +0.000 A 
ATOM     11  H   UNL     1      -1.248  -2.059   0.703  0.00  0.00    +0.000 HD
ENDROOT
BRANCH   9  12
ATOM     12  O   UNL     1       3.664   2.829   0.075  0.00  0.00    +0.000 OA
ATOM     13  H   UNL     1       2.885   3.397   0.202  0.00  0.00    +0.000 HD
ENDBRANCH   9  12
BRANCH  10  14
ATOM     14  O   UNL     1       5.524   0.794  -0.251  0.00  0.00    +0.000 OA
ATOM     15  H   UNL     1       6.020  -0.036  -0.351  0.00  0.00    +0.000 HD
ENDBRANCH  10  14
BRANCH   2  16
ATOM     16  C   UNL     1      -0.798  -0.028  -0.827  0.00  0.00    +0.000 C 
BRANCH  16  17
ATOM     17  C   UNL     1      -2.247   0.173  -0.489  0.00  0.00    +0.000 A 
ATOM     18  C   UNL     1      -3.129  -0.898  -0.576  0.00  0.00    +0.000 A 
ATOM     19  C   UNL     1      -2.692   1.429  -0.092  0.00  0.00    +0.000 A 
ATOM     20  C   UNL     1      -4.475  -0.711  -0.261  0.00  0.00    +0.000 A 
ATOM     21  C   UNL     1      -4.038   1.616   0.222  0.00  0.00    +0.000 A 
ATOM     22  C   UNL     1      -4.929   0.546   0.137  0.00  0.00    +0.000 A 
BRANCH  22  23
ATOM     23  O   UNL     1      -6.243   0.729   0.443  0.00  0.00    +0.000 OA
ATOM     24  H   UNL     1      -6.713  -0.115   0.330  0.00  0.00    +0.000 HD
ENDBRANCH  22  23
ENDBRANCH  16  17
ENDBRANCH   2  16
TORSDOF 5
