REMARK  Name = 23497
REMARK  8 active torsions:
REMARK  status: ('A' for Active; 'I' for Inactive)
REMARK    1  A    between atoms: O_1  and  C_11
REMARK    2  A    between atoms: O_1  and  C_15
REMARK    3  A    between atoms: O_2  and  C_12
REMARK    4  A    between atoms: O_4  and  C_14
REMARK    5  A    between atoms: N_5  and  C_7
REMARK    6  A    between atoms: C_6  and  C_7
REMARK    7  A    between atoms: C_6  and  C_8
REMARK    8  A    between atoms: C_7  and  C_11
REMARK                            x       y       z     vdW  Elec       q    Type
REMARK                         _______ _______ _______ _____ _____    ______ ____
ROOT
ATOM      1  C   UNL     1       0.603   0.237   0.495  0.00  0.00    +0.000 A 
ATOM      2  C   UNL     1       1.202  -0.967   0.164  0.00  0.00    +0.000 A 
ATOM      3  C   UNL     1       1.331   1.415   0.550  0.00  0.00    +0.000 A 
ATOM      4  C   UNL     1       2.568  -0.995  -0.119  0.00  0.00    +0.000 A 
ATOM      5  C   UNL     1       2.696   1.387   0.268  0.00  0.00    +0.000 A 
ATOM      6  C   UNL     1       3.315   0.182  -0.067  0.00  0.00    +0.000 A 
ENDROOT
BRANCH   4   7
ATOM      7  O   UNL     1       3.160  -2.177  -0.446  0.00  0.00    +0.000 OA
ATOM      8  H   UNL     1       2.490  -2.882  -0.431  0.00  0.00    +0.000 HD
ENDBRANCH   4   7
BRANCH   6   9
ATOM      9  O   UNL     1       4.649   0.168  -0.342  0.00  0.00    +0.000 OA
ATOM     10  H   UNL     1       4.999   1.071  -0.257  0.00  0.00    +0.000 HD
ENDBRANCH   6   9
BRANCH   1  11
ATOM     11  C   UNL     1      -0.876   0.268   0.802  0.00  0.00    +0.000 C 
BRANCH  11  12
ATOM     12  C   UNL     1      -1.744   0.515  -0.439  0.00  0.00    +0.000 C 
BRANCH  12  13
ATOM     13  N   UNL     1      -1.746   1.944  -0.760  0.00  0.00    +0.000 NA
ATOM     14  H   UNL     1      -2.308   2.105  -1.595  0.00  0.00    +0.000 HD
ATOM     15  H   UNL     1      -0.803   2.245  -1.000  0.00  0.00    +0.000 HD
ENDBRANCH  12  13
BRANCH  12  17
ATOM     16  O   UNL     1      -4.140   0.889  -0.187  0.00  0.00    +0.000 OA
ATOM     17  C   UNL     1      -3.188   0.119  -0.183  0.00  0.00    +0.000 C 
BRANCH  17  18
ATOM     18  O   UNL     1      -3.258  -1.231   0.019  0.00  0.00    +0.000 OA
ATOM     19  C   UNL     1      -4.571  -1.755   0.243  0.00  0.00    +0.000 C 
ENDBRANCH  17  18
ENDBRANCH  12  17
ENDBRANCH  11  12
ENDBRANCH   1  11
TORSDOF 7
