REMARK  Name = 5489013
REMARK  11 active torsions:
REMARK  status: ('A' for Active; 'I' for Inactive)
REMARK    1  A    between atoms: O_1  and  C_6
REMARK    2  A    between atoms: O_3  and  C_20
REMARK    3  A    between atoms: O_3  and  C_23
REMARK    4  A    between atoms: N_4  and  C_5
REMARK    5  A    between atoms: N_4  and  C_7
REMARK    6  A    between atoms: C_5  and  C_6
REMARK    7  A    between atoms: C_5  and  C_8
REMARK    8  A    between atoms: C_6  and  C_9
REMARK    9  A    between atoms: C_7  and  C_10
REMARK   10  A    between atoms: C_10  and  C_13
REMARK   11  A    between atoms: C_13  and  C_14
REMARK                            x       y       z     vdW  Elec       q    Type
REMARK                         _______ _______ _______ _____ _____    ______ ____
ROOT
ATOM      1  N   UNL     1      -1.655   1.054   0.536  0.00  0.00    +0.000 NA
ATOM      2  H   UNL     1      -1.786   1.129   1.545  0.00  0.00    +0.000 HD
ENDROOT
BRANCH   1   3
ATOM      3  C   UNL     1      -2.672   1.859  -0.152  0.00  0.00    +0.000 C 
ATOM      4  C   UNL     1      -2.455   1.706  -1.659  0.00  0.00    +0.000 C 
BRANCH   3   5
ATOM      5  C   UNL     1      -4.080   1.407   0.294  0.00  0.00    +0.000 C 
BRANCH   5   6
ATOM      6  C   UNL     1      -4.396  -0.032  -0.057  0.00  0.00    +0.000 A 
ATOM      7  C   UNL     1      -4.989  -0.315  -1.275  0.00  0.00    +0.000 A 
ATOM      8  C   UNL     1      -4.086  -1.032   0.849  0.00  0.00    +0.000 A 
ATOM      9  C   UNL     1      -5.280  -1.641  -1.598  0.00  0.00    +0.000 A 
ATOM     10  C   UNL     1      -4.377  -2.357   0.525  0.00  0.00    +0.000 A 
ATOM     11  C   UNL     1      -4.974  -2.661  -0.698  0.00  0.00    +0.000 A 
ENDBRANCH   5   6
BRANCH   5  12
ATOM     12  O   UNL     1      -4.205   1.522   1.714  0.00  0.00    +0.000 OA
ATOM     13  H   UNL     1      -4.011   2.445   1.949  0.00  0.00    +0.000 HD
ENDBRANCH   5  12
ENDBRANCH   3   5
ENDBRANCH   1   3
BRANCH   1  14
ATOM     14  C   UNL     1      -0.321   1.502   0.177  0.00  0.00    +0.000 C 
BRANCH  14  15
ATOM     15  C   UNL     1       0.748   0.675   0.891  0.00  0.00    +0.000 C 
BRANCH  15  17
ATOM     16  O   UNL     1       2.420   2.271   0.207  0.00  0.00    +0.000 OA
ATOM     17  C   UNL     1       2.156   1.110   0.511  0.00  0.00    +0.000 C 
BRANCH  17  18
ATOM     18  C   UNL     1       3.245   0.090   0.509  0.00  0.00    +0.000 A 
ATOM     19  C   UNL     1       4.295   0.248  -0.367  0.00  0.00    +0.000 A 
ATOM     20  C   UNL     1       3.159  -0.968   1.385  0.00  0.00    +0.000 A 
ATOM     21  C   UNL     1       5.314  -0.705  -0.368  0.00  0.00    +0.000 A 
ATOM     22  C   UNL     1       4.178  -1.921   1.384  0.00  0.00    +0.000 A 
ATOM     23  C   UNL     1       5.255  -1.790   0.507  0.00  0.00    +0.000 A 
BRANCH  21  24
ATOM     24  O   UNL     1       6.364  -0.577  -1.224  0.00  0.00    +0.000 OA
ATOM     25  C   UNL     1       6.360   0.555  -2.092  0.00  0.00    +0.000 C 
ENDBRANCH  21  24
ENDBRANCH  17  18
ENDBRANCH  15  17
ENDBRANCH  14  15
ENDBRANCH   1  14
TORSDOF 9
