REMARK  Name = 7180
REMARK  5 active torsions:
REMARK  status: ('A' for Active; 'I' for Inactive)
REMARK    1  A    between atoms: O_1  and  C_5
REMARK    2  A    between atoms: O_1  and  C_9
REMARK    3  A    between atoms: O_2  and  C_17
REMARK    4  A    between atoms: C_4  and  C_5
REMARK    5  A    between atoms: C_6  and  C_9
REMARK                            x       y       z     vdW  Elec       q    Type
REMARK                         _______ _______ _______ _____ _____    ______ ____
ROOT
ATOM      1  O   UNL     1      -0.752   2.620   0.000  0.00  0.00    +0.000 OA
ATOM      2  C   UNL     1      -0.721   1.388   0.000  0.00  0.00    +0.000 C 
ENDROOT
BRANCH   2   3
ATOM      3  C   UNL     1      -1.915   0.557  -0.000  0.00  0.00    +0.000 A 
ATOM      4  C   UNL     1      -3.178   1.149  -0.001  0.00  0.00    +0.000 A 
ATOM      5  C   UNL     1      -1.796  -0.833   0.000  0.00  0.00    +0.000 A 
ATOM      6  C   UNL     1      -4.322   0.352  -0.000  0.00  0.00    +0.000 A 
ATOM      7  C   UNL     1      -2.941  -1.631   0.000  0.00  0.00    +0.000 A 
ATOM      8  C   UNL     1      -4.204  -1.038   0.000  0.00  0.00    +0.000 A 
BRANCH   8   9
ATOM      9  O   UNL     1      -5.321  -1.816   0.000  0.00  0.00    +0.000 OA
ATOM     10  H   UNL     1      -6.105  -1.241   0.001  0.00  0.00    +0.000 HD
ENDBRANCH   8   9
ENDBRANCH   2   3
BRANCH   2  11
ATOM     11  O   UNL     1       0.447   0.666   0.000  0.00  0.00    +0.000 OA
BRANCH  11  12
ATOM     12  C   UNL     1       1.662   1.423   0.000  0.00  0.00    +0.000 C 
BRANCH  12  13
ATOM     13  C   UNL     1       2.791   0.440   0.000  0.00  0.00    +0.000 A 
ATOM     14  C   UNL     1       3.314  -0.014   1.208  0.00  0.00    +0.000 A 
ATOM     15  C   UNL     1       3.313  -0.014  -1.208  0.00  0.00    +0.000 A 
ATOM     16  C   UNL     1       4.366  -0.930   1.208  0.00  0.00    +0.000 A 
ATOM     17  C   UNL     1       4.365  -0.930  -1.208  0.00  0.00    +0.000 A 
ATOM     18  C   UNL     1       4.892  -1.388  -0.000  0.00  0.00    +0.000 A 
ENDBRANCH  12  13
ENDBRANCH  11  12
ENDBRANCH   2  11
TORSDOF 5
