REMARK  Name = 54746
REMARK  11 active torsions:
REMARK  status: ('A' for Active; 'I' for Inactive)
REMARK    1  A    between atoms: N_3  and  C_17
REMARK    2  A    between atoms: N_5  and  C_25
REMARK    3  A    between atoms: N_6  and  C_30
REMARK    4  A    between atoms: N_7  and  C_29
REMARK    5  A    between atoms: N_7  and  C_31
REMARK    6  A    between atoms: N_7  and  C_32
REMARK    7  A    between atoms: C_11  and  C_18
REMARK    8  A    between atoms: C_17  and  C_24
REMARK    9  A    between atoms: C_25  and  C_27
REMARK   10  A    between atoms: C_27  and  C_29
REMARK   11  A    between atoms: C_30  and  C_33
REMARK                            x       y       z     vdW  Elec       q    Type
REMARK                         _______ _______ _______ _____ _____    ______ ____
ROOT
ATOM      1  N   UNL     1       1.387   2.440  -0.246  0.00  0.00    +0.000 NA
ATOM      2  N   UNL     1       5.749  -1.408   1.312  0.00  0.00    +0.000 N 
ATOM      3  C   UNL     1       1.616  -0.063  -0.368  0.00  0.00    +0.000 C 
ATOM      4  C   UNL     1       2.129   1.282   0.311  0.00  0.00    +0.000 C 
ATOM      5  C   UNL     1       0.101  -0.209  -0.173  0.00  0.00    +0.000 C 
ATOM      6  C   UNL     1      -0.626   1.040  -0.661  0.00  0.00    +0.000 C 
ATOM      7  C   UNL     1       3.692   1.455   0.186  0.00  0.00    +0.000 C 
ATOM      8  C   UNL     1      -0.060   2.302  -0.010  0.00  0.00    +0.000 C 
ATOM      9  C   UNL     1       2.403  -1.264   0.130  0.00  0.00    +0.000 A 
ATOM     10  C   UNL     1       3.718  -1.026   0.549  0.00  0.00    +0.000 A 
ATOM     11  C   UNL     1       4.394   0.209   0.607  0.00  0.00    +0.000 A 
ATOM     12  C   UNL     1       4.563  -2.029   0.987  0.00  0.00    +0.000 A 
ATOM     13  C   UNL     1       1.986  -2.601   0.146  0.00  0.00    +0.000 A 
ATOM     14  C   UNL     1       5.658  -0.051   1.082  0.00  0.00    +0.000 A 
ATOM     15  C   UNL     1       4.149  -3.359   1.029  0.00  0.00    +0.000 A 
ATOM     16  C   UNL     1       2.840  -3.622   0.594  0.00  0.00    +0.000 A 
ATOM     17  H   UNL     1       6.571  -1.878   1.666  0.00  0.00    +0.000 HD
ENDROOT
BRANCH   6  22
ATOM     18  O   UNL     1      -2.627   1.785   0.343  0.00  0.00    +0.000 OA
ATOM     19  O   UNL     1      -2.619  -2.027  -2.378  0.00  0.00    +0.000 OA
ATOM     20  N   UNL     1      -2.772  -0.188  -0.918  0.00  0.00    +0.000 N 
ATOM     21  N   UNL     1      -1.809   0.005  -3.079  0.00  0.00    +0.000 N 
ATOM     22  C   UNL     1      -2.093   0.924  -0.363  0.00  0.00    +0.000 C 
ATOM     23  C   UNL     1      -2.428  -0.831  -2.147  0.00  0.00    +0.000 C 
ATOM     24  H   UNL     1      -1.881   1.010  -2.960  0.00  0.00    +0.000 HD
BRANCH  21  25
ATOM     25  C   UNL     1      -1.355  -0.477  -4.363  0.00  0.00    +0.000 C 
ATOM     26  C   UNL     1      -1.655  -1.957  -4.502  0.00  0.00    +0.000 C 
ENDBRANCH  21  25
BRANCH  20  27
ATOM     27  C   UNL     1      -3.909  -0.688  -0.137  0.00  0.00    +0.000 C 
BRANCH  27  28
ATOM     28  C   UNL     1      -3.503  -1.145   1.262  0.00  0.00    +0.000 C 
BRANCH  28  29
ATOM     29  C   UNL     1      -4.665  -1.643   2.127  0.00  0.00    +0.000 C 
BRANCH  29  30
ATOM     30  N   UNL     1      -5.681  -0.615   2.319  0.00  0.00    +0.000 NA
ATOM     31  C   UNL     1      -5.111   0.553   2.995  0.00  0.00    +0.000 C 
ATOM     32  C   UNL     1      -6.810  -1.143   3.086  0.00  0.00    +0.000 C 
ENDBRANCH  29  30
ENDBRANCH  28  29
ENDBRANCH  27  28
ENDBRANCH  20  27
ENDBRANCH   6  22
BRANCH   1  33
ATOM     33  C   UNL     1       1.837   3.723   0.302  0.00  0.00    +0.000 C 
BRANCH  33  34
ATOM     34  C   UNL     1       1.133   4.877  -0.343  0.00  0.00    +0.000 C 
ATOM     35  C   UNL     1       0.368   5.751   0.320  0.00  0.00    +0.000 C 
ENDBRANCH  33  34
ENDBRANCH   1  33
TORSDOF 8
