REMARK  Name = 6337614
REMARK  1 active torsions:
REMARK  status: ('A' for Active; 'I' for Inactive)
REMARK    1  A    between atoms: N_3  and  C_5
REMARK                            x       y       z     vdW  Elec       q    Type
REMARK                         _______ _______ _______ _____ _____    ______ ____
ROOT
ATOM      1  O   UNL     1      -0.155   2.634   0.661  0.00  0.00    +0.000 OA
ATOM      2  N   UNL     1      -0.659   0.384   0.346  0.00  0.00    +0.000 N 
ATOM      3  C   UNL     1       1.192  -1.232   0.451  0.00  0.00    +0.000 C 
ATOM      4  C   UNL     1      -0.192  -0.923  -0.110  0.00  0.00    +0.000 C 
ATOM      5  C   UNL     1       2.128  -0.096   0.112  0.00  0.00    +0.000 A 
ATOM      6  C   UNL     1       1.703  -2.586  -0.054  0.00  0.00    +0.000 C 
ATOM      7  C   UNL     1       0.198   1.486   0.400  0.00  0.00    +0.000 C 
ATOM      8  C   UNL     1       1.636   1.221   0.119  0.00  0.00    +0.000 A 
ATOM      9  C   UNL     1       3.148  -2.790   0.389  0.00  0.00    +0.000 C 
ATOM     10  C   UNL     1       3.491  -0.329  -0.149  0.00  0.00    +0.000 A 
ATOM     11  C   UNL     1       4.055  -1.726  -0.227  0.00  0.00    +0.000 C 
ATOM     12  C   UNL     1       2.494   2.296  -0.133  0.00  0.00    +0.000 A 
ATOM     13  C   UNL     1       4.336   0.759  -0.414  0.00  0.00    +0.000 A 
ATOM     14  C   UNL     1       3.841   2.062  -0.399  0.00  0.00    +0.000 A 
ENDROOT
BRANCH   2  17
ATOM     15  N   UNL     1      -3.957  -1.117   0.505  0.00  0.00    +0.000 NA
ATOM     16  C   UNL     1      -2.828   0.849  -0.771  0.00  0.00    +0.000 C 
ATOM     17  C   UNL     1      -2.090   0.545   0.548  0.00  0.00    +0.000 C 
ATOM     18  C   UNL     1      -2.722  -0.697   1.208  0.00  0.00    +0.000 C 
ATOM     19  C   UNL     1      -2.867  -0.425  -1.633  0.00  0.00    +0.000 C 
ATOM     20  C   UNL     1      -4.282   1.190  -0.404  0.00  0.00    +0.000 C 
ATOM     21  C   UNL     1      -3.593  -1.541  -0.864  0.00  0.00    +0.000 C 
ATOM     22  C   UNL     1      -4.881   0.035   0.417  0.00  0.00    +0.000 C 
ENDBRANCH   2  17
TORSDOF 1
