REMARK  Name = 210332
REMARK  3 active torsions:
REMARK  status: ('A' for Active; 'I' for Inactive)
REMARK    1  A    between atoms: N_2  and  C_9
REMARK    2  A    between atoms: N_3  and  C_21
REMARK    3  A    between atoms: N_6  and  C_24
REMARK                            x       y       z     vdW  Elec       q    Type
REMARK                         _______ _______ _______ _____ _____    ______ ____
ROOT
ATOM      1  N   UNL     1      -3.041   1.295  -0.465  0.00  0.00    +0.000 N 
ATOM      2  N   UNL     1      -1.650  -0.631  -0.142  0.00  0.00    +0.000 NA
ATOM      3  N   UNL     1      -5.324  -0.757  -0.245  0.00  0.00    +0.000 N 
ATOM      4  N   UNL     1      -0.271  -2.497   0.173  0.00  0.00    +0.000 N 
ATOM      5  N   UNL     1      -2.581  -2.867   0.150  0.00  0.00    +0.000 NA
ATOM      6  N   UNL     1      -5.010  -2.939   0.079  0.00  0.00    +0.000 NA
ATOM      7  C   UNL     1      -2.884  -0.064  -0.264  0.00  0.00    +0.000 A 
ATOM      8  C   UNL     1      -3.971  -0.929  -0.175  0.00  0.00    +0.000 A 
ATOM      9  C   UNL     1      -3.801  -2.293   0.026  0.00  0.00    +0.000 A 
ATOM     10  C   UNL     1      -1.577  -1.969   0.054  0.00  0.00    +0.000 A 
ATOM     11  C   UNL     1      -5.904  -1.988  -0.087  0.00  0.00    +0.000 A 
ATOM     12  H   UNL     1      -3.987   1.656  -0.511  0.00  0.00    +0.000 HD
ATOM     13  H   UNL     1      -5.813   0.118  -0.387  0.00  0.00    +0.000 HD
ATOM     14  H   UNL     1      -0.271  -3.474   0.452  0.00  0.00    +0.000 HD
ENDROOT
BRANCH   1  15
ATOM     15  C   UNL     1      -1.932   2.224  -0.561  0.00  0.00    +0.000 C 
ATOM     16  C   UNL     1      -2.372   3.494  -1.296  0.00  0.00    +0.000 C 
ATOM     17  C   UNL     1      -1.388   2.542   0.835  0.00  0.00    +0.000 C 
ATOM     18  C   UNL     1      -3.321   4.359  -0.466  0.00  0.00    +0.000 C 
ATOM     19  C   UNL     1      -2.341   3.410   1.657  0.00  0.00    +0.000 C 
ATOM     20  C   UNL     1      -2.738   4.677   0.907  0.00  0.00    +0.000 C 
ENDBRANCH   1  15
BRANCH   4  22
ATOM     21  C   UNL     1       3.532  -0.719   0.048  0.00  0.00    +0.000 A 
ATOM     22  C   UNL     1       1.003  -1.902   0.131  0.00  0.00    +0.000 A 
ATOM     23  C   UNL     1       3.323  -1.865   0.816  0.00  0.00    +0.000 A 
ATOM     24  C   UNL     1       2.479  -0.164  -0.678  0.00  0.00    +0.000 A 
ATOM     25  C   UNL     1       2.060  -2.456   0.857  0.00  0.00    +0.000 A 
ATOM     26  C   UNL     1       1.216  -0.755  -0.637  0.00  0.00    +0.000 A 
BRANCH  21  28
ATOM     27  O   UNL     1       7.327   1.050  -0.342  0.00  0.00    +0.000 OA
ATOM     28  N   UNL     1       4.798  -0.124   0.010  0.00  0.00    +0.000 N 
ATOM     29  C   UNL     1       5.925  -0.924  -0.488  0.00  0.00    +0.000 C 
ATOM     30  C   UNL     1       4.920   1.323  -0.195  0.00  0.00    +0.000 C 
ATOM     31  C   UNL     1       7.237  -0.330   0.012  0.00  0.00    +0.000 C 
ATOM     32  C   UNL     1       6.286   1.798   0.287  0.00  0.00    +0.000 C 
ENDBRANCH  21  28
ENDBRANCH   4  22
TORSDOF 3
