REMARK  Name = 42627562
REMARK  3 active torsions:
REMARK  status: ('A' for Active; 'I' for Inactive)
REMARK    1  A    between atoms: N_3  and  C_7
REMARK    2  A    between atoms: C_7  and  C_12
REMARK    3  A    between atoms: C_12  and  C_13
REMARK                            x       y       z     vdW  Elec       q    Type
REMARK                         _______ _______ _______ _____ _____    ______ ____
ROOT
ATOM      1  N   UNL     1      -1.538   0.750  -0.027  0.00  0.00    +0.000 N 
ATOM      2  N   UNL     1      -3.664   1.538   0.702  0.00  0.00    +0.000 NA
ATOM      3  N   UNL     1      -5.237  -2.080  -0.168  0.00  0.00    +0.000 N 
ATOM      4  N   UNL     1      -5.658   0.141   0.669  0.00  0.00    +0.000 NA
ATOM      5  C   UNL     1       1.299   1.270  -0.463  0.00  0.00    +0.000 C 
ATOM      6  C   UNL     1       0.201   2.097  -1.145  0.00  0.00    +0.000 C 
ATOM      7  C   UNL     1       0.766  -0.124  -0.110  0.00  0.00    +0.000 C 
ATOM      8  C   UNL     1      -1.115   2.116  -0.364  0.00  0.00    +0.000 C 
ATOM      9  C   UNL     1      -0.555  -0.091   0.664  0.00  0.00    +0.000 C 
ATOM     10  C   UNL     1      -2.903   0.538   0.200  0.00  0.00    +0.000 A 
ATOM     11  C   UNL     1      -3.490  -0.695  -0.085  0.00  0.00    +0.000 A 
ATOM     12  C   UNL     1      -4.850  -0.812   0.173  0.00  0.00    +0.000 A 
ATOM     13  C   UNL     1      -3.057  -1.944  -0.599  0.00  0.00    +0.000 A 
ATOM     14  C   UNL     1      -4.976   1.281   0.903  0.00  0.00    +0.000 A 
ATOM     15  C   UNL     1      -4.154  -2.778  -0.639  0.00  0.00    +0.000 A 
ATOM     16  H   UNL     1      -6.176  -2.445  -0.086  0.00  0.00    +0.000 HD
ENDROOT
BRANCH   5  17
ATOM     17  N   UNL     1       1.713   1.963   0.800  0.00  0.00    +0.000 N 
ATOM     18  H   UNL     1       2.332   1.384   1.383  0.00  0.00    +0.000 HD
ATOM     19  H   UNL     1       0.907   2.199   1.393  0.00  0.00    +0.000 HD
ATOM     20  H   UNL     1       2.204   2.847   0.606  0.00  0.00    +0.000 HD
ENDBRANCH   5  17
BRANCH   5  21
ATOM     21  C   UNL     1       2.545   1.175  -1.347  0.00  0.00    +0.000 C 
BRANCH  21  23
ATOM     22 CL   UNL     1       6.877  -2.055   1.293  0.00  0.00    +0.000 Cl
ATOM     23  C   UNL     1       3.628   0.367  -0.688  0.00  0.00    +0.000 A 
ATOM     24  C   UNL     1       4.568   0.997   0.128  0.00  0.00    +0.000 A 
ATOM     25  C   UNL     1       3.692  -1.011  -0.892  0.00  0.00    +0.000 A 
ATOM     26  C   UNL     1       5.573   0.248   0.739  0.00  0.00    +0.000 A 
ATOM     27  C   UNL     1       4.697  -1.760  -0.280  0.00  0.00    +0.000 A 
ATOM     28  C   UNL     1       5.638  -1.131   0.535  0.00  0.00    +0.000 A 
ENDBRANCH  21  23
ENDBRANCH   5  21
TORSDOF 3
