REMARK  Name = 2472
REMARK  7 active torsions:
REMARK  status: ('A' for Active; 'I' for Inactive)
REMARK    1  A    between atoms: O_2  and  C_24
REMARK    2  A    between atoms: O_2  and  C_26
REMARK    3  A    between atoms: O_3  and  C_25
REMARK    4  A    between atoms: O_3  and  C_27
REMARK    5  A    between atoms: C_14  and  C_16
REMARK    6  A    between atoms: C_16  and  C_17
REMARK    7  A    between atoms: C_17  and  C_21
REMARK                            x       y       z     vdW  Elec       q    Type
REMARK                         _______ _______ _______ _____ _____    ______ ____
ROOT
ATOM      1  O   UNL     1      -3.959  -2.004   1.041  0.00  0.00    +0.000 OA
ATOM      2  N   UNL     1      -4.156   0.281   0.678  0.00  0.00    +0.000 N 
ATOM      3  N   UNL     1      -1.496   1.507   0.871  0.00  0.00    +0.000 N 
ATOM      4  N   UNL     1       0.517   0.255   1.001  0.00  0.00    +0.000 NA
ATOM      5  N   UNL     1       0.342   2.145  -0.484  0.00  0.00    +0.000 NA
ATOM      6  N   UNL     1       2.161   2.785  -1.832  0.00  0.00    +0.000 N 
ATOM      7  C   UNL     1      -3.251   2.102  -0.762  0.00  0.00    +0.000 C 
ATOM      8  C   UNL     1      -4.491   1.421  -0.183  0.00  0.00    +0.000 C 
ATOM      9  C   UNL     1      -2.288   2.609   0.316  0.00  0.00    +0.000 C 
ATOM     10  C   UNL     1      -3.580   0.617   1.981  0.00  0.00    +0.000 C 
ATOM     11  C   UNL     1      -2.050   0.672   1.946  0.00  0.00    +0.000 C 
ATOM     12  C   UNL     1      -4.246  -1.060   0.301  0.00  0.00    +0.000 C 
ATOM     13  C   UNL     1      -0.177   1.298   0.450  0.00  0.00    +0.000 A 
ATOM     14  C   UNL     1       1.784   0.049   0.602  0.00  0.00    +0.000 A 
ATOM     15  C   UNL     1       2.395   0.875  -0.356  0.00  0.00    +0.000 A 
ATOM     16  C   UNL     1       1.613   1.910  -0.861  0.00  0.00    +0.000 A 
ATOM     17  C   UNL     1       2.535  -0.998   1.130  0.00  0.00    +0.000 A 
ATOM     18  C   UNL     1       3.721   0.650  -0.766  0.00  0.00    +0.000 A 
ATOM     19  C   UNL     1       3.854  -1.229   0.728  0.00  0.00    +0.000 A 
ATOM     20  C   UNL     1       4.448  -0.404  -0.221  0.00  0.00    +0.000 A 
ATOM     21  H   UNL     1       2.775   2.398  -2.538  0.00  0.00    +0.000 HD
ATOM     22  H   UNL     1       1.553   3.538  -2.134  0.00  0.00    +0.000 HD
ENDROOT
BRANCH  19  23
ATOM     23  O   UNL     1       4.548  -2.266   1.275  0.00  0.00    +0.000 OA
ATOM     24  C   UNL     1       4.462  -3.525   0.610  0.00  0.00    +0.000 C 
ENDBRANCH  19  23
BRANCH  20  25
ATOM     25  O   UNL     1       5.731  -0.617  -0.622  0.00  0.00    +0.000 OA
ATOM     26  C   UNL     1       6.262   0.277  -1.600  0.00  0.00    +0.000 C 
ENDBRANCH  20  25
BRANCH  12  27
ATOM     27  C   UNL     1      -4.726  -1.338  -1.101  0.00  0.00    +0.000 C 
BRANCH  27  28
ATOM     28  C   UNL     1      -4.769  -2.834  -1.359  0.00  0.00    +0.000 C 
ATOM     29  C   UNL     1      -5.187  -3.178  -2.782  0.00  0.00    +0.000 C 
ENDBRANCH  27  28
ENDBRANCH  12  27
TORSDOF 4
