REMARK  Name = 11364421
REMARK  10 active torsions:
REMARK  status: ('A' for Active; 'I' for Inactive)
REMARK    1  A    between atoms: O_3  and  C_34
REMARK    2  A    between atoms: O_3  and  C_38
REMARK    3  A    between atoms: N_4  and  C_11
REMARK    4  A    between atoms: N_5  and  C_28
REMARK    5  A    between atoms: N_7  and  C_30
REMARK    6  A    between atoms: N_8  and  C_21
REMARK    7  A    between atoms: N_10  and  C_32
REMARK    8  A    between atoms: C_16  and  C_18
REMARK    9  A    between atoms: C_18  and  C_22
REMARK   10  A    between atoms: C_31  and  C_33
REMARK                            x       y       z     vdW  Elec       q    Type
REMARK                         _______ _______ _______ _____ _____    ______ ____
ROOT
ATOM      1  O   UNL     1      -7.627  -0.290   0.095  0.00  0.00    +0.000 OA
ATOM      2  N   UNL     1      -4.110  -0.803   0.086  0.00  0.00    +0.000 N 
ATOM      3  N   UNL     1      -5.940   1.301  -0.070  0.00  0.00    +0.000 N 
ATOM      4  N   UNL     1      -2.292   0.740  -0.009  0.00  0.00    +0.000 NA
ATOM      5  N   UNL     1      -2.681   3.100  -0.206  0.00  0.00    +0.000 NA
ATOM      6  N   UNL     1      -0.501   2.252  -0.096  0.00  0.00    +0.000 N 
ATOM      7  C   UNL     1      -5.448  -1.103  -0.406  0.00  0.00    +0.000 C 
ATOM      8  C   UNL     1      -3.631   0.499  -0.025  0.00  0.00    +0.000 A 
ATOM      9  C   UNL     1      -6.438  -0.002  -0.070  0.00  0.00    +0.000 C 
ATOM     10  C   UNL     1      -4.540   1.553  -0.117  0.00  0.00    +0.000 A 
ATOM     11  C   UNL     1      -4.002   2.832  -0.204  0.00  0.00    +0.000 A 
ATOM     12  C   UNL     1      -6.864   2.426   0.034  0.00  0.00    +0.000 C 
ATOM     13  C   UNL     1      -1.894   2.022  -0.105  0.00  0.00    +0.000 A 
ATOM     14  H   UNL     1      -0.269   3.238  -0.028  0.00  0.00    +0.000 HD
ENDROOT
BRANCH   6  15
ATOM     15  C   UNL     1       0.607   1.388  -0.006  0.00  0.00    +0.000 A 
ATOM     16  C   UNL     1       2.788  -0.344   0.159  0.00  0.00    +0.000 A 
ATOM     17  C   UNL     1       1.796   1.818   0.584  0.00  0.00    +0.000 A 
ATOM     18  C   UNL     1       2.886   0.952   0.666  0.00  0.00    +0.000 A 
ATOM     19  C   UNL     1       0.508   0.093  -0.513  0.00  0.00    +0.000 A 
ATOM     20  C   UNL     1       1.599  -0.773  -0.431  0.00  0.00    +0.000 A 
BRANCH  16  23
ATOM     21  O   UNL     1       3.752  -2.479   0.260  0.00  0.00    +0.000 OA
ATOM     22  N   UNL     1       5.197  -0.665   0.283  0.00  0.00    +0.000 N 
ATOM     23  C   UNL     1       3.924  -1.247   0.244  0.00  0.00    +0.000 C 
ATOM     24  H   UNL     1       5.290   0.336   0.148  0.00  0.00    +0.000 HD
BRANCH  22  26
ATOM     25  N   UNL     1       8.570   0.078  -0.983  0.00  0.00    +0.000 NA
ATOM     26  C   UNL     1       6.423  -1.428   0.344  0.00  0.00    +0.000 C 
ATOM     27  C   UNL     1       6.929  -1.774  -1.058  0.00  0.00    +0.000 C 
ATOM     28  C   UNL     1       7.505  -0.673   1.121  0.00  0.00    +0.000 C 
ATOM     29  C   UNL     1       7.510  -0.554  -1.780  0.00  0.00    +0.000 C 
ATOM     30  C   UNL     1       8.066   0.510   0.327  0.00  0.00    +0.000 C 
ATOM     31  C   UNL     1       9.150   1.209  -1.708  0.00  0.00    +0.000 C 
ENDBRANCH  22  26
ENDBRANCH  16  23
BRANCH  17  32
ATOM     32  O   UNL     1       1.912   3.080   1.086  0.00  0.00    +0.000 OA
ATOM     33  C   UNL     1       3.165   3.431   1.670  0.00  0.00    +0.000 C 
ENDBRANCH  17  32
ENDBRANCH   6  15
BRANCH   2  34
ATOM     34  C   UNL     1      -3.166  -1.878   0.252  0.00  0.00    +0.000 C 
ATOM     35  C   UNL     1      -3.862  -3.219   0.433  0.00  0.00    +0.000 C 
ATOM     36  C   UNL     1      -2.380  -1.731   1.547  0.00  0.00    +0.000 C 
ATOM     37  C   UNL     1      -2.812  -4.094   1.108  0.00  0.00    +0.000 C 
ATOM     38  C   UNL     1      -1.857  -3.136   1.824  0.00  0.00    +0.000 C 
ENDBRANCH   2  34
BRANCH   7  39
ATOM     39  C   UNL     1      -5.436  -1.338  -1.916  0.00  0.00    +0.000 C 
ATOM     40  C   UNL     1      -6.804  -1.753  -2.420  0.00  0.00    +0.000 C 
ENDBRANCH   7  39
TORSDOF 6
