REMARK  Name = 448539
REMARK  8 active torsions:
REMARK  status: ('A' for Active; 'I' for Inactive)
REMARK    1  A    between atoms: S_1  and  C_12
REMARK    2  A    between atoms: O_2  and  C_11
REMARK    3  A    between atoms: N_4  and  CA_9
REMARK    4  A    between atoms: N_5  and  C_10
REMARK    5  A    between atoms: C_7  and  C_8
REMARK    6  A    between atoms: C_7  and  CA_9
REMARK    7  A    between atoms: C_8  and  C_10
REMARK    8  A    between atoms: CA_9  and  C_11
REMARK                            x       y       z     vdW  Elec       q    Type
REMARK                         _______ _______ _______ _____ _____    ______ ____
ROOT
ATOM      1  C   UNL     1       0.771  -0.441  -0.889  0.00  0.00    +0.000 C 
ENDROOT
BRANCH   1   2
ATOM      2  C   UNL     1       0.150  -0.833   0.459  0.00  0.00    +0.000 C 
BRANCH   2   3
ATOM      3  C   UNL     1      -1.370  -0.941   0.389  0.00  0.00    +0.000 C 
BRANCH   3   4
ATOM      4  N   UNL     1      -1.946   0.354   0.025  0.00  0.00    +0.000 NA
ATOM      5  N   UNL     1      -4.068   1.450  -0.327  0.00  0.00    +0.000 N 
ATOM      6  C   UNL     1      -3.230   0.409  -0.025  0.00  0.00    +0.000 C 
ATOM      7  H   UNL     1      -3.704   2.366  -0.565  0.00  0.00    +0.000 HD
ATOM      8  H   UNL     1      -5.075   1.333  -0.324  0.00  0.00    +0.000 HD
BRANCH   6   9
ATOM      9  S   UNL     1      -4.075  -1.095   0.358  0.00  0.00    +0.000 S 
ATOM     10  H   UNL     1      -3.799  -1.738  -0.786  0.00  0.00    +0.000 HD
ENDBRANCH   6   9
ENDBRANCH   3   4
ENDBRANCH   2   3
ENDBRANCH   1   2
BRANCH   1  11
ATOM     11  CA  UNL     1       2.303  -0.354  -0.818  0.00  0.00    +0.000 C 
BRANCH  11  12
ATOM     12  N   UNL     1       2.852  -1.629  -0.362  0.00  0.00    +0.000 NA
ATOM     13  H1  UNL     1       3.871  -1.600  -0.407  0.00  0.00    +0.000 HD
ATOM     14  H2  UNL     1       2.563  -2.373  -0.996  0.00  0.00    +0.000 HD
ENDBRANCH  11  12
BRANCH  11  16
ATOM     15  OXT UNL     1       3.460   0.454   1.169  0.00  0.00    +0.000 OA
ATOM     16  C   UNL     1       2.776   0.686   0.180  0.00  0.00    +0.000 C 
BRANCH  16  17
ATOM     17  O   UNL     1       2.376   1.940  -0.159  0.00  0.00    +0.000 OA
ATOM     18  H   UNL     1       2.692   2.611   0.483  0.00  0.00    +0.000 HD
ENDBRANCH  16  17
ENDBRANCH  11  16
ENDBRANCH   1  11
TORSDOF 8
