REMARK  Name = 14233317
REMARK  6 active torsions:
REMARK  status: ('A' for Active; 'I' for Inactive)
REMARK    1  A    between atoms: O_1  and  C_10
REMARK    2  A    between atoms: N_4  and  C_6
REMARK    3  A    between atoms: N_5  and  CA_7
REMARK    4  A    between atoms: C_6  and  CA_7
REMARK    5  A    between atoms: CA_7  and  C_10
REMARK    6  A    between atoms: C_8  and  C_9
REMARK                            x       y       z     vdW  Elec       q    Type
REMARK                         _______ _______ _______ _____ _____    ______ ____
ROOT
ATOM      1  O   UNL     1      -0.276   2.159   0.359  0.00  0.00    +0.000 OA
ATOM      2  N   UNL     1       0.604   0.362  -0.814  0.00  0.00    +0.000 N 
ATOM      3  C   UNL     1      -0.407   1.054  -0.161  0.00  0.00    +0.000 C 
ATOM      4  H   UNL     1       0.450  -0.580  -1.157  0.00  0.00    +0.000 HD
ENDROOT
BRANCH   3   5
ATOM      5  C   UNL     1      -1.722   0.367  -0.083  0.00  0.00    +0.000 A 
ATOM      6  C   UNL     1      -2.570   0.669   0.963  0.00  0.00    +0.000 A 
ATOM      7  C   UNL     1      -2.054  -0.550  -1.058  0.00  0.00    +0.000 A 
ATOM      8  C   UNL     1      -3.805   0.025   1.036  0.00  0.00    +0.000 A 
ATOM      9  C   UNL     1      -3.289  -1.194  -0.985  0.00  0.00    +0.000 A 
ATOM     10  C   UNL     1      -4.164  -0.907   0.063  0.00  0.00    +0.000 A 
ENDBRANCH   3   5
BRANCH   2  11
ATOM     11  C   UNL     1       1.939   0.884  -0.951  0.00  0.00    +0.000 C 
BRANCH  11  12
ATOM     12  CA  UNL     1       2.833   0.471   0.220  0.00  0.00    +0.000 C 
BRANCH  12  13
ATOM     13  N   UNL     1       4.190   0.973   0.013  0.00  0.00    +0.000 NA
ATOM     14  H1  UNL     1       4.755   0.783   0.840  0.00  0.00    +0.000 HD
ATOM     15  H2  UNL     1       4.168   1.987  -0.088  0.00  0.00    +0.000 HD
ENDBRANCH  12  13
BRANCH  12  17
ATOM     16  OXT UNL     1       3.778  -1.742  -0.182  0.00  0.00    +0.000 OA
ATOM     17  C   UNL     1       2.943  -1.037   0.369  0.00  0.00    +0.000 C 
BRANCH  17  18
ATOM     18  O   UNL     1       1.999  -1.537   1.211  0.00  0.00    +0.000 OA
ATOM     19  H   UNL     1       2.076  -2.510   1.308  0.00  0.00    +0.000 HD
ENDBRANCH  17  18
ENDBRANCH  12  17
ENDBRANCH  11  12
ENDBRANCH   2  11
TORSDOF 6
