REMARK  Name = 71070
REMARK  7 active torsions:
REMARK  status: ('A' for Active; 'I' for Inactive)
REMARK    1  A    between atoms: O_1  and  C_11
REMARK    2  A    between atoms: N_3  and  CA_9
REMARK    3  A    between atoms: NE_4  and  CD_10
REMARK    4  A    between atoms: CB_7  and  CG_8
REMARK    5  A    between atoms: CB_7  and  CA_9
REMARK    6  A    between atoms: CG_8  and  CD_10
REMARK    7  A    between atoms: CA_9  and  C_11
REMARK                            x       y       z     vdW  Elec       q    Type
REMARK                         _______ _______ _______ _____ _____    ______ ____
ROOT
ATOM      1  CG  ARG A   1       0.081  -1.011   0.585  0.00  0.00    +0.000 C 
ENDROOT
BRANCH   1   2
ATOM      2  CB  ARG A   1       0.766  -0.609  -0.730  0.00  0.00    +0.000 C 
BRANCH   2   3
ATOM      3  CA  ARG A   1       2.295  -0.551  -0.592  0.00  0.00    +0.000 C 
BRANCH   3   4
ATOM      4  N   ARG A   1       2.886  -0.127  -1.859  0.00  0.00    +0.000 NA
ATOM      5  H1  ARG A   1       2.610  -0.772  -2.599  0.00  0.00    +0.000 HD
ATOM      6  H2  ARG A   1       3.902  -0.185  -1.800  0.00  0.00    +0.000 HD
ENDBRANCH   3   4
BRANCH   3   8
ATOM      7  OXT ARG A   1       2.487   1.662   0.410  0.00  0.00    +0.000 OA
ATOM      8  C   ARG A   1       2.744   0.466   0.441  0.00  0.00    +0.000 C 
BRANCH   8   9
ATOM      9  O   ARG A   1       3.457  -0.107   1.447  0.00  0.00    +0.000 OA
ATOM     10  H   ARG A   1       3.734   0.551   2.119  0.00  0.00    +0.000 HD
ENDBRANCH   8   9
ENDBRANCH   3   8
ENDBRANCH   2   3
ENDBRANCH   1   2
BRANCH   1  11
ATOM     11  CD  ARG A   1      -1.436  -1.091   0.449  0.00  0.00    +0.000 C 
BRANCH  11  12
ATOM     12  NE  ARG A   1      -1.973   0.220   0.081  0.00  0.00    +0.000 NA
ATOM     13  NH1 ARG A   1      -3.845   1.511  -0.368  0.00  0.00    +0.000 N 
ATOM     14  NH2 ARG A   1      -4.200  -0.677   0.165  0.00  0.00    +0.000 N 
ATOM     15  CZ  ARG A   1      -3.262   0.314  -0.026  0.00  0.00    +0.000 C 
ATOM     16 HH11 ARG A   1      -3.283   2.337  -0.541  0.00  0.00    +0.000 HD
ATOM     17 HH12 ARG A   1      -4.851   1.605  -0.457  0.00  0.00    +0.000 HD
ATOM     18 HH21 ARG A   1      -5.190  -0.487   0.053  0.00  0.00    +0.000 HD
ATOM     19 HH22 ARG A   1      -3.943  -1.624   0.419  0.00  0.00    +0.000 HD
ENDBRANCH  11  12
ENDBRANCH   1  11
TORSDOF 7
