REMARK  Name = 49791979
REMARK  5 active torsions:
REMARK  status: ('A' for Active; 'I' for Inactive)
REMARK    1  A    between atoms: N_4  and  CA_5
REMARK    2  A    between atoms: CA_5  and  C_6
REMARK    3  A    between atoms: CA_5  and  C_8
REMARK    4  A    between atoms: C_6  and  C_7
REMARK    5  A    between atoms: C_7  and  C_9
REMARK                            x       y       z     vdW  Elec       q    Type
REMARK                         _______ _______ _______ _____ _____    ______ ____
ROOT
ATOM      1  CA  UNL     1      -0.914   0.632  -0.577  0.00  0.00    +0.000 C 
ENDROOT
BRANCH   1   2
ATOM      2  N   UNL     1      -1.178   1.910   0.155  0.00  0.00    +0.000 N 
ATOM      3  H1  UNL     1      -0.930   1.837   1.151  0.00  0.00    +0.000 HD
ATOM      4  H2  UNL     1      -0.645   2.695  -0.243  0.00  0.00    +0.000 HD
ATOM      5  H3  UNL     1      -2.174   2.164   0.107  0.00  0.00    +0.000 HD
ENDBRANCH   1   2
BRANCH   1   8
ATOM      6  O   UNL     1      -2.814  -0.266   0.536  0.00  0.00    +0.000 OA
ATOM      7  OXT UNL     1      -1.247  -1.698  -0.297  0.00  0.00    +0.000 OA
ATOM      8  C   UNL     1      -1.746  -0.559  -0.070  0.00  0.00    +0.000 C 
ENDBRANCH   1   8
BRANCH   1   9
ATOM      9  C   UNL     1       0.601   0.398  -0.629  0.00  0.00    +0.000 C 
BRANCH   9  10
ATOM     10  C   UNL     1       1.226   0.011   0.713  0.00  0.00    +0.000 C 
BRANCH  10  12
ATOM     11  O   UNL     1       3.363  -0.162  -0.431  0.00  0.00    +0.000 OA
ATOM     12  C   UNL     1       2.707  -0.267   0.600  0.00  0.00    +0.000 C 
ENDBRANCH  10  12
ENDBRANCH   9  10
ENDBRANCH   1   9
TORSDOF 5
