REMARK  Name = 6999776
REMARK  6 active torsions:
REMARK  status: ('A' for Active; 'I' for Inactive)
REMARK    1  A    between atoms: N_3  and  CA_5
REMARK    2  A    between atoms: C_4  and  CA_5
REMARK    3  A    between atoms: C_4  and  C_6
REMARK    4  A    between atoms: CA_5  and  C_8
REMARK    5  A    between atoms: C_6  and  C_7
REMARK    6  A    between atoms: C_7  and  C_9
REMARK                            x       y       z     vdW  Elec       q    Type
REMARK                         _______ _______ _______ _____ _____    ______ ____
ROOT
ATOM      1  CA  UNL     1       1.099  -0.678   0.519  0.00  0.00    +0.000 C 
ENDROOT
BRANCH   1   2
ATOM      2  N   UNL     1       1.136  -1.866  -0.390  0.00  0.00    +0.000 N 
ATOM      3  H1  UNL     1       0.668  -2.683   0.026  0.00  0.00    +0.000 HD
ATOM      4  H2  UNL     1       2.107  -2.142  -0.590  0.00  0.00    +0.000 HD
ATOM      5  H3  UNL     1       0.686  -1.673  -1.294  0.00  0.00    +0.000 HD
ENDBRANCH   1   2
BRANCH   1   8
ATOM      6  O   UNL     1       1.402   1.672   0.442  0.00  0.00    +0.000 OA
ATOM      7  OXT UNL     1       2.696   0.361  -0.904  0.00  0.00    +0.000 OA
ATOM      8  C   UNL     1       1.796   0.573  -0.044  0.00  0.00    +0.000 C 
ENDBRANCH   1   8
BRANCH   1   9
ATOM      9  C   UNL     1      -0.357  -0.480   0.962  0.00  0.00    +0.000 C 
BRANCH   9  10
ATOM     10  C   UNL     1      -1.313  -0.067  -0.165  0.00  0.00    +0.000 C 
BRANCH  10  11
ATOM     11  C   UNL     1      -2.749   0.054   0.348  0.00  0.00    +0.000 C 
ATOM     12  C   UNL     1      -3.710   0.429  -0.769  0.00  0.00    +0.000 C 
ENDBRANCH  10  11
ENDBRANCH   9  10
ENDBRANCH   1   9
TORSDOF 5
