REMARK  Name = 446018
REMARK  9 active torsions:
REMARK  status: ('A' for Active; 'I' for Inactive)
REMARK    1  A    between atoms: S_1  and  C_9
REMARK    2  A    between atoms: S_1  and  C_11
REMARK    3  A    between atoms: O_2  and  C_13
REMARK    4  A    between atoms: O_3  and  C_14
REMARK    5  A    between atoms: N_6  and  C_12
REMARK    6  A    between atoms: C_9  and  C_10
REMARK    7  A    between atoms: C_9  and  C_13
REMARK    8  A    between atoms: C_10  and  C_14
REMARK    9  A    between atoms: C_11  and  C_12
REMARK                            x       y       z     vdW  Elec       q    Type
REMARK                         _______ _______ _______ _____ _____    ______ ____
ROOT
ATOM      1  S   UNL     1       0.138  -1.286  -0.419  0.00  0.00    +0.000 S 
ENDROOT
BRANCH   1   2
ATOM      2  C   UNL     1       1.611  -0.395   0.200  0.00  0.00    +0.000 C 
BRANCH   2   4
ATOM      3  O   UNL     1       1.742   1.244  -1.611  0.00  0.00    +0.000 OA
ATOM      4  C   UNL     1       1.620   0.993  -0.419  0.00  0.00    +0.000 C 
BRANCH   4   5
ATOM      5  O   UNL     1       1.515   1.967   0.524  0.00  0.00    +0.000 OA
ATOM      6  H   UNL     1       1.538   2.864   0.126  0.00  0.00    +0.000 HD
ENDBRANCH   4   5
ENDBRANCH   2   4
BRANCH   2   7
ATOM      7  C   UNL     1       2.878  -1.159  -0.181  0.00  0.00    +0.000 C 
BRANCH   7   9
ATOM      8  O   UNL     1       4.314  -0.289   1.557  0.00  0.00    +0.000 OA
ATOM      9  C   UNL     1       4.105  -0.468   0.364  0.00  0.00    +0.000 C 
BRANCH   9  10
ATOM     10  O   UNL     1       4.944  -0.037  -0.611  0.00  0.00    +0.000 OA
ATOM     11  H   UNL     1       5.729   0.421  -0.243  0.00  0.00    +0.000 HD
ENDBRANCH   9  10
ENDBRANCH   7   9
ENDBRANCH   2   7
ENDBRANCH   1   2
BRANCH   1  12
ATOM     12  C   UNL     1      -1.119  -0.153   0.209  0.00  0.00    +0.000 C 
BRANCH  12  13
ATOM     13  C   UNL     1      -2.513  -0.639  -0.158  0.00  0.00    +0.000 C 
BRANCH  13  14
ATOM     14  N   UNL     1      -3.497   0.301   0.385  0.00  0.00    +0.000 NA
ATOM     15  N   UNL     1      -5.728   0.881   0.609  0.00  0.00    +0.000 N 
ATOM     16  N   UNL     1      -5.266  -1.005  -0.583  0.00  0.00    +0.000 N 
ATOM     17  C   UNL     1      -4.743   0.047   0.135  0.00  0.00    +0.000 C 
ATOM     18  H   UNL     1      -5.499   1.703   1.158  0.00  0.00    +0.000 HD
ATOM     19  H   UNL     1      -6.709   0.702   0.425  0.00  0.00    +0.000 HD
ATOM     20  H   UNL     1      -6.267  -1.102  -0.715  0.00  0.00    +0.000 HD
ATOM     21  H   UNL     1      -4.679  -1.718  -1.003  0.00  0.00    +0.000 HD
ENDBRANCH  13  14
ENDBRANCH  12  13
ENDBRANCH   1  12
TORSDOF 9
