REMARK  Name = 11318905
REMARK  11 active torsions:
REMARK  status: ('A' for Active; 'I' for Inactive)
REMARK    1  A    between atoms: O_3  and  C_20
REMARK    2  A    between atoms: OE1_5  and  CD_22
REMARK    3  A    between atoms: N_8  and  CA_17
REMARK    4  A    between atoms: N_9  and  C_18
REMARK    5  A    between atoms: C_10  and  C_14
REMARK    6  A    between atoms: C_10  and  C_15
REMARK    7  A    between atoms: C_16  and  C_18
REMARK    8  A    between atoms: CA_17  and  CB_19
REMARK    9  A    between atoms: CA_17  and  C_20
REMARK   10  A    between atoms: CB_19  and  CG_21
REMARK   11  A    between atoms: CG_21  and  CD_22
REMARK                            x       y       z     vdW  Elec       q    Type
REMARK                         _______ _______ _______ _____ _____    ______ ____
ROOT
ATOM      1  O   UNL     1       0.862  -0.013  -1.426  0.00  0.00    +0.000 OA
ATOM      2  N   UNL     1      -0.715   0.859   0.048  0.00  0.00    +0.000 N 
ATOM      3  C   ACE A   0       0.540   0.403  -0.315  0.00  0.00    +0.000 C 
ATOM      4  H   UNL     1      -0.887   1.149   1.006  0.00  0.00    +0.000 HD
ENDROOT
BRANCH   3   7
ATOM      5  O   UNL     1       2.518  -2.118  -0.055  0.00  0.00    +0.000 OA
ATOM      6  N   UNL     1       2.853   0.156   0.274  0.00  0.00    +0.000 N 
ATOM      7  C   UNL     1       1.528   0.487   0.819  0.00  0.00    +0.000 C 
ATOM      8  C   UNL     1       1.662   1.954   1.268  0.00  0.00    +0.000 C 
ATOM      9  C   UNL     1       2.748   2.514   0.357  0.00  0.00    +0.000 C 
ATOM     10  C   UNL     1       3.705   1.343   0.215  0.00  0.00    +0.000 C 
ATOM     11  C   UNL     1       1.084  -0.395   1.984  0.00  0.00    +0.000 C 
ATOM     12  C   UNL     1       3.242  -1.122  -0.107  0.00  0.00    +0.000 C 
BRANCH  12  13
ATOM     13  C   UNL     1       4.650  -1.246  -0.633  0.00  0.00    +0.000 C 
BRANCH  13  14
ATOM     14  N   UNL     1       4.833  -2.640  -0.973  0.00  0.00    +0.000 NA
ATOM     15  H   UNL     1       5.770  -2.777  -1.351  0.00  0.00    +0.000 HD
ATOM     16  H   UNL     1       4.785  -3.213  -0.131  0.00  0.00    +0.000 HD
ENDBRANCH  13  14
ENDBRANCH  12  13
ENDBRANCH   3   7
BRANCH   2  17
ATOM     17  CA  UNL     1      -1.835   0.904  -0.865  0.00  0.00    +0.000 C 
BRANCH  17  19
ATOM     18  OXT UNL     1      -2.476   2.851   0.451  0.00  0.00    +0.000 OA
ATOM     19  C   UNL     1      -2.658   2.128  -0.520  0.00  0.00    +0.000 C 
BRANCH  19  20
ATOM     20  O   UNL     1      -3.623   2.368  -1.447  0.00  0.00    +0.000 OA
ATOM     21  H   UNL     1      -4.145   3.170  -1.232  0.00  0.00    +0.000 HD
ENDBRANCH  19  20
ENDBRANCH  17  19
BRANCH  17  22
ATOM     22  CB  UNL     1      -2.641  -0.401  -0.877  0.00  0.00    +0.000 C 
BRANCH  22  23
ATOM     23  CG  UNL     1      -3.310  -0.786   0.448  0.00  0.00    +0.000 C 
BRANCH  23  25
ATOM     24  OE2 UNL     1      -4.186  -2.804  -0.598  0.00  0.00    +0.000 OA
ATOM     25  CD  UNL     1      -4.082  -2.086   0.386  0.00  0.00    +0.000 C 
BRANCH  25  26
ATOM     26  OE1 UNL     1      -4.699  -2.358   1.566  0.00  0.00    +0.000 OA
ATOM     27  HE1 UNL     1      -5.216  -3.191   1.525  0.00  0.00    +0.000 HD
ENDBRANCH  25  26
ENDBRANCH  23  25
ENDBRANCH  22  23
ENDBRANCH  17  22
ENDBRANCH   2  17
TORSDOF 10
