REMARK  Name = 44629678
REMARK  9 active torsions:
REMARK  status: ('A' for Active; 'I' for Inactive)
REMARK    1  A    between atoms: O_1  and  C_15
REMARK    2  A    between atoms: O_1  and  C_18
REMARK    3  A    between atoms: N_5  and  CA_8
REMARK    4  A    between atoms: N_6  and  C_12
REMARK    5  A    between atoms: C_7  and  CA_8
REMARK    6  A    between atoms: C_7  and  C_9
REMARK    7  A    between atoms: CA_8  and  C_11
REMARK    8  A    between atoms: C_9  and  C_10
REMARK    9  A    between atoms: C_18  and  C_19
REMARK                            x       y       z     vdW  Elec       q    Type
REMARK                         _______ _______ _______ _____ _____    ______ ____
ROOT
ATOM      1  O   UNL     1       2.655  -1.538  -0.028  0.00  0.00    +0.000 OA
ATOM      2  N   UNL     1       2.066   0.694  -0.460  0.00  0.00    +0.000 N 
ATOM      3  C   UNL     1       2.942  -0.374  -0.287  0.00  0.00    +0.000 C 
ATOM      4  H   UNL     1       2.472   1.603  -0.675  0.00  0.00    +0.000 HD
ENDROOT
BRANCH   2   5
ATOM      5  C   UNL     1       0.654   0.675  -0.373  0.00  0.00    +0.000 A 
ATOM      6  C   UNL     1      -0.074   1.847  -0.577  0.00  0.00    +0.000 A 
ATOM      7  C   UNL     1      -0.011  -0.517  -0.083  0.00  0.00    +0.000 A 
ATOM      8  C   UNL     1      -2.130   0.637  -0.201  0.00  0.00    +0.000 A 
ATOM      9  C   UNL     1      -1.466   1.828  -0.491  0.00  0.00    +0.000 A 
ATOM     10  C   UNL     1      -1.403  -0.536   0.003  0.00  0.00    +0.000 A 
BRANCH   8  11
ATOM     11  O   UNL     1      -3.489   0.619  -0.118  0.00  0.00    +0.000 OA
BRANCH  11  12
ATOM     12  C   UNL     1      -4.104  -0.633   0.181  0.00  0.00    +0.000 C 
BRANCH  12  13
ATOM     13  C   UNL     1      -5.594  -0.456   0.197  0.00  0.00    +0.000 A 
ATOM     14  C   UNL     1      -6.243  -0.112   1.383  0.00  0.00    +0.000 A 
ATOM     15  C   UNL     1      -6.330  -0.634  -0.974  0.00  0.00    +0.000 A 
ATOM     16  C   UNL     1      -7.628   0.053   1.398  0.00  0.00    +0.000 A 
ATOM     17  C   UNL     1      -7.715  -0.468  -0.959  0.00  0.00    +0.000 A 
ATOM     18  C   UNL     1      -8.364  -0.125   0.227  0.00  0.00    +0.000 A 
ENDBRANCH  12  13
ENDBRANCH  11  12
ENDBRANCH   8  11
ENDBRANCH   2   5
BRANCH   3  19
ATOM     19  C   UNL     1       4.383   0.083  -0.469  0.00  0.00    +0.000 C 
BRANCH  19  20
ATOM     20  C   UNL     1       5.389  -1.057  -0.288  0.00  0.00    +0.000 C 
BRANCH  20  21
ATOM     21  CA  UNL     1       6.838  -0.572  -0.393  0.00  0.00    +0.000 C 
BRANCH  21  22
ATOM     22  N   UNL     1       7.711  -1.777  -0.224  0.00  0.00    +0.000 N 
ATOM     23  H1  UNL     1       8.705  -1.533  -0.334  0.00  0.00    +0.000 HD
ATOM     24  H2  UNL     1       7.497  -2.501  -0.922  0.00  0.00    +0.000 HD
ATOM     25  H3  UNL     1       7.599  -2.199   0.707  0.00  0.00    +0.000 HD
ENDBRANCH  21  22
BRANCH  21  28
ATOM     26  O   UNL     1       7.042   0.223   1.820  0.00  0.00    +0.000 OA
ATOM     27  OXT UNL     1       7.658   1.605   0.108  0.00  0.00    +0.000 OA
ATOM     28  C   UNL     1       7.213   0.534   0.606  0.00  0.00    +0.000 C 
ENDBRANCH  21  28
ENDBRANCH  20  21
ENDBRANCH  19  20
ENDBRANCH   3  19
TORSDOF 9
