REMARK  Name = 9797017
REMARK  10 active torsions:
REMARK  status: ('A' for Active; 'I' for Inactive)
REMARK    1  A    between atoms: S_1  and  C_9
REMARK    2  A    between atoms: S_1  and  C_10
REMARK    3  A    between atoms: O_2  and  C_11
REMARK    4  A    between atoms: N_4  and  C_8
REMARK    5  A    between atoms: N_5  and  C_12
REMARK    6  A    between atoms: C_7  and  C_8
REMARK    7  A    between atoms: C_7  and  C_9
REMARK    8  A    between atoms: C_8  and  C_11
REMARK    9  A    between atoms: C_10  and  C_12
REMARK   10  A    between atoms: C_13  and  C_14
REMARK                            x       y       z     vdW  Elec       q    Type
REMARK                         _______ _______ _______ _____ _____    ______ ____
ROOT
ATOM      1  C   UNK     1       1.393   1.607  -0.434  0.00  0.00    +0.000 C 
ENDROOT
BRANCH   1   2
ATOM      2  S   UNK     1      -0.120   1.065   0.413  0.00  0.00    +0.000 S 
BRANCH   2   3
ATOM      3  C   UNK     1      -1.312   1.511  -0.870  0.00  0.00    +0.000 C 
BRANCH   3   4
ATOM      4  C   UNK     1      -2.727   1.163  -0.434  0.00  0.00    +0.000 C 
BRANCH   4   5
ATOM      5  N   UNK     1      -2.805  -0.281  -0.201  0.00  0.00    +0.000 NA
ATOM      6  N   UNK     1      -4.304  -2.033   0.488  0.00  0.00    +0.000 N 
ATOM      7  C   UNK     1      -3.940  -0.737   0.204  0.00  0.00    +0.000 C 
ATOM      8  C   UNK     1      -5.037   0.291   0.383  0.00  0.00    +0.000 C 
ATOM      9  H   UNK     1      -3.637  -2.791   0.393  0.00  0.00    +0.000 HD
ATOM     10  H   UNK     1      -5.237  -2.279   0.801  0.00  0.00    +0.000 HD
ENDBRANCH   4   5
ENDBRANCH   3   4
ENDBRANCH   2   3
ENDBRANCH   1   2
BRANCH   1  11
ATOM     11  C   UNK     1       2.662   1.375   0.391  0.00  0.00    +0.000 C 
BRANCH  11  12
ATOM     12  C   UNK     1       2.932  -0.082   0.793  0.00  0.00    +0.000 C 
BRANCH  12  13
ATOM     13  N   UNK     1       4.215  -0.158   1.500  0.00  0.00    +0.000 NA
ATOM     14  H   UNK     1       4.364  -1.109   1.836  0.00  0.00    +0.000 HD
ATOM     15  H   UNK     1       4.182   0.433   2.329  0.00  0.00    +0.000 HD
ENDBRANCH  12  13
BRANCH  12  17
ATOM     16  O   UNK     1       4.088  -1.142  -1.073  0.00  0.00    +0.000 OA
ATOM     17  C   UNK     1       3.059  -0.974  -0.429  0.00  0.00    +0.000 C 
BRANCH  17  18
ATOM     18  O   UNK     1       1.895  -1.604  -0.732  0.00  0.00    +0.000 OA
ATOM     19  H   UNK     1       1.988  -2.186  -1.516  0.00  0.00    +0.000 HD
ENDBRANCH  17  18
ENDBRANCH  12  17
ENDBRANCH  11  12
ENDBRANCH   1  11
TORSDOF 9
