REMARK  Name = 
REMARK  14 active torsions:
REMARK  status: ('A' for Active; 'I' for Inactive)
REMARK    1  A    between atoms: CG_1  and  CB_2
REMARK    2  A    between atoms: CG_1  and  CD_3
REMARK    3  A    between atoms: CB_2  and  CA_4
REMARK    4  A    between atoms: CD_3  and  NE_5
REMARK    5  A    between atoms: CA_4  and  C_6
REMARK    6  A    between atoms: CA_4  and  N_7
REMARK    7  A    between atoms: C_6  and  O_9
REMARK    8  A    between atoms: CB_13  and  CA_14
REMARK    9  A    between atoms: CB_13  and  CG_15
REMARK   10  A    between atoms: CA_14  and  C_16
REMARK   11  A    between atoms: CA_14  and  N_17
REMARK   12  A    between atoms: CG_15  and  CD_18
REMARK   13  A    between atoms: C_16  and  O_19
REMARK   14  A    between atoms: CD_18  and  OE1_21
REMARK                            x       y       z     vdW  Elec       q    Type
REMARK                         _______ _______ _______ _____ _____    ______ ____
ROOT
ATOM      1  CG  ARG A   1      -1.077   1.550   0.000  0.00  0.00    +0.000 C 
ENDROOT
BRANCH   1   2
ATOM      2  CB  ARG A   1      -0.371   1.966   0.000  0.00  0.00    +0.000 C 
BRANCH   2   3
ATOM      3  CA  ARG A   1       0.341   1.550   0.000  0.00  0.00    +0.000 C 
BRANCH   3   4
ATOM      4  N   ARG A   1       0.341   0.733   0.000  0.00  0.00    +0.000 NA
ATOM      5  H1  ARG A   1      -0.542   0.223   0.000  0.00  0.00    +0.000 HD
ATOM      6  H2  ARG A   1       1.225   0.223   0.000  0.00  0.00    +0.000 HD
ENDBRANCH   3   4
BRANCH   3   7
ATOM      7  C   ARG A   1       1.058   1.966   0.000  0.00  0.00    +0.000 C 
ATOM      8  OXT ARG A   1       1.058   2.809   0.000  0.00  0.00    +0.000 OA
BRANCH   7   9
ATOM      9  O   ARG A   1       1.781   1.550   0.000  0.00  0.00    +0.000 OA
ATOM     10  H   ARG A   1       1.782   0.613   0.000  0.00  0.00    +0.000 HD
ENDBRANCH   7   9
ENDBRANCH   3   7
ENDBRANCH   2   3
ENDBRANCH   1   2
BRANCH   1  11
ATOM     11  CD  ARG A   1      -1.796   1.966   0.000  0.00  0.00    +0.000 C 
BRANCH  11  12
ATOM     12  NE  ARG A   1      -2.509   1.550   0.000  0.00  0.00    +0.000 N 
ATOM     13  CZ  ARG A   1      -3.225   1.966   0.000  0.00  0.00    +0.000 C 
ATOM     14  NH1 ARG A   1      -3.937   1.550   0.000  0.00  0.00    +0.000 N 
ATOM     15  NH2 ARG A   1      -3.225   2.809   0.000  0.00  0.00    +0.000 NA
ATOM     16  HE  ARG A   1      -2.508   0.566   0.000  0.00  0.00    +0.000 HD
ATOM     17 HH11 ARG A   1      -4.792   2.038   0.000  0.00  0.00    +0.000 HD
ATOM     18 HH12 ARG A   1      -3.933   0.566   0.000  0.00  0.00    +0.000 HD
ATOM     19  HH2 ARG A   1      -2.372   3.301   0.000  0.00  0.00    +0.000 HD
ENDBRANCH  11  12
ENDBRANCH   1  11
TORSDOF 7
REMARK  Name = 
REMARK  14 active torsions:
REMARK  status: ('A' for Active; 'I' for Inactive)
REMARK    1  A    between atoms: CG_1  and  CB_2
REMARK    2  A    between atoms: CG_1  and  CD_3
REMARK    3  A    between atoms: CB_2  and  CA_4
REMARK    4  A    between atoms: CD_3  and  NE_5
REMARK    5  A    between atoms: CA_4  and  C_6
REMARK    6  A    between atoms: CA_4  and  N_7
REMARK    7  A    between atoms: C_6  and  O_9
REMARK    8  A    between atoms: CB_13  and  CA_14
REMARK    9  A    between atoms: CB_13  and  CG_15
REMARK   10  A    between atoms: CA_14  and  C_16
REMARK   11  A    between atoms: CA_14  and  N_17
REMARK   12  A    between atoms: CG_15  and  CD_18
REMARK   13  A    between atoms: C_16  and  O_19
REMARK   14  A    between atoms: CD_18  and  OE1_21
REMARK                            x       y       z     vdW  Elec       q    Type
REMARK                         _______ _______ _______ _____ _____    ______ ____
ROOT
ATOM      1  CA  GLU A   1       2.508  -1.984   0.000  0.00  0.00    +0.000 C 
ENDROOT
BRANCH   1   2
ATOM      2  N   GLU A   1       2.508  -2.809   0.000  0.00  0.00    +0.000 NA
ATOM      3  H1  GLU A   1       1.625  -3.319   0.000  0.00  0.00    +0.000 HD
ATOM      4  H2  GLU A   1       3.392  -3.319   0.000  0.00  0.00    +0.000 HD
ENDBRANCH   1   2
BRANCH   1   5
ATOM      5  C   GLU A   1       3.223  -1.571   0.000  0.00  0.00    +0.000 C 
ATOM      6  OXT GLU A   1       3.223  -0.746   0.000  0.00  0.00    +0.000 OA
BRANCH   5   7
ATOM      7  O   GLU A   1       3.937  -1.984   0.000  0.00  0.00    +0.000 OA
ATOM      8  H   GLU A   1       3.937  -2.921   0.000  0.00  0.00    +0.000 HD
ENDBRANCH   5   7
ENDBRANCH   1   5
BRANCH   1   9
ATOM      9  CB  GLU A   1       1.794  -1.571   0.000  0.00  0.00    +0.000 C 
BRANCH   9  10
ATOM     10  CG  GLU A   1       1.079  -1.984   0.000  0.00  0.00    +0.000 C 
BRANCH  10  11
ATOM     11  CD  GLU A   1       0.365  -1.571   0.000  0.00  0.00    +0.000 C 
ATOM     12  OE2 GLU A   1       0.365  -0.746   0.000  0.00  0.00    +0.000 OA
BRANCH  11  13
ATOM     13  OE1 GLU A   1      -0.349  -1.984   0.000  0.00  0.00    +0.000 OA
ATOM     14  HE1 GLU A   1      -1.161  -1.515   0.000  0.00  0.00    +0.000 HD
ENDBRANCH  11  13
ENDBRANCH  10  11
ENDBRANCH   9  10
ENDBRANCH   1   9
TORSDOF 7
