REMARK  Name = 31553
REMARK  10 active torsions:
REMARK  status: ('A' for Active; 'I' for Inactive)
REMARK    1  A    between atoms: O_4  and  C_15
REMARK    2  A    between atoms: O_5  and  C_20
REMARK    3  A    between atoms: O_7  and  C_28
REMARK    4  A    between atoms: O_8  and  C_30
REMARK    5  A    between atoms: O_8  and  C_35
REMARK    6  A    between atoms: O_9  and  C_32
REMARK    7  A    between atoms: O_10  and  C_34
REMARK    8  A    between atoms: C_11  and  C_18
REMARK    9  A    between atoms: C_12  and  C_20
REMARK   10  A    between atoms: C_13  and  C_14
REMARK                            x       y       z     vdW  Elec       q    Type
REMARK                         _______ _______ _______ _____ _____    ______ ____
ROOT
ATOM      1  O   UNL     1       1.850  -0.058   0.371  0.00  0.00    +0.000 OA
ATOM      2  O   UNL     1       2.409  -2.878   0.499  0.00  0.00    +0.000 OA
ATOM      3  C   UNL     1       3.075  -0.579   0.917  0.00  0.00    +0.000 C 
ATOM      4  C   UNL     1       3.433  -1.905   0.227  0.00  0.00    +0.000 C 
ATOM      5  C   UNL     1      -1.463  -1.493  -0.096  0.00  0.00    +0.000 A 
ATOM      6  C   UNL     1       0.879  -1.014   0.243  0.00  0.00    +0.000 A 
ATOM      7  C   UNL     1       1.149  -2.380   0.315  0.00  0.00    +0.000 A 
ATOM      8  C   UNL     1      -0.425  -0.569   0.022  0.00  0.00    +0.000 A 
ATOM      9  C   UNL     1      -1.198  -2.859   0.004  0.00  0.00    +0.000 A 
ATOM     10  C   UNL     1       0.108  -3.304   0.211  0.00  0.00    +0.000 A 
ENDROOT
BRANCH   5  13
ATOM     11  O   UNL     1      -3.266  -0.246   0.825  0.00  0.00    +0.000 OA
ATOM     12  O   UNL     1      -4.983   0.422  -2.842  0.00  0.00    +0.000 OA
ATOM     13  C   UNL     1      -2.883  -1.012  -0.328  0.00  0.00    +0.000 C 
ATOM     14  C   UNL     1      -2.999  -0.184  -1.608  0.00  0.00    +0.000 C 
ATOM     15  C   UNL     1      -4.431   0.282  -1.757  0.00  0.00    +0.000 C 
ATOM     16  C   UNL     1      -5.132   0.603  -0.498  0.00  0.00    +0.000 A 
ATOM     17  C   UNL     1      -4.502   0.335   0.719  0.00  0.00    +0.000 A 
ATOM     18  C   UNL     1      -6.398   1.193  -0.524  0.00  0.00    +0.000 A 
ATOM     19  C   UNL     1      -5.127   0.692   1.915  0.00  0.00    +0.000 A 
ATOM     20  C   UNL     1      -6.389   1.285   1.893  0.00  0.00    +0.000 A 
ATOM     21  C   UNL     1      -7.026   1.531   0.676  0.00  0.00    +0.000 A 
BRANCH  14  22
ATOM     22  O   UNL     1      -2.673  -0.978  -2.735  0.00  0.00    +0.000 OA
ATOM     23  H   UNL     1      -2.685  -0.398  -3.516  0.00  0.00    +0.000 HD
ENDBRANCH  14  22
BRANCH  18  24
ATOM     24  O   UNL     1      -7.057   1.473  -1.683  0.00  0.00    +0.000 OA
ATOM     25  H   UNL     1      -7.915   1.882  -1.478  0.00  0.00    +0.000 HD
ENDBRANCH  18  24
BRANCH  20  26
ATOM     26  O   UNL     1      -7.002   1.624   3.060  0.00  0.00    +0.000 OA
ATOM     27  H   UNL     1      -6.422   1.383   3.803  0.00  0.00    +0.000 HD
ENDBRANCH  20  26
ENDBRANCH   5  13
BRANCH   3  28
ATOM     28  C   UNL     1       4.123   0.499   0.749  0.00  0.00    +0.000 A 
ATOM     29  C   UNL     1       4.515   0.896  -0.529  0.00  0.00    +0.000 A 
ATOM     30  C   UNL     1       4.697   1.095   1.872  0.00  0.00    +0.000 A 
ATOM     31  C   UNL     1       5.482   1.890  -0.684  0.00  0.00    +0.000 A 
ATOM     32  C   UNL     1       5.663   2.088   1.717  0.00  0.00    +0.000 A 
ATOM     33  C   UNL     1       6.056   2.486   0.439  0.00  0.00    +0.000 A 
BRANCH  31  34
ATOM     34  O   UNL     1       5.856   2.271  -1.938  0.00  0.00    +0.000 OA
ATOM     35  C   UNL     1       6.946   1.567  -2.530  0.00  0.00    +0.000 C 
ENDBRANCH  31  34
BRANCH  33  36
ATOM     36  O   UNL     1       7.000   3.458   0.300  0.00  0.00    +0.000 OA
ATOM     37  H   UNL     1       7.283   3.752   1.182  0.00  0.00    +0.000 HD
ENDBRANCH  33  36
ENDBRANCH   3  28
BRANCH   4  38
ATOM     38  C   UNL     1       4.741  -2.506   0.733  0.00  0.00    +0.000 C 
BRANCH  38  39
ATOM     39  O   UNL     1       4.973  -3.723   0.046  0.00  0.00    +0.000 OA
ATOM     40  H   UNL     1       5.064  -3.515  -0.899  0.00  0.00    +0.000 HD
ENDBRANCH  38  39
ENDBRANCH   4  38
TORSDOF 9
