REMARK  Name = 
REMARK  11 active torsions:
REMARK  status: ('A' for Active; 'I' for Inactive)
REMARK    1  A    between atoms: C_2  and  C_9
REMARK    2  A    between atoms: C_4  and  C_6
REMARK    3  A    between atoms: C_6  and  O_8
REMARK    4  A    between atoms: C_9  and  O_11
REMARK    5  A    between atoms: CG_12  and  CB_13
REMARK    6  A    between atoms: CG_12  and  CD_19
REMARK    7  A    between atoms: CB_13  and  CA_14
REMARK    8  A    between atoms: CA_14  and  C_15
REMARK    9  A    between atoms: CA_14  and  N_18
REMARK   10  A    between atoms: C_15  and  OXT_17
REMARK   11  A    between atoms: CD_19  and  NE_20
REMARK                            x       y       z     vdW  Elec       q    Type
REMARK                         _______ _______ _______ _____ _____    ______ ____
ROOT
ATOM      1  C   UNK     1       0.701  -0.662   0.000  0.00  0.00    +0.000 C 
ATOM      2  C   UNK     1      -0.124  -0.662   0.000  0.00  0.00    +0.000 C 
ATOM      3  N   UNK     1      -0.379   0.123   0.000  0.00  0.00    +0.000 NA
ATOM      4  C   UNK     1       0.289   0.608   0.000  0.00  0.00    +0.000 C 
ATOM      5  S   UNK     1       0.956   0.123   0.000  0.00  0.00    +0.000 S 
ATOM      6  H   UNK     1      -1.349   0.438   0.000  0.00  0.00    +0.000 HD
ENDROOT
BRANCH   4   7
ATOM      7  C   UNK     1       0.289   1.433   0.000  0.00  0.00    +0.000 C 
ATOM      8  O   UNK     1       1.003   1.845   0.000  0.00  0.00    +0.000 OA
BRANCH   7   9
ATOM      9  O   UNK     1      -0.426   1.845   0.000  0.00  0.00    +0.000 OA
ATOM     10  H   UNK     1      -0.426   2.782   0.000  0.00  0.00    +0.000 HD
ENDBRANCH   7   9
ENDBRANCH   4   7
BRANCH   2  11
ATOM     11  C   UNK     1      -0.609  -1.329   0.000  0.00  0.00    +0.000 C 
ATOM     12  O   UNK     1      -0.273  -2.083   0.000  0.00  0.00    +0.000 OA
BRANCH  11  13
ATOM     13  O   UNK     1      -1.429  -1.243   0.000  0.00  0.00    +0.000 OA
ATOM     14  H   UNK     1      -1.810  -0.387   0.000  0.00  0.00    +0.000 HD
ENDBRANCH  11  13
ENDBRANCH   2  11
TORSDOF 4
REMARK  Name = 
REMARK  11 active torsions:
REMARK  status: ('A' for Active; 'I' for Inactive)
REMARK    1  A    between atoms: C_2  and  C_9
REMARK    2  A    between atoms: C_4  and  C_6
REMARK    3  A    between atoms: C_6  and  O_8
REMARK    4  A    between atoms: C_9  and  O_11
REMARK    5  A    between atoms: CG_12  and  CB_13
REMARK    6  A    between atoms: CG_12  and  CD_19
REMARK    7  A    between atoms: CB_13  and  CA_14
REMARK    8  A    between atoms: CA_14  and  C_15
REMARK    9  A    between atoms: CA_14  and  N_18
REMARK   10  A    between atoms: C_15  and  OXT_17
REMARK   11  A    between atoms: CD_19  and  NE_20
REMARK                            x       y       z     vdW  Elec       q    Type
REMARK                         _______ _______ _______ _____ _____    ______ ____
ROOT
ATOM      1  CG  ARG A   1       5.629   0.275   0.000  0.00  0.00    +0.000 C 
ENDROOT
BRANCH   1   2
ATOM      2  CB  ARG A   1       4.915  -0.138   0.000  0.00  0.00    +0.000 C 
BRANCH   2   3
ATOM      3  CA  ARG A   1       4.200   0.275   0.000  0.00  0.00    +0.000 C 
BRANCH   3   4
ATOM      4  N   ARG A   1       4.200   1.100   0.000  0.00  0.00    +0.000 NA
ATOM      5  H1  ARG A   1       5.083   1.610   0.000  0.00  0.00    +0.000 HD
ATOM      6  H2  ARG A   1       3.317   1.610   0.000  0.00  0.00    +0.000 HD
ENDBRANCH   3   4
BRANCH   3   7
ATOM      7  C   ARG A   1       3.486  -0.138   0.000  0.00  0.00    +0.000 C 
ATOM      8  O   ARG A   1       2.771   0.275   0.000  0.00  0.00    +0.000 OA
BRANCH   7   9
ATOM      9  OXT ARG A   1       3.486  -0.963   0.000  0.00  0.00    +0.000 OA
ATOM     10  HXT ARG A   1       2.674  -1.431   0.000  0.00  0.00    +0.000 HD
ENDBRANCH   7   9
ENDBRANCH   3   7
ENDBRANCH   2   3
ENDBRANCH   1   2
BRANCH   1  11
ATOM     11  CD  ARG A   1       6.343  -0.138   0.000  0.00  0.00    +0.000 C 
BRANCH  11  12
ATOM     12  NE  ARG A   1       7.058   0.275   0.000  0.00  0.00    +0.000 N 
ATOM     13  CZ  ARG A   1       7.772  -0.138   0.000  0.00  0.00    +0.000 C 
ATOM     14  NH1 ARG A   1       8.487   0.275   0.000  0.00  0.00    +0.000 NA
ATOM     15  NH2 ARG A   1       7.772  -0.963   0.000  0.00  0.00    +0.000 N 
ATOM     16  HE  ARG A   1       7.058   1.259   0.000  0.00  0.00    +0.000 HD
ATOM     17  HH1 ARG A   1       9.340  -0.217   0.000  0.00  0.00    +0.000 HD
ATOM     18 HH21 ARG A   1       6.920  -1.455   0.000  0.00  0.00    +0.000 HD
ATOM     19 HH22 ARG A   1       8.625  -1.455   0.000  0.00  0.00    +0.000 HD
ENDBRANCH  11  12
ENDBRANCH   1  11
TORSDOF 7
