REMARK  Name = 5255805
REMARK  6 active torsions:
REMARK  status: ('A' for Active; 'I' for Inactive)
REMARK    1  A    between atoms: SD_1  and  CG_7
REMARK    2  A    between atoms: SD_1  and  CE_9
REMARK    3  A    between atoms: N_4  and  CA_5
REMARK    4  A    between atoms: CA_5  and  CB_6
REMARK    5  A    between atoms: CA_5  and  C_8
REMARK    6  A    between atoms: CB_6  and  CG_7
REMARK                            x       y       z     vdW  Elec       q    Type
REMARK                         _______ _______ _______ _____ _____    ______ ____
ROOT
ATOM      1  CA  MET A   1      -1.168  -0.702   0.475  0.00  0.00    +0.000 C 
ENDROOT
BRANCH   1   2
ATOM      2  N   MET A   1      -1.216  -1.833  -0.505  0.00  0.00    +0.000 N 
ATOM      3  H1  MET A   1      -0.787  -2.688  -0.125  0.00  0.00    +0.000 HD
ATOM      4  H2  MET A   1      -0.732  -1.602  -1.383  0.00  0.00    +0.000 HD
ATOM      5  H3  MET A   1      -2.188  -2.064  -0.749  0.00  0.00    +0.000 HD
ENDBRANCH   1   2
BRANCH   1   8
ATOM      6  O   MET A   1      -2.717   0.466  -0.902  0.00  0.00    +0.000 OA
ATOM      7  OXT MET A   1      -1.383   1.659   0.512  0.00  0.00    +0.000 OA
ATOM      8  C   MET A   1      -1.814   0.601  -0.029  0.00  0.00    +0.000 C 
ENDBRANCH   1   8
BRANCH   1   9
ATOM      9  CB  MET A   1       0.282  -0.573   0.963  0.00  0.00    +0.000 C 
BRANCH   9  10
ATOM     10  CG  MET A   1       1.266  -0.125  -0.120  0.00  0.00    +0.000 C 
BRANCH  10  11
ATOM     11  SD  MET A   1       2.946   0.012   0.561  0.00  0.00    +0.000 S 
ATOM     12  CE  MET A   1       3.803   0.496  -0.954  0.00  0.00    +0.000 C 
ENDBRANCH  10  11
ENDBRANCH   9  10
ENDBRANCH   1   9
TORSDOF 5
