REMARK  Name = 5280795
REMARK  11 active torsions:
REMARK  status: ('A' for Active; 'I' for Inactive)
REMARK    1  A    between atoms: O_1  and  C_25
REMARK    2  A    between atoms: C_2  and  C_10
REMARK    3  A    between atoms: C_3  and  C_8
REMARK    4  A    between atoms: C_8  and  C_13
REMARK    5  A    between atoms: C_8  and  C_14
REMARK    6  A    between atoms: C_13  and  C_16
REMARK    7  A    between atoms: C_15  and  C_18
REMARK    8  A    between atoms: C_16  and  C_17
REMARK    9  A    between atoms: C_17  and  C_19
REMARK   10  A    between atoms: C_19  and  C_22
REMARK   11  A    between atoms: C_19  and  C_23
REMARK                            x       y       z     vdW  Elec       q    Type
REMARK                         _______ _______ _______ _____ _____    ______ ____
ROOT
ATOM      1  C   UNL     1       1.229   1.287   0.296  0.00  0.00    +0.000 C 
ATOM      2  C   UNL     1       2.480   0.409   0.554  0.00  0.00    +0.000 C 
ATOM      3  C   UNL     1       0.218   0.180  -0.095  0.00  0.00    +0.000 C 
ATOM      4  C   UNL     1       1.931  -0.817   1.312  0.00  0.00    +0.000 C 
ATOM      5  C   UNL     1       0.434  -0.902   0.968  0.00  0.00    +0.000 C 
ATOM      6  C   UNL     1       1.393   2.285  -0.874  0.00  0.00    +0.000 C 
ATOM      7  C   UNL     1      -1.155   0.740  -0.361  0.00  0.00    +0.000 C 
ATOM      8  C   UNL     1       0.813   2.065   1.572  0.00  0.00    +0.000 C 
ATOM      9  C   UNL     1       0.175   2.338  -1.816  0.00  0.00    +0.000 C 
ATOM     10  C   UNL     1      -1.166   2.046  -1.130  0.00  0.00    +0.000 C 
ATOM     11  C   UNL     1      -2.298   0.155   0.026  0.00  0.00    +0.000 C 
ENDROOT
BRANCH  11  12
ATOM     12  C   UNL     1      -3.601   0.707  -0.252  0.00  0.00    +0.000 C 
ATOM     13  C   UNL     1      -4.746   0.122   0.135  0.00  0.00    +0.000 C 
ATOM     14  C   UNL     1      -6.097   0.707  -0.211  0.00  0.00    +0.000 C 
ATOM     15  C   UNL     1      -4.782  -1.135   0.877  0.00  0.00    +0.000 C 
ATOM     16  C   UNL     1      -7.056  -0.334  -0.801  0.00  0.00    +0.000 C 
ATOM     17  C   UNL     1      -5.729  -2.174   0.329  0.00  0.00    +0.000 C 
ATOM     18  C   UNL     1      -7.121  -1.594   0.063  0.00  0.00    +0.000 C 
ATOM     19  C   UNL     1      -4.056  -1.350   1.986  0.00  0.00    +0.000 C 
BRANCH  16  20
ATOM     20  O   UNL     1      -6.636  -0.690  -2.117  0.00  0.00    +0.000 OA
ATOM     21  H   UNL     1      -5.707  -0.971  -2.086  0.00  0.00    +0.000 HD
ENDBRANCH  16  20
ENDBRANCH  11  12
BRANCH   2  22
ATOM     22  C   UNL     1       3.642   1.079   1.275  0.00  0.00    +0.000 C 
ATOM     23  C   UNL     1       4.084   2.332   0.508  0.00  0.00    +0.000 C 
BRANCH  22  24
ATOM     24  C   UNL     1       4.854   0.141   1.456  0.00  0.00    +0.000 C 
BRANCH  24  25
ATOM     25  C   UNL     1       5.438  -0.460   0.170  0.00  0.00    +0.000 C 
BRANCH  25  26
ATOM     26  C   UNL     1       6.589  -1.439   0.421  0.00  0.00    +0.000 C 
BRANCH  26  27
ATOM     27  C   UNL     1       7.222  -1.986  -0.873  0.00  0.00    +0.000 C 
ATOM     28  C   UNL     1       7.744  -0.876  -1.786  0.00  0.00    +0.000 C 
ATOM     29  C   UNL     1       6.197  -2.835  -1.631  0.00  0.00    +0.000 C 
ENDBRANCH  26  27
ENDBRANCH  25  26
ENDBRANCH  24  25
ENDBRANCH  22  24
ENDBRANCH   2  22
TORSDOF 7
