REMARK  Name = 444036
REMARK  11 active torsions:
REMARK  status: ('A' for Active; 'I' for Inactive)
REMARK    1  A    between atoms: S_1  and  C_25
REMARK    2  A    between atoms: S_1  and  C_33
REMARK    3  A    between atoms: O_5  and  C_14
REMARK    4  A    between atoms: O_5  and  C_30
REMARK    5  A    between atoms: O_6  and  C_18
REMARK    6  A    between atoms: C_10  and  C_21
REMARK    7  A    between atoms: C_14  and  C_25
REMARK    8  A    between atoms: C_17  and  C_24
REMARK    9  A    between atoms: C_19  and  C_26
REMARK   10  A    between atoms: C_30  and  C_32
REMARK   11  A    between atoms: C_32  and  C_34
REMARK                            x       y       z     vdW  Elec       q    Type
REMARK                         _______ _______ _______ _____ _____    ______ ____
ROOT
ATOM      1  F   UNL     1      -1.751  -0.185  -1.134  0.00  0.00    +0.000 F 
ATOM      2  F   UNL     1      -4.316  -2.456   1.528  0.00  0.00    +0.000 F 
ATOM      3  O   UNL     1      -6.487  -0.221  -2.260  0.00  0.00    +0.000 OA
ATOM      4  C   UNL     1       1.157   0.409   0.737  0.00  0.00    +0.000 C 
ATOM      5  C   UNL     1       0.181  -0.784   0.834  0.00  0.00    +0.000 C 
ATOM      6  C   UNL     1      -1.264  -0.377   1.161  0.00  0.00    +0.000 C 
ATOM      7  C   UNL     1      -1.797   0.569   0.030  0.00  0.00    +0.000 C 
ATOM      8  C   UNL     1       2.475  -0.371   0.446  0.00  0.00    +0.000 C 
ATOM      9  C   UNL     1       0.900  -1.766   1.758  0.00  0.00    +0.000 C 
ATOM     10  C   UNL     1       0.654   1.331  -0.393  0.00  0.00    +0.000 C 
ATOM     11  C   UNL     1       2.405  -1.586   1.421  0.00  0.00    +0.000 C 
ATOM     12  C   UNL     1      -0.825   1.756  -0.246  0.00  0.00    +0.000 C 
ATOM     13  C   UNL     1      -3.320   0.940   0.226  0.00  0.00    +0.000 C 
ATOM     14  C   UNL     1      -2.151  -1.627   1.300  0.00  0.00    +0.000 C 
ATOM     15  C   UNL     1       1.281   1.206   2.064  0.00  0.00    +0.000 C 
ATOM     16  C   UNL     1      -3.621  -1.282   1.492  0.00  0.00    +0.000 C 
ATOM     17  C   UNL     1      -4.098  -0.374   0.385  0.00  0.00    +0.000 C 
ATOM     18  C   UNL     1       3.032  -2.872   0.891  0.00  0.00    +0.000 C 
ATOM     19  C   UNL     1      -3.596   1.814   1.471  0.00  0.00    +0.000 C 
ATOM     20  C   UNL     1      -3.821   1.736  -0.970  0.00  0.00    +0.000 C 
ATOM     21  C   UNL     1      -5.110  -0.739  -0.418  0.00  0.00    +0.000 C 
ATOM     22  C   UNL     1      -4.826   1.376  -1.773  0.00  0.00    +0.000 C 
ATOM     23  C   UNL     1      -5.551   0.114  -1.541  0.00  0.00    +0.000 C 
ENDROOT
BRANCH  12  24
ATOM     24  O   UNL     1      -0.931   2.751   0.762  0.00  0.00    +0.000 OA
ATOM     25  H   UNL     1      -1.438   3.493   0.391  0.00  0.00    +0.000 HD
ENDBRANCH  12  24
BRANCH   8  27
ATOM     26  O   UNL     1       4.570   0.159   1.484  0.00  0.00    +0.000 OA
ATOM     27  C   UNL     1       3.720   0.438   0.647  0.00  0.00    +0.000 C 
BRANCH  27  28
ATOM     28  S   UNL     1       3.848   1.824  -0.435  0.00  0.00    +0.000 S 
BRANCH  28  30
ATOM     29  F   UNL     1       5.721   3.610  -0.649  0.00  0.00    +0.000 F 
ATOM     30  C   UNL     1       5.426   2.515   0.101  0.00  0.00    +0.000 C 
ENDBRANCH  28  30
ENDBRANCH  27  28
ENDBRANCH   8  27
BRANCH   8  31
ATOM     31  O   UNL     1       2.594  -0.763  -0.916  0.00  0.00    +0.000 OA
BRANCH  31  33
ATOM     32  O   UNL     1       4.787  -1.434  -0.668  0.00  0.00    +0.000 OA
ATOM     33  C   UNL     1       3.702  -1.505  -1.229  0.00  0.00    +0.000 C 
BRANCH  33  34
ATOM     34  C   UNL     1       3.374  -2.428  -2.379  0.00  0.00    +0.000 C 
ATOM     35  C   UNL     1       3.638  -1.779  -3.726  0.00  0.00    +0.000 C 
ENDBRANCH  33  34
ENDBRANCH  31  33
ENDBRANCH   8  31
TORSDOF 7
