REMARK  Name = 5878
REMARK  4 active torsions:
REMARK  status: ('A' for Active; 'I' for Inactive)
REMARK    1  A    between atoms: O_1  and  C_9
REMARK    2  A    between atoms: C_5  and  C_17
REMARK    3  A    between atoms: C_8  and  C_19
REMARK    4  A    between atoms: C_9  and  C_21
REMARK                            x       y       z     vdW  Elec       q    Type
REMARK                         _______ _______ _______ _____ _____    ______ ____
ROOT
ATOM      1  O   UNL     1      -4.097   1.389  -0.298  0.00  0.00    +0.000 OA
ATOM      2  O   UNL     1      -5.984   0.169  -0.388  0.00  0.00    +0.000 OA
ATOM      3  C   UNL     1       1.870  -0.751  -0.251  0.00  0.00    +0.000 C 
ATOM      4  C   UNL     1       2.607   0.516   0.233  0.00  0.00    +0.000 C 
ATOM      5  C   UNL     1       0.424  -0.839   0.256  0.00  0.00    +0.000 C 
ATOM      6  C   UNL     1      -0.360   0.418  -0.239  0.00  0.00    +0.000 C 
ATOM      7  C   UNL     1      -1.865   0.377   0.204  0.00  0.00    +0.000 C 
ATOM      8  C   UNL     1       4.037   0.251  -0.332  0.00  0.00    +0.000 C 
ATOM      9  C   UNL     1       1.854   1.738  -0.321  0.00  0.00    +0.000 C 
ATOM     10  C   UNL     1       0.374   1.740   0.104  0.00  0.00    +0.000 C 
ATOM     11  C   UNL     1       2.833  -1.880   0.101  0.00  0.00    +0.000 C 
ATOM     12  C   UNL     1      -2.487  -0.944  -0.309  0.00  0.00    +0.000 C 
ATOM     13  C   UNL     1      -0.258  -2.130  -0.220  0.00  0.00    +0.000 C 
ATOM     14  C   UNL     1       4.234  -1.272  -0.099  0.00  0.00    +0.000 C 
ATOM     15  C   UNL     1      -1.731  -2.185   0.177  0.00  0.00    +0.000 C 
ATOM     16  C   UNL     1       2.680   0.635   1.784  0.00  0.00    +0.000 C 
ATOM     17  C   UNL     1      -2.667   1.495  -0.481  0.00  0.00    +0.000 C 
ATOM     18  C   UNL     1      -2.010   0.537   1.738  0.00  0.00    +0.000 C 
ATOM     19  C   UNL     1      -3.969  -1.035   0.032  0.00  0.00    +0.000 C 
ATOM     20  C   UNL     1       4.240   0.595  -1.813  0.00  0.00    +0.000 C 
ATOM     21  C   UNL     1      -4.761   0.211  -0.270  0.00  0.00    +0.000 C 
ENDROOT
BRANCH   8  22
ATOM     22  O   UNL     1       5.036   0.965   0.393  0.00  0.00    +0.000 OA
ATOM     23  H   UNL     1       5.138   0.571   1.274  0.00  0.00    +0.000 HD
ENDBRANCH   8  22
TORSDOF 1
