REMARK  Name = 5311052
REMARK  7 active torsions:
REMARK  status: ('A' for Active; 'I' for Inactive)
REMARK    1  A    between atoms: O_3  and  C_15
REMARK    2  A    between atoms: O_5  and  C_26
REMARK    3  A    between atoms: C_7  and  C_18
REMARK    4  A    between atoms: C_11  and  C_21
REMARK    5  A    between atoms: C_14  and  C_22
REMARK    6  A    between atoms: C_16  and  C_23
REMARK    7  A    between atoms: C_21  and  C_26
REMARK                            x       y       z     vdW  Elec       q    Type
REMARK                         _______ _______ _______ _____ _____    ______ ____
ROOT
ATOM      1 CL   UNL     1      -1.188  -0.319   1.889  0.00  0.00    +0.000 Cl
ATOM      2  F   UNL     1      -3.296   3.002  -0.442  0.00  0.00    +0.000 F 
ATOM      3  O   UNL     1      -6.097  -0.561   1.438  0.00  0.00    +0.000 OA
ATOM      4  C   UNL     1       2.069  -0.161  -0.219  0.00  0.00    +0.000 C 
ATOM      5  C   UNL     1       1.115   1.006   0.111  0.00  0.00    +0.000 C 
ATOM      6  C   UNL     1      -0.288   0.829  -0.493  0.00  0.00    +0.000 C 
ATOM      7  C   UNL     1      -0.965  -0.495   0.046  0.00  0.00    +0.000 C 
ATOM      8  C   UNL     1       3.324   0.343   0.540  0.00  0.00    +0.000 C 
ATOM      9  C   UNL     1       1.939   2.244  -0.234  0.00  0.00    +0.000 C 
ATOM     10  C   UNL     1       1.464  -1.460   0.347  0.00  0.00    +0.000 C 
ATOM     11  C   UNL     1       3.373   1.863   0.215  0.00  0.00    +0.000 C 
ATOM     12  C   UNL     1       0.005  -1.723  -0.107  0.00  0.00    +0.000 C 
ATOM     13  C   UNL     1      -2.427  -0.671  -0.576  0.00  0.00    +0.000 C 
ATOM     14  C   UNL     1      -1.167   2.070  -0.256  0.00  0.00    +0.000 C 
ATOM     15  C   UNL     1       2.368  -0.322  -1.733  0.00  0.00    +0.000 C 
ATOM     16  C   UNL     1      -2.579   1.897  -0.805  0.00  0.00    +0.000 C 
ATOM     17  C   UNL     1      -3.220   0.621  -0.312  0.00  0.00    +0.000 C 
ATOM     18  C   UNL     1       3.833   2.678   1.420  0.00  0.00    +0.000 C 
ATOM     19  C   UNL     1      -2.440  -0.902  -2.108  0.00  0.00    +0.000 C 
ATOM     20  C   UNL     1      -3.129  -1.889   0.012  0.00  0.00    +0.000 C 
ATOM     21  C   UNL     1      -4.395   0.644   0.337  0.00  0.00    +0.000 C 
ATOM     22  C   UNL     1      -4.299  -1.865   0.657  0.00  0.00    +0.000 C 
ATOM     23  C   UNL     1      -5.018  -0.593   0.856  0.00  0.00    +0.000 C 
ENDROOT
BRANCH  12  24
ATOM     24  O   UNL     1       0.037  -2.173  -1.458  0.00  0.00    +0.000 OA
ATOM     25  H   UNL     1       0.583  -2.977  -1.491  0.00  0.00    +0.000 HD
ENDBRANCH  12  24
BRANCH   8  27
ATOM     26  O   UNL     1       5.284   0.033  -0.778  0.00  0.00    +0.000 OA
ATOM     27  C   UNL     1       4.587  -0.365   0.155  0.00  0.00    +0.000 C 
BRANCH  27  28
ATOM     28  C   UNL     1       4.949  -1.584   0.975  0.00  0.00    +0.000 C 
BRANCH  28  29
ATOM     29  O   UNL     1       6.161  -2.149   0.522  0.00  0.00    +0.000 OA
ATOM     30  H   UNL     1       6.867  -1.502   0.692  0.00  0.00    +0.000 HD
ENDBRANCH  28  29
ENDBRANCH  27  28
ENDBRANCH   8  27
TORSDOF 4
