REMARK  Name = 15209
REMARK  8 active torsions:
REMARK  status: ('A' for Active; 'I' for Inactive)
REMARK    1  A    between atoms: O_4  and  C_16
REMARK    2  A    between atoms: O_6  and  C_28
REMARK    3  A    between atoms: C_8  and  C_19
REMARK    4  A    between atoms: C_11  and  C_22
REMARK    5  A    between atoms: C_17  and  C_25
REMARK    6  A    between atoms: C_22  and  C_28
REMARK    7  A    between atoms: C_23  and  C_29
REMARK    8  A    between atoms: C_23  and  C_30
REMARK                            x       y       z     vdW  Elec       q    Type
REMARK                         _______ _______ _______ _____ _____    ______ ____
ROOT
ATOM      1  F   UNL     1       3.797   2.517   1.663  0.00  0.00    +0.000 F 
ATOM      2  O   UNL     1      -2.784   0.542  -1.198  0.00  0.00    +0.000 OA
ATOM      3  O   UNL     1      -3.339   2.304   0.255  0.00  0.00    +0.000 OA
ATOM      4  O   UNL     1       5.854   0.666  -2.382  0.00  0.00    +0.000 OA
ATOM      5  C   UNL     1      -1.426  -0.672   0.480  0.00  0.00    +0.000 C 
ATOM      6  C   UNL     1      -0.541   0.583   0.656  0.00  0.00    +0.000 C 
ATOM      7  C   UNL     1       0.892   0.259   1.100  0.00  0.00    +0.000 C 
ATOM      8  C   UNL     1      -2.772   0.009   0.124  0.00  0.00    +0.000 C 
ATOM      9  C   UNL     1       1.560  -0.643  -0.003  0.00  0.00    +0.000 C 
ATOM     10  C   UNL     1      -1.399   1.512   1.517  0.00  0.00    +0.000 C 
ATOM     11  C   UNL     1      -2.843   1.229   1.047  0.00  0.00    +0.000 C 
ATOM     12  C   UNL     1      -0.793  -1.532  -0.631  0.00  0.00    +0.000 C 
ATOM     13  C   UNL     1       0.688  -1.883  -0.361  0.00  0.00    +0.000 C 
ATOM     14  C   UNL     1       3.076  -0.929   0.324  0.00  0.00    +0.000 C 
ATOM     15  C   UNL     1       1.696   1.552   1.339  0.00  0.00    +0.000 C 
ATOM     16  C   UNL     1      -1.594  -1.496   1.786  0.00  0.00    +0.000 C 
ATOM     17  C   UNL     1       3.731   0.453   0.466  0.00  0.00    +0.000 C 
ATOM     18  C   UNL     1       3.181   1.300   1.587  0.00  0.00    +0.000 C 
ATOM     19  C   UNL     1      -3.319   1.866  -1.105  0.00  0.00    +0.000 C 
ATOM     20  C   UNL     1       3.796  -1.751  -0.782  0.00  0.00    +0.000 C 
ATOM     21  C   UNL     1       3.279  -1.735   1.633  0.00  0.00    +0.000 C 
ATOM     22  C   UNL     1       4.114  -0.945  -2.027  0.00  0.00    +0.000 C 
ATOM     23  C   UNL     1       4.630   0.958  -0.396  0.00  0.00    +0.000 C 
ATOM     24  C   UNL     1      -2.444   2.811  -1.920  0.00  0.00    +0.000 C 
ATOM     25  C   UNL     1      -4.749   1.870  -1.638  0.00  0.00    +0.000 C 
ATOM     26  C   UNL     1       4.965   0.241  -1.649  0.00  0.00    +0.000 C 
ENDROOT
BRANCH  13  27
ATOM     27  O   UNL     1       0.768  -2.877   0.649  0.00  0.00    +0.000 OA
ATOM     28  H   UNL     1       0.848  -2.451   1.515  0.00  0.00    +0.000 HD
ENDBRANCH  13  27
BRANCH   8  30
ATOM     29  O   UNL     1      -4.891  -0.670   0.981  0.00  0.00    +0.000 OA
ATOM     30  C   UNL     1      -3.957  -0.907   0.216  0.00  0.00    +0.000 C 
BRANCH  30  31
ATOM     31  C   UNL     1      -3.932  -2.128  -0.680  0.00  0.00    +0.000 C 
BRANCH  31  32
ATOM     32  O   UNL     1      -5.242  -2.502  -1.049  0.00  0.00    +0.000 OA
ATOM     33  H   UNL     1      -5.610  -1.784  -1.591  0.00  0.00    +0.000 HD
ENDBRANCH  31  32
ENDBRANCH  30  31
ENDBRANCH   8  30
TORSDOF 4
