REMARK  Name = 32798
REMARK  10 active torsions:
REMARK  status: ('A' for Active; 'I' for Inactive)
REMARK    1  A    between atoms: O_3  and  C_12
REMARK    2  A    between atoms: O_3  and  C_29
REMARK    3  A    between atoms: O_4  and  C_16
REMARK    4  A    between atoms: C_8  and  C_19
REMARK    5  A    between atoms: C_12  and  C_22
REMARK    6  A    between atoms: C_15  and  C_23
REMARK    7  A    between atoms: C_17  and  C_24
REMARK    8  A    between atoms: C_22  and  C_27
REMARK    9  A    between atoms: C_29  and  C_31
REMARK   10  A    between atoms: C_31  and  C_32
REMARK                            x       y       z     vdW  Elec       q    Type
REMARK                         _______ _______ _______ _____ _____    ______ ____
ROOT
ATOM      1  F   UNL     1       1.771  -1.125   0.337  0.00  0.00    +0.000 F 
ATOM      2  O   UNL     1       6.531  -2.187   0.443  0.00  0.00    +0.000 OA
ATOM      3  C   UNL     1      -1.111   0.866   0.067  0.00  0.00    +0.000 C 
ATOM      4  C   UNL     1      -0.276   0.234  -1.069  0.00  0.00    +0.000 C 
ATOM      5  C   UNL     1       1.195   0.678  -1.065  0.00  0.00    +0.000 C 
ATOM      6  C   UNL     1       1.853   0.258   0.294  0.00  0.00    +0.000 C 
ATOM      7  C   UNL     1      -2.517   0.279  -0.270  0.00  0.00    +0.000 C 
ATOM      8  C   UNL     1      -1.124   0.505  -2.308  0.00  0.00    +0.000 C 
ATOM      9  C   UNL     1      -0.488   0.407   1.403  0.00  0.00    +0.000 C 
ATOM     10  C   UNL     1      -2.570   0.217  -1.829  0.00  0.00    +0.000 C 
ATOM     11  C   UNL     1       1.018   0.735   1.521  0.00  0.00    +0.000 C 
ATOM     12  C   UNL     1       3.396   0.593   0.334  0.00  0.00    +0.000 C 
ATOM     13  C   UNL     1       1.943   0.060  -2.260  0.00  0.00    +0.000 C 
ATOM     14  C   UNL     1      -1.160   2.417   0.002  0.00  0.00    +0.000 C 
ATOM     15  C   UNL     1       3.434   0.375  -2.235  0.00  0.00    +0.000 C 
ATOM     16  C   UNL     1       4.034  -0.032  -0.913  0.00  0.00    +0.000 C 
ATOM     17  C   UNL     1      -3.563   1.148  -2.519  0.00  0.00    +0.000 C 
ATOM     18  C   UNL     1       3.714   2.106   0.325  0.00  0.00    +0.000 C 
ATOM     19  C   UNL     1       4.021   0.038   1.607  0.00  0.00    +0.000 C 
ATOM     20  C   UNL     1       5.036  -0.924  -0.871  0.00  0.00    +0.000 C 
ATOM     21  C   UNL     1       5.017  -0.851   1.655  0.00  0.00    +0.000 C 
ATOM     22  C   UNL     1       5.605  -1.384   0.412  0.00  0.00    +0.000 C 
ENDROOT
BRANCH  11  23
ATOM     23  O   UNL     1       1.190   2.123   1.763  0.00  0.00    +0.000 OA
ATOM     24  H   UNL     1       1.768   2.217   2.539  0.00  0.00    +0.000 HD
ENDBRANCH  11  23
BRANCH   7  26
ATOM     25  O   UNL     1      -4.590   1.439  -0.221  0.00  0.00    +0.000 OA
ATOM     26  C   UNL     1      -3.661   0.957   0.426  0.00  0.00    +0.000 C 
BRANCH  26  28
ATOM     27 CL   UNL     1      -5.199   1.011   2.649  0.00  0.00    +0.000 Cl
ATOM     28  C   UNL     1      -3.579   1.000   1.935  0.00  0.00    +0.000 C 
ENDBRANCH  26  28
ENDBRANCH   7  26
BRANCH   7  29
ATOM     29  O   UNL     1      -2.619  -1.061   0.231  0.00  0.00    +0.000 OA
BRANCH  29  31
ATOM     30  O   UNL     1      -4.741  -1.232  -0.659  0.00  0.00    +0.000 OA
ATOM     31  C   UNL     1      -3.795  -1.699  -0.040  0.00  0.00    +0.000 C 
BRANCH  31  32
ATOM     32  C   UNL     1      -3.741  -3.089   0.550  0.00  0.00    +0.000 C 
ATOM     33  C   UNL     1      -5.024  -3.863   0.307  0.00  0.00    +0.000 C 
ENDBRANCH  31  32
ENDBRANCH  29  31
ENDBRANCH   7  29
TORSDOF 6
