REMARK  Name = 9865375
REMARK  8 active torsions:
REMARK  status: ('A' for Active; 'I' for Inactive)
REMARK    1  A    between atoms: O_1  and  C_8
REMARK    2  A    between atoms: O_1  and  C_18
REMARK    3  A    between atoms: O_3  and  C_21
REMARK    4  A    between atoms: O_3  and  C_29
REMARK    5  A    between atoms: C_5  and  C_14
REMARK    6  A    between atoms: C_7  and  C_15
REMARK    7  A    between atoms: C_15  and  C_19
REMARK    8  A    between atoms: C_25  and  C_28
REMARK                            x       y       z     vdW  Elec       q    Type
REMARK                         _______ _______ _______ _____ _____    ______ ____
ROOT
ATOM      1  O   UNL     1      -4.567  -2.417   1.355  0.00  0.00    +0.000 OA
ATOM      2  N   UNL     1      -2.465  -3.348   1.425  0.00  0.00    +0.000 N 
ATOM      3  C   UNL     1      -0.770  -2.727  -0.250  0.00  0.00    +0.000 C 
ATOM      4  C   UNL     1      -1.808  -1.690  -0.745  0.00  0.00    +0.000 C 
ATOM      5  C   UNL     1      -2.723  -1.171   0.375  0.00  0.00    +0.000 C 
ATOM      6  C   UNL     1      -1.046  -3.192   1.187  0.00  0.00    +0.000 C 
ATOM      7  C   UNL     1      -3.370  -2.357   1.086  0.00  0.00    +0.000 C 
ATOM      8  H   UNL     1      -2.797  -4.166   1.927  0.00  0.00    +0.000 HD
ENDROOT
BRANCH   3   9
ATOM      9  C   UNL     1       0.662  -2.245  -0.392  0.00  0.00    +0.000 A 
ATOM     10  C   UNL     1       1.094  -1.134   0.328  0.00  0.00    +0.000 A 
ATOM     11  C   UNL     1       2.410  -0.690   0.197  0.00  0.00    +0.000 A 
ATOM     12  C   UNL     1       1.538  -2.916  -1.242  0.00  0.00    +0.000 A 
ATOM     13  C   UNL     1       3.290  -1.360  -0.653  0.00  0.00    +0.000 A 
ATOM     14  C   UNL     1       2.854  -2.473  -1.373  0.00  0.00    +0.000 A 
BRANCH  13  15
ATOM     15  O   UNL     1       4.578  -0.937  -0.788  0.00  0.00    +0.000 OA
ATOM     16  C   UNL     1       5.413  -1.676  -1.677  0.00  0.00    +0.000 C 
ENDBRANCH  13  15
BRANCH  11  17
ATOM     17  O   UNL     1       2.824   0.397   0.905  0.00  0.00    +0.000 OA
BRANCH  17  18
ATOM     18  C   UNL     1       2.140   1.621   0.668  0.00  0.00    +0.000 C 
ATOM     19  C   UNL     1       3.141   2.685   0.243  0.00  0.00    +0.000 C 
ATOM     20  C   UNL     1       1.582   2.177   1.970  0.00  0.00    +0.000 C 
ATOM     21  C   UNL     1       3.780   3.154   1.549  0.00  0.00    +0.000 C 
ATOM     22  C   UNL     1       2.792   2.800   2.661  0.00  0.00    +0.000 C 
ENDBRANCH  17  18
ENDBRANCH  11  17
ENDBRANCH   3   9
BRANCH   5  23
ATOM     23  C   UNL     1      -3.772  -0.213  -0.181  0.00  0.00    +0.000 C 
BRANCH  23  24
ATOM     24  C   UNL     1      -3.205   1.164  -0.394  0.00  0.00    +0.000 A 
ATOM     25  C   UNL     1      -2.629   1.488  -1.615  0.00  0.00    +0.000 A 
ATOM     26  C   UNL     1      -3.265   2.095   0.635  0.00  0.00    +0.000 A 
ATOM     27  C   UNL     1      -2.103   2.765  -1.811  0.00  0.00    +0.000 A 
ATOM     28  C   UNL     1      -2.739   3.372   0.439  0.00  0.00    +0.000 A 
ATOM     29  C   UNL     1      -2.158   3.707  -0.783  0.00  0.00    +0.000 A 
ATOM     30  C   UNL     1      -1.480   3.123  -3.118  0.00  0.00    +0.000 C 
ENDBRANCH  23  24
ENDBRANCH   5  23
TORSDOF 6
