REMARK  Name = 5745
REMARK  8 active torsions:
REMARK  status: ('A' for Active; 'I' for Inactive)
REMARK    1  A    between atoms: O_1  and  C_11
REMARK    2  A    between atoms: O_4  and  C_27
REMARK    3  A    between atoms: O_4  and  C_28
REMARK    4  A    between atoms: C_8  and  C_18
REMARK    5  A    between atoms: C_11  and  C_22
REMARK    6  A    between atoms: C_12  and  C_23
REMARK    7  A    between atoms: C_22  and  C_27
REMARK    8  A    between atoms: C_28  and  C_29
REMARK                            x       y       z     vdW  Elec       q    Type
REMARK                         _______ _______ _______ _____ _____    ______ ____
ROOT
ATOM      1  O   UNL     1       0.687  -2.165   0.887  0.00  0.00    +0.000 OA
ATOM      2  O   UNL     1       6.914  -1.340  -1.189  0.00  0.00    +0.000 OA
ATOM      3  C   UNL     1      -0.071   1.641  -0.299  0.00  0.00    +0.000 C 
ATOM      4  C   UNL     1      -1.186   0.705   0.226  0.00  0.00    +0.000 C 
ATOM      5  C   UNL     1       1.311   1.317   0.287  0.00  0.00    +0.000 C 
ATOM      6  C   UNL     1       1.695  -0.148  -0.079  0.00  0.00    +0.000 C 
ATOM      7  C   UNL     1      -2.415   1.366  -0.449  0.00  0.00    +0.000 C 
ATOM      8  C   UNL     1       3.118  -0.564   0.450  0.00  0.00    +0.000 C 
ATOM      9  C   UNL     1      -0.642   3.039  -0.073  0.00  0.00    +0.000 C 
ATOM     10  C   UNL     1      -0.849  -0.719  -0.225  0.00  0.00    +0.000 C 
ATOM     11  C   UNL     1      -2.157   2.881  -0.307  0.00  0.00    +0.000 C 
ATOM     12  C   UNL     1       2.377   2.287  -0.238  0.00  0.00    +0.000 C 
ATOM     13  C   UNL     1       0.534  -1.104   0.284  0.00  0.00    +0.000 C 
ATOM     14  C   UNL     1      -1.333   0.729   1.773  0.00  0.00    +0.000 C 
ATOM     15  C   UNL     1       4.139   0.516   0.054  0.00  0.00    +0.000 C 
ATOM     16  C   UNL     1       3.750   1.950   0.326  0.00  0.00    +0.000 C 
ATOM     17  C   UNL     1       3.514  -1.919  -0.207  0.00  0.00    +0.000 C 
ATOM     18  C   UNL     1       3.155  -0.701   1.989  0.00  0.00    +0.000 C 
ATOM     19  C   UNL     1       4.994  -2.249  -0.086  0.00  0.00    +0.000 C 
ATOM     20  C   UNL     1       5.342   0.256  -0.484  0.00  0.00    +0.000 C 
ATOM     21  C   UNL     1       5.826  -1.132  -0.656  0.00  0.00    +0.000 C 
ENDROOT
BRANCH   7  22
ATOM     22  O   UNL     1      -2.484   1.023  -1.830  0.00  0.00    +0.000 OA
ATOM     23  H   UNL     1      -3.163   1.579  -2.249  0.00  0.00    +0.000 HD
ENDBRANCH   7  22
BRANCH   7  25
ATOM     24  O   UNL     1      -4.509   1.757   0.616  0.00  0.00    +0.000 OA
ATOM     25  C   UNL     1      -3.740   0.943   0.107  0.00  0.00    +0.000 C 
BRANCH  25  26
ATOM     26  C   UNL     1      -4.070  -0.532   0.007  0.00  0.00    +0.000 C 
BRANCH  26  27
ATOM     27  O   UNL     1      -5.463  -0.724  -0.117  0.00  0.00    +0.000 OA
BRANCH  27  29
ATOM     28  O   UNL     1      -5.168  -3.013  -0.208  0.00  0.00    +0.000 OA
ATOM     29  C   UNL     1      -5.888  -2.025  -0.217  0.00  0.00    +0.000 C 
ATOM     30  C   UNL     1      -7.380  -2.075  -0.342  0.00  0.00    +0.000 C 
ENDBRANCH  27  29
ENDBRANCH  26  27
ENDBRANCH  25  26
ENDBRANCH   7  25
TORSDOF 5
