REMARK  Name = 62348
REMARK  5 active torsions:
REMARK  status: ('A' for Active; 'I' for Inactive)
REMARK    1  A    between atoms: O_1  and  C_6
REMARK    2  A    between atoms: O_1  and  C_11
REMARK    3  A    between atoms: O_2  and  C_8
REMARK    4  A    between atoms: O_3  and  C_9
REMARK    5  A    between atoms: C_4  and  C_9
REMARK                            x       y       z     vdW  Elec       q    Type
REMARK                         _______ _______ _______ _____ _____    ______ ____
ROOT
ATOM      1  C   UNL     1      -1.345   0.074   0.282  0.00  0.00    +0.000 A 
ATOM      2  C   UNL     1      -0.273  -0.813   0.196  0.00  0.00    +0.000 A 
ATOM      3  C   UNL     1       1.022  -0.327   0.018  0.00  0.00    +0.000 A 
ATOM      4  C   UNL     1      -1.123   1.448   0.190  0.00  0.00    +0.000 A 
ATOM      5  C   UNL     1       1.245   1.047  -0.074  0.00  0.00    +0.000 A 
ATOM      6  C   UNL     1       0.172   1.935   0.012  0.00  0.00    +0.000 A 
ENDROOT
BRANCH   3   7
ATOM      7  O   UNL     1       2.061  -1.204  -0.065  0.00  0.00    +0.000 OA
ATOM      8  C   UNL     1       1.748  -2.592   0.039  0.00  0.00    +0.000 C 
ENDBRANCH   3   7
BRANCH   5   9
ATOM      9  O   UNL     1       2.505   1.534  -0.249  0.00  0.00    +0.000 OA
ATOM     10  H   UNL     1       2.466   2.505  -0.291  0.00  0.00    +0.000 HD
ENDBRANCH   5   9
BRANCH   1  11
ATOM     11  C   UNL     1      -2.730  -0.445   0.472  0.00  0.00    +0.000 C 
BRANCH  11  12
ATOM     12  O   UNL     1      -3.282  -0.657  -0.822  0.00  0.00    +0.000 OA
ATOM     13  H   UNL     1      -4.185  -0.994  -0.694  0.00  0.00    +0.000 HD
ENDBRANCH  11  12
ENDBRANCH   1  11
TORSDOF 4
