REMARK  Name = 5288783
REMARK  10 active torsions:
REMARK  status: ('A' for Active; 'I' for Inactive)
REMARK    1  A    between atoms: O_1  and  C_20
REMARK    2  A    between atoms: O_2  and  C_27
REMARK    3  A    between atoms: O_3  and  C_28
REMARK    4  A    between atoms: C_4  and  C_12
REMARK    5  A    between atoms: C_5  and  C_10
REMARK    6  A    between atoms: C_10  and  C_15
REMARK    7  A    between atoms: C_10  and  C_16
REMARK    8  A    between atoms: C_17  and  C_23
REMARK    9  A    between atoms: C_18  and  C_20
REMARK   10  A    between atoms: C_19  and  C_20
REMARK                            x       y       z     vdW  Elec       q    Type
REMARK                         _______ _______ _______ _____ _____    ______ ____
ROOT
ATOM      1  C   UNL     1      -0.960   1.621  -0.037  0.00  0.00    +0.000 C 
ATOM      2  C   UNL     1      -2.372   1.105   0.331  0.00  0.00    +0.000 C 
ATOM      3  C   UNL     1      -0.131   0.893   1.050  0.00  0.00    +0.000 C 
ATOM      4  C   UNL     1      -2.149  -0.389   0.661  0.00  0.00    +0.000 C 
ATOM      5  C   UNL     1      -0.652  -0.544   0.987  0.00  0.00    +0.000 C 
ATOM      6  C   UNL     1      -0.772   3.141   0.142  0.00  0.00    +0.000 C 
ATOM      7  C   UNL     1       1.332   1.227   0.939  0.00  0.00    +0.000 C 
ATOM      8  C   UNL     1      -0.566   1.215  -1.480  0.00  0.00    +0.000 C 
ATOM      9  C   UNL     1       0.714   3.542   0.090  0.00  0.00    +0.000 C 
ATOM     10  C   UNL     1       1.600   2.715   1.036  0.00  0.00    +0.000 C 
ATOM     11  C   UNL     1       2.317   0.333   0.778  0.00  0.00    +0.000 C 
ENDROOT
BRANCH  11  12
ATOM     12  C   UNL     1       3.709   0.698   0.683  0.00  0.00    +0.000 C 
ATOM     13  C   UNL     1       4.696  -0.197   0.522  0.00  0.00    +0.000 C 
ATOM     14  C   UNL     1       6.135   0.225   0.365  0.00  0.00    +0.000 C 
ATOM     15  C   UNL     1       4.459  -1.637   0.446  0.00  0.00    +0.000 C 
ATOM     16  C   UNL     1       6.802  -0.436  -0.844  0.00  0.00    +0.000 C 
ATOM     17  C   UNL     1       5.153  -2.355  -0.689  0.00  0.00    +0.000 C 
ATOM     18  C   UNL     1       6.628  -1.958  -0.800  0.00  0.00    +0.000 C 
ATOM     19  C   UNL     1       3.720  -2.300   1.351  0.00  0.00    +0.000 C 
BRANCH  16  20
ATOM     20  O   UNL     1       8.190  -0.115  -0.828  0.00  0.00    +0.000 OA
ATOM     21  H   UNL     1       8.268   0.853  -0.869  0.00  0.00    +0.000 HD
ENDBRANCH  16  20
BRANCH  17  22
ATOM     22  O   UNL     1       4.476  -2.028  -1.904  0.00  0.00    +0.000 OA
ATOM     23  H   UNL     1       4.925  -2.501  -2.626  0.00  0.00    +0.000 HD
ENDBRANCH  17  22
ENDBRANCH  11  12
BRANCH   2  24
ATOM     24  C   UNL     1      -3.466   1.326  -0.704  0.00  0.00    +0.000 C 
ATOM     25  C   UNL     1      -3.644   2.819  -0.993  0.00  0.00    +0.000 C 
BRANCH  24  26
ATOM     26  C   UNL     1      -4.770   0.733  -0.228  0.00  0.00    +0.000 C 
ATOM     27  C   UNL     1      -5.428  -0.241  -0.875  0.00  0.00    +0.000 C 
BRANCH  27  28
ATOM     28  C   UNL     1      -6.729  -0.828  -0.402  0.00  0.00    +0.000 C 
BRANCH  28  29
ATOM     29  C   UNL     1      -6.691  -2.311  -0.169  0.00  0.00    +0.000 C 
ATOM     30  C   UNL     1      -6.205  -2.815   1.148  0.00  0.00    +0.000 C 
ATOM     31  C   UNL     1      -7.660  -2.908   0.794  0.00  0.00    +0.000 C 
ENDBRANCH  28  29
BRANCH  28  32
ATOM     32  O   UNL     1      -7.739  -0.534  -1.370  0.00  0.00    +0.000 OA
ATOM     33  H   UNL     1      -7.782   0.433  -1.470  0.00  0.00    +0.000 HD
ENDBRANCH  28  32
ENDBRANCH  27  28
ENDBRANCH  24  26
ENDBRANCH   2  24
TORSDOF 8
