REMARK  Name = 10635
REMARK  3 active torsions:
REMARK  status: ('A' for Active; 'I' for Inactive)
REMARK    1  A    between atoms: O_1  and  C_13
REMARK    2  A    between atoms: C_6  and  C_17
REMARK    3  A    between atoms: C_7  and  C_18
REMARK                            x       y       z     vdW  Elec       q    Type
REMARK                         _______ _______ _______ _____ _____    ______ ____
ROOT
ATOM      1  O   UNL     1       5.672  -0.303   0.364  0.00  0.00    +0.000 OA
ATOM      2  C   UNL     1      -0.634   0.807   0.170  0.00  0.00    +0.000 C 
ATOM      3  C   UNL     1       0.176  -0.429  -0.333  0.00  0.00    +0.000 C 
ATOM      4  C   UNL     1      -2.064   0.706  -0.371  0.00  0.00    +0.000 C 
ATOM      5  C   UNL     1      -2.789  -0.573   0.090  0.00  0.00    +0.000 C 
ATOM      6  C   UNL     1       1.681  -0.388   0.128  0.00  0.00    +0.000 C 
ATOM      7  C   UNL     1       2.299   0.979  -0.307  0.00  0.00    +0.000 C 
ATOM      8  C   UNL     1      -0.550  -1.767  -0.019  0.00  0.00    +0.000 C 
ATOM      9  C   UNL     1      -2.023  -1.781  -0.467  0.00  0.00    +0.000 C 
ATOM     10  C   UNL     1       0.036   2.114  -0.272  0.00  0.00    +0.000 C 
ATOM     11  C   UNL     1      -3.063   1.816  -0.050  0.00  0.00    +0.000 C 
ATOM     12  C   UNL     1      -4.165  -0.329  -0.557  0.00  0.00    +0.000 C 
ATOM     13  C   UNL     1       1.490   2.189   0.179  0.00  0.00    +0.000 C 
ATOM     14  C   UNL     1      -4.435   1.168  -0.308  0.00  0.00    +0.000 C 
ATOM     15  C   UNL     1       2.479  -1.538  -0.567  0.00  0.00    +0.000 C 
ATOM     16  C   UNL     1      -2.934  -0.715   1.627  0.00  0.00    +0.000 C 
ATOM     17  C   UNL     1       1.791  -0.585   1.663  0.00  0.00    +0.000 C 
ATOM     18  C   UNL     1       3.767   1.124   0.123  0.00  0.00    +0.000 C 
ATOM     19  C   UNL     1       3.910  -1.197  -0.983  0.00  0.00    +0.000 C 
ATOM     20  C   UNL     1       4.541  -0.154  -0.099  0.00  0.00    +0.000 C 
ENDROOT
BRANCH  12  21
ATOM     21  O   UNL     1      -5.185  -1.144  -0.011  0.00  0.00    +0.000 OA
ATOM     22  H   UNL     1      -5.394  -0.830   0.884  0.00  0.00    +0.000 HD
ENDBRANCH  12  21
TORSDOF 1
