REMARK  Name = 9880
REMARK  7 active torsions:
REMARK  status: ('A' for Active; 'I' for Inactive)
REMARK    1  A    between atoms: O_2  and  C_16
REMARK    2  A    between atoms: O_2  and  C_28
REMARK    3  A    between atoms: C_6  and  C_20
REMARK    4  A    between atoms: C_9  and  C_22
REMARK    5  A    between atoms: C_16  and  C_26
REMARK    6  A    between atoms: C_26  and  C_27
REMARK    7  A    between atoms: C_28  and  C_29
REMARK                            x       y       z     vdW  Elec       q    Type
REMARK                         _______ _______ _______ _____ _____    ______ ____
ROOT
ATOM      1 CL   UNL     1       3.313   3.554  -0.477  0.00  0.00    +0.000 Cl
ATOM      2  O   UNL     1       6.449  -0.559  -1.167  0.00  0.00    +0.000 OA
ATOM      3  C   UNL     1       2.662  -0.417   0.653  0.00  0.00    +0.000 C 
ATOM      4  C   UNL     1       1.130  -0.413   0.311  0.00  0.00    +0.000 C 
ATOM      5  C   UNL     1       3.260  -1.765   0.256  0.00  0.00    +0.000 C 
ATOM      6  C   UNL     1      -1.828  -0.265   0.807  0.00  0.00    +0.000 C 
ATOM      7  C   UNL     1      -0.990   0.907   0.228  0.00  0.00    +0.000 C 
ATOM      8  C   UNL     1       0.450   0.915   0.759  0.00  0.00    +0.000 C 
ATOM      9  C   UNL     1       4.609  -1.803  -0.398  0.00  0.00    +0.000 C 
ATOM     10  C   UNL     1       3.384  -2.212  -1.179  0.00  0.00    +0.000 C 
ATOM     11  C   UNL     1       0.326  -1.639   0.815  0.00  0.00    +0.000 C 
ATOM     12  C   UNL     1      -1.155  -1.583   0.386  0.00  0.00    +0.000 C 
ATOM     13  C   UNL     1      -3.197   0.056   0.154  0.00  0.00    +0.000 C 
ATOM     14  C   UNL     1      -1.882   2.124   0.467  0.00  0.00    +0.000 C 
ATOM     15  C   UNL     1       3.319   0.797  -0.058  0.00  0.00    +0.000 C 
ATOM     16  C   UNL     1      -3.316   1.593   0.260  0.00  0.00    +0.000 C 
ATOM     17  C   UNL     1       2.919  -0.256   2.176  0.00  0.00    +0.000 C 
ATOM     18  C   UNL     1       1.253   2.108   0.316  0.00  0.00    +0.000 C 
ATOM     19  C   UNL     1      -1.954  -0.228   2.357  0.00  0.00    +0.000 C 
ATOM     20  C   UNL     1       5.294  -0.549  -0.760  0.00  0.00    +0.000 C 
ATOM     21  C   UNL     1       2.544   2.049  -0.052  0.00  0.00    +0.000 C 
ATOM     22  C   UNL     1       4.520   0.710  -0.663  0.00  0.00    +0.000 C 
ENDROOT
BRANCH  13  24
ATOM     23  O   UNL     1      -5.303  -0.057   1.270  0.00  0.00    +0.000 OA
ATOM     24  C   UNL     1      -4.365  -0.665   0.757  0.00  0.00    +0.000 C 
ATOM     25  C   UNL     1      -4.336  -2.168   0.700  0.00  0.00    +0.000 C 
ENDBRANCH  13  24
BRANCH  13  26
ATOM     26  O   UNL     1      -3.213  -0.330  -1.217  0.00  0.00    +0.000 OA
BRANCH  26  28
ATOM     27  O   UNL     1      -5.326   0.573  -1.462  0.00  0.00    +0.000 OA
ATOM     28  C   UNL     1      -4.346  -0.007  -1.910  0.00  0.00    +0.000 C 
ATOM     29  C   UNL     1      -4.221  -0.470  -3.330  0.00  0.00    +0.000 C 
ENDBRANCH  26  28
ENDBRANCH  13  26
TORSDOF 3
