REMARK  Name = 6324617
REMARK  8 active torsions:
REMARK  status: ('A' for Active; 'I' for Inactive)
REMARK    1  A    between atoms: O_5  and  C_16
REMARK    2  A    between atoms: O_6  and  C_17
REMARK    3  A    between atoms: O_7  and  C_21
REMARK    4  A    between atoms: C_15  and  C_23
REMARK    5  A    between atoms: C_23  and  C_27
REMARK    6  A    between atoms: C_23  and  C_28
REMARK    7  A    between atoms: C_23  and  C_29
REMARK    8  A    between atoms: C_24  and  C_30
REMARK                            x       y       z     vdW  Elec       q    Type
REMARK                         _______ _______ _______ _____ _____    ______ ____
ROOT
ATOM      1  O   UNL     1      -0.334   0.567  -1.725  0.00  0.00    +0.000 OA
ATOM      2  O   UNL     1       0.430   2.702   0.782  0.00  0.00    +0.000 OA
ATOM      3  O   UNL     1       0.148  -1.756  -1.710  0.00  0.00    +0.000 OA
ATOM      4  O   UNL     1      -3.320  -0.549   1.465  0.00  0.00    +0.000 OA
ATOM      5  O   UNL     1      -0.562   3.360  -1.165  0.00  0.00    +0.000 OA
ATOM      6  O   UNL     1       0.257  -3.702  -0.502  0.00  0.00    +0.000 OA
ATOM      7  O   UNL     1      -4.809  -1.565   0.053  0.00  0.00    +0.000 OA
ATOM      8  C   UNL     1       0.132   0.331   0.623  0.00  0.00    +0.000 C 
ATOM      9  C   UNL     1       1.272  -0.338  -0.186  0.00  0.00    +0.000 C 
ATOM     10  C   UNL     1      -0.708   1.044  -0.441  0.00  0.00    +0.000 C 
ATOM     11  C   UNL     1       0.764   1.468   1.434  0.00  0.00    +0.000 C 
ATOM     12  C   UNL     1       2.443   0.676  -0.073  0.00  0.00    +0.000 C 
ATOM     13  C   UNL     1      -2.193   0.813  -0.093  0.00  0.00    +0.000 C 
ATOM     14  C   UNL     1      -0.875  -0.527   1.407  0.00  0.00    +0.000 C 
ATOM     15  C   UNL     1       0.689  -0.429  -1.589  0.00  0.00    +0.000 C 
ATOM     16  C   UNL     1      -2.166   0.285   1.331  0.00  0.00    +0.000 C 
ATOM     17  C   UNL     1       2.268   1.250   1.334  0.00  0.00    +0.000 C 
ATOM     18  C   UNL     1       1.638  -1.790   0.093  0.00  0.00    +0.000 C 
ATOM     19  C   UNL     1      -0.291   2.490  -0.351  0.00  0.00    +0.000 C 
ATOM     20  C   UNL     1      -2.928  -0.300  -0.846  0.00  0.00    +0.000 C 
ATOM     21  C   UNL     1       0.613  -2.552  -0.701  0.00  0.00    +0.000 C 
ATOM     22  C   UNL     1      -3.817  -0.874   0.232  0.00  0.00    +0.000 C 
ATOM     23  C   UNL     1      -3.723   0.150  -2.061  0.00  0.00    +0.000 C 
ENDROOT
BRANCH  12  24
ATOM     24  C   UNL     1       3.855   0.151  -0.297  0.00  0.00    +0.000 C 
ATOM     25  C   UNL     1       4.876   1.282  -0.072  0.00  0.00    +0.000 C 
ATOM     26  C   UNL     1       4.151  -0.995   0.688  0.00  0.00    +0.000 C 
ATOM     27  C   UNL     1       3.997  -0.374  -1.737  0.00  0.00    +0.000 C 
ENDBRANCH  12  24
BRANCH  13  28
ATOM     28  O   UNL     1      -2.957   2.013  -0.112  0.00  0.00    +0.000 OA
ATOM     29  H   UNL     1      -3.826   1.833   0.285  0.00  0.00    +0.000 HD
ENDBRANCH  13  28
BRANCH  14  30
ATOM     30  O   UNL     1      -0.514  -0.719   2.765  0.00  0.00    +0.000 OA
ATOM     31  H   UNL     1      -1.249  -1.184   3.200  0.00  0.00    +0.000 HD
ENDBRANCH  14  30
BRANCH  18  32
ATOM     32  O   UNL     1       1.665  -2.115   1.454  0.00  0.00    +0.000 OA
ATOM     33  H   UNL     1       0.763  -2.277   1.770  0.00  0.00    +0.000 HD
ENDBRANCH  18  32
TORSDOF 4
