REMARK  Name = 
REMARK  28 active torsions:
REMARK  status: ('A' for Active; 'I' for Inactive)
REMARK    1  A    between atoms: C_1  and  C_2
REMARK    2  A    between atoms: C_2  and  C_3
REMARK    3  A    between atoms: C_4  and  C_5
REMARK    4  A    between atoms: C_5  and  C_6
REMARK    5  A    between atoms: C_6  and  C_7
REMARK    6  A    between atoms: C_7  and  C_8
REMARK    7  A    between atoms: C_7  and  O_9
REMARK    8  A    between atoms: C_7  and  C_21
REMARK    9  A    between atoms: O_9  and  C_10
REMARK   10  A    between atoms: C_12  and  C_13
REMARK   11  A    between atoms: C_13  and  O_14
REMARK   12  A    between atoms: C_15  and  O_16
REMARK   13  A    between atoms: C_17  and  O_18
REMARK   14  A    between atoms: C_19  and  O_20
REMARK   15  A    between atoms: C_24  and  C_25
REMARK   16  A    between atoms: C_27  and  O_28
REMARK   17  A    between atoms: C_31  and  C_32
REMARK   18  A    between atoms: C_35  and  O_36
REMARK   19  A    between atoms: C_37  and  C_38
REMARK   20  A    between atoms: C_37  and  C_39
REMARK   21  A    between atoms: C_41  and  O_42
REMARK   22  A    between atoms: O_42  and  C_43
REMARK   23  A    between atoms: C_45  and  C_46
REMARK   24  A    between atoms: C_46  and  O_47
REMARK   25  A    between atoms: C_48  and  O_49
REMARK   26  A    between atoms: C_50  and  O_51
REMARK   27  A    between atoms: C_52  and  O_53
REMARK   28  A    between atoms: C_55  and  C_56
REMARK                            x       y       z     vdW  Elec       q    Type
REMARK                         _______ _______ _______ _____ _____    ______ ____
ROOT
ATOM      1  C   UNL     1       2.649   0.547   0.269  0.00  0.00    +0.000 C 
ATOM      2  C   UNL     1       2.085   1.741  -0.669  0.00  0.00    +0.000 C 
ATOM      3  C   UNL     1       0.890   1.200  -1.353  0.00  0.00    +0.000 C 
ATOM      4  C   UNL     1       0.384   0.432  -0.179  0.00  0.00    +0.000 C 
ATOM      5  C   UNL     1       0.526   1.233   1.047  0.00  0.00    +0.000 C 
ATOM      6  C   UNL     1       1.589  -0.618  -0.312  0.00  0.00    +0.000 C 
ATOM      7  C   UNL     1       1.470  -1.323   1.233  0.00  0.00    +0.000 C 
ATOM      8  C   UNL     1      -0.011  -1.980   1.041  0.00  0.00    +0.000 C 
ATOM      9  C   UNL     1      -1.009  -0.703   1.225  0.00  0.00    +0.000 C 
ATOM     10  C   UNL     1      -2.358  -1.593   1.177  0.00  0.00    +0.000 C 
ATOM     11  C   UNL     1      -2.167  -2.774   0.362  0.00  0.00    +0.000 C 
ATOM     12  C   UNL     1      -2.723  -1.566   2.593  0.00  0.00    +0.000 C 
ATOM     13  C   UNL     1      -4.045  -1.601   3.135  0.00  0.00    +0.000 C 
ATOM     14  C   UNL     1      -5.266  -1.111   2.155  0.00  0.00    +0.000 C 
ATOM     15  C   UNL     1      -4.642  -1.873   0.837  0.00  0.00    +0.000 C 
ATOM     16  C   UNL     1      -4.268  -3.155   1.366  0.00  0.00    +0.000 C 
ATOM     17  C   UNL     1      -5.485  -2.201  -0.194  0.00  0.00    +0.000 C 
ATOM     18  C   UNL     1      -3.577  -0.678   0.668  0.00  0.00    +0.000 C 
ATOM     19  C   UNL     1      -3.213  -0.780  -0.990  0.00  0.00    +0.000 C 
ATOM     20  C   UNL     1      -2.029   0.353  -0.821  0.00  0.00    +0.000 C 
ATOM     21  C   UNL     1      -0.862  -0.328  -0.351  0.00  0.00    +0.000 C 
ATOM     22  C   UNL     1      -0.577  -1.465  -1.228  0.00  0.00    +0.000 C 
ENDROOT
BRANCH   1  23
ATOM     23  C   UNL     1       3.844   0.174  -0.763  0.00  0.00    +0.000 C 
ATOM     24  C   UNL     1       3.348   0.288  -2.157  0.00  0.00    +0.000 C 
BRANCH  23  25
ATOM     25  C   UNL     1       4.331  -1.187  -0.548  0.00  0.00    +0.000 C 
BRANCH  25  26
ATOM     26  C   UNL     1       4.621  -2.059  -1.731  0.00  0.00    +0.000 C 
BRANCH  26  30
ATOM     27  C   UNL     1       5.950  -4.315   0.078  0.00  0.00    +0.000 C 
ATOM     28  C   UNL     1       4.958  -3.831  -0.032  0.00  0.00    +0.000 C 
ATOM     29  C   UNL     1       3.974  -3.754   1.100  0.00  0.00    +0.000 C 
ATOM     30  C   UNL     1       4.465  -3.471  -1.228  0.00  0.00    +0.000 C 
ENDBRANCH  26  30
ENDBRANCH  25  26
ENDBRANCH  23  25
BRANCH  23  31
ATOM     31  O   UNL     1       4.743   1.215  -0.519  0.00  0.00    +0.000 OA
BRANCH  31  32
ATOM     32  C   UNL     1       5.160   0.995   0.934  0.00  0.00    +0.000 C 
ATOM     33  O   UNL     1       5.965   2.202   1.224  0.00  0.00    +0.000 OA
ATOM     34  C   UNL     1       6.554   3.031   0.171  0.00  0.00    +0.000 C 
ATOM     35  C   UNL     1       6.832   1.792  -0.983  0.00  0.00    +0.000 C 
ATOM     36  C   UNL     1       7.686   1.011   0.257  0.00  0.00    +0.000 C 
ATOM     37  C   UNL     1       6.443  -0.096   0.522  0.00  0.00    +0.000 C 
BRANCH  35  38
ATOM     38  O   UNL     1       8.062   2.475  -1.485  0.00  0.00    +0.000 OA
ATOM     39  H   UNL     1       8.578   2.806  -0.733  0.00  0.00    +0.000 HD
ENDBRANCH  35  38
BRANCH  36  40
ATOM     40  O   UNL     1       8.344   0.095  -0.732  0.00  0.00    +0.000 OA
ATOM     41  H   UNL     1       7.676  -0.251  -1.345  0.00  0.00    +0.000 HD
ENDBRANCH  36  40
BRANCH  37  42
ATOM     42  O   UNL     1       6.814  -0.227   1.966  0.00  0.00    +0.000 OA
ATOM     43  H   UNL     1       6.899   0.655   2.359  0.00  0.00    +0.000 HD
ENDBRANCH  37  42
BRANCH  34  44
ATOM     44  C   UNL     1       5.147   3.588  -0.473  0.00  0.00    +0.000 C 
BRANCH  44  45
ATOM     45  O   UNL     1       4.571   4.165   0.670  0.00  0.00    +0.000 OA
ATOM     46  H   UNL     1       4.505   3.498   1.371  0.00  0.00    +0.000 HD
ENDBRANCH  44  45
ENDBRANCH  34  44
ENDBRANCH  31  32
ENDBRANCH  23  31
ENDBRANCH   1  23
BRANCH   7  47
ATOM     47  O   UNL     1       2.092  -2.601   0.703  0.00  0.00    +0.000 OA
ATOM     48  H   UNL     1       1.645  -2.863  -0.117  0.00  0.00    +0.000 HD
ENDBRANCH   7  47
BRANCH  14  49
ATOM     49  O   UNL     1      -6.154  -2.281   2.553  0.00  0.00    +0.000 OA
ATOM     50  H   UNL     1      -5.639  -3.102   2.523  0.00  0.00    +0.000 HD
ENDBRANCH  14  49
BRANCH  19  51
ATOM     51  O   UNL     1      -4.092   0.295  -1.537  0.00  0.00    +0.000 OA
BRANCH  51  52
ATOM     52  C   UNL     1      -4.962   0.869  -0.465  0.00  0.00    +0.000 C 
ATOM     53  O   UNL     1      -6.180   0.730  -1.382  0.00  0.00    +0.000 OA
ATOM     54  C   UNL     1      -7.228   1.054  -0.353  0.00  0.00    +0.000 C 
ATOM     55  C   UNL     1      -7.309   2.636  -0.985  0.00  0.00    +0.000 C 
ATOM     56  C   UNL     1      -5.984   3.079  -0.011  0.00  0.00    +0.000 C 
ATOM     57  C   UNL     1      -4.802   2.476  -1.077  0.00  0.00    +0.000 C 
BRANCH  55  58
ATOM     58  O   UNL     1      -8.295   3.027   0.067  0.00  0.00    +0.000 OA
ATOM     59  H   UNL     1      -8.000   2.690   0.928  0.00  0.00    +0.000 HD
ENDBRANCH  55  58
BRANCH  56  60
ATOM     60  O   UNL     1      -5.941   4.439  -0.638  0.00  0.00    +0.000 OA
ATOM     61  H   UNL     1      -5.987   4.352  -1.603  0.00  0.00    +0.000 HD
ENDBRANCH  56  60
BRANCH  57  62
ATOM     62  O   UNL     1      -3.719   2.794  -0.107  0.00  0.00    +0.000 OA
ATOM     63  H   UNL     1      -3.977   2.490   0.777  0.00  0.00    +0.000 HD
ENDBRANCH  57  62
BRANCH  54  64
ATOM     64  C   UNL     1      -8.423   0.506  -1.330  0.00  0.00    +0.000 C 
BRANCH  64  65
ATOM     65  O   UNL     1      -8.180  -0.872  -1.174  0.00  0.00    +0.000 OA
ATOM     66  H   UNL     1      -7.260  -1.067  -1.409  0.00  0.00    +0.000 HD
ENDBRANCH  64  65
ENDBRANCH  54  64
ENDBRANCH  51  52
ENDBRANCH  19  51
TORSDOF 20
