REMARK  Name = 10133
REMARK  10 active torsions:
REMARK  status: ('A' for Active; 'I' for Inactive)
REMARK    1  A    between atoms: O_1  and  C_14
REMARK    2  A    between atoms: O_2  and  C_24
REMARK    3  A    between atoms: O_3  and  C_28
REMARK    4  A    between atoms: C_6  and  C_19
REMARK    5  A    between atoms: C_9  and  C_22
REMARK    6  A    between atoms: C_10  and  C_20
REMARK    7  A    between atoms: C_20  and  C_25
REMARK    8  A    between atoms: C_20  and  C_26
REMARK    9  A    between atoms: C_25  and  C_27
REMARK   10  A    between atoms: C_27  and  C_28
REMARK                            x       y       z     vdW  Elec       q    Type
REMARK                         _______ _______ _______ _____ _____    ______ ____
ROOT
ATOM      1  C   UNL     1       0.103   1.020   0.189  0.00  0.00    +0.000 C 
ATOM      2  C   UNL     1       1.095  -0.101  -0.188  0.00  0.00    +0.000 C 
ATOM      3  C   UNL     1      -1.218   0.944  -0.591  0.00  0.00    +0.000 C 
ATOM      4  C   UNL     1      -1.896  -0.436  -0.290  0.00  0.00    +0.000 C 
ATOM      5  C   UNL     1      -3.264  -0.594  -1.057  0.00  0.00    +0.000 C 
ATOM      6  C   UNL     1       2.290   0.314   0.706  0.00  0.00    +0.000 C 
ATOM      7  C   UNL     1      -4.204   0.604  -0.690  0.00  0.00    +0.000 C 
ATOM      8  C   UNL     1       0.446  -1.439   0.190  0.00  0.00    +0.000 C 
ATOM      9  C   UNL     1      -0.916  -1.624  -0.501  0.00  0.00    +0.000 C 
ATOM     10  C   UNL     1      -2.154   2.126  -0.276  0.00  0.00    +0.000 C 
ATOM     11  C   UNL     1       0.943   2.290   0.089  0.00  0.00    +0.000 C 
ATOM     12  C   UNL     1       2.345   1.852   0.550  0.00  0.00    +0.000 C 
ATOM     13  C   UNL     1      -3.532   1.972  -0.925  0.00  0.00    +0.000 C 
ATOM     14  C   UNL     1      -3.995  -1.925  -0.713  0.00  0.00    +0.000 C 
ATOM     15  C   UNL     1       1.497  -0.118  -1.683  0.00  0.00    +0.000 C 
ATOM     16  C   UNL     1      -4.774   0.502   0.740  0.00  0.00    +0.000 C 
ATOM     17  C   UNL     1      -3.045  -0.618  -2.594  0.00  0.00    +0.000 C 
ATOM     18  C   UNL     1      -4.520  -1.996   0.714  0.00  0.00    +0.000 C 
ATOM     19  C   UNL     1      -5.461  -0.835   1.001  0.00  0.00    +0.000 C 
ENDROOT
BRANCH  10  20
ATOM     20  O   UNL     1      -2.290   2.290   1.133  0.00  0.00    +0.000 OA
ATOM     21  H   UNL     1      -1.478   2.701   1.472  0.00  0.00    +0.000 HD
ENDBRANCH  10  20
BRANCH  19  22
ATOM     22  O   UNL     1      -5.869  -0.907   2.363  0.00  0.00    +0.000 OA
ATOM     23  H   UNL     1      -5.076  -0.829   2.920  0.00  0.00    +0.000 HD
ENDBRANCH  19  22
BRANCH   6  24
ATOM     24  C   UNL     1       3.624  -0.359   0.417  0.00  0.00    +0.000 C 
ATOM     25  C   UNL     1       3.480  -1.880   0.533  0.00  0.00    +0.000 C 
BRANCH  24  26
ATOM     26  C   UNL     1       4.713   0.193   1.359  0.00  0.00    +0.000 C 
BRANCH  26  27
ATOM     27  C   UNL     1       6.076  -0.480   1.188  0.00  0.00    +0.000 C 
BRANCH  27  29
ATOM     28  O   UNL     1       6.458   0.745  -0.882  0.00  0.00    +0.000 OA
ATOM     29  C   UNL     1       6.650  -0.246  -0.191  0.00  0.00    +0.000 C 
BRANCH  29  30
ATOM     30  O   UNL     1       7.419  -1.292  -0.592  0.00  0.00    +0.000 OA
ATOM     31  H   UNL     1       7.792  -1.149  -1.488  0.00  0.00    +0.000 HD
ENDBRANCH  29  30
ENDBRANCH  27  29
ENDBRANCH  26  27
ENDBRANCH  24  26
ENDBRANCH   6  24
TORSDOF 7
