REMARK  Name = 16086836
REMARK  10 active torsions:
REMARK  status: ('A' for Active; 'I' for Inactive)
REMARK    1  A    between atoms: O_4  and  C_27
REMARK    2  A    between atoms: O_5  and  C_28
REMARK    3  A    between atoms: O_6  and  C_32
REMARK    4  A    between atoms: N_8  and  C_26
REMARK    5  A    between atoms: C_12  and  C_19
REMARK    6  A    between atoms: C_17  and  C_22
REMARK    7  A    between atoms: C_17  and  C_23
REMARK    8  A    between atoms: C_22  and  C_24
REMARK    9  A    between atoms: C_24  and  C_25
REMARK   10  A    between atoms: C_29  and  C_32
REMARK                            x       y       z     vdW  Elec       q    Type
REMARK                         _______ _______ _______ _____ _____    ______ ____
ROOT
ATOM      1  C   UNL     1       0.316  -1.518   0.594  0.00  0.00    +0.000 C 
ENDROOT
BRANCH   1   4
ATOM      2  O   UNL     1      -1.631  -2.931   0.752  0.00  0.00    +0.000 OA
ATOM      3  N   UNL     1      -1.885  -0.676   0.150  0.00  0.00    +0.000 N 
ATOM      4  C   UNL     1      -1.175  -1.820   0.507  0.00  0.00    +0.000 C 
ATOM      5  H   UNL     1      -1.391   0.212   0.208  0.00  0.00    +0.000 HD
BRANCH   3   6
ATOM      6  C   UNL     1      -3.283  -0.550  -0.032  0.00  0.00    +0.000 A 
ATOM      7  C   UNL     1      -3.899   0.664   0.229  0.00  0.00    +0.000 A 
ATOM      8  C   UNL     1      -4.013  -1.646  -0.468  0.00  0.00    +0.000 A 
ATOM      9  C   UNL     1      -5.277   0.787   0.050  0.00  0.00    +0.000 A 
ATOM     10  C   UNL     1      -5.391  -1.524  -0.647  0.00  0.00    +0.000 A 
ATOM     11  C   UNL     1      -6.023  -0.307  -0.388  0.00  0.00    +0.000 A 
BRANCH   7  12
ATOM     12  O   UNL     1      -3.171   1.737   0.658  0.00  0.00    +0.000 OA
ATOM     13  H   UNL     1      -3.728   2.527   0.733  0.00  0.00    +0.000 HD
ENDBRANCH   7  12
BRANCH   8  14
ATOM     14  O   UNL     1      -3.416  -2.844  -0.726  0.00  0.00    +0.000 OA
ATOM     15  H   UNL     1      -4.092  -3.480  -1.018  0.00  0.00    +0.000 HD
ENDBRANCH   8  14
BRANCH   9  17
ATOM     16  O   UNL     1      -5.608   2.887   1.146  0.00  0.00    +0.000 OA
ATOM     17  C   UNL     1      -5.958   2.046   0.314  0.00  0.00    +0.000 C 
BRANCH  17  18
ATOM     18  O   UNL     1      -7.056   2.216  -0.472  0.00  0.00    +0.000 OA
ATOM     19  H   UNL     1      -7.509   3.066  -0.288  0.00  0.00    +0.000 HD
ENDBRANCH  17  18
ENDBRANCH   9  17
ENDBRANCH   3   6
ENDBRANCH   1   4
BRANCH   1  20
ATOM     20  C   UNL     1       1.068  -1.723  -0.707  0.00  0.00    +0.000 C 
BRANCH  20  31
ATOM     21  O   UNL     1       2.242   2.347   0.069  0.00  0.00    +0.000 OA
ATOM     22  O   UNL     1       2.857  -3.616   0.494  0.00  0.00    +0.000 OA
ATOM     23  C   UNL     1       4.262   0.350   0.394  0.00  0.00    +0.000 C 
ATOM     24  C   UNL     1       2.779   0.013  -0.018  0.00  0.00    +0.000 C 
ATOM     25  C   UNL     1       4.279   2.175  -1.148  0.00  0.00    +0.000 C 
ATOM     26  C   UNL     1       3.658   2.632   0.200  0.00  0.00    +0.000 C 
ATOM     27  C   UNL     1       2.182   1.204  -0.829  0.00  0.00    +0.000 C 
ATOM     28  C   UNL     1       5.079   0.922  -0.782  0.00  0.00    +0.000 C 
ATOM     29  C   UNL     1       4.198   1.641   1.247  0.00  0.00    +0.000 C 
ATOM     30  C   UNL     1       3.062   1.732  -1.947  0.00  0.00    +0.000 C 
ATOM     31  C   UNL     1       2.575  -1.436  -0.545  0.00  0.00    +0.000 C 
ATOM     32  C   UNL     1       4.974  -0.820   1.074  0.00  0.00    +0.000 C 
ATOM     33  C   UNL     1       3.861   4.088   0.554  0.00  0.00    +0.000 C 
ATOM     34  C   UNL     1       3.997  -1.848   1.626  0.00  0.00    +0.000 C 
ATOM     35  C   UNL     1       3.125  -2.412   0.518  0.00  0.00    +0.000 C 
ATOM     36  C   UNL     1       3.272  -1.769  -1.867  0.00  0.00    +0.000 C 
ENDBRANCH  20  31
ENDBRANCH   1  20
TORSDOF 8
