REMARK  Name = 124653
REMARK  7 active torsions:
REMARK  status: ('A' for Active; 'I' for Inactive)
REMARK    1  A    between atoms: O_1  and  C_10
REMARK    2  A    between atoms: O_4  and  C_25
REMARK    3  A    between atoms: C_7  and  C_18
REMARK    4  A    between atoms: C_10  and  C_20
REMARK    5  A    between atoms: C_13  and  C_21
REMARK    6  A    between atoms: C_17  and  C_23
REMARK    7  A    between atoms: C_20  and  C_25
REMARK                            x       y       z     vdW  Elec       q    Type
REMARK                         _______ _______ _______ _____ _____    ______ ____
ROOT
ATOM      1  O   UNL     1       0.347   2.628  -0.909  0.00  0.00    +0.000 OA
ATOM      2  O   UNL     1       6.050   0.598   1.614  0.00  0.00    +0.000 OA
ATOM      3  C   UNL     1      -1.046  -0.990   0.209  0.00  0.00    +0.000 C 
ATOM      4  C   UNL     1      -1.990   0.174  -0.182  0.00  0.00    +0.000 C 
ATOM      5  C   UNL     1       0.338  -0.893  -0.453  0.00  0.00    +0.000 C 
ATOM      6  C   UNL     1       1.019   0.440  -0.013  0.00  0.00    +0.000 C 
ATOM      7  C   UNL     1      -3.276  -0.282   0.551  0.00  0.00    +0.000 C 
ATOM      8  C   UNL     1      -1.891  -2.235  -0.049  0.00  0.00    +0.000 C 
ATOM      9  C   UNL     1      -1.352   1.478   0.310  0.00  0.00    +0.000 C 
ATOM     10  C   UNL     1       2.475   0.597  -0.576  0.00  0.00    +0.000 C 
ATOM     11  C   UNL     1      -3.327  -1.807   0.315  0.00  0.00    +0.000 C 
ATOM     12  C   UNL     1       1.211  -2.105  -0.093  0.00  0.00    +0.000 C 
ATOM     13  C   UNL     1       0.043   1.611  -0.288  0.00  0.00    +0.000 C 
ATOM     14  C   UNL     1       2.621  -1.992  -0.690  0.00  0.00    +0.000 C 
ATOM     15  C   UNL     1      -2.241   0.277  -1.712  0.00  0.00    +0.000 C 
ATOM     16  C   UNL     1       3.259  -0.686  -0.218  0.00  0.00    +0.000 C 
ATOM     17  C   UNL     1       2.508   0.787  -2.110  0.00  0.00    +0.000 C 
ATOM     18  C   UNL     1       3.131   1.833   0.028  0.00  0.00    +0.000 C 
ATOM     19  C   UNL     1       3.398  -3.281  -0.387  0.00  0.00    +0.000 C 
ATOM     20  C   UNL     1       4.403  -0.660   0.489  0.00  0.00    +0.000 C 
ATOM     21  C   UNL     1       4.265   1.848   0.733  0.00  0.00    +0.000 C 
ATOM     22  C   UNL     1       4.993   0.598   0.993  0.00  0.00    +0.000 C 
ENDROOT
BRANCH   7  23
ATOM     23  O   UNL     1      -3.186  -0.021   1.949  0.00  0.00    +0.000 OA
ATOM     24  H   UNL     1      -3.183   0.942   2.085  0.00  0.00    +0.000 HD
ENDBRANCH   7  23
BRANCH   7  26
ATOM     25  O   UNL     1      -4.503   1.582  -0.281  0.00  0.00    +0.000 OA
ATOM     26  C   UNL     1      -4.528   0.419   0.120  0.00  0.00    +0.000 C 
BRANCH  26  27
ATOM     27  C   UNL     1      -5.810  -0.382   0.207  0.00  0.00    +0.000 C 
BRANCH  27  28
ATOM     28  O   UNL     1      -6.913   0.467   0.441  0.00  0.00    +0.000 OA
ATOM     29  H   UNL     1      -7.018   1.033  -0.343  0.00  0.00    +0.000 HD
ENDBRANCH  27  28
ENDBRANCH  26  27
ENDBRANCH   7  26
TORSDOF 4
