REMARK  Name = 10404245
REMARK  10 active torsions:
REMARK  status: ('A' for Active; 'I' for Inactive)
REMARK    1  A    between atoms: O_3  and  C_20
REMARK    2  A    between atoms: O_3  and  C_24
REMARK    3  A    between atoms: O_4  and  C_22
REMARK    4  A    between atoms: C_5  and  C_6
REMARK    5  A    between atoms: C_5  and  C_7
REMARK    6  A    between atoms: C_5  and  C_9
REMARK    7  A    between atoms: C_6  and  C_8
REMARK    8  A    between atoms: C_6  and  C_10
REMARK    9  A    between atoms: C_7  and  C_11
REMARK   10  A    between atoms: C_8  and  C_12
REMARK                            x       y       z     vdW  Elec       q    Type
REMARK                         _______ _______ _______ _____ _____    ______ ____
ROOT
ATOM      1  C   UNL     1      -1.108  -2.272  -0.073  0.00  0.00    +0.000 C 
ATOM      2  C   UNL     1      -0.964  -3.758   0.284  0.00  0.00    +0.000 C 
ENDROOT
BRANCH   1   3
ATOM      3  C   UNL     1       0.251  -1.597  -0.446  0.00  0.00    +0.000 C 
ATOM      4  C   UNL     1       0.921  -2.340  -1.615  0.00  0.00    +0.000 C 
BRANCH   3   5
ATOM      5  C   UNL     1       1.222  -1.470   0.751  0.00  0.00    +0.000 C 
BRANCH   5   8
ATOM      6  O   UNL     1       4.156   2.468   0.239  0.00  0.00    +0.000 OA
ATOM      7  O   UNL     1       6.016   1.129  -0.505  0.00  0.00    +0.000 OA
ATOM      8  C   UNL     1       2.532  -0.801   0.404  0.00  0.00    +0.000 A 
ATOM      9  C   UNL     1       2.638   0.577   0.521  0.00  0.00    +0.000 A 
ATOM     10  C   UNL     1       3.600  -1.591  -0.027  0.00  0.00    +0.000 A 
ATOM     11  C   UNL     1       3.853   1.142   0.193  0.00  0.00    +0.000 A 
ATOM     12  C   UNL     1       4.915   0.377  -0.233  0.00  0.00    +0.000 A 
ATOM     13  C   UNL     1       4.821  -0.994  -0.353  0.00  0.00    +0.000 A 
ATOM     14  C   UNL     1       5.529   2.452  -0.204  0.00  0.00    +0.000 C 
ENDBRANCH   5   8
ENDBRANCH   3   5
ENDBRANCH   1   3
BRANCH   1  15
ATOM     15  C   UNL     1      -1.865  -1.558   1.074  0.00  0.00    +0.000 C 
BRANCH  15  16
ATOM     16  C   UNL     1      -2.596  -0.304   0.657  0.00  0.00    +0.000 A 
ATOM     17  C   UNL     1      -3.911  -0.396   0.227  0.00  0.00    +0.000 A 
ATOM     18  C   UNL     1      -1.940   0.915   0.711  0.00  0.00    +0.000 A 
ATOM     19  C   UNL     1      -4.586   0.762  -0.159  0.00  0.00    +0.000 A 
ATOM     20  C   UNL     1      -2.615   2.073   0.325  0.00  0.00    +0.000 A 
ATOM     21  C   UNL     1      -3.938   1.997  -0.110  0.00  0.00    +0.000 A 
BRANCH  19  22
ATOM     22  O   UNL     1      -5.878   0.675  -0.580  0.00  0.00    +0.000 OA
ATOM     23  C   UNL     1      -6.467  -0.623  -0.601  0.00  0.00    +0.000 C 
ENDBRANCH  19  22
BRANCH  21  24
ATOM     24  O   UNL     1      -4.587   3.135  -0.483  0.00  0.00    +0.000 OA
ATOM     25  H   UNL     1      -5.490   2.897  -0.754  0.00  0.00    +0.000 HD
ENDBRANCH  21  24
ENDBRANCH  15  16
ENDBRANCH   1  15
TORSDOF 7
