REMARK  Name = 11954041
REMARK  6 active torsions:
REMARK  status: ('A' for Active; 'I' for Inactive)
REMARK    1  A    between atoms: O_1  and  C_8
REMARK    2  A    between atoms: O_2  and  C_11
REMARK    3  A    between atoms: O_2  and  C_21
REMARK    4  A    between atoms: O_3  and  C_23
REMARK    5  A    between atoms: C_4  and  C_14
REMARK    6  A    between atoms: C_8  and  C_18
REMARK                            x       y       z     vdW  Elec       q    Type
REMARK                         _______ _______ _______ _____ _____    ______ ____
ROOT
ATOM      1  C   UNL     1      -2.258  -0.364   0.326  0.00  0.00    +0.000 C 
ATOM      2  C   UNL     1      -1.526   0.994   0.241  0.00  0.00    +0.000 C 
ATOM      3  C   UNL     1      -0.016   0.897   0.508  0.00  0.00    +0.000 C 
ATOM      4  C   UNL     1       0.617  -0.065  -0.547  0.00  0.00    +0.000 C 
ATOM      5  C   UNL     1      -3.728   0.097   0.067  0.00  0.00    +0.000 C 
ATOM      6  C   UNL     1      -1.633  -1.320  -0.717  0.00  0.00    +0.000 C 
ATOM      7  C   UNL     1      -2.383   1.908   1.114  0.00  0.00    +0.000 C 
ATOM      8  C   UNL     1      -0.099  -1.445  -0.580  0.00  0.00    +0.000 C 
ATOM      9  C   UNL     1      -3.829   1.415   0.883  0.00  0.00    +0.000 C 
ATOM     10  C   UNL     1       0.638   2.297   0.527  0.00  0.00    +0.000 C 
ATOM     11  C   UNL     1      -2.189  -1.018   1.739  0.00  0.00    +0.000 C 
ATOM     12  C   UNL     1       2.131  -0.095  -0.365  0.00  0.00    +0.000 A 
ATOM     13  C   UNL     1       1.983   2.405  -0.188  0.00  0.00    +0.000 C 
ATOM     14  C   UNL     1       2.784   1.135  -0.147  0.00  0.00    +0.000 A 
ATOM     15  C   UNL     1       2.909  -1.258  -0.451  0.00  0.00    +0.000 A 
ATOM     16  C   UNL     1       4.176   1.181   0.007  0.00  0.00    +0.000 A 
ATOM     17  C   UNL     1       4.295  -1.206  -0.284  0.00  0.00    +0.000 A 
ATOM     18  C   UNL     1       4.928   0.011  -0.050  0.00  0.00    +0.000 A 
ENDROOT
BRANCH   5  19
ATOM     19  O   UNL     1      -4.664  -0.859   0.547  0.00  0.00    +0.000 OA
ATOM     20  H   UNL     1      -4.497  -1.700   0.088  0.00  0.00    +0.000 HD
ENDBRANCH   5  19
BRANCH   8  21
ATOM     21  O   UNL     1       0.216  -2.195   0.591  0.00  0.00    +0.000 OA
ATOM     22  C   UNL     1      -0.339  -3.500   0.535  0.00  0.00    +0.000 C 
ENDBRANCH   8  21
BRANCH  18  23
ATOM     23  O   UNL     1       6.278   0.057   0.115  0.00  0.00    +0.000 OA
ATOM     24  H   UNL     1       6.635  -0.845   0.043  0.00  0.00    +0.000 HD
ENDBRANCH  18  23
BRANCH   5  25
ATOM     25  C   UNL     1      -4.024   0.358  -1.356  0.00  0.00    +0.000 C 
ATOM     26  C   UNL     1      -4.265   0.570  -2.513  0.00  0.00    +0.000 C 
ENDBRANCH   5  25
TORSDOF 4
