REMARK  Name = 636398
REMARK  14 active torsions:
REMARK  status: ('A' for Active; 'I' for Inactive)
REMARK    1  A    between atoms: O_1  and  C_12
REMARK    2  A    between atoms: O_1  and  C_29
REMARK    3  A    between atoms: O_2  and  C_15
REMARK    4  A    between atoms: O_4  and  C_28
REMARK    5  A    between atoms: O_4  and  C_32
REMARK    6  A    between atoms: C_8  and  C_19
REMARK    7  A    between atoms: C_12  and  C_24
REMARK    8  A    between atoms: C_14  and  C_23
REMARK    9  A    between atoms: C_24  and  C_28
REMARK   10  A    between atoms: C_29  and  C_30
REMARK   11  A    between atoms: C_30  and  C_31
REMARK   12  A    between atoms: C_31  and  C_33
REMARK   13  A    between atoms: C_32  and  C_34
REMARK   14  A    between atoms: C_34  and  C_35
REMARK                            x       y       z     vdW  Elec       q    Type
REMARK                         _______ _______ _______ _____ _____    ______ ____
ROOT
ATOM      1  O   UNL     1      -7.470  -0.641   2.325  0.00  0.00    +0.000 OA
ATOM      2  C   UNL     1       0.251   0.254  -0.988  0.00  0.00    +0.000 C 
ATOM      3  C   UNL     1      -0.815   1.348  -0.761  0.00  0.00    +0.000 C 
ATOM      4  C   UNL     1      -2.253   0.865  -1.005  0.00  0.00    +0.000 C 
ATOM      5  C   UNL     1      -2.561  -0.315  -0.028  0.00  0.00    +0.000 C 
ATOM      6  C   UNL     1       1.535   1.090  -0.727  0.00  0.00    +0.000 C 
ATOM      7  C   UNL     1      -0.032  -0.882   0.016  0.00  0.00    +0.000 C 
ATOM      8  C   UNL     1      -4.060  -0.818  -0.122  0.00  0.00    +0.000 C 
ATOM      9  C   UNL     1      -1.472  -1.432  -0.080  0.00  0.00    +0.000 C 
ATOM     10  C   UNL     1      -0.287   2.530  -1.569  0.00  0.00    +0.000 C 
ATOM     11  C   UNL     1       1.245   2.451  -1.400  0.00  0.00    +0.000 C 
ATOM     12  C   UNL     1      -3.247   2.016  -0.784  0.00  0.00    +0.000 C 
ATOM     13  C   UNL     1       0.272  -0.290  -2.443  0.00  0.00    +0.000 C 
ATOM     14  C   UNL     1      -5.003   0.389  -0.029  0.00  0.00    +0.000 C 
ATOM     15  C   UNL     1      -4.689   1.555  -0.934  0.00  0.00    +0.000 C 
ATOM     16  C   UNL     1      -4.318  -1.788   1.068  0.00  0.00    +0.000 C 
ATOM     17  C   UNL     1      -4.385  -1.549  -1.444  0.00  0.00    +0.000 C 
ATOM     18  C   UNL     1      -5.793  -2.038   1.339  0.00  0.00    +0.000 C 
ATOM     19  C   UNL     1      -6.084   0.441   0.767  0.00  0.00    +0.000 C 
ATOM     20  C   UNL     1      -6.509  -0.733   1.563  0.00  0.00    +0.000 C 
ENDROOT
BRANCH   9  21
ATOM     21  O   UNL     1      -1.597  -2.223  -1.253  0.00  0.00    +0.000 OA
ATOM     22  H   UNL     1      -0.935  -2.933  -1.205  0.00  0.00    +0.000 HD
ENDBRANCH   9  21
BRANCH   6  24
ATOM     23  O   UNL     1       3.498   0.967  -2.072  0.00  0.00    +0.000 OA
ATOM     24  C   UNL     1       2.793   0.436  -1.215  0.00  0.00    +0.000 C 
BRANCH  24  25
ATOM     25  C   UNL     1       3.137  -0.902  -0.596  0.00  0.00    +0.000 C 
BRANCH  25  26
ATOM     26  O   UNL     1       4.536  -1.087  -0.554  0.00  0.00    +0.000 OA
BRANCH  26  28
ATOM     27  O   UNL     1       4.256  -3.155   0.429  0.00  0.00    +0.000 OA
ATOM     28  C   UNL     1       4.976  -2.271  -0.011  0.00  0.00    +0.000 C 
BRANCH  28  29
ATOM     29  C   UNL     1       6.486  -2.311  -0.042  0.00  0.00    +0.000 C 
ATOM     30  C   UNL     1       7.036  -3.591   0.564  0.00  0.00    +0.000 C 
ENDBRANCH  28  29
ENDBRANCH  26  28
ENDBRANCH  25  26
ENDBRANCH  24  25
ENDBRANCH   6  24
BRANCH   6  31
ATOM     31  O   UNL     1       1.744   1.291   0.668  0.00  0.00    +0.000 OA
BRANCH  31  33
ATOM     32  O   UNL     1       3.580   2.612   0.211  0.00  0.00    +0.000 OA
ATOM     33  C   UNL     1       2.812   2.080   1.001  0.00  0.00    +0.000 C 
BRANCH  33  34
ATOM     34  C   UNL     1       2.895   2.192   2.507  0.00  0.00    +0.000 C 
BRANCH  34  35
ATOM     35  C   UNL     1       4.335   2.353   2.989  0.00  0.00    +0.000 C 
ATOM     36  C   UNL     1       5.188   1.154   2.609  0.00  0.00    +0.000 C 
ENDBRANCH  34  35
ENDBRANCH  33  34
ENDBRANCH  31  33
ENDBRANCH   6  31
TORSDOF 10
