REMARK  Name = 101772
REMARK  9 active torsions:
REMARK  status: ('A' for Active; 'I' for Inactive)
REMARK    1  A    between atoms: O_2  and  C_12
REMARK    2  A    between atoms: O_3  and  C_15
REMARK    3  A    between atoms: O_5  and  C_26
REMARK    4  A    between atoms: O_5  and  C_29
REMARK    5  A    between atoms: C_8  and  C_19
REMARK    6  A    between atoms: C_12  and  C_22
REMARK    7  A    between atoms: C_16  and  C_23
REMARK    8  A    between atoms: C_22  and  C_26
REMARK    9  A    between atoms: C_29  and  C_30
REMARK                            x       y       z     vdW  Elec       q    Type
REMARK                         _______ _______ _______ _____ _____    ______ ____
ROOT
ATOM      1  F   UNL     1       4.162  -3.058  -0.290  0.00  0.00    +0.000 F 
ATOM      2  O   UNL     1       6.784   0.429   1.949  0.00  0.00    +0.000 OA
ATOM      3  C   UNL     1      -1.121   0.245  -0.310  0.00  0.00    +0.000 C 
ATOM      4  C   UNL     1      -0.186  -0.937   0.033  0.00  0.00    +0.000 C 
ATOM      5  C   UNL     1       1.217  -0.819  -0.584  0.00  0.00    +0.000 C 
ATOM      6  C   UNL     1       1.898   0.486  -0.041  0.00  0.00    +0.000 C 
ATOM      7  C   UNL     1      -2.414  -0.237   0.410  0.00  0.00    +0.000 C 
ATOM      8  C   UNL     1      -0.466   1.528   0.240  0.00  0.00    +0.000 C 
ATOM      9  C   UNL     1      -1.034  -2.163  -0.293  0.00  0.00    +0.000 C 
ATOM     10  C   UNL     1       0.989   1.742  -0.233  0.00  0.00    +0.000 C 
ATOM     11  C   UNL     1       3.400   0.627  -0.513  0.00  0.00    +0.000 C 
ATOM     12  C   UNL     1      -2.462  -1.757   0.125  0.00  0.00    +0.000 C 
ATOM     13  C   UNL     1       2.056  -2.063  -0.245  0.00  0.00    +0.000 C 
ATOM     14  C   UNL     1      -1.392   0.385  -1.833  0.00  0.00    +0.000 C 
ATOM     15  C   UNL     1       3.501  -1.937  -0.704  0.00  0.00    +0.000 C 
ATOM     16  C   UNL     1       4.119  -0.678  -0.149  0.00  0.00    +0.000 C 
ATOM     17  C   UNL     1       3.562   0.852  -2.034  0.00  0.00    +0.000 C 
ATOM     18  C   UNL     1       4.047   1.824   0.170  0.00  0.00    +0.000 C 
ATOM     19  C   UNL     1       5.202  -0.732   0.642  0.00  0.00    +0.000 C 
ATOM     20  C   UNL     1       5.123   1.773   0.961  0.00  0.00    +0.000 C 
ATOM     21  C   UNL     1       5.785   0.487   1.239  0.00  0.00    +0.000 C 
ENDROOT
BRANCH   7  22
ATOM     22  O   UNL     1      -2.332  -0.022   1.816  0.00  0.00    +0.000 OA
ATOM     23  H   UNL     1      -2.355   0.935   1.986  0.00  0.00    +0.000 HD
ENDBRANCH   7  22
BRANCH  10  24
ATOM     24  O   UNL     1       0.958   2.171  -1.587  0.00  0.00    +0.000 OA
ATOM     25  H   UNL     1       1.571   2.921  -1.671  0.00  0.00    +0.000 HD
ENDBRANCH  10  24
BRANCH   7  27
ATOM     26  O   UNL     1      -3.635   1.654  -0.369  0.00  0.00    +0.000 OA
ATOM     27  C   UNL     1      -3.663   0.479  -0.006  0.00  0.00    +0.000 C 
BRANCH  27  28
ATOM     28  C   UNL     1      -4.946  -0.324   0.047  0.00  0.00    +0.000 C 
BRANCH  28  29
ATOM     29  O   UNL     1      -6.050   0.518   0.301  0.00  0.00    +0.000 OA
BRANCH  29  31
ATOM     30  O   UNL     1      -7.482  -1.294   0.237  0.00  0.00    +0.000 OA
ATOM     31  C   UNL     1      -7.275  -0.096   0.373  0.00  0.00    +0.000 C 
ATOM     32  C   UNL     1      -8.347   0.915   0.647  0.00  0.00    +0.000 C 
ENDBRANCH  29  31
ENDBRANCH  28  29
ENDBRANCH  27  28
ENDBRANCH   7  27
TORSDOF 6
