REMARK  Name = 
REMARK  33 active torsions:
REMARK  status: ('A' for Active; 'I' for Inactive)
REMARK    1  A    between atoms: C_1  and  C_2
REMARK    2  A    between atoms: C_2  and  C_3
REMARK    3  A    between atoms: C_4  and  C_5
REMARK    4  A    between atoms: C_5  and  C_6
REMARK    5  A    between atoms: C_6  and  C_7
REMARK    6  A    between atoms: C_7  and  C_8
REMARK    7  A    between atoms: C_7  and  O_9
REMARK    8  A    between atoms: C_7  and  C_21
REMARK    9  A    between atoms: O_9  and  C_10
REMARK   10  A    between atoms: C_12  and  C_13
REMARK   11  A    between atoms: C_13  and  O_14
REMARK   12  A    between atoms: C_15  and  O_16
REMARK   13  A    between atoms: C_17  and  O_18
REMARK   14  A    between atoms: C_19  and  O_20
REMARK   15  A    between atoms: C_24  and  C_25
REMARK   16  A    between atoms: C_27  and  O_28
REMARK   17  A    between atoms: C_31  and  C_32
REMARK   18  A    between atoms: C_35  and  O_36
REMARK   19  A    between atoms: C_37  and  C_38
REMARK   20  A    between atoms: C_37  and  C_39
REMARK   21  A    between atoms: C_41  and  O_42
REMARK   22  A    between atoms: O_42  and  C_43
REMARK   23  A    between atoms: C_45  and  C_46
REMARK   24  A    between atoms: C_46  and  O_47
REMARK   25  A    between atoms: C_48  and  O_49
REMARK   26  A    between atoms: C_50  and  O_51
REMARK   27  A    between atoms: C_52  and  O_53
REMARK   28  A    between atoms: O_53  and  C_54
REMARK   29  A    between atoms: C_56  and  C_57
REMARK   30  A    between atoms: C_58  and  O_59
REMARK   31  A    between atoms: C_60  and  O_61
REMARK   32  A    between atoms: C_62  and  O_63
REMARK   33  A    between atoms: C_65  and  C_66
REMARK                            x       y       z     vdW  Elec       q    Type
REMARK                         _______ _______ _______ _____ _____    ______ ____
ROOT
ATOM      1  C   UNL     1       3.702  -0.397   0.000  0.00  0.00    +0.000 C 
ATOM      2  C   UNL     1       2.912  -1.671   0.000  0.00  0.00    +0.000 C 
ATOM      3  C   UNL     1       1.455  -1.313   0.000  0.00  0.00    +0.000 C 
ATOM      4  C   UNL     1       1.345   0.182   0.000  0.00  0.00    +0.000 C 
ATOM      5  C   UNL     1       0.452  -0.448   0.000  0.00  0.00    +0.000 C 
ATOM      6  C   UNL     1       2.734   0.749   0.000  0.00  0.00    +0.000 C 
ATOM      7  C   UNL     1       2.938   2.235   0.000  0.00  0.00    +0.000 C 
ATOM      8  C   UNL     1       1.752   3.155   0.000  0.00  0.00    +0.000 C 
ATOM      9  C   UNL     1       0.364   2.588   0.000  0.00  0.00    +0.000 C 
ATOM     10  C   UNL     1      -0.822   3.507   0.000  0.00  0.00    +0.000 C 
ATOM     11  C   UNL     1       0.567   4.074   0.000  0.00  0.00    +0.000 C 
ATOM     12  C   UNL     1      -0.618   4.994   0.000  0.00  0.00    +0.000 C 
ATOM     13  C   UNL     1      -1.803   5.913   0.000  0.00  0.00    +0.000 C 
ATOM     14  C   UNL     1      -3.192   5.346   0.000  0.00  0.00    +0.000 C 
ATOM     15  C   UNL     1      -3.396   3.860   0.000  0.00  0.00    +0.000 C 
ATOM     16  C   UNL     1      -4.095   2.533   0.000  0.00  0.00    +0.000 C 
ATOM     17  C   UNL     1      -4.824   4.319   0.000  0.00  0.00    +0.000 C 
ATOM     18  C   UNL     1      -2.211   2.941   0.000  0.00  0.00    +0.000 C 
ATOM     19  C   UNL     1      -2.414   1.455   0.000  0.00  0.00    +0.000 C 
ATOM     20  C   UNL     1      -1.229   0.535   0.000  0.00  0.00    +0.000 C 
ATOM     21  C   UNL     1       0.160   1.102   0.000  0.00  0.00    +0.000 C 
ATOM     22  C   UNL     1      -0.119   0.045   0.000  0.00  0.00    +0.000 C 
ENDROOT
BRANCH   1  23
ATOM     23  C   UNL     1       5.198  -0.287   0.000  0.00  0.00    +0.000 C 
ATOM     24  C   UNL     1       5.308  -1.783   0.000  0.00  0.00    +0.000 C 
BRANCH  23  25
ATOM     25  C   UNL     1       5.088   1.209   0.000  0.00  0.00    +0.000 C 
BRANCH  25  26
ATOM     26  C   UNL     1       6.329   2.052   0.000  0.00  0.00    +0.000 C 
BRANCH  26  30
ATOM     27  C   UNL     1       7.350   5.887   0.000  0.00  0.00    +0.000 C 
ATOM     28  C   UNL     1       7.460   4.391   0.000  0.00  0.00    +0.000 C 
ATOM     29  C   UNL     1       8.810   3.739   0.000  0.00  0.00    +0.000 C 
ATOM     30  C   UNL     1       6.219   3.548   0.000  0.00  0.00    +0.000 C 
ENDBRANCH  26  30
ENDBRANCH  25  26
ENDBRANCH  23  25
BRANCH  23  31
ATOM     31  O   UNL     1       6.694  -0.177   0.000  0.00  0.00    +0.000 OA
BRANCH  31  32
ATOM     32  C   UNL     1       7.537  -1.417   0.000  0.00  0.00    +0.000 C 
ATOM     33  O   UNL     1       9.033  -1.308   0.000  0.00  0.00    +0.000 OA
ATOM     34  C   UNL     1       9.876  -2.548   0.000  0.00  0.00    +0.000 C 
ATOM     35  C   UNL     1       9.223  -3.899   0.000  0.00  0.00    +0.000 C 
ATOM     36  C   UNL     1       7.727  -4.009   0.000  0.00  0.00    +0.000 C 
ATOM     37  C   UNL     1       6.884  -2.768   0.000  0.00  0.00    +0.000 C 
BRANCH  35  38
ATOM     38  O   UNL     1      10.066  -5.139   0.000  0.00  0.00    +0.000 OA
ATOM     39  H   UNL     1       9.644  -6.013   0.000  0.00  0.00    +0.000 HD
ENDBRANCH  35  38
BRANCH  36  40
ATOM     40  O   UNL     1       7.074  -5.359   0.000  0.00  0.00    +0.000 OA
ATOM     41  H   UNL     1       6.107  -5.430   0.000  0.00  0.00    +0.000 HD
ENDBRANCH  36  40
BRANCH  37  42
ATOM     42  O   UNL     1       5.388  -2.878   0.000  0.00  0.00    +0.000 OA
ATOM     43  H   UNL     1       4.843  -2.076   0.000  0.00  0.00    +0.000 HD
ENDBRANCH  37  42
BRANCH  34  44
ATOM     44  C   UNL     1      11.372  -2.439   0.000  0.00  0.00    +0.000 C 
BRANCH  44  45
ATOM     45  O   UNL     1      12.025  -1.088   0.000  0.00  0.00    +0.000 OA
ATOM     46  H   UNL     1      12.992  -1.017   0.000  0.00  0.00    +0.000 HD
ENDBRANCH  44  45
ENDBRANCH  34  44
ENDBRANCH  31  32
ENDBRANCH  23  31
ENDBRANCH   1  23
BRANCH   7  47
ATOM     47  O   UNL     1       4.326   2.802   0.000  0.00  0.00    +0.000 OA
ATOM     48  H   UNL     1       5.093   2.208   0.000  0.00  0.00    +0.000 HD
ENDBRANCH   7  47
BRANCH  14  49
ATOM     49  O   UNL     1      -4.377   6.266   0.000  0.00  0.00    +0.000 OA
ATOM     50  H   UNL     1      -4.246   7.227   0.000  0.00  0.00    +0.000 HD
ENDBRANCH  14  49
BRANCH  19  51
ATOM     51  O   UNL     1      -3.803   0.888   0.000  0.00  0.00    +0.000 OA
BRANCH  51  52
ATOM     52  C   UNL     1      -4.006  -0.598   0.000  0.00  0.00    +0.000 C 
ATOM     53  O   UNL     1      -2.821  -1.518   0.000  0.00  0.00    +0.000 OA
ATOM     54  C   UNL     1      -3.025  -3.004   0.000  0.00  0.00    +0.000 C 
ATOM     55  C   UNL     1      -4.414  -3.570   0.000  0.00  0.00    +0.000 C 
ATOM     56  C   UNL     1      -5.599  -2.651   0.000  0.00  0.00    +0.000 C 
ATOM     57  C   UNL     1      -5.395  -1.165   0.000  0.00  0.00    +0.000 C 
BRANCH  55  58
ATOM     58  O   UNL     1      -4.617  -5.056   0.000  0.00  0.00    +0.000 OA
ATOM     59  H   UNL     1      -5.516  -5.423   0.000  0.00  0.00    +0.000 HD
ENDBRANCH  55  58
BRANCH  56  60
ATOM     60  O   UNL     1      -6.988  -3.218   0.000  0.00  0.00    +0.000 OA
ATOM     61  H   UNL     1      -7.754  -2.623   0.000  0.00  0.00    +0.000 HD
ENDBRANCH  56  60
BRANCH  54  62
ATOM     62  C   UNL     1      -1.840  -3.923   0.000  0.00  0.00    +0.000 C 
BRANCH  62  63
ATOM     63  O   UNL     1      -0.451  -3.356   0.000  0.00  0.00    +0.000 OA
ATOM     64  H   UNL     1       0.316  -3.951   0.000  0.00  0.00    +0.000 HD
ENDBRANCH  62  63
ENDBRANCH  54  62
BRANCH  57  65
ATOM     65  O   UNL     1      -6.581  -0.245   0.000  0.00  0.00    +0.000 OA
BRANCH  65  66
ATOM     66  C   UNL     1      -7.969  -0.812   0.000  0.00  0.00    +0.000 C 
ATOM     67  O   UNL     1      -8.173  -2.298   0.000  0.00  0.00    +0.000 OA
ATOM     68  C   UNL     1      -9.562  -2.865   0.000  0.00  0.00    +0.000 C 
ATOM     69  C   UNL     1      -9.765  -4.351   0.000  0.00  0.00    +0.000 C 
ATOM     70  C   UNL     1     -10.747  -1.946   0.000  0.00  0.00    +0.000 C 
ATOM     71  C   UNL     1     -10.543  -0.460   0.000  0.00  0.00    +0.000 C 
ATOM     72  C   UNL     1      -9.155   0.107   0.000  0.00  0.00    +0.000 C 
BRANCH  70  73
ATOM     73  O   UNL     1     -12.136  -2.512   0.000  0.00  0.00    +0.000 OA
ATOM     74  H   UNL     1     -12.902  -1.918   0.000  0.00  0.00    +0.000 HD
ENDBRANCH  70  73
BRANCH  71  75
ATOM     75  O   UNL     1     -11.729   0.460   0.000  0.00  0.00    +0.000 OA
ATOM     76  H   UNL     1     -11.597   1.421   0.000  0.00  0.00    +0.000 HD
ENDBRANCH  71  75
BRANCH  72  77
ATOM     77  O   UNL     1      -8.951   1.593   0.000  0.00  0.00    +0.000 OA
ATOM     78  H   UNL     1      -8.053   1.960   0.000  0.00  0.00    +0.000 HD
ENDBRANCH  72  77
ENDBRANCH  65  66
ENDBRANCH  57  65
ENDBRANCH  51  52
ENDBRANCH  19  51
TORSDOF 24
