REMARK  Name = 9324
REMARK  7 active torsions:
REMARK  status: ('A' for Active; 'I' for Inactive)
REMARK    1  A    between atoms: O_2  and  C_10
REMARK    2  A    between atoms: O_2  and  C_27
REMARK    3  A    between atoms: C_6  and  C_16
REMARK    4  A    between atoms: C_10  and  C_20
REMARK    5  A    between atoms: C_14  and  C_21
REMARK    6  A    between atoms: C_20  and  C_25
REMARK    7  A    between atoms: C_27  and  C_28
REMARK                            x       y       z     vdW  Elec       q    Type
REMARK                         _______ _______ _______ _____ _____    ______ ____
ROOT
ATOM      1 CL   UNL     1       3.485  -3.427  -0.324  0.00  0.00    +0.000 Cl
ATOM      2  O   UNL     1       6.560   0.372   1.441  0.00  0.00    +0.000 OA
ATOM      3  C   UNL     1      -1.707   0.517  -0.654  0.00  0.00    +0.000 C 
ATOM      4  C   UNL     1      -0.858  -0.760  -0.414  0.00  0.00    +0.000 C 
ATOM      5  C   UNL     1       0.597  -0.592  -0.875  0.00  0.00    +0.000 C 
ATOM      6  C   UNL     1       1.232   0.560  -0.042  0.00  0.00    +0.000 C 
ATOM      7  C   UNL     1      -3.087  -0.001  -0.176  0.00  0.00    +0.000 C 
ATOM      8  C   UNL     1      -1.080   1.662   0.161  0.00  0.00    +0.000 C 
ATOM      9  C   UNL     1      -1.712  -1.867  -1.030  0.00  0.00    +0.000 C 
ATOM     10  C   UNL     1       0.410   1.866  -0.178  0.00  0.00    +0.000 C 
ATOM     11  C   UNL     1       2.772   0.693  -0.323  0.00  0.00    +0.000 C 
ATOM     12  C   UNL     1      -3.165  -1.440  -0.732  0.00  0.00    +0.000 C 
ATOM     13  C   UNL     1      -1.783   0.937  -2.150  0.00  0.00    +0.000 C 
ATOM     14  C   UNL     1       1.416  -1.847  -0.754  0.00  0.00    +0.000 C 
ATOM     15  C   UNL     1       3.453  -0.658   0.000  0.00  0.00    +0.000 C 
ATOM     16  C   UNL     1       3.354   1.807   0.591  0.00  0.00    +0.000 C 
ATOM     17  C   UNL     1       3.057   1.055  -1.800  0.00  0.00    +0.000 C 
ATOM     18  C   UNL     1       2.698  -1.871  -0.350  0.00  0.00    +0.000 C 
ATOM     19  C   UNL     1       4.874   1.844   0.609  0.00  0.00    +0.000 C 
ATOM     20  C   UNL     1       4.660  -0.719   0.596  0.00  0.00    +0.000 C 
ATOM     21  C   UNL     1       5.443   0.493   0.940  0.00  0.00    +0.000 C 
ENDROOT
BRANCH   7  23
ATOM     22  O   UNL     1      -5.159   0.406  -1.288  0.00  0.00    +0.000 OA
ATOM     23  C   UNL     1      -4.253   0.848  -0.583  0.00  0.00    +0.000 C 
ATOM     24  C   UNL     1      -4.262   2.268  -0.086  0.00  0.00    +0.000 C 
ENDBRANCH   7  23
BRANCH   7  25
ATOM     25  O   UNL     1      -3.156  -0.038   1.247  0.00  0.00    +0.000 OA
BRANCH  25  27
ATOM     26  O   UNL     1      -5.253  -1.001   1.136  0.00  0.00    +0.000 OA
ATOM     27  C   UNL     1      -4.301  -0.567   1.771  0.00  0.00    +0.000 C 
ATOM     28  C   UNL     1      -4.233  -0.541   3.268  0.00  0.00    +0.000 C 
ENDBRANCH  25  27
ENDBRANCH   7  25
TORSDOF 3
