REMARK  Name = 3034026
REMARK  6 active torsions:
REMARK  status: ('A' for Active; 'I' for Inactive)
REMARK    1  A    between atoms: O_2  and  C_11
REMARK    2  A    between atoms: O_5  and  C_25
REMARK    3  A    between atoms: C_7  and  C_18
REMARK    4  A    between atoms: C_11  and  C_21
REMARK    5  A    between atoms: C_15  and  C_22
REMARK    6  A    between atoms: C_21  and  C_25
REMARK                            x       y       z     vdW  Elec       q    Type
REMARK                         _______ _______ _______ _____ _____    ______ ____
ROOT
ATOM      1 CL   UNL     1      -3.659   3.374  -0.159  0.00  0.00    +0.000 Cl
ATOM      2  O   UNL     1      -0.156  -2.507  -1.050  0.00  0.00    +0.000 OA
ATOM      3  O   UNL     1      -5.966  -0.949   1.556  0.00  0.00    +0.000 OA
ATOM      4  C   UNL     1       2.041   0.021  -0.178  0.00  0.00    +0.000 C 
ATOM      5  C   UNL     1       1.035   1.115   0.260  0.00  0.00    +0.000 C 
ATOM      6  C   UNL     1      -0.342   0.976  -0.412  0.00  0.00    +0.000 C 
ATOM      7  C   UNL     1      -0.953  -0.412  -0.041  0.00  0.00    +0.000 C 
ATOM      8  C   UNL     1       3.303   0.516   0.573  0.00  0.00    +0.000 C 
ATOM      9  C   UNL     1       1.810   2.414   0.060  0.00  0.00    +0.000 C 
ATOM     10  C   UNL     1       1.468  -1.335   0.248  0.00  0.00    +0.000 C 
ATOM     11  C   UNL     1       3.269   2.050   0.402  0.00  0.00    +0.000 C 
ATOM     12  C   UNL     1      -2.398  -0.619  -0.618  0.00  0.00    +0.000 C 
ATOM     13  C   UNL     1      -1.279   2.120   0.001  0.00  0.00    +0.000 C 
ATOM     14  C   UNL     1       0.087  -1.512  -0.370  0.00  0.00    +0.000 C 
ATOM     15  C   UNL     1       2.299   0.001  -1.712  0.00  0.00    +0.000 C 
ATOM     16  C   UNL     1      -2.674   1.946  -0.602  0.00  0.00    +0.000 C 
ATOM     17  C   UNL     1      -3.255   0.599  -0.194  0.00  0.00    +0.000 C 
ATOM     18  C   UNL     1      -2.418  -0.728  -2.160  0.00  0.00    +0.000 C 
ATOM     19  C   UNL     1      -2.981  -1.923  -0.085  0.00  0.00    +0.000 C 
ATOM     20  C   UNL     1      -4.395   0.463   0.507  0.00  0.00    +0.000 C 
ATOM     21  C   UNL     1      -4.112  -2.043   0.614  0.00  0.00    +0.000 C 
ATOM     22  C   UNL     1      -4.911  -0.853   0.939  0.00  0.00    +0.000 C 
ENDROOT
BRANCH   8  23
ATOM     23  O   UNL     1       3.255   0.229   1.967  0.00  0.00    +0.000 OA
ATOM     24  H   UNL     1       3.990   0.693   2.404  0.00  0.00    +0.000 HD
ENDBRANCH   8  23
BRANCH   8  26
ATOM     25  O   UNL     1       5.499   0.638  -0.344  0.00  0.00    +0.000 OA
ATOM     26  C   UNL     1       4.603  -0.072   0.110  0.00  0.00    +0.000 C 
BRANCH  26  27
ATOM     27  C   UNL     1       4.741  -1.574   0.235  0.00  0.00    +0.000 C 
BRANCH  27  28
ATOM     28  O   UNL     1       6.089  -1.934   0.455  0.00  0.00    +0.000 OA
ATOM     29  H   UNL     1       6.349  -1.576   1.321  0.00  0.00    +0.000 HD
ENDBRANCH  27  28
ENDBRANCH  26  27
ENDBRANCH   8  26
TORSDOF 4
