REMARK  Name = 
REMARK  56 active torsions:
REMARK  status: ('A' for Active; 'I' for Inactive)
REMARK    1  A    between atoms: O_2  and  AL_3
REMARK    2  A    between atoms: AL_3  and  O_4
REMARK    3  A    between atoms: AL_3  and  O_5
REMARK    4  A    between atoms: O_6  and  AL_7
REMARK    5  A    between atoms: AL_7  and  O_8
REMARK    6  A    between atoms: AL_7  and  O_9
REMARK    7  A    between atoms: O_9  and  S_10
REMARK    8  A    between atoms: S_10  and  O_13
REMARK    9  A    between atoms: O_13  and  C_14
REMARK   10  A    between atoms: C_14  and  C_15
REMARK   11  A    between atoms: C_17  and  C_18
REMARK   12  A    between atoms: C_17  and  O_27
REMARK   13  A    between atoms: C_18  and  O_19
REMARK   14  A    between atoms: O_19  and  S_20
REMARK   15  A    between atoms: S_20  and  O_23
REMARK   16  A    between atoms: O_23  and  AL_24
REMARK   17  A    between atoms: AL_24  and  O_25
REMARK   18  A    between atoms: AL_24  and  O_26
REMARK   19  A    between atoms: O_27  and  C_28
REMARK   20  A    between atoms: C_30  and  C_31
REMARK   21  A    between atoms: C_31  and  O_32
REMARK   22  A    between atoms: O_32  and  S_33
REMARK   23  A    between atoms: S_33  and  O_36
REMARK   24  A    between atoms: O_36  and  AL_37
REMARK   25  A    between atoms: AL_37  and  O_38
REMARK   26  A    between atoms: AL_37  and  O_39
REMARK   27  A    between atoms: C_40  and  O_41
REMARK   28  A    between atoms: O_41  and  S_42
REMARK   29  A    between atoms: S_42  and  O_45
REMARK   30  A    between atoms: O_45  and  AL_46
REMARK   31  A    between atoms: AL_46  and  O_47
REMARK   32  A    between atoms: AL_46  and  O_48
REMARK   33  A    between atoms: C_49  and  O_50
REMARK   34  A    between atoms: O_50  and  S_51
REMARK   35  A    between atoms: S_51  and  O_54
REMARK   36  A    between atoms: O_54  and  AL_55
REMARK   37  A    between atoms: AL_55  and  O_56
REMARK   38  A    between atoms: AL_55  and  O_57
REMARK   39  A    between atoms: C_58  and  O_59
REMARK   40  A    between atoms: O_59  and  S_60
REMARK   41  A    between atoms: S_60  and  O_63
REMARK   42  A    between atoms: O_63  and  AL_64
REMARK   43  A    between atoms: AL_64  and  O_65
REMARK   44  A    between atoms: AL_64  and  O_66
REMARK   45  A    between atoms: C_67  and  O_68
REMARK   46  A    between atoms: O_68  and  S_69
REMARK   47  A    between atoms: S_69  and  O_72
REMARK   48  A    between atoms: O_72  and  AL_73
REMARK   49  A    between atoms: AL_73  and  O_74
REMARK   50  A    between atoms: AL_73  and  O_75
REMARK   51  A    between atoms: C_76  and  O_77
REMARK   52  A    between atoms: O_77  and  S_78
REMARK   53  A    between atoms: S_78  and  O_81
REMARK   54  A    between atoms: O_81  and  AL_82
REMARK   55  A    between atoms: AL_82  and  O_83
REMARK   56  A    between atoms: AL_82  and  O_84
REMARK                            x       y       z     vdW  Elec       q    Type
REMARK                         _______ _______ _______ _____ _____    ______ ____
ROOT
ATOM      1  O   HOH     1       7.799  -0.439   0.000  0.00  0.00    +0.000 OA
ATOM      2  H   HOH     0       8.769  -0.439   0.000  0.00  0.00    +0.000 HD
ATOM      3  H   HOH     0       7.314   0.401   0.000  0.00  0.00    +0.000 HD
ENDROOT
TORSDOF 0
REMARK  Name = 
REMARK  56 active torsions:
REMARK  status: ('A' for Active; 'I' for Inactive)
REMARK    1  A    between atoms: O_2  and  AL_3
REMARK    2  A    between atoms: AL_3  and  O_4
REMARK    3  A    between atoms: AL_3  and  O_5
REMARK    4  A    between atoms: O_6  and  AL_7
REMARK    5  A    between atoms: AL_7  and  O_8
REMARK    6  A    between atoms: AL_7  and  O_9
REMARK    7  A    between atoms: O_9  and  S_10
REMARK    8  A    between atoms: S_10  and  O_13
REMARK    9  A    between atoms: O_13  and  C_14
REMARK   10  A    between atoms: C_14  and  C_15
REMARK   11  A    between atoms: C_17  and  C_18
REMARK   12  A    between atoms: C_17  and  O_27
REMARK   13  A    between atoms: C_18  and  O_19
REMARK   14  A    between atoms: O_19  and  S_20
REMARK   15  A    between atoms: S_20  and  O_23
REMARK   16  A    between atoms: O_23  and  AL_24
REMARK   17  A    between atoms: AL_24  and  O_25
REMARK   18  A    between atoms: AL_24  and  O_26
REMARK   19  A    between atoms: O_27  and  C_28
REMARK   20  A    between atoms: C_30  and  C_31
REMARK   21  A    between atoms: C_31  and  O_32
REMARK   22  A    between atoms: O_32  and  S_33
REMARK   23  A    between atoms: S_33  and  O_36
REMARK   24  A    between atoms: O_36  and  AL_37
REMARK   25  A    between atoms: AL_37  and  O_38
REMARK   26  A    between atoms: AL_37  and  O_39
REMARK   27  A    between atoms: C_40  and  O_41
REMARK   28  A    between atoms: O_41  and  S_42
REMARK   29  A    between atoms: S_42  and  O_45
REMARK   30  A    between atoms: O_45  and  AL_46
REMARK   31  A    between atoms: AL_46  and  O_47
REMARK   32  A    between atoms: AL_46  and  O_48
REMARK   33  A    between atoms: C_49  and  O_50
REMARK   34  A    between atoms: O_50  and  S_51
REMARK   35  A    between atoms: S_51  and  O_54
REMARK   36  A    between atoms: O_54  and  AL_55
REMARK   37  A    between atoms: AL_55  and  O_56
REMARK   38  A    between atoms: AL_55  and  O_57
REMARK   39  A    between atoms: C_58  and  O_59
REMARK   40  A    between atoms: O_59  and  S_60
REMARK   41  A    between atoms: S_60  and  O_63
REMARK   42  A    between atoms: O_63  and  AL_64
REMARK   43  A    between atoms: AL_64  and  O_65
REMARK   44  A    between atoms: AL_64  and  O_66
REMARK   45  A    between atoms: C_67  and  O_68
REMARK   46  A    between atoms: O_68  and  S_69
REMARK   47  A    between atoms: S_69  and  O_72
REMARK   48  A    between atoms: O_72  and  AL_73
REMARK   49  A    between atoms: AL_73  and  O_74
REMARK   50  A    between atoms: AL_73  and  O_75
REMARK   51  A    between atoms: C_76  and  O_77
REMARK   52  A    between atoms: O_77  and  S_78
REMARK   53  A    between atoms: S_78  and  O_81
REMARK   54  A    between atoms: O_81  and  AL_82
REMARK   55  A    between atoms: AL_82  and  O_83
REMARK   56  A    between atoms: AL_82  and  O_84
REMARK                            x       y       z     vdW  Elec       q    Type
REMARK                         _______ _______ _______ _____ _____    ______ ____
ROOT
ATOM      1 AL   UNL     1       7.810  -3.769   0.000  0.00  0.00    +0.000 Al
ENDROOT
BRANCH   1   2
ATOM      2  O   UNL     1       8.223  -3.055   0.000  0.00  0.00    +0.000 OA
ATOM      3  H   UNL     1       9.193  -3.055   0.000  0.00  0.00    +0.000 HD
ENDBRANCH   1   2
BRANCH   1   4
ATOM      4  O   UNL     1       8.223  -4.484   0.000  0.00  0.00    +0.000 OA
ATOM      5  H   UNL     1       7.738  -5.324   0.000  0.00  0.00    +0.000 HD
ENDBRANCH   1   4
BRANCH   1   6
ATOM      6  O   UNL     1       6.985  -3.769   0.000  0.00  0.00    +0.000 OA
ATOM      7  H   UNL     1       6.500  -2.929   0.000  0.00  0.00    +0.000 HD
ENDBRANCH   1   6
TORSDOF 3
REMARK  Name = 
REMARK  56 active torsions:
REMARK  status: ('A' for Active; 'I' for Inactive)
REMARK    1  A    between atoms: O_2  and  AL_3
REMARK    2  A    between atoms: AL_3  and  O_4
REMARK    3  A    between atoms: AL_3  and  O_5
REMARK    4  A    between atoms: O_6  and  AL_7
REMARK    5  A    between atoms: AL_7  and  O_8
REMARK    6  A    between atoms: AL_7  and  O_9
REMARK    7  A    between atoms: O_9  and  S_10
REMARK    8  A    between atoms: S_10  and  O_13
REMARK    9  A    between atoms: O_13  and  C_14
REMARK   10  A    between atoms: C_14  and  C_15
REMARK   11  A    between atoms: C_17  and  C_18
REMARK   12  A    between atoms: C_17  and  O_27
REMARK   13  A    between atoms: C_18  and  O_19
REMARK   14  A    between atoms: O_19  and  S_20
REMARK   15  A    between atoms: S_20  and  O_23
REMARK   16  A    between atoms: O_23  and  AL_24
REMARK   17  A    between atoms: AL_24  and  O_25
REMARK   18  A    between atoms: AL_24  and  O_26
REMARK   19  A    between atoms: O_27  and  C_28
REMARK   20  A    between atoms: C_30  and  C_31
REMARK   21  A    between atoms: C_31  and  O_32
REMARK   22  A    between atoms: O_32  and  S_33
REMARK   23  A    between atoms: S_33  and  O_36
REMARK   24  A    between atoms: O_36  and  AL_37
REMARK   25  A    between atoms: AL_37  and  O_38
REMARK   26  A    between atoms: AL_37  and  O_39
REMARK   27  A    between atoms: C_40  and  O_41
REMARK   28  A    between atoms: O_41  and  S_42
REMARK   29  A    between atoms: S_42  and  O_45
REMARK   30  A    between atoms: O_45  and  AL_46
REMARK   31  A    between atoms: AL_46  and  O_47
REMARK   32  A    between atoms: AL_46  and  O_48
REMARK   33  A    between atoms: C_49  and  O_50
REMARK   34  A    between atoms: O_50  and  S_51
REMARK   35  A    between atoms: S_51  and  O_54
REMARK   36  A    between atoms: O_54  and  AL_55
REMARK   37  A    between atoms: AL_55  and  O_56
REMARK   38  A    between atoms: AL_55  and  O_57
REMARK   39  A    between atoms: C_58  and  O_59
REMARK   40  A    between atoms: O_59  and  S_60
REMARK   41  A    between atoms: S_60  and  O_63
REMARK   42  A    between atoms: O_63  and  AL_64
REMARK   43  A    between atoms: AL_64  and  O_65
REMARK   44  A    between atoms: AL_64  and  O_66
REMARK   45  A    between atoms: C_67  and  O_68
REMARK   46  A    between atoms: O_68  and  S_69
REMARK   47  A    between atoms: S_69  and  O_72
REMARK   48  A    between atoms: O_72  and  AL_73
REMARK   49  A    between atoms: AL_73  and  O_74
REMARK   50  A    between atoms: AL_73  and  O_75
REMARK   51  A    between atoms: C_76  and  O_77
REMARK   52  A    between atoms: O_77  and  S_78
REMARK   53  A    between atoms: S_78  and  O_81
REMARK   54  A    between atoms: O_81  and  AL_82
REMARK   55  A    between atoms: AL_82  and  O_83
REMARK   56  A    between atoms: AL_82  and  O_84
REMARK                            x       y       z     vdW  Elec       q    Type
REMARK                         _______ _______ _______ _____ _____    ______ ____
ROOT
ATOM      1  O   UNL     1       1.338  -1.829   0.000  0.00  0.00    +0.000 OA
ENDROOT
BRANCH   1   2
ATOM      2  C   UNL     1       1.083  -1.044   0.000  0.00  0.00    +0.000 C 
ATOM      3  O   UNL     1       0.276  -0.873   0.000  0.00  0.00    +0.000 OA
ATOM      4  C   UNL     1       0.021  -0.088   0.000  0.00  0.00    +0.000 C 
ATOM      5  C   UNL     1       0.573   0.525   0.000  0.00  0.00    +0.000 C 
ATOM      6  C   UNL     1       1.380   0.353   0.000  0.00  0.00    +0.000 C 
ATOM      7  C   UNL     1       1.635  -0.431   0.000  0.00  0.00    +0.000 C 
BRANCH   6   8
ATOM      8  O   UNL     1       1.932   0.967   0.000  0.00  0.00    +0.000 OA
BRANCH   8   9
ATOM      9  S   UNL     1       2.739   0.795   0.000  0.00  0.00    +0.000 S 
ATOM     10  O   UNL     1       2.567  -0.012   0.000  0.00  0.00    +0.000 OA
ATOM     11  O   UNL     1       3.546   0.624   0.000  0.00  0.00    +0.000 OA
BRANCH   9  12
ATOM     12  O   UNL     1       2.911   1.602   0.000  0.00  0.00    +0.000 OA
BRANCH  12  13
ATOM     13 AL   UNL     1       3.695   1.857   0.000  0.00  0.00    +0.000 Al
BRANCH  13  14
ATOM     14  O   UNL     1       3.867   2.664   0.000  0.00  0.00    +0.000 OA
ATOM     15  H   UNL     1       4.789   2.964   0.000  0.00  0.00    +0.000 HD
ENDBRANCH  13  14
BRANCH  13  16
ATOM     16  O   UNL     1       4.308   1.305   0.000  0.00  0.00    +0.000 OA
ATOM     17  H   UNL     1       4.107   0.356   0.000  0.00  0.00    +0.000 HD
ENDBRANCH  13  16
ENDBRANCH  12  13
ENDBRANCH   9  12
ENDBRANCH   8   9
ENDBRANCH   6   8
BRANCH   7  18
ATOM     18  O   UNL     1       2.442  -0.603   0.000  0.00  0.00    +0.000 OA
BRANCH  18  19
ATOM     19  S   UNL     1       2.697  -1.387   0.000  0.00  0.00    +0.000 S 
ATOM     20  O   UNL     1       3.482  -1.132   0.000  0.00  0.00    +0.000 OA
ATOM     21  O   UNL     1       1.912  -1.642   0.000  0.00  0.00    +0.000 OA
BRANCH  19  22
ATOM     22  O   UNL     1       2.952  -2.172   0.000  0.00  0.00    +0.000 OA
BRANCH  22  23
ATOM     23 AL   UNL     1       3.759  -2.343   0.000  0.00  0.00    +0.000 Al
BRANCH  23  24
ATOM     24  O   UNL     1       4.311  -1.730   0.000  0.00  0.00    +0.000 OA
ATOM     25  H   UNL     1       5.260  -1.932   0.000  0.00  0.00    +0.000 HD
ENDBRANCH  23  24
BRANCH  23  26
ATOM     26  O   UNL     1       4.014  -3.128   0.000  0.00  0.00    +0.000 OA
ATOM     27  H   UNL     1       3.365  -3.849   0.000  0.00  0.00    +0.000 HD
ENDBRANCH  23  26
ENDBRANCH  22  23
ENDBRANCH  19  22
ENDBRANCH  18  19
ENDBRANCH   7  18
BRANCH   4  28
ATOM     28  C   UNL     1      -0.786   0.084   0.000  0.00  0.00    +0.000 C 
BRANCH  28  29
ATOM     29  O   UNL     1      -1.338  -0.529   0.000  0.00  0.00    +0.000 OA
BRANCH  29  30
ATOM     30  S   UNL     1      -2.145  -0.358   0.000  0.00  0.00    +0.000 S 
ATOM     31  O   UNL     1      -1.973   0.449   0.000  0.00  0.00    +0.000 OA
ATOM     32  O   UNL     1      -2.316  -1.165   0.000  0.00  0.00    +0.000 OA
BRANCH  30  33
ATOM     33  O   UNL     1      -2.952  -0.186   0.000  0.00  0.00    +0.000 OA
BRANCH  33  34
ATOM     34 AL   UNL     1      -3.504  -0.800   0.000  0.00  0.00    +0.000 Al
BRANCH  34  35
ATOM     35  O   UNL     1      -4.311  -0.628   0.000  0.00  0.00    +0.000 OA
ATOM     36  H   UNL     1      -4.611   0.294   0.000  0.00  0.00    +0.000 HD
ENDBRANCH  34  35
BRANCH  34  37
ATOM     37  O   UNL     1      -3.249  -1.584   0.000  0.00  0.00    +0.000 OA
ATOM     38  H   UNL     1      -3.898  -2.305   0.000  0.00  0.00    +0.000 HD
ENDBRANCH  34  37
ENDBRANCH  33  34
ENDBRANCH  30  33
ENDBRANCH  29  30
ENDBRANCH  28  29
ENDBRANCH   4  28
BRANCH   5  39
ATOM     39  O   UNL     1       0.318   1.310   0.000  0.00  0.00    +0.000 OA
BRANCH  39  40
ATOM     40  S   UNL     1      -0.489   1.481   0.000  0.00  0.00    +0.000 S 
ATOM     41  O   UNL     1      -1.296   1.653   0.000  0.00  0.00    +0.000 OA
ATOM     42  O   UNL     1      -0.660   0.674   0.000  0.00  0.00    +0.000 OA
BRANCH  40  43
ATOM     43  O   UNL     1      -0.317   2.288   0.000  0.00  0.00    +0.000 OA
BRANCH  43  44
ATOM     44 AL   UNL     1      -0.930   2.840   0.000  0.00  0.00    +0.000 Al
BRANCH  44  45
ATOM     45  O   UNL     1      -1.715   2.585   0.000  0.00  0.00    +0.000 OA
ATOM     46  H   UNL     1      -2.436   3.234   0.000  0.00  0.00    +0.000 HD
ENDBRANCH  44  45
BRANCH  44  47
ATOM     47  O   UNL     1      -0.759   3.647   0.000  0.00  0.00    +0.000 OA
ATOM     48  H   UNL     1       0.164   3.947   0.000  0.00  0.00    +0.000 HD
ENDBRANCH  44  47
ENDBRANCH  43  44
ENDBRANCH  40  43
ENDBRANCH  39  40
ENDBRANCH   5  39
ENDBRANCH   1   2
BRANCH   1  51
ATOM     49  C   UNL     1       0.373  -3.711   0.000  0.00  0.00    +0.000 C 
ATOM     50  O   UNL     1       0.118  -2.927   0.000  0.00  0.00    +0.000 OA
ATOM     51  C   UNL     1       0.786  -2.442   0.000  0.00  0.00    +0.000 C 
ATOM     52  C   UNL     1       1.453  -2.927   0.000  0.00  0.00    +0.000 C 
ATOM     53  C   UNL     1       1.198  -3.711   0.000  0.00  0.00    +0.000 C 
BRANCH  49  54
ATOM     54  C   UNL     1      -0.112  -4.379   0.000  0.00  0.00    +0.000 C 
BRANCH  54  55
ATOM     55  O   UNL     1      -0.932  -4.293   0.000  0.00  0.00    +0.000 OA
BRANCH  55  56
ATOM     56  S   UNL     1      -1.417  -4.960   0.000  0.00  0.00    +0.000 S 
ATOM     57  O   UNL     1      -0.749  -5.445   0.000  0.00  0.00    +0.000 OA
ATOM     58  O   UNL     1      -2.084  -4.475   0.000  0.00  0.00    +0.000 OA
BRANCH  56  59
ATOM     59  O   UNL     1      -1.902  -5.628   0.000  0.00  0.00    +0.000 OA
BRANCH  59  60
ATOM     60 AL   UNL     1      -2.722  -5.541   0.000  0.00  0.00    +0.000 Al
BRANCH  60  61
ATOM     61  O   UNL     1      -3.058  -4.788   0.000  0.00  0.00    +0.000 OA
ATOM     62  H   UNL     1      -2.488  -4.003   0.000  0.00  0.00    +0.000 HD
ENDBRANCH  60  61
BRANCH  60  63
ATOM     63  O   UNL     1      -3.207  -6.209   0.000  0.00  0.00    +0.000 OA
ATOM     64  H   UNL     1      -4.172  -6.107   0.000  0.00  0.00    +0.000 HD
ENDBRANCH  60  63
ENDBRANCH  59  60
ENDBRANCH  56  59
ENDBRANCH  55  56
ENDBRANCH  54  55
ENDBRANCH  49  54
BRANCH  51  65
ATOM     65  C   UNL     1       0.234  -1.829   0.000  0.00  0.00    +0.000 C 
BRANCH  65  66
ATOM     66  O   UNL     1      -0.573  -2.000   0.000  0.00  0.00    +0.000 OA
BRANCH  66  67
ATOM     67  S   UNL     1      -1.125  -1.387   0.000  0.00  0.00    +0.000 S 
ATOM     68  O   UNL     1      -0.512  -0.835   0.000  0.00  0.00    +0.000 OA
ATOM     69  O   UNL     1      -1.677  -0.774   0.000  0.00  0.00    +0.000 OA
BRANCH  67  70
ATOM     70  O   UNL     1      -1.738  -1.939   0.000  0.00  0.00    +0.000 OA
BRANCH  70  71
ATOM     71 AL   UNL     1      -1.567  -2.746   0.000  0.00  0.00    +0.000 Al
BRANCH  71  72
ATOM     72  O   UNL     1      -0.782  -3.001   0.000  0.00  0.00    +0.000 OA
ATOM     73  H   UNL     1      -0.580  -3.950   0.000  0.00  0.00    +0.000 HD
ENDBRANCH  71  72
BRANCH  71  74
ATOM     74  O   UNL     1      -2.180  -3.298   0.000  0.00  0.00    +0.000 OA
ATOM     75  H   UNL     1      -3.102  -2.998   0.000  0.00  0.00    +0.000 HD
ENDBRANCH  71  74
ENDBRANCH  70  71
ENDBRANCH  67  70
ENDBRANCH  66  67
ENDBRANCH  65  66
ENDBRANCH  51  65
BRANCH  52  76
ATOM     76  O   UNL     1       2.238  -2.672   0.000  0.00  0.00    +0.000 OA
BRANCH  76  77
ATOM     77  S   UNL     1       2.851  -3.224   0.000  0.00  0.00    +0.000 S 
ATOM     78  O   UNL     1       3.403  -2.611   0.000  0.00  0.00    +0.000 OA
ATOM     79  O   UNL     1       2.299  -3.837   0.000  0.00  0.00    +0.000 OA
BRANCH  77  80
ATOM     80  O   UNL     1       3.464  -3.776   0.000  0.00  0.00    +0.000 OA
BRANCH  80  81
ATOM     81 AL   UNL     1       3.293  -4.583   0.000  0.00  0.00    +0.000 Al
BRANCH  81  82
ATOM     82  O   UNL     1       2.508  -4.838   0.000  0.00  0.00    +0.000 OA
ATOM     83  H   UNL     1       1.787  -4.189   0.000  0.00  0.00    +0.000 HD
ENDBRANCH  81  82
BRANCH  81  84
ATOM     84  O   UNL     1       3.906  -5.135   0.000  0.00  0.00    +0.000 OA
ATOM     85  H   UNL     1       3.704  -6.084   0.000  0.00  0.00    +0.000 HD
ENDBRANCH  81  84
ENDBRANCH  80  81
ENDBRANCH  77  80
ENDBRANCH  76  77
ENDBRANCH  52  76
BRANCH  53  86
ATOM     86  O   UNL     1       1.683  -4.379   0.000  0.00  0.00    +0.000 OA
BRANCH  86  87
ATOM     87  S   UNL     1       1.348  -5.133   0.000  0.00  0.00    +0.000 S 
ATOM     88  O   UNL     1       2.101  -5.468   0.000  0.00  0.00    +0.000 OA
ATOM     89  O   UNL     1       0.594  -4.797   0.000  0.00  0.00    +0.000 OA
BRANCH  87  90
ATOM     90  O   UNL     1       1.012  -5.886   0.000  0.00  0.00    +0.000 OA
BRANCH  90  91
ATOM     91 AL   UNL     1       0.192  -5.972   0.000  0.00  0.00    +0.000 Al
BRANCH  91  92
ATOM     92  O   UNL     1      -0.144  -6.726   0.000  0.00  0.00    +0.000 OA
ATOM     93  H   UNL     1      -1.108  -6.828   0.000  0.00  0.00    +0.000 HD
ENDBRANCH  91  92
BRANCH  91  94
ATOM     94  O   UNL     1      -0.293  -5.305   0.000  0.00  0.00    +0.000 OA
ATOM     95  H   UNL     1       0.101  -4.419   0.000  0.00  0.00    +0.000 HD
ENDBRANCH  91  94
ENDBRANCH  90  91
ENDBRANCH  87  90
ENDBRANCH  86  87
ENDBRANCH  53  86
ENDBRANCH   1  51
TORSDOF 53
