REMARK  Name = 88293
REMARK  14 active torsions:
REMARK  status: ('A' for Active; 'I' for Inactive)
REMARK    1  A    between atoms: S_1  and  C_15
REMARK    2  A    between atoms: O_3  and  C_11
REMARK    3  A    between atoms: O_3  and  C_17
REMARK    4  A    between atoms: O_4  and  C_12
REMARK    5  A    between atoms: O_4  and  C_18
REMARK    6  A    between atoms: O_5  and  C_14
REMARK    7  A    between atoms: O_5  and  C_19
REMARK    8  A    between atoms: O_6  and  C_16
REMARK    9  A    between atoms: O_6  and  C_22
REMARK   10  A    between atoms: C_13  and  C_16
REMARK   11  A    between atoms: C_17  and  C_20
REMARK   12  A    between atoms: C_18  and  C_21
REMARK   13  A    between atoms: C_19  and  C_23
REMARK   14  A    between atoms: C_22  and  C_24
REMARK                            x       y       z     vdW  Elec       q    Type
REMARK                         _______ _______ _______ _____ _____    ______ ____
ROOT
ATOM      1  O   UNL     1       0.658   2.128   0.644  0.00  0.00    +0.000 OA
ATOM      2  C   UNL     1       0.451  -0.274   0.372  0.00  0.00    +0.000 C 
ATOM      3  C   UNL     1      -1.072  -0.153   0.434  0.00  0.00    +0.000 C 
ATOM      4  C   UNL     1       1.115   0.870   1.144  0.00  0.00    +0.000 C 
ATOM      5  C   UNL     1      -1.537   1.257   0.059  0.00  0.00    +0.000 C 
ATOM      6  C   UNL     1      -0.744   2.318   0.830  0.00  0.00    +0.000 C 
ENDROOT
BRANCH   6   7
ATOM      7  S   UNL     1      -1.218   3.993   0.268  0.00  0.00    +0.000 S 
ATOM      8  H   UNL     1      -0.409   4.664   1.101  0.00  0.00    +0.000 HD
ENDBRANCH   6   7
BRANCH   2   9
ATOM      9  O   UNL     1       0.855  -1.514   0.946  0.00  0.00    +0.000 OA
BRANCH   9  11
ATOM     10  O   UNL     1       1.784  -2.161  -1.068  0.00  0.00    +0.000 OA
ATOM     11  C   UNL     1       1.515  -2.367   0.108  0.00  0.00    +0.000 C 
ATOM     12  C   UNL     1       1.876  -3.622   0.843  0.00  0.00    +0.000 C 
ENDBRANCH   9  11
ENDBRANCH   2   9
BRANCH   3  13
ATOM     13  O   UNL     1      -1.659  -1.071  -0.490  0.00  0.00    +0.000 OA
BRANCH  13  15
ATOM     14  O   UNL     1      -1.727  -2.696   1.151  0.00  0.00    +0.000 OA
ATOM     15  C   UNL     1      -1.935  -2.311   0.008  0.00  0.00    +0.000 C 
ATOM     16  C   UNL     1      -2.545  -3.161  -1.065  0.00  0.00    +0.000 C 
ENDBRANCH  13  15
ENDBRANCH   3  13
BRANCH   5  17
ATOM     17  O   UNL     1      -2.924   1.374   0.374  0.00  0.00    +0.000 OA
BRANCH  17  19
ATOM     18  O   UNL     1      -3.480   0.557  -1.714  0.00  0.00    +0.000 OA
ATOM     19  C   UNL     1      -3.787   0.986  -0.610  0.00  0.00    +0.000 C 
ATOM     20  C   UNL     1      -5.199   1.162  -0.141  0.00  0.00    +0.000 C 
ENDBRANCH  17  19
ENDBRANCH   5  17
BRANCH   4  21
ATOM     21  C   UNL     1       2.633   0.843   0.999  0.00  0.00    +0.000 C 
BRANCH  21  22
ATOM     22  O   UNL     1       2.957   0.959  -0.375  0.00  0.00    +0.000 OA
BRANCH  22  24
ATOM     23  O   UNL     1       5.210   0.854   0.123  0.00  0.00    +0.000 OA
ATOM     24  C   UNL     1       4.292   0.951  -0.680  0.00  0.00    +0.000 C 
ATOM     25  C   UNL     1       4.482   1.079  -2.161  0.00  0.00    +0.000 C 
ENDBRANCH  22  24
ENDBRANCH  21  22
ENDBRANCH   4  21
TORSDOF 10
