REMARK  Name = 5311271
REMARK  10 active torsions:
REMARK  status: ('A' for Active; 'I' for Inactive)
REMARK    1  A    between atoms: O_2  and  C_11
REMARK    2  A    between atoms: O_3  and  C_15
REMARK    3  A    between atoms: O_3  and  C_25
REMARK    4  A    between atoms: O_4  and  C_18
REMARK    5  A    between atoms: O_4  and  C_27
REMARK    6  A    between atoms: N_5  and  C_12
REMARK    7  A    between atoms: C_6  and  C_11
REMARK    8  A    between atoms: C_11  and  C_13
REMARK    9  A    between atoms: C_12  and  C_14
REMARK   10  A    between atoms: C_14  and  C_17
REMARK                            x       y       z     vdW  Elec       q    Type
REMARK                         _______ _______ _______ _____ _____    ______ ____
ROOT
ATOM      1  N   UNL     1       1.483  -1.109  -0.280  0.00  0.00    +0.000 NA
ATOM      2  C   UNL     1      -1.348  -1.438   0.408  0.00  0.00    +0.000 C 
ATOM      3  C   UNL     1      -0.486  -2.596  -0.107  0.00  0.00    +0.000 C 
ATOM      4  C   UNL     1      -0.770  -0.106  -0.081  0.00  0.00    +0.000 C 
ATOM      5  C   UNL     1       0.989  -2.390   0.242  0.00  0.00    +0.000 C 
ATOM      6  C   UNL     1       0.715   0.018   0.267  0.00  0.00    +0.000 C 
ENDROOT
BRANCH   2   7
ATOM      7  C   UNL     1      -2.801  -1.599  -0.029  0.00  0.00    +0.000 C 
BRANCH   7   8
ATOM      8  C   UNL     1      -3.675  -0.484   0.492  0.00  0.00    +0.000 A 
ATOM      9  C   UNL     1      -4.384   0.317  -0.390  0.00  0.00    +0.000 A 
ATOM     10  C   UNL     1      -3.751  -0.284   1.863  0.00  0.00    +0.000 A 
ATOM     11  C   UNL     1      -5.187   1.343   0.109  0.00  0.00    +0.000 A 
ATOM     12  C   UNL     1      -4.553   0.742   2.362  0.00  0.00    +0.000 A 
ATOM     13  C   UNL     1      -5.271   1.555   1.485  0.00  0.00    +0.000 A 
BRANCH   9  14
ATOM     14  O   UNL     1      -4.304   0.113  -1.736  0.00  0.00    +0.000 OA
ATOM     15  C   UNL     1      -5.250  -0.784  -2.311  0.00  0.00    +0.000 C 
ENDBRANCH   9  14
BRANCH  11  16
ATOM     16  O   UNL     1      -5.894   2.144  -0.735  0.00  0.00    +0.000 OA
ATOM     17  C   UNL     1      -5.246   3.327  -1.200  0.00  0.00    +0.000 C 
ENDBRANCH  11  16
ENDBRANCH   7   8
BRANCH   7  18
ATOM     18  O   UNL     1      -3.301  -2.849   0.441  0.00  0.00    +0.000 OA
ATOM     19  H   UNL     1      -4.264  -2.860   0.307  0.00  0.00    +0.000 HD
ENDBRANCH   7  18
ENDBRANCH   2   7
BRANCH   1  20
ATOM     20  C   UNL     1       2.907  -0.950   0.017  0.00  0.00    +0.000 C 
BRANCH  20  21
ATOM     21  C   UNL     1       3.463   0.317  -0.634  0.00  0.00    +0.000 C 
BRANCH  21  23
ATOM     22  F   UNL     1       8.953   0.926   0.408  0.00  0.00    +0.000 F 
ATOM     23  C   UNL     1       4.936   0.481  -0.355  0.00  0.00    +0.000 A 
ATOM     24  C   UNL     1       5.342   1.182   0.771  0.00  0.00    +0.000 A 
ATOM     25  C   UNL     1       5.860  -0.072  -1.228  0.00  0.00    +0.000 A 
ATOM     26  C   UNL     1       6.704   1.333   1.029  0.00  0.00    +0.000 A 
ATOM     27  C   UNL     1       7.223   0.079  -0.969  0.00  0.00    +0.000 A 
ATOM     28  C   UNL     1       7.645   0.781   0.159  0.00  0.00    +0.000 A 
ENDBRANCH  21  23
ENDBRANCH  20  21
ENDBRANCH   1  20
TORSDOF 8
