REMARK  Name = 
REMARK  18 active torsions:
REMARK  status: ('A' for Active; 'I' for Inactive)
REMARK    1  A    between atoms: C_1  and  O_25
REMARK    2  A    between atoms: C_2  and  O_26
REMARK    3  A    between atoms: C_3  and  O_27
REMARK    4  A    between atoms: C_4  and  O_28
REMARK    5  A    between atoms: C_5  and  O_29
REMARK    6  A    between atoms: C_6  and  O_30
REMARK    7  A    between atoms: O_7  and  S_31
REMARK    8  A    between atoms: O_10  and  S_32
REMARK    9  A    between atoms: O_13  and  S_33
REMARK   10  A    between atoms: O_16  and  S_34
REMARK   11  A    between atoms: O_19  and  S_35
REMARK   12  A    between atoms: O_22  and  S_36
REMARK   13  A    between atoms: O_25  and  S_31
REMARK   14  A    between atoms: O_26  and  S_32
REMARK   15  A    between atoms: O_27  and  S_33
REMARK   16  A    between atoms: O_28  and  S_34
REMARK   17  A    between atoms: O_29  and  S_35
REMARK   18  A    between atoms: O_30  and  S_36
REMARK                            x       y       z     vdW  Elec       q    Type
REMARK                         _______ _______ _______ _____ _____    ______ ____
ROOT
ATOM      1  C   UNL     1       1.429   0.825   0.000  0.00  0.00    +0.000 C 
ATOM      2  C   UNL     1       0.715   1.238   0.000  0.00  0.00    +0.000 C 
ATOM      3  C   UNL     1       1.429   0.000   0.000  0.00  0.00    +0.000 C 
ATOM      4  C   UNL     1       0.000   0.825   0.000  0.00  0.00    +0.000 C 
ATOM      5  C   UNL     1       0.715  -0.412   0.000  0.00  0.00    +0.000 C 
ATOM      6  C   UNL     1       0.000   0.000   0.000  0.00  0.00    +0.000 C 
ENDROOT
BRANCH   1   7
ATOM      7  O   UNL     1       2.143   1.238   0.000  0.00  0.00    +0.000 OA
BRANCH   7  10
ATOM      8  O   UNL     1       1.318   2.062   0.000  0.00  0.00    +0.000 OA
ATOM      9  O   UNL     1       2.968   2.062   0.000  0.00  0.00    +0.000 OA
ATOM     10  S   UNL     1       2.143   2.062   0.000  0.00  0.00    +0.000 S 
BRANCH  10  11
ATOM     11  O   UNL     1       2.143   2.888   0.000  0.00  0.00    +0.000 OA
ATOM     12  H   UNL     1       2.983   3.373   0.000  0.00  0.00    +0.000 HD
ENDBRANCH  10  11
ENDBRANCH   7  10
ENDBRANCH   1   7
BRANCH   2  13
ATOM     13  O   UNL     1       0.715   2.062   0.000  0.00  0.00    +0.000 OA
BRANCH  13  16
ATOM     14  O   UNL     1      -0.412   1.760   0.000  0.00  0.00    +0.000 OA
ATOM     15  O   UNL     1      -0.715   2.888   0.000  0.00  0.00    +0.000 OA
ATOM     16  S   UNL     1       0.000   2.475   0.000  0.00  0.00    +0.000 S 
BRANCH  16  17
ATOM     17  O   UNL     1       0.412   3.189   0.000  0.00  0.00    +0.000 OA
ATOM     18  H   UNL     1       1.382   3.190   0.000  0.00  0.00    +0.000 HD
ENDBRANCH  16  17
ENDBRANCH  13  16
ENDBRANCH   2  13
BRANCH   3  19
ATOM     19  O   UNL     1       2.143  -0.412   0.000  0.00  0.00    +0.000 OA
BRANCH  19  22
ATOM     20  O   UNL     1       2.445   0.715   0.000  0.00  0.00    +0.000 OA
ATOM     21  O   UNL     1       3.572   0.412   0.000  0.00  0.00    +0.000 OA
ATOM     22  S   UNL     1       2.858   0.000   0.000  0.00  0.00    +0.000 S 
BRANCH  22  23
ATOM     23  O   UNL     1       3.270  -0.715   0.000  0.00  0.00    +0.000 OA
ATOM     24  H   UNL     1       2.785  -1.555   0.000  0.00  0.00    +0.000 HD
ENDBRANCH  22  23
ENDBRANCH  19  22
ENDBRANCH   3  19
BRANCH   4  25
ATOM     25  O   UNL     1      -0.715   1.238   0.000  0.00  0.00    +0.000 OA
BRANCH  25  28
ATOM     26  O   UNL     1      -1.016   0.111   0.000  0.00  0.00    +0.000 OA
ATOM     27  O   UNL     1      -2.143   0.412   0.000  0.00  0.00    +0.000 OA
ATOM     28  S   UNL     1      -1.429   0.825   0.000  0.00  0.00    +0.000 S 
BRANCH  28  29
ATOM     29  O   UNL     1      -1.841   1.540   0.000  0.00  0.00    +0.000 OA
ATOM     30  H   UNL     1      -1.356   2.380   0.000  0.00  0.00    +0.000 HD
ENDBRANCH  28  29
ENDBRANCH  25  28
ENDBRANCH   4  25
BRANCH   5  31
ATOM     31  O   UNL     1       0.715  -1.238   0.000  0.00  0.00    +0.000 OA
BRANCH  31  34
ATOM     32  O   UNL     1       1.841  -0.935   0.000  0.00  0.00    +0.000 OA
ATOM     33  O   UNL     1       2.143  -2.062   0.000  0.00  0.00    +0.000 OA
ATOM     34  S   UNL     1       1.429  -1.650   0.000  0.00  0.00    +0.000 S 
BRANCH  34  35
ATOM     35  O   UNL     1       1.016  -2.365   0.000  0.00  0.00    +0.000 OA
ATOM     36  H   UNL     1       0.046  -2.365   0.000  0.00  0.00    +0.000 HD
ENDBRANCH  34  35
ENDBRANCH  31  34
ENDBRANCH   5  31
BRANCH   6  37
ATOM     37  O   UNL     1      -0.715  -0.412   0.000  0.00  0.00    +0.000 OA
BRANCH  37  40
ATOM     38  O   UNL     1      -1.540  -1.238   0.000  0.00  0.00    +0.000 OA
ATOM     39  O   UNL     1       0.111  -1.238   0.000  0.00  0.00    +0.000 OA
ATOM     40  S   UNL     1      -0.715  -1.238   0.000  0.00  0.00    +0.000 S 
BRANCH  40  41
ATOM     41  O   UNL     1      -0.715  -2.062   0.000  0.00  0.00    +0.000 OA
ATOM     42  H   UNL     1      -1.555  -2.548   0.000  0.00  0.00    +0.000 HD
ENDBRANCH  40  41
ENDBRANCH  37  40
ENDBRANCH   6  37
TORSDOF 18
