REMARK  Name = 165381
REMARK  21 active torsions:
REMARK  status: ('A' for Active; 'I' for Inactive)
REMARK    1  A    between atoms: P_1  and  O_10
REMARK    2  A    between atoms: P_1  and  O_12
REMARK    3  A    between atoms: P_1  and  O_14
REMARK    4  A    between atoms: P_2  and  O_11
REMARK    5  A    between atoms: P_2  and  O_13
REMARK    6  A    between atoms: P_2  and  O_15
REMARK    7  A    between atoms: P_3  and  O_12
REMARK    8  A    between atoms: P_3  and  O_13
REMARK    9  A    between atoms: P_3  and  O_18
REMARK   10  A    between atoms: O_6  and  C_30
REMARK   11  A    between atoms: O_7  and  C_31
REMARK   12  A    between atoms: O_8  and  C_32
REMARK   13  A    between atoms: O_9  and  C_33
REMARK   14  A    between atoms: O_10  and  C_38
REMARK   15  A    between atoms: O_11  and  C_39
REMARK   16  A    between atoms: N_20  and  C_34
REMARK   17  A    between atoms: N_21  and  C_35
REMARK   18  A    between atoms: N_28  and  C_46
REMARK   19  A    between atoms: N_29  and  C_47
REMARK   20  A    between atoms: C_36  and  C_38
REMARK   21  A    between atoms: C_37  and  C_39
REMARK                            x       y       z     vdW  Elec       q    Type
REMARK                         _______ _______ _______ _____ _____    ______ ____
ROOT
ATOM      1  P   UNL     1      -4.482   1.891  -0.440  0.00  0.00    +0.000 P 
ATOM      2  O   UNL     1      -3.726   1.685   0.839  0.00  0.00    +0.000 OA
ENDROOT
BRANCH   1   3
ATOM      3  O   UNL     1      -5.497   3.149  -0.433  0.00  0.00    +0.000 OA
ATOM      4  H   UNL     1      -6.104   3.264   0.329  0.00  0.00    +0.000 HD
ENDBRANCH   1   3
BRANCH   1   5
ATOM      5  O   UNL     1      -3.553   2.165  -1.733  0.00  0.00    +0.000 OA
BRANCH   5   6
ATOM      6  P   UNL     1      -2.400   1.287  -2.446  0.00  0.00    +0.000 P 
ATOM      7  O   UNL     1      -2.843  -0.054  -2.955  0.00  0.00    +0.000 OA
BRANCH   6   8
ATOM      8  O   UNL     1      -1.830   2.289  -3.581  0.00  0.00    +0.000 OA
ATOM      9  H   UNL     1      -2.342   2.408  -4.409  0.00  0.00    +0.000 HD
ENDBRANCH   6   8
BRANCH   6  10
ATOM     10  O   UNL     1      -1.215   1.249  -1.346  0.00  0.00    +0.000 OA
BRANCH  10  11
ATOM     11  C   UNL     1      -0.742   2.476  -0.818  0.00  0.00    +0.000 C 
BRANCH  11  16
ATOM     12  O   UNL     1       0.845   1.306   0.565  0.00  0.00    +0.000 OA
ATOM     13  C   UNL     1       1.757   3.469   0.885  0.00  0.00    +0.000 C 
ATOM     14  C   UNL     1       0.289   3.515   1.259  0.00  0.00    +0.000 C 
ATOM     15  C   UNL     1       2.048   1.979   0.985  0.00  0.00    +0.000 C 
ATOM     16  C   UNL     1      -0.253   2.247   0.606  0.00  0.00    +0.000 C 
BRANCH  15  17
ATOM     17  N   UNL     1       3.173   1.536   0.164  0.00  0.00    +0.000 N 
ATOM     18  N   UNL     1       4.426   1.205  -1.650  0.00  0.00    +0.000 NA
ATOM     19  N   UNL     1       4.583   0.489   1.842  0.00  0.00    +0.000 NA
ATOM     20  N   UNL     1       6.626  -0.406   0.850  0.00  0.00    +0.000 NA
ATOM     21  C   UNL     1       4.287   0.872   0.590  0.00  0.00    +0.000 A 
ATOM     22  C   UNL     1       3.302   1.712  -1.189  0.00  0.00    +0.000 A 
ATOM     23  C   UNL     1       5.052   0.677  -0.549  0.00  0.00    +0.000 A 
ATOM     24  C   UNL     1       6.263   0.011  -0.387  0.00  0.00    +0.000 A 
ATOM     25  C   UNL     1       5.776  -0.144   1.872  0.00  0.00    +0.000 A 
BRANCH  24  26
ATOM     26  N   UNL     1       7.103  -0.229  -1.489  0.00  0.00    +0.000 N 
ATOM     27  H   UNL     1       7.977  -0.716  -1.346  0.00  0.00    +0.000 HD
ATOM     28  H   UNL     1       6.833   0.079  -2.413  0.00  0.00    +0.000 HD
ENDBRANCH  24  26
ENDBRANCH  15  17
BRANCH  13  29
ATOM     29  O   UNL     1       2.574   4.224   1.757  0.00  0.00    +0.000 OA
ATOM     30  H   UNL     1       2.252   5.141   1.736  0.00  0.00    +0.000 HD
ENDBRANCH  13  29
BRANCH  14  31
ATOM     31  O   UNL     1       0.154   3.396   2.675  0.00  0.00    +0.000 OA
ATOM     32  H   UNL     1      -0.797   3.381   2.876  0.00  0.00    +0.000 HD
ENDBRANCH  14  31
ENDBRANCH  11  16
ENDBRANCH  10  11
ENDBRANCH   6  10
ENDBRANCH   5   6
ENDBRANCH   1   5
BRANCH   1  33
ATOM     33  O   UNL     1      -5.419   0.655  -0.891  0.00  0.00    +0.000 OA
BRANCH  33  34
ATOM     34  P   UNL     1      -6.367  -0.325  -0.025  0.00  0.00    +0.000 P 
ATOM     35  O   UNL     1      -7.471   0.349   0.737  0.00  0.00    +0.000 OA
BRANCH  34  36
ATOM     36  O   UNL     1      -6.866  -1.413  -1.112  0.00  0.00    +0.000 OA
ATOM     37  H   UNL     1      -7.532  -2.082  -0.844  0.00  0.00    +0.000 HD
ENDBRANCH  34  36
BRANCH  34  38
ATOM     38  O   UNL     1      -5.323  -1.171   0.878  0.00  0.00    +0.000 OA
BRANCH  38  39
ATOM     39  C   UNL     1      -4.253  -1.835   0.228  0.00  0.00    +0.000 C 
BRANCH  39  44
ATOM     40  O   UNL     1      -2.300  -3.193   0.597  0.00  0.00    +0.000 OA
ATOM     41  C   UNL     1      -1.478  -1.250   1.672  0.00  0.00    +0.000 C 
ATOM     42  C   UNL     1      -2.807  -1.613   2.304  0.00  0.00    +0.000 C 
ATOM     43  C   UNL     1      -1.076  -2.570   1.032  0.00  0.00    +0.000 C 
ATOM     44  C   UNL     1      -3.412  -2.557   1.270  0.00  0.00    +0.000 C 
BRANCH  43  45
ATOM     45  N   UNL     1      -0.166  -2.429  -0.102  0.00  0.00    +0.000 N 
ATOM     46  N   UNL     1       0.516  -2.123  -2.203  0.00  0.00    +0.000 NA
ATOM     47  N   UNL     1       1.983  -2.698   0.998  0.00  0.00    +0.000 NA
ATOM     48  N   UNL     1       3.823  -2.523  -0.596  0.00  0.00    +0.000 NA
ATOM     49  C   UNL     1       1.198  -2.493  -0.070  0.00  0.00    +0.000 A 
ATOM     50  C   UNL     1      -0.528  -2.206  -1.404  0.00  0.00    +0.000 A 
ATOM     51  C   UNL     1       1.601  -2.301  -1.383  0.00  0.00    +0.000 A 
ATOM     52  C   UNL     1       2.970  -2.321  -1.629  0.00  0.00    +0.000 A 
ATOM     53  C   UNL     1       3.285  -2.697   0.635  0.00  0.00    +0.000 A 
BRANCH  52  54
ATOM     54  N   UNL     1       3.468  -2.133  -2.930  0.00  0.00    +0.000 N 
ATOM     55  H   UNL     1       2.834  -1.978  -3.703  0.00  0.00    +0.000 HD
ATOM     56  H   UNL     1       4.467  -2.146  -3.083  0.00  0.00    +0.000 HD
ENDBRANCH  52  54
ENDBRANCH  43  45
BRANCH  41  57
ATOM     57  O   UNL     1      -0.520  -0.807   2.612  0.00  0.00    +0.000 OA
ATOM     58  H   UNL     1       0.309  -0.644   2.132  0.00  0.00    +0.000 HD
ENDBRANCH  41  57
BRANCH  42  59
ATOM     59  O   UNL     1      -2.577  -2.340   3.512  0.00  0.00    +0.000 OA
ATOM     60  H   UNL     1      -3.446  -2.590   3.869  0.00  0.00    +0.000 HD
ENDBRANCH  42  59
ENDBRANCH  39  44
ENDBRANCH  38  39
ENDBRANCH  34  38
ENDBRANCH  33  34
ENDBRANCH   1  33
TORSDOF 21
