REMARK  Name = 440950
REMARK  18 active torsions:
REMARK  status: ('A' for Active; 'I' for Inactive)
REMARK    1  A    between atoms: O_2  and  C_17
REMARK    2  A    between atoms: O_2  and  C_23
REMARK    3  A    between atoms: O_3  and  C_21
REMARK    4  A    between atoms: O_3  and  C_22
REMARK    5  A    between atoms: O_6  and  C_18
REMARK    6  A    between atoms: O_7  and  C_19
REMARK    7  A    between atoms: O_8  and  C_24
REMARK    8  A    between atoms: O_9  and  C_26
REMARK    9  A    between atoms: O_10  and  C_27
REMARK   10  A    between atoms: O_11  and  C_28
REMARK   11  A    between atoms: O_12  and  C_29
REMARK   12  A    between atoms: O_13  and  C_31
REMARK   13  A    between atoms: O_14  and  C_32
REMARK   14  A    between atoms: O_15  and  C_33
REMARK   15  A    between atoms: O_16  and  C_34
REMARK   16  A    between atoms: C_20  and  C_31
REMARK   17  A    between atoms: C_25  and  C_33
REMARK   18  A    between atoms: C_30  and  C_34
REMARK                            x       y       z     vdW  Elec       q    Type
REMARK                         _______ _______ _______ _____ _____    ______ ____
ROOT
ATOM      1  O   UNL     1      -1.022   0.436   0.089  0.00  0.00    +0.000 OA
ATOM      2  C   UNL     1       1.293  -0.200   0.422  0.00  0.00    +0.000 C 
ATOM      3  C   UNL     1       0.880  -1.667   0.546  0.00  0.00    +0.000 C 
ATOM      4  C   UNL     1      -0.471  -1.919  -0.123  0.00  0.00    +0.000 C 
ATOM      5  C   UNL     1       0.151   0.724   0.852  0.00  0.00    +0.000 C 
ATOM      6  C   UNL     1      -1.509  -0.885   0.312  0.00  0.00    +0.000 C 
ENDROOT
BRANCH   3   7
ATOM      7  O   UNL     1       1.882  -2.463  -0.090  0.00  0.00    +0.000 OA
ATOM      8  H   UNL     1       1.922  -2.207  -1.027  0.00  0.00    +0.000 HD
ENDBRANCH   3   7
BRANCH   4   9
ATOM      9  O   UNL     1      -0.948  -3.213   0.246  0.00  0.00    +0.000 OA
ATOM     10  H   UNL     1      -1.053  -3.231   1.212  0.00  0.00    +0.000 HD
ENDBRANCH   4   9
BRANCH   2  11
ATOM     11  O   UNL     1       2.430   0.041   1.247  0.00  0.00    +0.000 OA
BRANCH  11  13
ATOM     12  O   UNL     1       3.886  -0.527  -0.485  0.00  0.00    +0.000 OA
ATOM     13  C   UNL     1       3.550   0.472   0.475  0.00  0.00    +0.000 C 
ATOM     14  C   UNL     1       4.718   0.710   1.431  0.00  0.00    +0.000 C 
ATOM     15  C   UNL     1       6.004   1.031   0.670  0.00  0.00    +0.000 C 
ATOM     16  C   UNL     1       6.246   0.026  -0.457  0.00  0.00    +0.000 C 
ATOM     17  C   UNL     1       4.988  -0.145  -1.311  0.00  0.00    +0.000 C 
BRANCH  14  18
ATOM     18  O   UNL     1       4.384   1.808   2.280  0.00  0.00    +0.000 OA
ATOM     19  H   UNL     1       4.244   2.591   1.721  0.00  0.00    +0.000 HD
ENDBRANCH  14  18
BRANCH  15  20
ATOM     20  O   UNL     1       7.116   0.967   1.565  0.00  0.00    +0.000 OA
ATOM     21  H   UNL     1       7.150   0.071   1.941  0.00  0.00    +0.000 HD
ENDBRANCH  15  20
BRANCH  16  22
ATOM     22  O   UNL     1       7.315   0.487  -1.279  0.00  0.00    +0.000 OA
ATOM     23  H   UNL     1       7.047   1.335  -1.672  0.00  0.00    +0.000 HD
ENDBRANCH  16  22
BRANCH  17  24
ATOM     24  C   UNL     1       5.167  -1.229  -2.370  0.00  0.00    +0.000 C 
BRANCH  24  25
ATOM     25  O   UNL     1       3.965  -1.338  -3.111  0.00  0.00    +0.000 OA
ATOM     26  H   UNL     1       4.099  -2.037  -3.774  0.00  0.00    +0.000 HD
ENDBRANCH  24  25
ENDBRANCH  17  24
ENDBRANCH  11  13
ENDBRANCH   2  11
BRANCH   6  27
ATOM     27  O   UNL     1      -2.692  -1.099  -0.457  0.00  0.00    +0.000 OA
BRANCH  27  29
ATOM     28  O   UNL     1      -5.999  -0.021   0.690  0.00  0.00    +0.000 OA
ATOM     29  C   UNL     1      -3.714  -0.170  -0.105  0.00  0.00    +0.000 C 
ATOM     30  C   UNL     1      -4.077   0.671  -1.329  0.00  0.00    +0.000 C 
ATOM     31  C   UNL     1      -4.936  -0.933   0.411  0.00  0.00    +0.000 C 
ATOM     32  C   UNL     1      -5.329   1.510  -1.073  0.00  0.00    +0.000 C 
ATOM     33  C   UNL     1      -6.453   0.662  -0.476  0.00  0.00    +0.000 C 
BRANCH  30  34
ATOM     34  O   UNL     1      -2.975   1.536  -1.613  0.00  0.00    +0.000 OA
ATOM     35  H   UNL     1      -2.837   2.113  -0.843  0.00  0.00    +0.000 HD
ENDBRANCH  30  34
BRANCH  32  36
ATOM     36  O   UNL     1      -5.790   2.061  -2.306  0.00  0.00    +0.000 OA
ATOM     37  H   UNL     1      -6.001   1.324  -2.905  0.00  0.00    +0.000 HD
ENDBRANCH  32  36
BRANCH  33  38
ATOM     38  O   UNL     1      -7.529   1.536  -0.135  0.00  0.00    +0.000 OA
ATOM     39  H   UNL     1      -8.340   1.001  -0.132  0.00  0.00    +0.000 HD
ENDBRANCH  33  38
BRANCH  31  40
ATOM     40  C   UNL     1      -4.628  -1.688   1.700  0.00  0.00    +0.000 C 
BRANCH  40  41
ATOM     41  O   UNL     1      -5.801  -2.358   2.122  0.00  0.00    +0.000 OA
ATOM     42  H   UNL     1      -5.583  -2.828   2.945  0.00  0.00    +0.000 HD
ENDBRANCH  40  41
ENDBRANCH  31  40
ENDBRANCH  27  29
ENDBRANCH   6  27
BRANCH   5  43
ATOM     43  C   UNL     1       0.498   2.192   0.627  0.00  0.00    +0.000 C 
BRANCH  43  44
ATOM     44  O   UNL     1      -0.603   2.983   1.035  0.00  0.00    +0.000 OA
ATOM     45  H   UNL     1      -0.364   3.912   0.877  0.00  0.00    +0.000 HD
ENDBRANCH  43  44
ENDBRANCH   5  43
TORSDOF 18
