REMARK  Name = 49867432
REMARK  21 active torsions:
REMARK  status: ('A' for Active; 'I' for Inactive)
REMARK    1  A    between atoms: P_1  and  O_6
REMARK    2  A    between atoms: P_1  and  O_13
REMARK    3  A    between atoms: P_1  and  O_14
REMARK    4  A    between atoms: P_2  and  O_10
REMARK    5  A    between atoms: P_2  and  O_12
REMARK    6  A    between atoms: P_2  and  O_16
REMARK    7  A    between atoms: P_3  and  O_11
REMARK    8  A    between atoms: P_3  and  O_12
REMARK    9  A    between atoms: P_3  and  O_17
REMARK   10  A    between atoms: O_6  and  C_29
REMARK   11  A    between atoms: O_7  and  C_30
REMARK   12  A    between atoms: O_8  and  C_33
REMARK   13  A    between atoms: O_9  and  C_34
REMARK   14  A    between atoms: O_10  and  C_37
REMARK   15  A    between atoms: O_11  and  C_38
REMARK   16  A    between atoms: N_22  and  C_31
REMARK   17  A    between atoms: N_23  and  C_35
REMARK   18  A    between atoms: N_27  and  C_47
REMARK   19  A    between atoms: C_32  and  C_37
REMARK   20  A    between atoms: C_36  and  C_38
REMARK   21  A    between atoms: C_43  and  C_48
REMARK                            x       y       z     vdW  Elec       q    Type
REMARK                         _______ _______ _______ _____ _____    ______ ____
ROOT
ATOM      1  P   UNL     1       3.930   1.939  -2.730  0.00  0.00    +0.000 P 
ATOM      2  O   UNL     1       4.421   1.690  -4.127  0.00  0.00    +0.000 OA
ENDROOT
BRANCH   1   3
ATOM      3  O   UNL     1       4.432   3.335  -2.085  0.00  0.00    +0.000 OA
ATOM      4  H   UNL     1       4.390   4.151  -2.628  0.00  0.00    +0.000 HD
ENDBRANCH   1   3
BRANCH   1   5
ATOM      5  O   UNL     1       4.364   0.816  -1.649  0.00  0.00    +0.000 OA
BRANCH   5   6
ATOM      6  C   UNL     1       3.960   0.940  -0.297  0.00  0.00    +0.000 C 
BRANCH   6  11
ATOM      7  O   UNL     1       4.042  -0.124   1.858  0.00  0.00    +0.000 OA
ATOM      8  C   UNL     1       2.718  -1.768   0.786  0.00  0.00    +0.000 C 
ATOM      9  C   UNL     1       3.991  -1.585  -0.015  0.00  0.00    +0.000 C 
ATOM     10  C   UNL     1       3.113  -1.191   2.142  0.00  0.00    +0.000 C 
ATOM     11  C   UNL     1       4.502  -0.243   0.494  0.00  0.00    +0.000 C 
BRANCH  10  12
ATOM     12  N   UNL     1       1.929  -0.696   2.939  0.00  0.00    +0.000 N 
ATOM     13  N   UNL     1       0.240  -0.718   4.394  0.00  0.00    +0.000 NA
ATOM     14  N   UNL     1       1.739   1.580   2.114  0.00  0.00    +0.000 NA
ATOM     15  N   UNL     1      -0.111   2.759   3.184  0.00  0.00    +0.000 NA
ATOM     16  C   UNL     1       1.365   0.546   2.882  0.00  0.00    +0.000 A 
ATOM     17  C   UNL     1       1.219  -1.419   3.861  0.00  0.00    +0.000 A 
ATOM     18  C   UNL     1       0.320   0.512   3.791  0.00  0.00    +0.000 A 
ATOM     19  C   UNL     1      -0.432   1.675   3.929  0.00  0.00    +0.000 A 
ATOM     20  C   UNL     1       0.939   2.646   2.335  0.00  0.00    +0.000 A 
BRANCH  19  21
ATOM     21  N   UNL     1      -1.510   1.730   4.829  0.00  0.00    +0.000 N 
ATOM     22  H   UNL     1      -2.043   2.585   4.910  0.00  0.00    +0.000 HD
ATOM     23  H   UNL     1      -1.753   0.921   5.386  0.00  0.00    +0.000 HD
ENDBRANCH  19  21
ENDBRANCH  10  12
BRANCH   9  24
ATOM     24  O   UNL     1       4.949  -2.583   0.338  0.00  0.00    +0.000 OA
ATOM     25  H   UNL     1       5.755  -2.408  -0.178  0.00  0.00    +0.000 HD
ENDBRANCH   9  24
BRANCH   8  26
ATOM     26  O   UNL     1       2.300  -3.116   0.860  0.00  0.00    +0.000 OA
BRANCH  26  27
ATOM     27  P   UNL     1       1.506  -3.752  -0.402  0.00  0.00    +0.000 P 
ATOM     28  O   UNL     1       2.268  -3.751  -1.694  0.00  0.00    +0.000 OA
BRANCH  27  29
ATOM     29  O   UNL     1       1.079  -5.216   0.137  0.00  0.00    +0.000 OA
ATOM     30  H   UNL     1       0.655  -5.845  -0.484  0.00  0.00    +0.000 HD
ENDBRANCH  27  29
BRANCH  27  31
ATOM     31  O   UNL     1       0.107  -2.941  -0.422  0.00  0.00    +0.000 OA
ATOM     32  H   UNL     1      -0.519  -3.096  -1.161  0.00  0.00    +0.000 HD
ENDBRANCH  27  31
ENDBRANCH  26  27
ENDBRANCH   8  26
ENDBRANCH   6  11
ENDBRANCH   5   6
ENDBRANCH   1   5
BRANCH   1  33
ATOM     33  O   UNL     1       2.321   2.028  -2.599  0.00  0.00    +0.000 OA
BRANCH  33  34
ATOM     34  P   UNL     1       1.167   0.949  -2.943  0.00  0.00    +0.000 P 
ATOM     35  O   UNL     1       1.264  -0.336  -2.174  0.00  0.00    +0.000 OA
BRANCH  34  36
ATOM     36  O   UNL     1       1.281   0.794  -4.549  0.00  0.00    +0.000 OA
ATOM     37  H   UNL     1       1.255   1.601  -5.106  0.00  0.00    +0.000 HD
ENDBRANCH  34  36
BRANCH  34  38
ATOM     38  O   UNL     1      -0.196   1.793  -2.730  0.00  0.00    +0.000 OA
BRANCH  38  39
ATOM     39  C   UNL     1      -0.519   2.239  -1.424  0.00  0.00    +0.000 C 
BRANCH  39  44
ATOM     40  O   UNL     1      -2.867   2.093  -1.920  0.00  0.00    +0.000 OA
ATOM     41  C   UNL     1      -3.046   2.333   0.434  0.00  0.00    +0.000 C 
ATOM     42  C   UNL     1      -2.289   3.521  -0.124  0.00  0.00    +0.000 C 
ATOM     43  C   UNL     1      -3.727   1.775  -0.810  0.00  0.00    +0.000 C 
ATOM     44  C   UNL     1      -1.835   3.002  -1.481  0.00  0.00    +0.000 C 
BRANCH  43  46
ATOM     45  O   UNL     1      -5.284  -3.462   0.229  0.00  0.00    +0.000 OA
ATOM     46  N   UNL     1      -4.016   0.350  -0.594  0.00  0.00    +0.000 N 
ATOM     47  C   UNL     1      -3.199  -0.608  -0.882  0.00  0.00    +0.000 C 
ATOM     48  C   UNL     1      -5.275   0.050  -0.018  0.00  0.00    +0.000 C 
ATOM     49  C   UNL     1      -3.538  -2.055  -0.646  0.00  0.00    +0.000 C 
ATOM     50  C   UNL     1      -5.743  -1.165   0.281  0.00  0.00    +0.000 C 
ATOM     51  C   UNL     1      -4.888  -2.325  -0.019  0.00  0.00    +0.000 C 
BRANCH  49  54
ATOM     52  O   UNL     1      -3.604  -2.391  -3.011  0.00  0.00    +0.000 OA
ATOM     53  N   UNL     1      -2.885  -4.128  -1.684  0.00  0.00    +0.000 N 
ATOM     54  C   UNL     1      -3.348  -2.851  -1.901  0.00  0.00    +0.000 C 
ATOM     55  H   UNL     1      -2.722  -4.762  -2.459  0.00  0.00    +0.000 HD
ATOM     56  H   UNL     1      -2.692  -4.487  -0.755  0.00  0.00    +0.000 HD
ENDBRANCH  49  54
ENDBRANCH  43  46
BRANCH  41  57
ATOM     57  O   UNL     1      -3.963   2.719   1.441  0.00  0.00    +0.000 OA
ATOM     58  H   UNL     1      -3.454   3.153   2.147  0.00  0.00    +0.000 HD
ENDBRANCH  41  57
BRANCH  42  59
ATOM     59  O   UNL     1      -3.190   4.610  -0.327  0.00  0.00    +0.000 OA
ATOM     60  H   UNL     1      -2.683   5.335  -0.730  0.00  0.00    +0.000 HD
ENDBRANCH  42  59
ENDBRANCH  39  44
ENDBRANCH  38  39
ENDBRANCH  34  38
ENDBRANCH  33  34
ENDBRANCH   1  33
TORSDOF 21
