REMARK  Name = 8629
REMARK  17 active torsions:
REMARK  status: ('A' for Active; 'I' for Inactive)
REMARK    1  A    between atoms: P_1  and  O_7
REMARK    2  A    between atoms: P_1  and  O_12
REMARK    3  A    between atoms: P_1  and  O_15
REMARK    4  A    between atoms: P_2  and  O_8
REMARK    5  A    between atoms: P_2  and  O_12
REMARK    6  A    between atoms: P_2  and  O_16
REMARK    7  A    between atoms: O_5  and  C_22
REMARK    8  A    between atoms: O_6  and  C_23
REMARK    9  A    between atoms: O_7  and  C_30
REMARK   10  A    between atoms: O_8  and  C_31
REMARK   11  A    between atoms: O_9  and  C_26
REMARK   12  A    between atoms: O_10  and  C_27
REMARK   13  A    between atoms: O_11  and  C_28
REMARK   14  A    between atoms: O_13  and  C_32
REMARK   15  A    between atoms: N_20  and  C_25
REMARK   16  A    between atoms: C_24  and  C_31
REMARK   17  A    between atoms: C_29  and  C_32
REMARK                            x       y       z     vdW  Elec       q    Type
REMARK                         _______ _______ _______ _____ _____    ______ ____
ROOT
ATOM      1  P   UNL     1      -0.768   3.418   0.696  0.00  0.00    +0.000 P 
ATOM      2  O   UNL     1      -1.898   2.893   1.532  0.00  0.00    +0.000 OA
ENDROOT
BRANCH   1   3
ATOM      3  O   UNL     1      -0.843   4.999   0.361  0.00  0.00    +0.000 OA
ATOM      4  H   UNL     1      -0.148   5.396  -0.206  0.00  0.00    +0.000 HD
ENDBRANCH   1   3
BRANCH   1   5
ATOM      5  O   UNL     1       0.714   3.222   1.315  0.00  0.00    +0.000 OA
BRANCH   5   6
ATOM      6  C   UNL     1       1.167   1.906   1.581  0.00  0.00    +0.000 C 
BRANCH   6  10
ATOM      7  O   UNL     1       3.116   0.502   1.644  0.00  0.00    +0.000 OA
ATOM      8  C   UNL     1       3.154   2.233   0.026  0.00  0.00    +0.000 C 
ATOM      9  C   UNL     1       3.092   0.901  -0.692  0.00  0.00    +0.000 C 
ATOM     10  C   UNL     1       2.681   1.862   1.426  0.00  0.00    +0.000 C 
ATOM     11  C   UNL     1       3.541  -0.063   0.393  0.00  0.00    +0.000 C 
BRANCH  11  14
ATOM     12  O   UNL     1       4.766  -2.223  -0.953  0.00  0.00    +0.000 OA
ATOM     13  O   UNL     1       1.195  -5.012  -0.110  0.00  0.00    +0.000 OA
ATOM     14  N   UNL     1       2.954  -1.365   0.246  0.00  0.00    +0.000 N 
ATOM     15  N   UNL     1       2.987  -3.610  -0.532  0.00  0.00    +0.000 N 
ATOM     16  C   UNL     1       3.652  -2.380  -0.449  0.00  0.00    +0.000 A 
ATOM     17  C   UNL     1       1.700  -1.625   0.788  0.00  0.00    +0.000 A 
ATOM     18  C   UNL     1       1.079  -2.803   0.699  0.00  0.00    +0.000 A 
ATOM     19  C   UNL     1       1.740  -3.917  -0.011  0.00  0.00    +0.000 A 
ATOM     20  H   UNL     1       3.470  -4.354  -1.028  0.00  0.00    +0.000 HD
ENDBRANCH  11  14
BRANCH   8  21
ATOM     21  O   UNL     1       4.505   2.681   0.123  0.00  0.00    +0.000 OA
ATOM     22  H   UNL     1       4.499   3.520   0.615  0.00  0.00    +0.000 HD
ENDBRANCH   8  21
BRANCH   9  23
ATOM     23  O   UNL     1       3.929   0.867  -1.830  0.00  0.00    +0.000 OA
ATOM     24  H   UNL     1       3.644   1.582  -2.424  0.00  0.00    +0.000 HD
ENDBRANCH   9  23
ENDBRANCH   6  10
ENDBRANCH   5   6
ENDBRANCH   1   5
BRANCH   1  25
ATOM     25  O   UNL     1      -0.643   2.742  -0.767  0.00  0.00    +0.000 OA
BRANCH  25  26
ATOM     26  P   UNL     1      -1.775   2.310  -1.837  0.00  0.00    +0.000 P 
ATOM     27  O   UNL     1      -2.639   3.443  -2.310  0.00  0.00    +0.000 OA
BRANCH  26  28
ATOM     28  O   UNL     1      -0.923   1.587  -3.007  0.00  0.00    +0.000 OA
ATOM     29  H   UNL     1      -0.456   2.143  -3.666  0.00  0.00    +0.000 HD
ENDBRANCH  26  28
BRANCH  26  30
ATOM     30  O   UNL     1      -2.580   1.110  -1.118  0.00  0.00    +0.000 OA
BRANCH  30  36
ATOM     31  O   UNL     1      -1.967  -0.149   0.794  0.00  0.00    +0.000 OA
ATOM     32  C   UNL     1      -3.689  -1.763  -0.869  0.00  0.00    +0.000 C 
ATOM     33  C   UNL     1      -3.799  -1.761   0.657  0.00  0.00    +0.000 C 
ATOM     34  C   UNL     1      -2.293  -1.325  -1.308  0.00  0.00    +0.000 C 
ATOM     35  C   UNL     1      -3.295  -0.437   1.247  0.00  0.00    +0.000 C 
ATOM     36  C   UNL     1      -1.869  -0.023  -0.626  0.00  0.00    +0.000 C 
BRANCH  32  37
ATOM     37  O   UNL     1      -3.929  -3.094  -1.334  0.00  0.00    +0.000 OA
ATOM     38  H   UNL     1      -3.247  -3.675  -0.957  0.00  0.00    +0.000 HD
ENDBRANCH  32  37
BRANCH  33  39
ATOM     39  O   UNL     1      -5.166  -1.969   1.001  0.00  0.00    +0.000 OA
ATOM     40  H   UNL     1      -5.677  -1.209   0.672  0.00  0.00    +0.000 HD
ENDBRANCH  33  39
BRANCH  34  41
ATOM     41  O   UNL     1      -2.270  -1.171  -2.723  0.00  0.00    +0.000 OA
ATOM     42  H   UNL     1      -1.375  -0.882  -2.971  0.00  0.00    +0.000 HD
ENDBRANCH  34  41
BRANCH  35  43
ATOM     43  C   UNL     1      -3.248  -0.472   2.773  0.00  0.00    +0.000 C 
BRANCH  43  44
ATOM     44  O   UNL     1      -2.379  -1.516   3.172  0.00  0.00    +0.000 OA
ATOM     45  H   UNL     1      -2.359  -1.516   4.145  0.00  0.00    +0.000 HD
ENDBRANCH  43  44
ENDBRANCH  35  43
ENDBRANCH  30  36
ENDBRANCH  26  30
ENDBRANCH  25  26
ENDBRANCH   1  25
TORSDOF 17
