REMARK  Name = 
REMARK  23 active torsions:
REMARK  status: ('A' for Active; 'I' for Inactive)
REMARK    1  A    between atoms: C_9  and  C_10
REMARK    2  A    between atoms: C_9  and  C_13
REMARK    3  A    between atoms: C_10  and  O_12
REMARK    4  A    between atoms: C_13  and  O_15
REMARK    5  A    between atoms: C_17  and  O_18
REMARK    6  A    between atoms: O_18  and  C_19
REMARK    7  A    between atoms: C_21  and  C_22
REMARK    8  A    between atoms: C_22  and  O_23
REMARK    9  A    between atoms: O_23  and  O_24
REMARK   10  A    between atoms: C_25  and  O_26
REMARK   11  A    between atoms: O_26  and  S_27
REMARK   12  A    between atoms: S_27  and  O_30
REMARK   13  A    between atoms: C_31  and  O_32
REMARK   14  A    between atoms: O_32  and  S_33
REMARK   15  A    between atoms: S_33  and  O_36
REMARK   16  A    between atoms: C_37  and  O_38
REMARK   17  A    between atoms: O_38  and  C_39
REMARK   18  A    between atoms: C_39  and  C_41
REMARK   19  A    between atoms: C_41  and  C_42
REMARK   20  A    between atoms: C_42  and  C_43
REMARK   21  A    between atoms: C_42  and  C_44
REMARK   22  A    between atoms: C_46  and  C_47
REMARK   23  A    between atoms: C_51  and  O_52
REMARK                            x       y       z     vdW  Elec       q    Type
REMARK                         _______ _______ _______ _____ _____    ______ ____
ROOT
ATOM      1  O   UNL     1      -0.164  -0.834   0.000  0.00  0.00    +0.000 OA
ENDROOT
BRANCH   1  12
ATOM      2  C   UNL     1      10.004  -2.500   0.000  0.00  0.00    +0.000 C 
ATOM      3  C   UNL     1       8.538  -2.181   0.000  0.00  0.00    +0.000 C 
ATOM      4  C   UNL     1       7.418  -3.179   0.000  0.00  0.00    +0.000 C 
ATOM      5  C   UNL     1       7.583  -1.688   0.000  0.00  0.00    +0.000 C 
ATOM      6  C   UNL     1       6.374  -0.800   0.000  0.00  0.00    +0.000 C 
ATOM      7  C   UNL     1       6.538   0.691   0.000  0.00  0.00    +0.000 C 
ATOM      8  C   UNL     1       5.329   1.579   0.000  0.00  0.00    +0.000 C 
ATOM      9  C   UNL     1       3.956   0.976   0.000  0.00  0.00    +0.000 C 
ATOM     10  C   UNL     1       2.747   1.863   0.000  0.00  0.00    +0.000 C 
ATOM     11  C   UNL     1       1.373   1.260   0.000  0.00  0.00    +0.000 C 
ATOM     12  C   UNL     1       1.209  -0.231   0.000  0.00  0.00    +0.000 C 
ATOM     13  C   UNL     1       2.418  -1.119   0.000  0.00  0.00    +0.000 C 
ATOM     14  C   UNL     1       3.791  -0.515   0.000  0.00  0.00    +0.000 C 
ATOM     15  C   UNL     1       3.627  -2.006   0.000  0.00  0.00    +0.000 C 
ATOM     16  C   UNL     1       5.000  -1.403   0.000  0.00  0.00    +0.000 C 
ATOM     17  C   UNL     1       4.836  -2.894   0.000  0.00  0.00    +0.000 C 
ATOM     18  C   UNL     1       6.045  -3.782   0.000  0.00  0.00    +0.000 C 
ATOM     19  C   UNL     1       7.935  -0.808   0.000  0.00  0.00    +0.000 C 
BRANCH  10  20
ATOM     20  C   UNL     1       1.914   3.111   0.000  0.00  0.00    +0.000 C 
ATOM     21  O   UNL     1       0.417   3.014   0.000  0.00  0.00    +0.000 OA
BRANCH  20  22
ATOM     22  O   UNL     1       2.410   4.527   0.000  0.00  0.00    +0.000 OA
ATOM     23  H   UNL     1       3.331   4.701   0.000  0.00  0.00    +0.000 HD
ENDBRANCH  20  22
ENDBRANCH  10  20
BRANCH  10  24
ATOM     24  C   UNL     1       3.831   2.900   0.000  0.00  0.00    +0.000 C 
ATOM     25  O   UNL     1       5.271   2.479   0.000  0.00  0.00    +0.000 OA
BRANCH  24  26
ATOM     26  O   UNL     1       3.656   4.389   0.000  0.00  0.00    +0.000 OA
ATOM     27  H   UNL     1       4.407   4.950   0.000  0.00  0.00    +0.000 HD
ENDBRANCH  24  26
ENDBRANCH  10  24
BRANCH  19  28
ATOM     28  O   UNL     1       8.692   0.487   0.000  0.00  0.00    +0.000 OA
ATOM     29  H   UNL     1       9.662   0.483   0.000  0.00  0.00    +0.000 HD
ENDBRANCH  19  28
ENDBRANCH   1  12
BRANCH   1  30
ATOM     30  C   UNL     1      -1.373   0.054   0.000  0.00  0.00    +0.000 C 
ATOM     31  O   UNL     1      -1.209   1.545   0.000  0.00  0.00    +0.000 OA
ATOM     32  C   UNL     1      -2.418   2.433   0.000  0.00  0.00    +0.000 C 
ATOM     33  C   UNL     1      -3.792   1.830   0.000  0.00  0.00    +0.000 C 
ATOM     34  C   UNL     1      -3.956   0.339   0.000  0.00  0.00    +0.000 C 
ATOM     35  C   UNL     1      -2.747  -0.549   0.000  0.00  0.00    +0.000 C 
BRANCH  32  36
ATOM     36  C   UNL     1      -2.254   3.924   0.000  0.00  0.00    +0.000 C 
BRANCH  36  37
ATOM     37  O   UNL     1      -3.463   4.812   0.000  0.00  0.00    +0.000 OA
BRANCH  37  38
ATOM     38  O   UNL     1      -3.298   6.303   0.000  0.00  0.00    +0.000 OA
ATOM     39  H   UNL     1      -2.410   6.693   0.000  0.00  0.00    +0.000 HD
ENDBRANCH  37  38
ENDBRANCH  36  37
ENDBRANCH  32  36
BRANCH  33  40
ATOM     40  O   UNL     1      -5.000   2.717   0.000  0.00  0.00    +0.000 OA
BRANCH  40  41
ATOM     41  S   UNL     1      -6.374   2.114   0.000  0.00  0.00    +0.000 S 
ATOM     42  O   UNL     1      -5.771   0.741   0.000  0.00  0.00    +0.000 OA
ATOM     43  O   UNL     1      -6.977   3.488   0.000  0.00  0.00    +0.000 OA
BRANCH  41  44
ATOM     44  O   UNL     1      -7.747   1.511   0.000  0.00  0.00    +0.000 OA
ATOM     45  H   UNL     1      -8.529   2.085   0.000  0.00  0.00    +0.000 HD
ENDBRANCH  41  44
ENDBRANCH  40  41
ENDBRANCH  33  40
BRANCH  34  46
ATOM     46  O   UNL     1      -5.329  -0.264   0.000  0.00  0.00    +0.000 OA
BRANCH  46  47
ATOM     47  S   UNL     1      -5.494  -1.755   0.000  0.00  0.00    +0.000 S 
ATOM     48  O   UNL     1      -4.746  -2.032   0.000  0.00  0.00    +0.000 OA
ATOM     49  O   UNL     1      -6.985  -1.591   0.000  0.00  0.00    +0.000 OA
BRANCH  47  50
ATOM     50  O   UNL     1      -5.658  -3.246   0.000  0.00  0.00    +0.000 OA
ATOM     51  H   UNL     1      -6.546  -3.636   0.000  0.00  0.00    +0.000 HD
ENDBRANCH  47  50
ENDBRANCH  46  47
ENDBRANCH  34  46
BRANCH  35  52
ATOM     52  O   UNL     1      -2.911  -2.040   0.000  0.00  0.00    +0.000 OA
BRANCH  52  53
ATOM     53  C   UNL     1      -4.285  -2.643   0.000  0.00  0.00    +0.000 C 
ATOM     54  O   UNL     1      -5.673  -2.074   0.000  0.00  0.00    +0.000 OA
BRANCH  53  55
ATOM     55  C   UNL     1      -4.449  -4.134   0.000  0.00  0.00    +0.000 C 
BRANCH  55  56
ATOM     56  C   UNL     1      -5.822  -4.737   0.000  0.00  0.00    +0.000 C 
ATOM     57  C   UNL     1      -5.987  -6.228   0.000  0.00  0.00    +0.000 C 
ATOM     58  C   UNL     1      -7.032  -3.849   0.000  0.00  0.00    +0.000 C 
ENDBRANCH  55  56
ENDBRANCH  53  55
ENDBRANCH  52  53
ENDBRANCH  35  52
ENDBRANCH   1  30
TORSDOF 20
