REMARK  Name = 6176
REMARK  14 active torsions:
REMARK  status: ('A' for Active; 'I' for Inactive)
REMARK    1  A    between atoms: P_1  and  O_7
REMARK    2  A    between atoms: P_1  and  O_9
REMARK    3  A    between atoms: P_1  and  O_10
REMARK    4  A    between atoms: P_2  and  O_9
REMARK    5  A    between atoms: P_2  and  O_12
REMARK    6  A    between atoms: P_2  and  O_13
REMARK    7  A    between atoms: P_3  and  O_12
REMARK    8  A    between atoms: P_3  and  O_15
REMARK    9  A    between atoms: P_3  and  O_16
REMARK   10  A    between atoms: O_5  and  C_21
REMARK   11  A    between atoms: O_6  and  C_22
REMARK   12  A    between atoms: O_7  and  C_25
REMARK   13  A    between atoms: N_18  and  C_24
REMARK   14  A    between atoms: C_23  and  C_25
REMARK                            x       y       z     vdW  Elec       q    Type
REMARK                         _______ _______ _______ _____ _____    ______ ____
ROOT
ATOM      1  O   UNL     1      -1.135   0.840  -0.974  0.00  0.00    +0.000 OA
ATOM      2  C   UNL     1      -0.463   2.297   0.769  0.00  0.00    +0.000 C 
ATOM      3  C   UNL     1      -1.894   1.870   1.021  0.00  0.00    +0.000 C 
ATOM      4  C   UNL     1       0.022   1.229  -0.202  0.00  0.00    +0.000 C 
ATOM      5  C   UNL     1      -2.317   1.364  -0.347  0.00  0.00    +0.000 C 
ENDROOT
BRANCH   5   7
ATOM      6  O   UNL     1      -5.104   1.748  -0.492  0.00  0.00    +0.000 OA
ATOM      7  N   UNL     1      -3.302   0.324  -0.266  0.00  0.00    +0.000 N 
ATOM      8  N   UNL     1      -5.585  -0.459  -0.263  0.00  0.00    +0.000 NA
ATOM      9  N   UNL     1      -6.071  -2.720  -0.025  0.00  0.00    +0.000 N 
ATOM     10  C   UNL     1      -2.876  -0.986  -0.102  0.00  0.00    +0.000 A 
ATOM     11  C   UNL     1      -4.691   0.595  -0.348  0.00  0.00    +0.000 A 
ATOM     12  C   UNL     1      -3.719  -2.013  -0.016  0.00  0.00    +0.000 A 
ATOM     13  C   UNL     1      -5.167  -1.687  -0.108  0.00  0.00    +0.000 A 
ATOM     14  H   UNL     1      -7.069  -2.545  -0.082  0.00  0.00    +0.000 HD
ATOM     15  H   UNL     1      -5.778  -3.684   0.096  0.00  0.00    +0.000 HD
ENDBRANCH   5   7
BRANCH   2  16
ATOM     16  O   UNL     1      -0.433   3.553   0.091  0.00  0.00    +0.000 OA
ATOM     17  H   UNL     1      -0.871   3.459  -0.771  0.00  0.00    +0.000 HD
ENDBRANCH   2  16
BRANCH   3  18
ATOM     18  O   UNL     1      -2.699   2.937   1.479  0.00  0.00    +0.000 OA
ATOM     19  H   UNL     1      -2.298   3.274   2.298  0.00  0.00    +0.000 HD
ENDBRANCH   3  18
BRANCH   4  20
ATOM     20  C   UNL     1       0.569  -0.011   0.492  0.00  0.00    +0.000 C 
BRANCH  20  21
ATOM     21  O   UNL     1       0.983  -0.945  -0.491  0.00  0.00    +0.000 OA
BRANCH  21  22
ATOM     22  P   UNL     1       1.610  -2.367  -0.041  0.00  0.00    +0.000 P 
ATOM     23  O   UNL     1       2.009  -3.267  -1.174  0.00  0.00    +0.000 OA
BRANCH  22  24
ATOM     24  O   UNL     1       0.502  -2.998   0.955  0.00  0.00    +0.000 OA
ATOM     25  H   UNL     1      -0.288  -3.433   0.570  0.00  0.00    +0.000 HD
ENDBRANCH  22  24
BRANCH  22  26
ATOM     26  O   UNL     1       2.822  -1.979   0.954  0.00  0.00    +0.000 OA
BRANCH  26  27
ATOM     27  P   UNL     1       4.220  -1.216   0.687  0.00  0.00    +0.000 P 
ATOM     28  O   UNL     1       5.096  -1.045   1.894  0.00  0.00    +0.000 OA
BRANCH  27  29
ATOM     29  O   UNL     1       4.891  -2.049  -0.525  0.00  0.00    +0.000 OA
ATOM     30  H   UNL     1       5.332  -2.902  -0.327  0.00  0.00    +0.000 HD
ENDBRANCH  27  29
BRANCH  27  31
ATOM     31  O   UNL     1       3.763   0.166  -0.014  0.00  0.00    +0.000 OA
BRANCH  31  32
ATOM     32  P   UNL     1       4.613   1.370  -0.678  0.00  0.00    +0.000 P 
ATOM     33  O   UNL     1       5.476   0.962  -1.835  0.00  0.00    +0.000 OA
BRANCH  32  34
ATOM     34  O   UNL     1       3.480   2.471  -1.020  0.00  0.00    +0.000 OA
ATOM     35  H   UNL     1       3.735   3.274  -1.523  0.00  0.00    +0.000 HD
ENDBRANCH  32  34
BRANCH  32  36
ATOM     36  O   UNL     1       5.400   2.016   0.577  0.00  0.00    +0.000 OA
ATOM     37  H   UNL     1       6.054   2.729   0.412  0.00  0.00    +0.000 HD
ENDBRANCH  32  36
ENDBRANCH  31  32
ENDBRANCH  27  31
ENDBRANCH  26  27
ENDBRANCH  22  26
ENDBRANCH  21  22
ENDBRANCH  20  21
ENDBRANCH   4  20
TORSDOF 14
