REMARK  Name = 5288428
REMARK  24 active torsions:
REMARK  status: ('A' for Active; 'I' for Inactive)
REMARK    1  A    between atoms: O_1  and  C_22
REMARK    2  A    between atoms: O_1  and  C_26
REMARK    3  A    between atoms: O_4  and  C_23
REMARK    4  A    between atoms: O_4  and  C_33
REMARK    5  A    between atoms: O_5  and  C_31
REMARK    6  A    between atoms: O_5  and  C_32
REMARK    7  A    between atoms: O_7  and  C_24
REMARK    8  A    between atoms: O_9  and  C_25
REMARK    9  A    between atoms: O_10  and  C_27
REMARK   10  A    between atoms: O_11  and  C_29
REMARK   11  A    between atoms: O_12  and  C_34
REMARK   12  A    between atoms: O_13  and  C_36
REMARK   13  A    between atoms: O_14  and  C_37
REMARK   14  A    between atoms: O_15  and  C_38
REMARK   15  A    between atoms: O_16  and  C_40
REMARK   16  A    between atoms: O_17  and  C_39
REMARK   17  A    between atoms: O_18  and  C_42
REMARK   18  A    between atoms: O_19  and  C_43
REMARK   19  A    between atoms: O_20  and  C_44
REMARK   20  A    between atoms: O_21  and  C_45
REMARK   21  A    between atoms: C_28  and  C_39
REMARK   22  A    between atoms: C_30  and  C_42
REMARK   23  A    between atoms: C_35  and  C_44
REMARK   24  A    between atoms: C_41  and  C_45
REMARK                            x       y       z     vdW  Elec       q    Type
REMARK                         _______ _______ _______ _____ _____    ______ ____
ROOT
ATOM      1  O   UNL     1       0.128  -1.015  -1.062  0.00  0.00    +0.000 OA
ENDROOT
BRANCH   1   5
ATOM      2  O   UNL     1      -1.441   0.035   0.308  0.00  0.00    +0.000 OA
ATOM      3  C   UNL     1      -3.763   0.319  -0.327  0.00  0.00    +0.000 C 
ATOM      4  C   UNL     1      -3.411   0.006  -1.782  0.00  0.00    +0.000 C 
ATOM      5  C   UNL     1      -1.004  -0.146  -1.037  0.00  0.00    +0.000 C 
ATOM      6  C   UNL     1      -2.108  -0.787  -1.877  0.00  0.00    +0.000 C 
ATOM      7  C   UNL     1      -2.561   0.917   0.406  0.00  0.00    +0.000 C 
BRANCH   4   8
ATOM      8  O   UNL     1      -4.478  -0.764  -2.339  0.00  0.00    +0.000 OA
ATOM      9  H   UNL     1      -4.554  -1.589  -1.831  0.00  0.00    +0.000 HD
ENDBRANCH   4   8
BRANCH   6  10
ATOM     10  O   UNL     1      -1.672  -0.821  -3.236  0.00  0.00    +0.000 OA
ATOM     11  H   UNL     1      -1.519   0.094  -3.527  0.00  0.00    +0.000 HD
ENDBRANCH   6  10
BRANCH   3  12
ATOM     12  O   UNL     1      -4.845   1.245  -0.293  0.00  0.00    +0.000 OA
BRANCH  12  14
ATOM     13  O   UNL     1      -6.410  -0.485  -0.311  0.00  0.00    +0.000 OA
ATOM     14  C   UNL     1      -5.982   0.692   0.370  0.00  0.00    +0.000 C 
ATOM     15  C   UNL     1      -7.089   1.746   0.366  0.00  0.00    +0.000 C 
ATOM     16  C   UNL     1      -8.395   1.183   0.924  0.00  0.00    +0.000 C 
ATOM     17  C   UNL     1      -8.738  -0.161   0.281  0.00  0.00    +0.000 C 
ATOM     18  C   UNL     1      -7.533  -1.104   0.319  0.00  0.00    +0.000 C 
BRANCH  15  19
ATOM     19  O   UNL     1      -6.663   2.844   1.172  0.00  0.00    +0.000 OA
ATOM     20  H   UNL     1      -6.516   2.516   2.075  0.00  0.00    +0.000 HD
ENDBRANCH  15  19
BRANCH  16  21
ATOM     21  O   UNL     1      -9.462   2.091   0.646  0.00  0.00    +0.000 OA
ATOM     22  H   UNL     1      -9.518   2.205  -0.318  0.00  0.00    +0.000 HD
ENDBRANCH  16  21
BRANCH  17  23
ATOM     23  O   UNL     1      -9.825  -0.757   0.985  0.00  0.00    +0.000 OA
ATOM     24  H   UNL     1      -9.538  -0.915   1.901  0.00  0.00    +0.000 HD
ENDBRANCH  17  23
BRANCH  18  25
ATOM     25  C   UNL     1      -7.814  -2.409  -0.421  0.00  0.00    +0.000 C 
BRANCH  25  26
ATOM     26  O   UNL     1      -6.657  -3.223  -0.354  0.00  0.00    +0.000 OA
ATOM     27  H   UNL     1      -6.856  -4.044  -0.836  0.00  0.00    +0.000 HD
ENDBRANCH  25  26
ENDBRANCH  18  25
ENDBRANCH  12  14
ENDBRANCH   3  12
BRANCH   7  28
ATOM     28  C   UNL     1      -2.851   1.129   1.888  0.00  0.00    +0.000 C 
BRANCH  28  29
ATOM     29  O   UNL     1      -1.696   1.673   2.501  0.00  0.00    +0.000 OA
ATOM     30  H   UNL     1      -1.901   1.794   3.443  0.00  0.00    +0.000 HD
ENDBRANCH  28  29
ENDBRANCH   7  28
ENDBRANCH   1   5
BRANCH   1  32
ATOM     31  O   UNL     1       3.534   0.182  -0.446  0.00  0.00    +0.000 OA
ATOM     32  C   UNL     1       1.208  -0.482  -0.299  0.00  0.00    +0.000 C 
ATOM     33  C   UNL     1       1.546  -1.445   0.839  0.00  0.00    +0.000 C 
ATOM     34  C   UNL     1       2.418  -0.273  -1.212  0.00  0.00    +0.000 C 
ATOM     35  C   UNL     1       2.847  -1.043   1.535  0.00  0.00    +0.000 C 
ATOM     36  C   UNL     1       3.960  -0.774   0.522  0.00  0.00    +0.000 C 
BRANCH  33  37
ATOM     37  O   UNL     1       0.473  -1.411   1.780  0.00  0.00    +0.000 OA
ATOM     38  H   UNL     1       0.399  -0.504   2.124  0.00  0.00    +0.000 HD
ENDBRANCH  33  37
BRANCH  35  39
ATOM     39  O   UNL     1       3.271  -2.101   2.394  0.00  0.00    +0.000 OA
ATOM     40  H   UNL     1       3.424  -2.890   1.848  0.00  0.00    +0.000 HD
ENDBRANCH  35  39
BRANCH  36  41
ATOM     41  O   UNL     1       5.089  -0.270   1.234  0.00  0.00    +0.000 OA
BRANCH  41  43
ATOM     42  O   UNL     1       8.504  -0.530  -0.066  0.00  0.00    +0.000 OA
ATOM     43  C   UNL     1       6.177   0.004   0.354  0.00  0.00    +0.000 C 
ATOM     44  C   UNL     1       6.522   1.491   0.424  0.00  0.00    +0.000 C 
ATOM     45  C   UNL     1       7.380  -0.853   0.755  0.00  0.00    +0.000 C 
ATOM     46  C   UNL     1       7.830   1.791  -0.309  0.00  0.00    +0.000 C 
ATOM     47  C   UNL     1       8.935   0.818   0.104  0.00  0.00    +0.000 C 
BRANCH  44  48
ATOM     48  O   UNL     1       5.457   2.222  -0.185  0.00  0.00    +0.000 OA
ATOM     49  H   UNL     1       5.388   1.940  -1.114  0.00  0.00    +0.000 HD
ENDBRANCH  44  48
BRANCH  46  50
ATOM     50  O   UNL     1       8.258   3.115   0.007  0.00  0.00    +0.000 OA
ATOM     51  H   UNL     1       8.398   3.165   0.968  0.00  0.00    +0.000 HD
ENDBRANCH  46  50
BRANCH  47  52
ATOM     52  O   UNL     1      10.072   1.069  -0.722  0.00  0.00    +0.000 OA
ATOM     53  H   UNL     1      10.852   0.757  -0.234  0.00  0.00    +0.000 HD
ENDBRANCH  47  52
BRANCH  45  54
ATOM     54  C   UNL     1       7.096  -2.342   0.580  0.00  0.00    +0.000 C 
BRANCH  54  55
ATOM     55  O   UNL     1       8.251  -3.068   0.958  0.00  0.00    +0.000 OA
ATOM     56  H   UNL     1       8.050  -4.012   0.836  0.00  0.00    +0.000 HD
ENDBRANCH  54  55
ENDBRANCH  45  54
ENDBRANCH  41  43
ENDBRANCH  36  41
BRANCH  34  57
ATOM     57  C   UNL     1       2.141   0.773  -2.288  0.00  0.00    +0.000 C 
BRANCH  57  58
ATOM     58  O   UNL     1       3.303   0.920  -3.083  0.00  0.00    +0.000 OA
ATOM     59  H   UNL     1       3.106   1.594  -3.756  0.00  0.00    +0.000 HD
ENDBRANCH  57  58
ENDBRANCH  34  57
ENDBRANCH   1  32
TORSDOF 24
