REMARK  Name = 445555
REMARK  12 active torsions:
REMARK  status: ('A' for Active; 'I' for Inactive)
REMARK    1  A    between atoms: P_1  and  O_6
REMARK    2  A    between atoms: P_1  and  O_8
REMARK    3  A    between atoms: P_1  and  O_9
REMARK    4  A    between atoms: P_2  and  O_7
REMARK    5  A    between atoms: P_2  and  O_10
REMARK    6  A    between atoms: P_2  and  O_11
REMARK    7  A    between atoms: O_4  and  C_14
REMARK    8  A    between atoms: O_5  and  C_15
REMARK    9  A    between atoms: O_6  and  C_18
REMARK   10  A    between atoms: O_7  and  C_19
REMARK   11  A    between atoms: C_16  and  C_18
REMARK   12  A    between atoms: C_17  and  C_19
REMARK                            x       y       z     vdW  Elec       q    Type
REMARK                         _______ _______ _______ _____ _____    ______ ____
ROOT
ATOM      1  O   UNL     1       0.362  -0.546   1.121  0.00  0.00    +0.000 OA
ATOM      2  C   UNL     1       0.569  -2.418  -0.350  0.00  0.00    +0.000 C 
ATOM      3  C   UNL     1      -0.761  -1.733  -0.590  0.00  0.00    +0.000 C 
ATOM      4  C   UNL     1       1.336  -1.424   0.522  0.00  0.00    +0.000 C 
ATOM      5  C   UNL     1      -0.953  -0.941   0.698  0.00  0.00    +0.000 C 
ENDROOT
BRANCH   2   6
ATOM      6  O   UNL     1       0.362  -3.630   0.372  0.00  0.00    +0.000 OA
ATOM      7  H   UNL     1       1.237  -4.018   0.545  0.00  0.00    +0.000 HD
ENDBRANCH   2   6
BRANCH   3   8
ATOM      8  O   UNL     1      -0.657  -0.860  -1.707  0.00  0.00    +0.000 OA
ATOM      9  H   UNL     1      -0.482  -1.408  -2.490  0.00  0.00    +0.000 HD
ENDBRANCH   3   8
BRANCH   4  10
ATOM     10  C   UNL     1       2.308  -0.561  -0.270  0.00  0.00    +0.000 C 
BRANCH  10  11
ATOM     11  O   UNL     1       2.957   0.329   0.622  0.00  0.00    +0.000 OA
BRANCH  11  12
ATOM     12  P   UNL     1       4.050   1.363   0.023  0.00  0.00    +0.000 P 
ATOM     13  O   UNL     1       4.688   2.268   1.036  0.00  0.00    +0.000 OA
BRANCH  12  14
ATOM     14  O   UNL     1       3.256   2.111  -1.170  0.00  0.00    +0.000 OA
ATOM     15  H   UNL     1       3.699   2.845  -1.648  0.00  0.00    +0.000 HD
ENDBRANCH  12  14
BRANCH  12  16
ATOM     16  O   UNL     1       5.074   0.390  -0.764  0.00  0.00    +0.000 OA
ATOM     17  H   UNL     1       5.892   0.772  -1.147  0.00  0.00    +0.000 HD
ENDBRANCH  12  16
ENDBRANCH  11  12
ENDBRANCH  10  11
ENDBRANCH   4  10
BRANCH   5  18
ATOM     18  C   UNL     1      -1.832   0.291   0.582  0.00  0.00    +0.000 C 
BRANCH  18  19
ATOM     19  O   UNL     1      -3.120  -0.105   0.140  0.00  0.00    +0.000 OA
BRANCH  19  20
ATOM     20  P   UNL     1      -4.250   1.036  -0.064  0.00  0.00    +0.000 P 
ATOM     21  O   UNL     1      -5.583   0.532  -0.534  0.00  0.00    +0.000 OA
BRANCH  20  22
ATOM     22  O   UNL     1      -3.536   2.113  -1.037  0.00  0.00    +0.000 OA
ATOM     23  H   UNL     1      -4.058   2.878  -1.361  0.00  0.00    +0.000 HD
ENDBRANCH  20  22
BRANCH  20  24
ATOM     24  O   UNL     1      -4.268   1.784   1.369  0.00  0.00    +0.000 OA
ATOM     25  H   UNL     1      -4.947   2.472   1.537  0.00  0.00    +0.000 HD
ENDBRANCH  20  24
ENDBRANCH  19  20
ENDBRANCH  18  19
ENDBRANCH   5  18
TORSDOF 12
