REMARK  Name = 444825
REMARK  10 active torsions:
REMARK  status: ('A' for Active; 'I' for Inactive)
REMARK    1  A    between atoms: P_1  and  O_8
REMARK    2  A    between atoms: P_2  and  O_7
REMARK    3  A    between atoms: P_2  and  O_10
REMARK    4  A    between atoms: P_2  and  O_11
REMARK    5  A    between atoms: P_3  and  O_10
REMARK    6  A    between atoms: P_3  and  O_14
REMARK    7  A    between atoms: P_3  and  O_15
REMARK    8  A    between atoms: O_7  and  C_26
REMARK    9  A    between atoms: N_17  and  C_24
REMARK   10  A    between atoms: C_25  and  C_26
REMARK                            x       y       z     vdW  Elec       q    Type
REMARK                         _______ _______ _______ _____ _____    ______ ____
ROOT
ATOM      1  P   UNL     1       0.214   4.423  -0.371  0.00  0.00    +0.000 P 
ATOM      2  O   UNL     1      -0.495   0.488   0.788  0.00  0.00    +0.000 OA
ATOM      3  O   UNL     1       1.091   3.246   0.328  0.00  0.00    +0.000 OA
ATOM      4  O   UNL     1      -0.843   3.466  -1.152  0.00  0.00    +0.000 OA
ATOM      5  O   UNL     1      -0.361   5.461   0.542  0.00  0.00    +0.000 OA
ATOM      6  C   UNL     1       0.903   2.025  -0.404  0.00  0.00    +0.000 C 
ATOM      7  C   UNL     1      -0.521   2.095  -0.931  0.00  0.00    +0.000 C 
ATOM      8  C   UNL     1       0.883   0.837   0.548  0.00  0.00    +0.000 C 
ATOM      9  C   UNL     1      -1.326   1.509   0.216  0.00  0.00    +0.000 C 
ENDROOT
BRANCH   8  11
ATOM     10  O   UNL     1       4.574  -3.557  -1.034  0.00  0.00    +0.000 OA
ATOM     11  N   UNL     1       1.584  -0.337   0.028  0.00  0.00    +0.000 N 
ATOM     12  N   UNL     1       1.931  -2.250  -1.094  0.00  0.00    +0.000 NA
ATOM     13  N   UNL     1       3.821  -0.097   0.951  0.00  0.00    +0.000 N 
ATOM     14  N   UNL     1       5.341  -1.851   0.334  0.00  0.00    +0.000 NA
ATOM     15  N   UNL     1       6.001  -0.062   1.719  0.00  0.00    +0.000 N 
ATOM     16  C   UNL     1       2.871  -0.701   0.233  0.00  0.00    +0.000 A 
ATOM     17  C   UNL     1       1.052  -1.312  -0.786  0.00  0.00    +0.000 A 
ATOM     18  C   UNL     1       3.074  -1.864  -0.452  0.00  0.00    +0.000 A 
ATOM     19  C   UNL     1       4.370  -2.513  -0.428  0.00  0.00    +0.000 A 
ATOM     20  C   UNL     1       5.064  -0.727   0.969  0.00  0.00    +0.000 A 
ATOM     21  H   UNL     1       3.675   0.770   1.458  0.00  0.00    +0.000 HD
ATOM     22  H   UNL     1       5.776   0.801   2.203  0.00  0.00    +0.000 HD
ATOM     23  H   UNL     1       6.946  -0.417   1.813  0.00  0.00    +0.000 HD
ENDBRANCH   8  11
BRANCH   1  24
ATOM     24  O   UNL     1       1.177   4.962  -1.552  0.00  0.00    +0.000 OA
ATOM     25  H   UNL     1       1.971   5.486  -1.315  0.00  0.00    +0.000 HD
ENDBRANCH   1  24
BRANCH   9  26
ATOM     26  C   UNL     1      -2.647   0.907  -0.227  0.00  0.00    +0.000 C 
BRANCH  26  27
ATOM     27  O   UNL     1      -3.310   0.381   0.910  0.00  0.00    +0.000 OA
BRANCH  27  28
ATOM     28  P   UNL     1      -4.754  -0.330   0.746  0.00  0.00    +0.000 P 
ATOM     29  O   UNL     1      -5.350  -0.844   2.025  0.00  0.00    +0.000 OA
BRANCH  28  30
ATOM     30  O   UNL     1      -5.662   0.769  -0.018  0.00  0.00    +0.000 OA
ATOM     31  H   UNL     1      -6.054   1.504   0.501  0.00  0.00    +0.000 HD
ENDBRANCH  28  30
BRANCH  28  32
ATOM     32  O   UNL     1      -4.522  -1.466  -0.380  0.00  0.00    +0.000 OA
BRANCH  32  33
ATOM     33  P   UNL     1      -3.627  -2.812  -0.361  0.00  0.00    +0.000 P 
ATOM     34  O   UNL     1      -2.161  -2.585  -0.139  0.00  0.00    +0.000 OA
BRANCH  33  35
ATOM     35  O   UNL     1      -4.010  -3.527  -1.758  0.00  0.00    +0.000 OA
ATOM     36  H   UNL     1      -3.526  -4.337  -2.026  0.00  0.00    +0.000 HD
ENDBRANCH  33  35
BRANCH  33  37
ATOM     37  O   UNL     1      -4.360  -3.732   0.748  0.00  0.00    +0.000 OA
ATOM     38  H   UNL     1      -3.950  -4.586   1.003  0.00  0.00    +0.000 HD
ENDBRANCH  33  37
ENDBRANCH  32  33
ENDBRANCH  28  32
ENDBRANCH  27  28
ENDBRANCH  26  27
ENDBRANCH   9  26
TORSDOF 10
