REMARK  Name = 444215
REMARK  18 active torsions:
REMARK  status: ('A' for Active; 'I' for Inactive)
REMARK    1  A    between atoms: P_1  and  O_9
REMARK    2  A    between atoms: P_1  and  O_11
REMARK    3  A    between atoms: P_1  and  O_12
REMARK    4  A    between atoms: P_2  and  O_10
REMARK    5  A    between atoms: P_2  and  O_11
REMARK    6  A    between atoms: P_2  and  O_13
REMARK    7  A    between atoms: O_5  and  C_24
REMARK    8  A    between atoms: O_6  and  C_25
REMARK    9  A    between atoms: O_7  and  C_28
REMARK   10  A    between atoms: O_8  and  C_29
REMARK   11  A    between atoms: O_9  and  C_32
REMARK   12  A    between atoms: O_10  and  C_33
REMARK   13  A    between atoms: N_17  and  C_27
REMARK   14  A    between atoms: N_22  and  C_41
REMARK   15  A    between atoms: C_26  and  C_32
REMARK   16  A    between atoms: C_30  and  C_33
REMARK   17  A    between atoms: C_31  and  C_34
REMARK   18  A    between atoms: C_40  and  C_44
REMARK                            x       y       z     vdW  Elec       q    Type
REMARK                         _______ _______ _______ _____ _____    ______ ____
ROOT
ATOM      1  P   UNL     1      -3.583  -1.828  -1.180  0.00  0.00    +0.000 P 
ATOM      2  O   UNL     1      -2.804  -0.681  -1.754  0.00  0.00    +0.000 OA
ENDROOT
BRANCH   1   3
ATOM      3  O   UNL     1      -4.645  -2.507  -2.192  0.00  0.00    +0.000 OA
ATOM      4  H   UNL     1      -5.207  -3.243  -1.867  0.00  0.00    +0.000 HD
ENDBRANCH   1   3
BRANCH   1   5
ATOM      5  O   UNL     1      -2.703  -3.076  -0.645  0.00  0.00    +0.000 OA
BRANCH   5   6
ATOM      6  C   UNL     1      -1.763  -2.846   0.390  0.00  0.00    +0.000 C 
BRANCH   6  10
ATOM      7  O   UNL     1       0.305  -3.300  -0.757  0.00  0.00    +0.000 OA
ATOM      8  C   UNL     1       0.203  -3.995   1.517  0.00  0.00    +0.000 C 
ATOM      9  C   UNL     1       1.263  -2.921   1.375  0.00  0.00    +0.000 C 
ATOM     10  C   UNL     1      -0.607  -3.825   0.235  0.00  0.00    +0.000 C 
ATOM     11  C   UNL     1       1.555  -2.979  -0.117  0.00  0.00    +0.000 C 
BRANCH  11  12
ATOM     12  N   UNL     1       2.087  -1.735  -0.668  0.00  0.00    +0.000 N 
ATOM     13  N   UNL     1       2.108   0.309  -1.558  0.00  0.00    +0.000 NA
ATOM     14  N   UNL     1       4.475  -2.155  -0.530  0.00  0.00    +0.000 NA
ATOM     15  N   UNL     1       5.758  -0.260  -1.377  0.00  0.00    +0.000 NA
ATOM     16  C   UNL     1       3.403  -1.409  -0.834  0.00  0.00    +0.000 A 
ATOM     17  C   UNL     1       1.349  -0.672  -1.118  0.00  0.00    +0.000 A 
ATOM     18  C   UNL     1       3.394  -0.138  -1.387  0.00  0.00    +0.000 A 
ATOM     19  C   UNL     1       4.631   0.437  -1.659  0.00  0.00    +0.000 A 
ATOM     20  C   UNL     1       5.613  -1.494  -0.838  0.00  0.00    +0.000 A 
BRANCH  19  21
ATOM     21  N   UNL     1       4.717   1.724  -2.219  0.00  0.00    +0.000 N 
ATOM     22  H   UNL     1       3.877   2.248  -2.424  0.00  0.00    +0.000 HD
ATOM     23  H   UNL     1       5.628   2.122  -2.404  0.00  0.00    +0.000 HD
ENDBRANCH  19  21
ENDBRANCH  11  12
BRANCH   8  24
ATOM     24  O   UNL     1       0.823  -5.281   1.502  0.00  0.00    +0.000 OA
ATOM     25  H   UNL     1       0.114  -5.945   1.551  0.00  0.00    +0.000 HD
ENDBRANCH   8  24
BRANCH   9  26
ATOM     26  O   UNL     1       2.418  -3.178   2.148  0.00  0.00    +0.000 OA
ATOM     27  H   UNL     1       2.138  -3.239   3.077  0.00  0.00    +0.000 HD
ENDBRANCH   9  26
ENDBRANCH   6  10
ENDBRANCH   5   6
ENDBRANCH   1   5
BRANCH   1  28
ATOM     28  O   UNL     1      -4.492  -1.449   0.101  0.00  0.00    +0.000 OA
BRANCH  28  29
ATOM     29  P   UNL     1      -5.707  -0.394   0.266  0.00  0.00    +0.000 P 
ATOM     30  O   UNL     1      -6.881  -0.663  -0.631  0.00  0.00    +0.000 OA
BRANCH  29  31
ATOM     31  O   UNL     1      -6.045  -0.462   1.846  0.00  0.00    +0.000 OA
ATOM     32  H   UNL     1      -6.589  -1.205   2.183  0.00  0.00    +0.000 HD
ENDBRANCH  29  31
BRANCH  29  33
ATOM     33  O   UNL     1      -5.016   1.055   0.062  0.00  0.00    +0.000 OA
BRANCH  33  34
ATOM     34  C   UNL     1      -3.899   1.425   0.851  0.00  0.00    +0.000 C 
BRANCH  34  38
ATOM     35  O   UNL     1      -2.285   3.167   1.234  0.00  0.00    +0.000 OA
ATOM     36  C   UNL     1      -3.038   2.929  -1.006  0.00  0.00    +0.000 C 
ATOM     37  C   UNL     1      -1.561   2.591  -0.948  0.00  0.00    +0.000 C 
ATOM     38  C   UNL     1      -3.454   2.826   0.456  0.00  0.00    +0.000 C 
ATOM     39  C   UNL     1      -1.133   3.230   0.368  0.00  0.00    +0.000 C 
BRANCH  39  41
ATOM     40  N   UNL     1       0.944   0.810   2.417  0.00  0.00    +0.000 NA
ATOM     41  C   UNL     1       0.067   2.553   0.990  0.00  0.00    +0.000 A 
ATOM     42  C   UNL     1       1.357   3.005   0.737  0.00  0.00    +0.000 A 
ATOM     43  C   UNL     1      -0.085   1.461   1.830  0.00  0.00    +0.000 A 
ATOM     44  C   UNL     1       2.441   2.361   1.322  0.00  0.00    +0.000 A 
ATOM     45  C   UNL     1       2.183   1.278   2.148  0.00  0.00    +0.000 A 
BRANCH  44  48
ATOM     46  O   UNL     1       4.041   3.790   0.351  0.00  0.00    +0.000 OA
ATOM     47  N   UNL     1       4.835   2.114   1.699  0.00  0.00    +0.000 N 
ATOM     48  C   UNL     1       3.801   2.809   1.077  0.00  0.00    +0.000 C 
ATOM     49  H   UNL     1       5.795   2.409   1.550  0.00  0.00    +0.000 HD
ATOM     50  H   UNL     1       4.724   1.310   2.304  0.00  0.00    +0.000 HD
ENDBRANCH  44  48
ENDBRANCH  39  41
BRANCH  36  51
ATOM     51  O   UNL     1      -3.235   4.268  -1.460  0.00  0.00    +0.000 OA
ATOM     52  H   UNL     1      -4.192   4.442  -1.441  0.00  0.00    +0.000 HD
ENDBRANCH  36  51
BRANCH  37  53
ATOM     53  O   UNL     1      -0.837   3.107  -2.047  0.00  0.00    +0.000 OA
ATOM     54  H   UNL     1      -1.231   2.736  -2.855  0.00  0.00    +0.000 HD
ENDBRANCH  37  53
ENDBRANCH  34  38
ENDBRANCH  33  34
ENDBRANCH  29  33
ENDBRANCH  28  29
ENDBRANCH   1  28
TORSDOF 18
