REMARK  Name = 449144
REMARK  15 active torsions:
REMARK  status: ('A' for Active; 'I' for Inactive)
REMARK    1  A    between atoms: P_1  and  O_6
REMARK    2  A    between atoms: P_1  and  O_12
REMARK    3  A    between atoms: P_1  and  O_14
REMARK    4  A    between atoms: P_2  and  O_8
REMARK    5  A    between atoms: P_2  and  O_12
REMARK    6  A    between atoms: P_2  and  O_16
REMARK    7  A    between atoms: O_4  and  C_21
REMARK    8  A    between atoms: O_5  and  C_22
REMARK    9  A    between atoms: O_6  and  C_25
REMARK   10  A    between atoms: O_8  and  C_29
REMARK   11  A    between atoms: O_9  and  C_26
REMARK   12  A    between atoms: O_10  and  C_27
REMARK   13  A    between atoms: O_11  and  C_28
REMARK   14  A    between atoms: N_18  and  C_24
REMARK   15  A    between atoms: C_23  and  C_25
REMARK                            x       y       z     vdW  Elec       q    Type
REMARK                         _______ _______ _______ _____ _____    ______ ____
ROOT
ATOM      1  P   UNL     1       0.856  -3.396   0.708  0.00  0.00    +0.000 P 
ATOM      2  O   UNL     1       1.026  -4.250   1.931  0.00  0.00    +0.000 OA
ENDROOT
BRANCH   1   3
ATOM      3  O   UNL     1       1.602  -3.947  -0.618  0.00  0.00    +0.000 OA
ATOM      4  H   UNL     1       1.640  -3.387  -1.421  0.00  0.00    +0.000 HD
ENDBRANCH   1   3
BRANCH   1   5
ATOM      5  O   UNL     1      -0.669  -3.156   0.226  0.00  0.00    +0.000 OA
BRANCH   5   6
ATOM      6  C   UNL     1      -0.897  -2.359  -0.923  0.00  0.00    +0.000 C 
BRANCH   6  10
ATOM      7  O   UNL     1      -3.011  -1.625  -0.047  0.00  0.00    +0.000 OA
ATOM      8  C   UNL     1      -2.752  -1.428  -2.393  0.00  0.00    +0.000 C 
ATOM      9  C   UNL     1      -2.830  -0.038  -1.797  0.00  0.00    +0.000 C 
ATOM     10  C   UNL     1      -2.396  -2.276  -1.180  0.00  0.00    +0.000 C 
ATOM     11  C   UNL     1      -3.447  -0.313  -0.437  0.00  0.00    +0.000 C 
BRANCH  11  13
ATOM     12  O   UNL     1      -4.840   2.031   0.272  0.00  0.00    +0.000 OA
ATOM     13  N   UNL     1      -3.026   0.633   0.557  0.00  0.00    +0.000 N 
ATOM     14  N   UNL     1      -3.316   2.661   1.832  0.00  0.00    +0.000 NA
ATOM     15  N   UNL     1      -1.750   3.303   3.427  0.00  0.00    +0.000 N 
ATOM     16  C   UNL     1      -1.841   0.400   1.238  0.00  0.00    +0.000 A 
ATOM     17  C   UNL     1      -3.784   1.793   0.860  0.00  0.00    +0.000 A 
ATOM     18  C   UNL     1      -1.375   1.224   2.175  0.00  0.00    +0.000 A 
ATOM     19  C   UNL     1      -2.197   2.427   2.465  0.00  0.00    +0.000 A 
ATOM     20  H   UNL     1      -0.886   3.149   3.935  0.00  0.00    +0.000 HD
ATOM     21  H   UNL     1      -2.279   4.137   3.657  0.00  0.00    +0.000 HD
ENDBRANCH  11  13
BRANCH   8  22
ATOM     22  O   UNL     1      -4.038  -1.840  -2.856  0.00  0.00    +0.000 OA
ATOM     23  H   UNL     1      -3.948  -2.748  -3.193  0.00  0.00    +0.000 HD
ENDBRANCH   8  22
BRANCH   9  24
ATOM     24  O   UNL     1      -3.611   0.839  -2.582  0.00  0.00    +0.000 OA
ATOM     25  H   UNL     1      -3.685   1.678  -2.095  0.00  0.00    +0.000 HD
ENDBRANCH   9  24
ENDBRANCH   6  10
ENDBRANCH   5   6
ENDBRANCH   1   5
BRANCH   1  26
ATOM     26  O   UNL     1       1.434  -1.893   0.852  0.00  0.00    +0.000 OA
BRANCH  26  27
ATOM     27  P   UNL     1       2.778  -1.335   1.555  0.00  0.00    +0.000 P 
ATOM     28  O   UNL     1       2.680  -1.198   3.047  0.00  0.00    +0.000 OA
BRANCH  27  29
ATOM     29  O   UNL     1       3.916  -2.370   1.053  0.00  0.00    +0.000 OA
ATOM     30  H   UNL     1       3.995  -3.240   1.499  0.00  0.00    +0.000 HD
ENDBRANCH  27  29
BRANCH  27  31
ATOM     31  O   UNL     1       3.107   0.040   0.778  0.00  0.00    +0.000 OA
BRANCH  31  36
ATOM     32  O   UNL     1       1.958   0.194  -1.290  0.00  0.00    +0.000 OA
ATOM     33  C   UNL     1       3.676   2.506  -1.003  0.00  0.00    +0.000 C 
ATOM     34  C   UNL     1       4.219   1.084  -1.151  0.00  0.00    +0.000 C 
ATOM     35  C   UNL     1       2.266   2.598  -1.588  0.00  0.00    +0.000 C 
ATOM     36  C   UNL     1       3.224   0.038  -0.644  0.00  0.00    +0.000 C 
ATOM     37  C   UNL     1       1.377   1.476  -1.063  0.00  0.00    +0.000 C 
BRANCH  33  38
ATOM     38  O   UNL     1       4.544   3.387  -1.718  0.00  0.00    +0.000 OA
ATOM     39  H   UNL     1       4.532   3.131  -2.656  0.00  0.00    +0.000 HD
ENDBRANCH  33  38
BRANCH  34  40
ATOM     40  O   UNL     1       5.448   0.948  -0.447  0.00  0.00    +0.000 OA
ATOM     41  H   UNL     1       5.760   0.036  -0.574  0.00  0.00    +0.000 HD
ENDBRANCH  34  40
BRANCH  35  42
ATOM     42  O   UNL     1       1.669   3.842  -1.239  0.00  0.00    +0.000 OA
ATOM     43  H   UNL     1       0.784   3.867  -1.642  0.00  0.00    +0.000 HD
ENDBRANCH  35  42
ENDBRANCH  31  36
ENDBRANCH  27  31
ENDBRANCH  26  27
ENDBRANCH   1  26
TORSDOF 15
