REMARK  Name = 439444
REMARK  12 active torsions:
REMARK  status: ('A' for Active; 'I' for Inactive)
REMARK    1  A    between atoms: P_1  and  O_3
REMARK    2  A    between atoms: P_1  and  O_9
REMARK    3  A    between atoms: P_1  and  O_10
REMARK    4  A    between atoms: P_2  and  O_4
REMARK    5  A    between atoms: P_2  and  O_11
REMARK    6  A    between atoms: P_2  and  O_12
REMARK    7  A    between atoms: O_3  and  C_15
REMARK    8  A    between atoms: O_4  and  C_16
REMARK    9  A    between atoms: O_5  and  C_17
REMARK   10  A    between atoms: O_6  and  C_18
REMARK   11  A    between atoms: O_7  and  C_19
REMARK   12  A    between atoms: O_8  and  C_20
REMARK                            x       y       z     vdW  Elec       q    Type
REMARK                         _______ _______ _______ _____ _____    ______ ____
ROOT
ATOM      1  C   UNL     1       1.239  -0.478  -0.759  0.00  0.00    +0.000 C 
ATOM      2  C   UNL     1      -1.124   0.359   0.871  0.00  0.00    +0.000 C 
ATOM      3  C   UNL     1       0.855   1.002  -0.622  0.00  0.00    +0.000 C 
ATOM      4  C   UNL     1       0.050  -1.431  -0.541  0.00  0.00    +0.000 C 
ATOM      5  C   UNL     1       0.105   1.261   0.692  0.00  0.00    +0.000 C 
ATOM      6  C   UNL     1      -0.752  -1.125   0.739  0.00  0.00    +0.000 C 
ENDROOT
BRANCH   3   7
ATOM      7  O   UNL     1       0.055   1.379  -1.740  0.00  0.00    +0.000 OA
ATOM      8  H   UNL     1      -0.753   0.839  -1.735  0.00  0.00    +0.000 HD
ENDBRANCH   3   7
BRANCH   4   9
ATOM      9  O   UNL     1      -0.809  -1.359  -1.677  0.00  0.00    +0.000 OA
ATOM     10  H   UNL     1      -1.527  -2.000  -1.542  0.00  0.00    +0.000 HD
ENDBRANCH   4   9
BRANCH   5  11
ATOM     11  O   UNL     1      -0.298   2.626   0.769  0.00  0.00    +0.000 OA
ATOM     12  H   UNL     1      -0.906   2.793   0.029  0.00  0.00    +0.000 HD
ENDBRANCH   5  11
BRANCH   6  13
ATOM     13  O   UNL     1       0.008  -1.500   1.885  0.00  0.00    +0.000 OA
ATOM     14  H   UNL     1       0.244  -2.439   1.791  0.00  0.00    +0.000 HD
ENDBRANCH   6  13
BRANCH   1  15
ATOM     15  O   UNL     1       2.257  -0.794   0.187  0.00  0.00    +0.000 OA
BRANCH  15  16
ATOM     16  P   UNL     1       3.652   0.010   0.097  0.00  0.00    +0.000 P 
ATOM     17  O   UNL     1       3.545   1.498   0.261  0.00  0.00    +0.000 OA
BRANCH  16  18
ATOM     18  O   UNL     1       4.297  -0.487  -1.300  0.00  0.00    +0.000 OA
ATOM     19  H   UNL     1       5.138  -0.085  -1.604  0.00  0.00    +0.000 HD
ENDBRANCH  16  18
BRANCH  16  20
ATOM     20  O   UNL     1       4.558  -0.736   1.210  0.00  0.00    +0.000 OA
ATOM     21  H   UNL     1       5.443  -0.372   1.423  0.00  0.00    +0.000 HD
ENDBRANCH  16  20
ENDBRANCH  15  16
ENDBRANCH   1  15
BRANCH   2  22
ATOM     22  O   UNL     1      -2.141   0.691  -0.071  0.00  0.00    +0.000 OA
BRANCH  22  23
ATOM     23  P   UNL     1      -3.516  -0.154  -0.037  0.00  0.00    +0.000 P 
ATOM     24  O   UNL     1      -3.365  -1.629  -0.270  0.00  0.00    +0.000 OA
BRANCH  23  25
ATOM     25  O   UNL     1      -4.470   0.618  -1.091  0.00  0.00    +0.000 OA
ATOM     26  H   UNL     1      -5.357   0.247  -1.288  0.00  0.00    +0.000 HD
ENDBRANCH  23  25
BRANCH  23  27
ATOM     27  O   UNL     1      -4.143   0.250   1.397  0.00  0.00    +0.000 OA
ATOM     28  H   UNL     1      -4.952  -0.210   1.708  0.00  0.00    +0.000 HD
ENDBRANCH  23  27
ENDBRANCH  22  23
ENDBRANCH   2  22
TORSDOF 12
