REMARK  Name = 192826
REMARK  18 active torsions:
REMARK  status: ('A' for Active; 'I' for Inactive)
REMARK    1  A    between atoms: O_2  and  C_17
REMARK    2  A    between atoms: O_2  and  C_23
REMARK    3  A    between atoms: O_3  and  C_21
REMARK    4  A    between atoms: O_3  and  C_22
REMARK    5  A    between atoms: O_6  and  C_18
REMARK    6  A    between atoms: O_7  and  C_19
REMARK    7  A    between atoms: O_8  and  C_24
REMARK    8  A    between atoms: O_9  and  C_26
REMARK    9  A    between atoms: O_10  and  C_27
REMARK   10  A    between atoms: O_11  and  C_28
REMARK   11  A    between atoms: O_12  and  C_29
REMARK   12  A    between atoms: O_13  and  C_31
REMARK   13  A    between atoms: O_14  and  C_32
REMARK   14  A    between atoms: O_15  and  C_33
REMARK   15  A    between atoms: O_16  and  C_34
REMARK   16  A    between atoms: C_20  and  C_31
REMARK   17  A    between atoms: C_25  and  C_33
REMARK   18  A    between atoms: C_30  and  C_34
REMARK                            x       y       z     vdW  Elec       q    Type
REMARK                         _______ _______ _______ _____ _____    ______ ____
ROOT
ATOM      1  O   UNL     1      -0.713   0.453   0.477  0.00  0.00    +0.000 OA
ATOM      2  C   UNL     1       1.412   1.547  -0.102  0.00  0.00    +0.000 C 
ATOM      3  C   UNL     1       0.804   2.001  -1.436  0.00  0.00    +0.000 C 
ATOM      4  C   UNL     1      -0.404   1.149  -1.831  0.00  0.00    +0.000 C 
ATOM      5  C   UNL     1       0.362   1.254   0.984  0.00  0.00    +0.000 C 
ATOM      6  C   UNL     1      -1.379   0.993  -0.662  0.00  0.00    +0.000 C 
ENDROOT
BRANCH   3   7
ATOM      7  O   UNL     1       0.388   3.360  -1.345  0.00  0.00    +0.000 OA
ATOM      8  H   UNL     1       1.171   3.892  -1.122  0.00  0.00    +0.000 HD
ENDBRANCH   3   7
BRANCH   4   9
ATOM      9  O   UNL     1       0.041  -0.139  -2.259  0.00  0.00    +0.000 OA
ATOM     10  H   UNL     1       0.629  -0.008  -3.022  0.00  0.00    +0.000 HD
ENDBRANCH   4   9
BRANCH   2  11
ATOM     11  O   UNL     1       2.150   0.346  -0.350  0.00  0.00    +0.000 OA
BRANCH  11  13
ATOM     12  O   UNL     1       4.362   0.802   0.372  0.00  0.00    +0.000 OA
ATOM     13  C   UNL     1       3.490   0.632  -0.747  0.00  0.00    +0.000 C 
ATOM     14  C   UNL     1       4.053  -0.413  -1.711  0.00  0.00    +0.000 C 
ATOM     15  C   UNL     1       4.337  -1.737  -1.004  0.00  0.00    +0.000 C 
ATOM     16  C   UNL     1       5.164  -1.504   0.262  0.00  0.00    +0.000 C 
ATOM     17  C   UNL     1       4.549  -0.398   1.131  0.00  0.00    +0.000 C 
BRANCH  14  18
ATOM     18  O   UNL     1       3.144  -0.637  -2.783  0.00  0.00    +0.000 OA
ATOM     19  H   UNL     1       3.005   0.215  -3.230  0.00  0.00    +0.000 HD
ENDBRANCH  14  18
BRANCH  15  20
ATOM     20  O   UNL     1       5.085  -2.584  -1.879  0.00  0.00    +0.000 OA
ATOM     21  H   UNL     1       5.915  -2.129  -2.104  0.00  0.00    +0.000 HD
ENDBRANCH  15  20
BRANCH  16  22
ATOM     22  O   UNL     1       5.217  -2.731   0.987  0.00  0.00    +0.000 OA
ATOM     23  H   UNL     1       4.312  -2.953   1.268  0.00  0.00    +0.000 HD
ENDBRANCH  16  22
BRANCH  17  24
ATOM     24  C   UNL     1       5.440  -0.040   2.318  0.00  0.00    +0.000 C 
BRANCH  24  25
ATOM     25  O   UNL     1       4.811   0.989   3.058  0.00  0.00    +0.000 OA
ATOM     26  H   UNL     1       5.395   1.203   3.806  0.00  0.00    +0.000 HD
ENDBRANCH  24  25
ENDBRANCH  17  24
ENDBRANCH  11  13
ENDBRANCH   2  11
BRANCH   6  27
ATOM     27  O   UNL     1      -2.440   0.132  -1.072  0.00  0.00    +0.000 OA
BRANCH  27  29
ATOM     28  O   UNL     1      -4.573  -1.739   1.281  0.00  0.00    +0.000 OA
ATOM     29  C   UNL     1      -3.397  -0.045  -0.030  0.00  0.00    +0.000 C 
ATOM     30  C   UNL     1      -4.735   0.515  -0.516  0.00  0.00    +0.000 C 
ATOM     31  C   UNL     1      -3.517  -1.530   0.336  0.00  0.00    +0.000 C 
ATOM     32  C   UNL     1      -5.854   0.158   0.461  0.00  0.00    +0.000 C 
ATOM     33  C   UNL     1      -5.855  -1.335   0.796  0.00  0.00    +0.000 C 
BRANCH  30  34
ATOM     34  O   UNL     1      -4.623   1.938  -0.597  0.00  0.00    +0.000 OA
ATOM     35  H   UNL     1      -4.423   2.278   0.292  0.00  0.00    +0.000 HD
ENDBRANCH  30  34
BRANCH  32  36
ATOM     36  O   UNL     1      -7.106   0.539  -0.096  0.00  0.00    +0.000 OA
ATOM     37  H   UNL     1      -7.797   0.301   0.546  0.00  0.00    +0.000 HD
ENDBRANCH  32  36
BRANCH  33  38
ATOM     38  O   UNL     1      -6.298  -2.141  -0.293  0.00  0.00    +0.000 OA
ATOM     39  H   UNL     1      -6.691  -2.945   0.085  0.00  0.00    +0.000 HD
ENDBRANCH  33  38
BRANCH  31  40
ATOM     40  C   UNL     1      -2.238  -2.070   0.970  0.00  0.00    +0.000 C 
BRANCH  40  41
ATOM     41  O   UNL     1      -2.434  -3.436   1.286  0.00  0.00    +0.000 OA
ATOM     42  H   UNL     1      -1.610  -3.758   1.690  0.00  0.00    +0.000 HD
ENDBRANCH  40  41
ENDBRANCH  31  40
ENDBRANCH  27  29
ENDBRANCH   6  27
BRANCH   5  43
ATOM     43  C   UNL     1      -0.165   2.506   1.682  0.00  0.00    +0.000 C 
BRANCH  43  44
ATOM     44  O   UNL     1       0.922   3.163   2.308  0.00  0.00    +0.000 OA
ATOM     45  H   UNL     1       0.563   3.946   2.759  0.00  0.00    +0.000 HD
ENDBRANCH  43  44
ENDBRANCH   5  43
TORSDOF 18
