REMARK  Name = 445675
REMARK  18 active torsions:
REMARK  status: ('A' for Active; 'I' for Inactive)
REMARK    1  A    between atoms: P_1  and  O_5
REMARK    2  A    between atoms: P_1  and  O_12
REMARK    3  A    between atoms: P_1  and  O_13
REMARK    4  A    between atoms: P_2  and  O_10
REMARK    5  A    between atoms: P_2  and  O_12
REMARK    6  A    between atoms: P_2  and  O_16
REMARK    7  A    between atoms: O_5  and  C_31
REMARK    8  A    between atoms: O_6  and  C_24
REMARK    9  A    between atoms: O_7  and  C_25
REMARK   10  A    between atoms: O_8  and  C_26
REMARK   11  A    between atoms: O_9  and  C_27
REMARK   12  A    between atoms: O_10  and  C_32
REMARK   13  A    between atoms: O_11  and  C_33
REMARK   14  A    between atoms: N_20  and  C_29
REMARK   15  A    between atoms: N_21  and  C_23
REMARK   16  A    between atoms: C_28  and  C_32
REMARK   17  A    between atoms: C_30  and  C_33
REMARK   18  A    between atoms: C_36  and  C_38
REMARK                            x       y       z     vdW  Elec       q    Type
REMARK                         _______ _______ _______ _____ _____    ______ ____
ROOT
ATOM      1  P   UNL     1      -1.501   2.519  -2.569  0.00  0.00    +0.000 P 
ATOM      2  O   UNL     1      -1.821   3.984  -2.514  0.00  0.00    +0.000 OA
ENDROOT
BRANCH   1   3
ATOM      3  O   UNL     1      -0.867   2.010  -3.968  0.00  0.00    +0.000 OA
ATOM      4  H   UNL     1      -0.656   1.058  -4.074  0.00  0.00    +0.000 HD
ENDBRANCH   1   3
BRANCH   1   5
ATOM      5  O   UNL     1      -0.458   1.986  -1.453  0.00  0.00    +0.000 OA
BRANCH   5   6
ATOM      6  C   UNL     1       0.844   2.543  -1.423  0.00  0.00    +0.000 C 
BRANCH   6  10
ATOM      7  O   UNL     1       1.452   1.133   0.426  0.00  0.00    +0.000 OA
ATOM      8  C   UNL     1       2.769   3.083   0.151  0.00  0.00    +0.000 C 
ATOM      9  C   UNL     1       3.632   1.872  -0.134  0.00  0.00    +0.000 C 
ATOM     10  C   UNL     1       1.364   2.513   0.008  0.00  0.00    +0.000 C 
ATOM     11  C   UNL     1       2.835   0.756   0.518  0.00  0.00    +0.000 C 
BRANCH  11  14
ATOM     12  O   UNL     1       4.727  -1.190   1.299  0.00  0.00    +0.000 OA
ATOM     13  O   UNL     1       3.454  -4.050  -2.083  0.00  0.00    +0.000 OA
ATOM     14  N   UNL     1       3.019  -0.506  -0.140  0.00  0.00    +0.000 N 
ATOM     15  N   UNL     1       4.093  -2.613  -0.386  0.00  0.00    +0.000 N 
ATOM     16  C   UNL     1       3.998  -1.413   0.331  0.00  0.00    +0.000 A 
ATOM     17  C   UNL     1       2.235  -0.836  -1.240  0.00  0.00    +0.000 A 
ATOM     18  C   UNL     1       2.337  -1.984  -1.913  0.00  0.00    +0.000 A 
ATOM     19  C   UNL     1       3.335  -2.985  -1.486  0.00  0.00    +0.000 A 
ATOM     20  H   UNL     1       4.790  -3.279  -0.065  0.00  0.00    +0.000 HD
ENDBRANCH  11  14
BRANCH   8  21
ATOM     21  O   UNL     1       2.938   3.503   1.504  0.00  0.00    +0.000 OA
ATOM     22  H   UNL     1       2.333   4.250   1.654  0.00  0.00    +0.000 HD
ENDBRANCH   8  21
BRANCH   9  23
ATOM     23  O   UNL     1       4.931   2.000   0.407  0.00  0.00    +0.000 OA
ATOM     24  H   UNL     1       5.394   1.158   0.258  0.00  0.00    +0.000 HD
ENDBRANCH   9  23
ENDBRANCH   6  10
ENDBRANCH   5   6
ENDBRANCH   1   5
BRANCH   1  25
ATOM     25  O   UNL     1      -2.775   1.543  -2.372  0.00  0.00    +0.000 OA
BRANCH  25  26
ATOM     26  P   UNL     1      -3.550   1.068  -1.036  0.00  0.00    +0.000 P 
ATOM     27  O   UNL     1      -4.144   2.192  -0.236  0.00  0.00    +0.000 OA
BRANCH  26  28
ATOM     28  O   UNL     1      -4.632   0.002  -1.594  0.00  0.00    +0.000 OA
ATOM     29  H   UNL     1      -5.461   0.336  -1.999  0.00  0.00    +0.000 HD
ENDBRANCH  26  28
BRANCH  26  30
ATOM     30  O   UNL     1      -2.474   0.173  -0.234  0.00  0.00    +0.000 OA
BRANCH  30  36
ATOM     31  O   UNL     1      -3.397  -1.815   0.662  0.00  0.00    +0.000 OA
ATOM     32  C   UNL     1      -1.690  -0.636   1.920  0.00  0.00    +0.000 C 
ATOM     33  C   UNL     1      -0.611  -1.564   1.357  0.00  0.00    +0.000 C 
ATOM     34  C   UNL     1      -1.226  -2.900   0.926  0.00  0.00    +0.000 C 
ATOM     35  C   UNL     1      -2.453  -2.686   0.032  0.00  0.00    +0.000 C 
ATOM     36  C   UNL     1      -2.870  -0.517   0.950  0.00  0.00    +0.000 C 
BRANCH  32  38
ATOM     37  O   UNL     1      -2.522   1.138   4.063  0.00  0.00    +0.000 OA
ATOM     38  N   UNL     1      -1.148   0.663   2.245  0.00  0.00    +0.000 N 
ATOM     39  C   UNL     1      -1.614   1.439   3.293  0.00  0.00    +0.000 C 
ATOM     40  C   UNL     1      -0.858   2.734   3.425  0.00  0.00    +0.000 C 
ATOM     41  H   UNL     1      -0.428   1.042   1.637  0.00  0.00    +0.000 HD
ENDBRANCH  32  38
BRANCH  33  42
ATOM     42  O   UNL     1       0.358  -1.813   2.377  0.00  0.00    +0.000 OA
ATOM     43  H   UNL     1      -0.095  -2.226   3.131  0.00  0.00    +0.000 HD
ENDBRANCH  33  42
BRANCH  34  44
ATOM     44  O   UNL     1      -0.227  -3.640   0.228  0.00  0.00    +0.000 OA
ATOM     45  H   UNL     1      -0.019  -3.162  -0.592  0.00  0.00    +0.000 HD
ENDBRANCH  34  44
BRANCH  35  46
ATOM     46  C   UNL     1      -3.181  -3.995  -0.263  0.00  0.00    +0.000 C 
BRANCH  46  47
ATOM     47  O   UNL     1      -4.301  -3.711  -1.081  0.00  0.00    +0.000 OA
ATOM     48  H   UNL     1      -4.751  -4.556  -1.254  0.00  0.00    +0.000 HD
ENDBRANCH  46  47
ENDBRANCH  35  46
ENDBRANCH  30  36
ENDBRANCH  26  30
ENDBRANCH  25  26
ENDBRANCH   1  25
TORSDOF 17
