REMARK  Name = 6031
REMARK  11 active torsions:
REMARK  status: ('A' for Active; 'I' for Inactive)
REMARK    1  A    between atoms: P_1  and  O_6
REMARK    2  A    between atoms: P_1  and  O_8
REMARK    3  A    between atoms: P_1  and  O_9
REMARK    4  A    between atoms: P_2  and  O_8
REMARK    5  A    between atoms: P_2  and  O_12
REMARK    6  A    between atoms: P_2  and  O_13
REMARK    7  A    between atoms: O_4  and  C_17
REMARK    8  A    between atoms: O_5  and  C_18
REMARK    9  A    between atoms: O_6  and  C_21
REMARK   10  A    between atoms: N_15  and  C_20
REMARK   11  A    between atoms: C_19  and  C_21
REMARK                            x       y       z     vdW  Elec       q    Type
REMARK                         _______ _______ _______ _____ _____    ______ ____
ROOT
ATOM      1  O   UNL     1       1.132   1.475   1.110  0.00  0.00    +0.000 OA
ATOM      2  C   UNL     1       1.344   2.941  -0.739  0.00  0.00    +0.000 C 
ATOM      3  C   UNL     1       2.067   1.650  -1.060  0.00  0.00    +0.000 C 
ATOM      4  C   UNL     1       0.427   2.517   0.401  0.00  0.00    +0.000 C 
ATOM      5  C   UNL     1       2.249   1.039   0.319  0.00  0.00    +0.000 C 
ENDROOT
BRANCH   5   8
ATOM      6  O   UNL     1       4.594  -0.527   0.169  0.00  0.00    +0.000 OA
ATOM      7  O   UNL     1       2.190  -4.459   0.194  0.00  0.00    +0.000 OA
ATOM      8  N   UNL     1       2.265  -0.396   0.285  0.00  0.00    +0.000 N 
ATOM      9  N   UNL     1       3.395  -2.484   0.181  0.00  0.00    +0.000 N 
ATOM     10  C   UNL     1       3.497  -1.087   0.209  0.00  0.00    +0.000 A 
ATOM     11  C   UNL     1       1.069  -1.104   0.328  0.00  0.00    +0.000 A 
ATOM     12  C   UNL     1       0.989  -2.436   0.301  0.00  0.00    +0.000 A 
ATOM     13  C   UNL     1       2.229  -3.233   0.221  0.00  0.00    +0.000 A 
ATOM     14  H   UNL     1       4.268  -3.001   0.126  0.00  0.00    +0.000 HD
ENDBRANCH   5   8
BRANCH   2  15
ATOM     15  O   UNL     1       2.261   3.908  -0.229  0.00  0.00    +0.000 OA
ATOM     16  H   UNL     1       2.648   3.574   0.596  0.00  0.00    +0.000 HD
ENDBRANCH   2  15
BRANCH   3  17
ATOM     17  O   UNL     1       3.295   1.873  -1.722  0.00  0.00    +0.000 OA
ATOM     18  H   UNL     1       3.736   1.012  -1.817  0.00  0.00    +0.000 HD
ENDBRANCH   3  17
BRANCH   4  19
ATOM     19  C   UNL     1      -0.904   1.950  -0.076  0.00  0.00    +0.000 C 
BRANCH  19  20
ATOM     20  O   UNL     1      -1.671   1.581   1.056  0.00  0.00    +0.000 OA
BRANCH  20  21
ATOM     21  P   UNL     1      -3.145   0.942   0.862  0.00  0.00    +0.000 P 
ATOM     22  O   UNL     1      -3.853   0.594   2.139  0.00  0.00    +0.000 OA
BRANCH  21  23
ATOM     23  O   UNL     1      -3.929   2.012  -0.065  0.00  0.00    +0.000 OA
ATOM     24  H   UNL     1      -4.305   2.816   0.354  0.00  0.00    +0.000 HD
ENDBRANCH  21  23
BRANCH  21  25
ATOM     25  O   UNL     1      -2.917  -0.312  -0.133  0.00  0.00    +0.000 OA
BRANCH  25  26
ATOM     26  P   UNL     1      -3.973  -1.305  -0.846  0.00  0.00    +0.000 P 
ATOM     27  O   UNL     1      -4.953  -0.627  -1.758  0.00  0.00    +0.000 OA
BRANCH  26  28
ATOM     28  O   UNL     1      -4.627  -2.101   0.399  0.00  0.00    +0.000 OA
ATOM     29  H   UNL     1      -5.373  -2.715   0.232  0.00  0.00    +0.000 HD
ENDBRANCH  26  28
BRANCH  26  30
ATOM     30  O   UNL     1      -3.029  -2.413  -1.548  0.00  0.00    +0.000 OA
ATOM     31  H   UNL     1      -3.441  -3.095  -2.120  0.00  0.00    +0.000 HD
ENDBRANCH  26  30
ENDBRANCH  25  26
ENDBRANCH  21  25
ENDBRANCH  20  21
ENDBRANCH  19  20
ENDBRANCH   4  19
TORSDOF 11
