REMARK  Name = 5885
REMARK  20 active torsions:
REMARK  status: ('A' for Active; 'I' for Inactive)
REMARK    1  A    between atoms: P_1  and  O_6
REMARK    2  A    between atoms: P_1  and  O_13
REMARK    3  A    between atoms: P_1  and  O_14
REMARK    4  A    between atoms: P_2  and  O_8
REMARK    5  A    between atoms: P_2  and  O_12
REMARK    6  A    between atoms: P_2  and  O_16
REMARK    7  A    between atoms: P_3  and  O_11
REMARK    8  A    between atoms: P_3  and  O_12
REMARK    9  A    between atoms: O_6  and  C_28
REMARK   10  A    between atoms: O_7  and  C_29
REMARK   11  A    between atoms: O_8  and  C_36
REMARK   12  A    between atoms: O_9  and  C_32
REMARK   13  A    between atoms: O_10  and  C_33
REMARK   14  A    between atoms: O_11  and  C_37
REMARK   15  A    between atoms: N_21  and  C_30
REMARK   16  A    between atoms: N_22  and  C_35
REMARK   17  A    between atoms: N_26  and  C_44
REMARK   18  A    between atoms: C_31  and  C_36
REMARK   19  A    between atoms: C_34  and  C_37
REMARK   20  A    between atoms: C_43  and  C_48
REMARK                            x       y       z     vdW  Elec       q    Type
REMARK                         _______ _______ _______ _____ _____    ______ ____
ROOT
ATOM      1  P   UNL     1      -1.767   2.785  -1.091  0.00  0.00    +0.000 P 
ATOM      2  O   UNL     1      -1.540   1.563  -1.933  0.00  0.00    +0.000 OA
ENDROOT
BRANCH   1   3
ATOM      3  O   UNL     1      -1.807   4.171  -1.924  0.00  0.00    +0.000 OA
ATOM      4  H   UNL     1      -2.328   4.209  -2.755  0.00  0.00    +0.000 HD
ENDBRANCH   1   3
BRANCH   1   5
ATOM      5  O   UNL     1      -0.649   3.037   0.052  0.00  0.00    +0.000 OA
BRANCH   5   6
ATOM      6  C   UNL     1       0.708   3.220  -0.312  0.00  0.00    +0.000 C 
BRANCH   6  11
ATOM      7  O   UNL     1       1.337   1.288   0.980  0.00  0.00    +0.000 OA
ATOM      8  C   UNL     1       3.399   1.526  -0.160  0.00  0.00    +0.000 C 
ATOM      9  C   UNL     1       3.079   2.843   0.519  0.00  0.00    +0.000 C 
ATOM     10  C   UNL     1       2.530   0.559   0.630  0.00  0.00    +0.000 C 
ATOM     11  C   UNL     1       1.590   2.702   0.816  0.00  0.00    +0.000 C 
BRANCH  10  12
ATOM     12  N   UNL     1       2.169  -0.653  -0.102  0.00  0.00    +0.000 N 
ATOM     13  N   UNL     1       1.036  -2.005  -1.465  0.00  0.00    +0.000 NA
ATOM     14  N   UNL     1       3.923  -2.168   0.626  0.00  0.00    +0.000 NA
ATOM     15  N   UNL     1       3.676  -4.368  -0.401  0.00  0.00    +0.000 NA
ATOM     16  C   UNL     1       2.823  -1.852  -0.074  0.00  0.00    +0.000 A 
ATOM     17  C   UNL     1       1.103  -0.795  -0.951  0.00  0.00    +0.000 A 
ATOM     18  C   UNL     1       2.105  -2.676  -0.925  0.00  0.00    +0.000 A 
ATOM     19  C   UNL     1       2.569  -3.979  -1.079  0.00  0.00    +0.000 A 
ATOM     20  C   UNL     1       4.275  -3.452   0.397  0.00  0.00    +0.000 A 
BRANCH  19  21
ATOM     21  N   UNL     1       1.903  -4.883  -1.924  0.00  0.00    +0.000 N 
ATOM     22  H   UNL     1       1.076  -4.596  -2.429  0.00  0.00    +0.000 HD
ATOM     23  H   UNL     1       2.260  -5.825  -2.018  0.00  0.00    +0.000 HD
ENDBRANCH  19  21
ENDBRANCH  10  12
BRANCH   9  24
ATOM     24  O   UNL     1       3.789   2.926   1.754  0.00  0.00    +0.000 OA
ATOM     25  H   UNL     1       3.525   3.757   2.185  0.00  0.00    +0.000 HD
ENDBRANCH   9  24
BRANCH   8  26
ATOM     26  O   UNL     1       4.768   1.183  -0.087  0.00  0.00    +0.000 OA
BRANCH  26  27
ATOM     27  P   UNL     1       5.800   1.880  -1.125  0.00  0.00    +0.000 P 
ATOM     28  O   UNL     1       5.865   3.377  -1.041  0.00  0.00    +0.000 OA
BRANCH  27  29
ATOM     29  O   UNL     1       5.355   1.287  -2.562  0.00  0.00    +0.000 OA
ATOM     30  H   UNL     1       5.793   1.626  -3.372  0.00  0.00    +0.000 HD
ENDBRANCH  27  29
BRANCH  27  31
ATOM     31  O   UNL     1       7.193   1.117  -0.822  0.00  0.00    +0.000 OA
ATOM     32  H   UNL     1       8.010   1.427  -1.268  0.00  0.00    +0.000 HD
ENDBRANCH  27  31
ENDBRANCH  26  27
ENDBRANCH   8  26
ENDBRANCH   6  11
ENDBRANCH   5   6
ENDBRANCH   1   5
BRANCH   1  33
ATOM     33  O   UNL     1      -3.174   2.793  -0.293  0.00  0.00    +0.000 OA
BRANCH  33  34
ATOM     34  P   UNL     1      -4.715   2.735  -0.830  0.00  0.00    +0.000 P 
ATOM     35  O   UNL     1      -4.917   3.850  -1.833  0.00  0.00    +0.000 OA
ATOM     36  O   UNL     1      -5.636   2.597   0.363  0.00  0.00    +0.000 OA
BRANCH  34  37
ATOM     37  O   UNL     1      -4.676   1.299  -1.614  0.00  0.00    +0.000 OA
BRANCH  37  38
ATOM     38  C   UNL     1      -4.925   0.107  -0.887  0.00  0.00    +0.000 C 
BRANCH  38  42
ATOM     39  O   UNL     1      -2.788  -0.990  -1.055  0.00  0.00    +0.000 OA
ATOM     40  C   UNL     1      -4.696  -2.409  -1.149  0.00  0.00    +0.000 C 
ATOM     41  C   UNL     1      -3.898  -2.737   0.097  0.00  0.00    +0.000 C 
ATOM     42  C   UNL     1      -4.153  -1.036  -1.531  0.00  0.00    +0.000 C 
ATOM     43  C   UNL     1      -2.538  -2.161  -0.254  0.00  0.00    +0.000 C 
BRANCH  43  44
ATOM     44  N   UNL     1      -1.772  -1.845   0.978  0.00  0.00    +0.000 N 
ATOM     45  C   UNL     1      -1.935  -0.645   1.550  0.00  0.00    +0.000 A 
ATOM     46  C   UNL     1      -0.944  -2.772   1.478  0.00  0.00    +0.000 A 
ATOM     47  C   UNL     1      -1.232  -0.323   2.703  0.00  0.00    +0.000 A 
ATOM     48  C   UNL     1      -0.215  -2.506   2.628  0.00  0.00    +0.000 A 
ATOM     49  C   UNL     1      -0.364  -1.267   3.244  0.00  0.00    +0.000 A 
BRANCH  47  52
ATOM     50  O   UNL     1      -0.768   1.288   4.356  0.00  0.00    +0.000 OA
ATOM     51  N   UNL     1      -2.285   1.873   2.740  0.00  0.00    +0.000 N 
ATOM     52  C   UNL     1      -1.401   0.975   3.332  0.00  0.00    +0.000 C 
ATOM     53  H   UNL     1      -2.416   2.791   3.155  0.00  0.00    +0.000 HD
ATOM     54  H   UNL     1      -2.831   1.702   1.904  0.00  0.00    +0.000 HD
ENDBRANCH  47  52
ENDBRANCH  43  44
BRANCH  40  55
ATOM     55  O   UNL     1      -4.367  -3.337  -2.183  0.00  0.00    +0.000 OA
ATOM     56  H   UNL     1      -4.861  -3.073  -2.978  0.00  0.00    +0.000 HD
ENDBRANCH  40  55
BRANCH  41  57
ATOM     57  O   UNL     1      -3.832  -4.123   0.362  0.00  0.00    +0.000 OA
ATOM     58  H   UNL     1      -4.744  -4.444   0.462  0.00  0.00    +0.000 HD
ENDBRANCH  41  57
ENDBRANCH  38  42
ENDBRANCH  37  38
ENDBRANCH  34  37
ENDBRANCH  33  34
ENDBRANCH   1  33
TORSDOF 20
