REMARK  Name = 448923
REMARK  16 active torsions:
REMARK  status: ('A' for Active; 'I' for Inactive)
REMARK    1  A    between atoms: P_1  and  O_8
REMARK    2  A    between atoms: P_1  and  O_12
REMARK    3  A    between atoms: P_1  and  O_15
REMARK    4  A    between atoms: P_2  and  O_9
REMARK    5  A    between atoms: P_2  and  O_12
REMARK    6  A    between atoms: P_2  and  O_16
REMARK    7  A    between atoms: O_6  and  C_22
REMARK    8  A    between atoms: O_7  and  C_23
REMARK    9  A    between atoms: O_8  and  C_30
REMARK   10  A    between atoms: O_9  and  C_31
REMARK   11  A    between atoms: O_10  and  C_26
REMARK   12  A    between atoms: O_11  and  C_27
REMARK   13  A    between atoms: O_13  and  C_32
REMARK   14  A    between atoms: N_20  and  C_25
REMARK   15  A    between atoms: C_24  and  C_30
REMARK   16  A    between atoms: C_28  and  C_32
REMARK                            x       y       z     vdW  Elec       q    Type
REMARK                         _______ _______ _______ _____ _____    ______ ____
ROOT
ATOM      1  P   UNL     1       0.508  -3.707   0.677  0.00  0.00    +0.000 P 
ATOM      2  O   UNL     1       0.526  -4.655   1.840  0.00  0.00    +0.000 OA
ENDROOT
BRANCH   1   3
ATOM      3  O   UNL     1       1.323  -4.210  -0.627  0.00  0.00    +0.000 OA
ATOM      4  H   UNL     1       1.460  -3.598  -1.380  0.00  0.00    +0.000 HD
ENDBRANCH   1   3
BRANCH   1   5
ATOM      5  O   UNL     1      -0.957  -3.333   0.100  0.00  0.00    +0.000 OA
BRANCH   5   6
ATOM      6  C   UNL     1      -1.043  -2.442  -0.999  0.00  0.00    +0.000 C 
BRANCH   6  10
ATOM      7  O   UNL     1      -3.173  -1.635  -0.233  0.00  0.00    +0.000 OA
ATOM      8  C   UNL     1      -2.715  -1.289  -2.531  0.00  0.00    +0.000 C 
ATOM      9  C   UNL     1      -2.756   0.057  -1.838  0.00  0.00    +0.000 C 
ATOM     10  C   UNL     1      -2.508  -2.243  -1.362  0.00  0.00    +0.000 C 
ATOM     11  C   UNL     1      -3.496  -0.273  -0.553  0.00  0.00    +0.000 C 
BRANCH  11  14
ATOM     12  O   UNL     1      -4.833   2.099   0.197  0.00  0.00    +0.000 OA
ATOM     13  O   UNL     1      -1.887   2.883   3.654  0.00  0.00    +0.000 OA
ATOM     14  N   UNL     1      -3.100   0.570   0.539  0.00  0.00    +0.000 N 
ATOM     15  N   UNL     1      -3.365   2.488   1.918  0.00  0.00    +0.000 N 
ATOM     16  C   UNL     1      -3.840   1.740   0.832  0.00  0.00    +0.000 A 
ATOM     17  C   UNL     1      -1.991   0.235   1.307  0.00  0.00    +0.000 A 
ATOM     18  C   UNL     1      -1.551   0.958   2.339  0.00  0.00    +0.000 A 
ATOM     19  C   UNL     1      -2.266   2.195   2.711  0.00  0.00    +0.000 A 
ATOM     20  H   UNL     1      -3.881   3.333   2.147  0.00  0.00    +0.000 HD
ENDBRANCH  11  14
BRANCH   8  21
ATOM     21  O   UNL     1      -3.981  -1.581  -3.119  0.00  0.00    +0.000 OA
ATOM     22  H   UNL     1      -3.919  -2.467  -3.517  0.00  0.00    +0.000 HD
ENDBRANCH   8  21
BRANCH   9  23
ATOM     23  O   UNL     1      -3.417   1.038  -2.610  0.00  0.00    +0.000 OA
ATOM     24  H   UNL     1      -3.473   1.845  -2.071  0.00  0.00    +0.000 HD
ENDBRANCH   9  23
ENDBRANCH   6  10
ENDBRANCH   5   6
ENDBRANCH   1   5
BRANCH   1  25
ATOM     25  O   UNL     1       1.161  -2.260   0.977  0.00  0.00    +0.000 OA
BRANCH  25  26
ATOM     26  P   UNL     1       2.654  -1.844   1.438  0.00  0.00    +0.000 P 
ATOM     27  O   UNL     1       2.916  -2.017   2.906  0.00  0.00    +0.000 OA
BRANCH  26  28
ATOM     28  O   UNL     1       3.600  -2.743   0.481  0.00  0.00    +0.000 OA
ATOM     29  H   UNL     1       3.746  -3.686   0.708  0.00  0.00    +0.000 HD
ENDBRANCH  26  28
BRANCH  26  30
ATOM     30  O   UNL     1       2.845  -0.336   0.897  0.00  0.00    +0.000 OA
BRANCH  30  37
ATOM     31  F   UNL     1       4.922  -0.350  -0.875  0.00  0.00    +0.000 F 
ATOM     32  O   UNL     1       1.534   0.857  -0.678  0.00  0.00    +0.000 OA
ATOM     33  C   UNL     1       3.007   2.802  -0.842  0.00  0.00    +0.000 C 
ATOM     34  C   UNL     1       4.233   1.892  -0.735  0.00  0.00    +0.000 C 
ATOM     35  C   UNL     1       1.786   2.168  -0.163  0.00  0.00    +0.000 C 
ATOM     36  C   UNL     1       3.881   0.475  -1.168  0.00  0.00    +0.000 C 
ATOM     37  C   UNL     1       2.624  -0.045  -0.481  0.00  0.00    +0.000 C 
BRANCH  33  38
ATOM     38  O   UNL     1       3.286   4.052  -0.217  0.00  0.00    +0.000 OA
ATOM     39  H   UNL     1       3.476   3.883   0.722  0.00  0.00    +0.000 HD
ENDBRANCH  33  38
BRANCH  34  40
ATOM     40  O   UNL     1       5.258   2.373  -1.605  0.00  0.00    +0.000 OA
ATOM     41  H   UNL     1       4.905   2.391  -2.511  0.00  0.00    +0.000 HD
ENDBRANCH  34  40
BRANCH  35  42
ATOM     42  C   UNL     1       0.524   2.996  -0.392  0.00  0.00    +0.000 C 
BRANCH  42  43
ATOM     43  O   UNL     1       0.291   3.084  -1.786  0.00  0.00    +0.000 OA
ATOM     44  H   UNL     1      -0.523   3.602  -1.908  0.00  0.00    +0.000 HD
ENDBRANCH  42  43
ENDBRANCH  35  42
ENDBRANCH  30  37
ENDBRANCH  26  30
ENDBRANCH  25  26
ENDBRANCH   1  25
TORSDOF 16
