REMARK  Name = 446443
REMARK  18 active torsions:
REMARK  status: ('A' for Active; 'I' for Inactive)
REMARK    1  A    between atoms: P_1  and  O_8
REMARK    2  A    between atoms: P_1  and  O_9
REMARK    3  A    between atoms: P_1  and  O_10
REMARK    4  A    between atoms: P_2  and  O_9
REMARK    5  A    between atoms: P_2  and  O_12
REMARK    6  A    between atoms: P_2  and  C_34
REMARK    7  A    between atoms: P_3  and  O_13
REMARK    8  A    between atoms: P_3  and  O_15
REMARK    9  A    between atoms: P_3  and  C_34
REMARK   10  A    between atoms: P_4  and  O_13
REMARK   11  A    between atoms: P_4  and  O_17
REMARK   12  A    between atoms: P_4  and  O_18
REMARK   13  A    between atoms: O_6  and  C_25
REMARK   14  A    between atoms: O_7  and  C_26
REMARK   15  A    between atoms: O_8  and  C_29
REMARK   16  A    between atoms: N_20  and  C_28
REMARK   17  A    between atoms: N_24  and  C_33
REMARK   18  A    between atoms: C_27  and  C_29
REMARK                            x       y       z     vdW  Elec       q    Type
REMARK                         _______ _______ _______ _____ _____    ______ ____
ROOT
ATOM      1  O   UNL     1       1.620   2.630  -0.507  0.00  0.00    +0.000 OA
ENDROOT
BRANCH   1   2
ATOM      2  P   UNL     1       3.170   2.728  -0.959  0.00  0.00    +0.000 P 
ATOM      3  O   UNL     1       3.405   3.482  -2.236  0.00  0.00    +0.000 OA
BRANCH   2   4
ATOM      4  O   UNL     1       3.929   3.341   0.332  0.00  0.00    +0.000 OA
ATOM      5  H   UNL     1       3.883   4.308   0.494  0.00  0.00    +0.000 HD
ENDBRANCH   2   4
BRANCH   2   6
ATOM      6  O   UNL     1       3.668   1.192  -1.000  0.00  0.00    +0.000 OA
BRANCH   6   7
ATOM      7  P   UNL     1       3.237  -0.041  -1.949  0.00  0.00    +0.000 P 
ATOM      8  O   UNL     1       1.769  -0.344  -1.980  0.00  0.00    +0.000 OA
BRANCH   7   9
ATOM      9  O   UNL     1       3.897   0.325  -3.377  0.00  0.00    +0.000 OA
ATOM     10  H   UNL     1       4.785  -0.022  -3.605  0.00  0.00    +0.000 HD
ENDBRANCH   7   9
BRANCH   7  11
ATOM     11  C   UNL     1       4.263  -1.401  -1.341  0.00  0.00    +0.000 C 
BRANCH  11  12
ATOM     12  P   UNL     1       3.999  -2.177   0.272  0.00  0.00    +0.000 P 
ATOM     13  O   UNL     1       4.899  -3.347   0.536  0.00  0.00    +0.000 OA
BRANCH  12  14
ATOM     14  O   UNL     1       4.143  -0.953   1.316  0.00  0.00    +0.000 OA
ATOM     15  H   UNL     1       4.098  -0.029   0.988  0.00  0.00    +0.000 HD
ENDBRANCH  12  14
BRANCH  12  16
ATOM     16  O   UNL     1       2.421  -2.516   0.278  0.00  0.00    +0.000 OA
BRANCH  16  17
ATOM     17  P   UNL     1       1.450  -3.208   1.366  0.00  0.00    +0.000 P 
ATOM     18  O   UNL     1       1.817  -4.611   1.746  0.00  0.00    +0.000 OA
BRANCH  17  19
ATOM     19  O   UNL     1       1.448  -2.144   2.583  0.00  0.00    +0.000 OA
ATOM     20  H   UNL     1       0.979  -2.372   3.413  0.00  0.00    +0.000 HD
ENDBRANCH  17  19
BRANCH  17  21
ATOM     21  O   UNL     1      -0.019  -3.035   0.714  0.00  0.00    +0.000 OA
ATOM     22  H   UNL     1      -0.790  -3.441   1.164  0.00  0.00    +0.000 HD
ENDBRANCH  17  21
ENDBRANCH  16  17
ENDBRANCH  12  16
ENDBRANCH  11  12
ENDBRANCH   7  11
ENDBRANCH   6   7
ENDBRANCH   2   6
ENDBRANCH   1   2
BRANCH   1  23
ATOM     23  C   UNL     1       1.272   1.944   0.682  0.00  0.00    +0.000 C 
BRANCH  23  27
ATOM     24  O   UNL     1      -1.059   2.425   0.317  0.00  0.00    +0.000 OA
ATOM     25  C   UNL     1      -0.445   1.893   2.555  0.00  0.00    +0.000 C 
ATOM     26  C   UNL     1      -1.385   0.825   2.033  0.00  0.00    +0.000 C 
ATOM     27  C   UNL     1       0.018   2.575   1.271  0.00  0.00    +0.000 C 
ATOM     28  C   UNL     1      -2.058   1.553   0.879  0.00  0.00    +0.000 C 
BRANCH  28  29
ATOM     29  N   UNL     1      -2.580   0.667  -0.160  0.00  0.00    +0.000 N 
ATOM     30  N   UNL     1      -2.614  -0.601  -1.993  0.00  0.00    +0.000 NA
ATOM     31  N   UNL     1      -4.881   0.405   0.572  0.00  0.00    +0.000 NA
ATOM     32  N   UNL     1      -6.132  -1.047  -0.939  0.00  0.00    +0.000 NA
ATOM     33  C   UNL     1      -3.851   0.178  -0.258  0.00  0.00    +0.000 A 
ATOM     34  C   UNL     1      -1.875   0.172  -1.225  0.00  0.00    +0.000 A 
ATOM     35  C   UNL     1      -3.852  -0.606  -1.400  0.00  0.00    +0.000 A 
ATOM     36  C   UNL     1      -5.049  -1.232  -1.732  0.00  0.00    +0.000 A 
ATOM     37  C   UNL     1      -5.983  -0.252   0.147  0.00  0.00    +0.000 A 
BRANCH  36  38
ATOM     38  N   UNL     1      -5.140  -2.048  -2.874  0.00  0.00    +0.000 N 
ATOM     39  H   UNL     1      -4.333  -2.188  -3.467  0.00  0.00    +0.000 HD
ATOM     40  H   UNL     1      -6.021  -2.492  -3.094  0.00  0.00    +0.000 HD
ENDBRANCH  36  38
ENDBRANCH  28  29
BRANCH  25  41
ATOM     41  O   UNL     1      -1.180   2.835   3.336  0.00  0.00    +0.000 OA
ATOM     42  H   UNL     1      -0.559   3.529   3.615  0.00  0.00    +0.000 HD
ENDBRANCH  25  41
BRANCH  26  43
ATOM     43  O   UNL     1      -2.320   0.391   2.999  0.00  0.00    +0.000 OA
ATOM     44  H   UNL     1      -1.817   0.043   3.755  0.00  0.00    +0.000 HD
ENDBRANCH  26  43
ENDBRANCH  23  27
ENDBRANCH   1  23
TORSDOF 18
