REMARK  Name = 444189
REMARK  14 active torsions:
REMARK  status: ('A' for Active; 'I' for Inactive)
REMARK    1  A    between atoms: P_1  and  O_4
REMARK    2  A    between atoms: P_1  and  O_8
REMARK    3  A    between atoms: P_1  and  O_9
REMARK    4  A    between atoms: P_2  and  O_7
REMARK    5  A    between atoms: P_2  and  O_11
REMARK    6  A    between atoms: P_2  and  O_12
REMARK    7  A    between atoms: P_3  and  O_8
REMARK    8  A    between atoms: P_3  and  O_14
REMARK    9  A    between atoms: P_3  and  O_15
REMARK   10  A    between atoms: O_4  and  C_20
REMARK   11  A    between atoms: O_5  and  C_18
REMARK   12  A    between atoms: O_6  and  C_21
REMARK   13  A    between atoms: O_7  and  C_22
REMARK   14  A    between atoms: C_17  and  C_22
REMARK                            x       y       z     vdW  Elec       q    Type
REMARK                         _______ _______ _______ _____ _____    ______ ____
ROOT
ATOM      1  C   UNL     1       1.761   1.074  -0.314  0.00  0.00    +0.000 C 
ATOM      2  C   UNL     1       1.438   2.399   0.396  0.00  0.00    +0.000 C 
ATOM      3  C   UNL     1       0.594   0.134   0.047  0.00  0.00    +0.000 C 
ATOM      4  C   UNL     1      -0.388   0.988   0.857  0.00  0.00    +0.000 C 
ATOM      5  C   UNL     1      -0.087   2.420   0.430  0.00  0.00    +0.000 C 
ENDROOT
BRANCH   2   6
ATOM      6  O   UNL     1       1.958   3.519  -0.294  0.00  0.00    +0.000 OA
ATOM      7  H   UNL     1       1.564   3.533  -1.183  0.00  0.00    +0.000 HD
ENDBRANCH   2   6
BRANCH   5   8
ATOM      8  O   UNL     1      -0.599   2.670  -0.877  0.00  0.00    +0.000 OA
ATOM      9  H   UNL     1      -0.379   1.929  -1.464  0.00  0.00    +0.000 HD
ENDBRANCH   5   8
BRANCH   4  10
ATOM     10  O   UNL     1      -1.734   0.635   0.609  0.00  0.00    +0.000 OA
BRANCH  10  11
ATOM     11  P   UNL     1      -2.252  -0.868   0.921  0.00  0.00    +0.000 P 
ATOM     12  O   UNL     1      -1.543  -1.951   0.161  0.00  0.00    +0.000 OA
BRANCH  11  13
ATOM     13  O   UNL     1      -2.146  -1.003   2.530  0.00  0.00    +0.000 OA
ATOM     14  H   UNL     1      -1.274  -1.203   2.933  0.00  0.00    +0.000 HD
ENDBRANCH  11  13
BRANCH  11  15
ATOM     15  O   UNL     1      -3.846  -0.809   0.659  0.00  0.00    +0.000 OA
BRANCH  15  16
ATOM     16  P   UNL     1      -4.690  -0.577  -0.699  0.00  0.00    +0.000 P 
ATOM     17  O   UNL     1      -4.424   0.731  -1.385  0.00  0.00    +0.000 OA
BRANCH  16  18
ATOM     18  O   UNL     1      -6.218  -0.809  -0.227  0.00  0.00    +0.000 OA
ATOM     19  H   UNL     1      -6.943  -0.639  -0.865  0.00  0.00    +0.000 HD
ENDBRANCH  16  18
BRANCH  16  20
ATOM     20  O   UNL     1      -4.359  -1.895  -1.574  0.00  0.00    +0.000 OA
ATOM     21  H   UNL     1      -4.699  -1.953  -2.492  0.00  0.00    +0.000 HD
ENDBRANCH  16  20
ENDBRANCH  15  16
ENDBRANCH  11  15
ENDBRANCH  10  11
ENDBRANCH   4  10
BRANCH   1  22
ATOM     22  C   UNL     1       3.119   0.512   0.087  0.00  0.00    +0.000 C 
BRANCH  22  23
ATOM     23  O   UNL     1       3.313  -0.724  -0.577  0.00  0.00    +0.000 OA
BRANCH  23  24
ATOM     24  P   UNL     1       4.691  -1.532  -0.317  0.00  0.00    +0.000 P 
ATOM     25  O   UNL     1       4.814  -2.831  -1.060  0.00  0.00    +0.000 OA
BRANCH  24  26
ATOM     26  O   UNL     1       5.826  -0.435  -0.669  0.00  0.00    +0.000 OA
ATOM     27  H   UNL     1       6.767  -0.711  -0.677  0.00  0.00    +0.000 HD
ENDBRANCH  24  26
BRANCH  24  28
ATOM     28  O   UNL     1       4.772  -1.647   1.294  0.00  0.00    +0.000 OA
ATOM     29  H   UNL     1       5.500  -2.166   1.697  0.00  0.00    +0.000 HD
ENDBRANCH  24  28
ENDBRANCH  23  24
ENDBRANCH  22  23
ENDBRANCH   1  22
TORSDOF 14
