REMARK  Name = 
REMARK  20 active torsions:
REMARK  status: ('A' for Active; 'I' for Inactive)
REMARK    1  A    between atoms: C_1  and  N_2
REMARK    2  A    between atoms: N_4  and  C_5
REMARK    3  A    between atoms: C_7  and  C_8
REMARK    4  A    between atoms: C_8  and  O_9
REMARK    5  A    between atoms: O_9  and  P_10
REMARK    6  A    between atoms: P_10  and  O_12
REMARK    7  A    between atoms: P_10  and  O_13
REMARK    8  A    between atoms: O_13  and  P_14
REMARK    9  A    between atoms: P_14  and  O_16
REMARK   10  A    between atoms: P_14  and  O_17
REMARK   11  A    between atoms: O_17  and  P_18
REMARK   12  A    between atoms: P_18  and  O_20
REMARK   13  A    between atoms: P_18  and  O_21
REMARK   14  A    between atoms: O_21  and  C_22
REMARK   15  A    between atoms: C_22  and  C_23
REMARK   16  A    between atoms: C_25  and  N_26
REMARK   17  A    between atoms: C_37  and  O_38
REMARK   18  A    between atoms: C_39  and  O_40
REMARK   19  A    between atoms: C_41  and  O_42
REMARK   20  A    between atoms: C_43  and  O_44
REMARK                            x       y       z     vdW  Elec       q    Type
REMARK                         _______ _______ _______ _____ _____    ______ ____
ROOT
ATOM      1  P   UNL     1       0.281   0.930   0.032  0.00  0.00    +0.000 P 
ATOM      2  O   UNL     1       0.813   2.344   0.085  0.00  0.00    +0.000 OA
ENDROOT
BRANCH   1   3
ATOM      3  O   UNL     1      -0.630   0.542   1.405  0.00  0.00    +0.000 OA
ATOM      4  H   UNL     1      -1.441   1.074   1.416  0.00  0.00    +0.000 HD
ENDBRANCH   1   3
BRANCH   1   5
ATOM      5  O   UNL     1      -0.530   0.765  -1.409  0.00  0.00    +0.000 OA
BRANCH   5   6
ATOM      6  P   UNL     1      -2.165   1.125  -1.095  0.00  0.00    +0.000 P 
ATOM      7  O   UNL     1      -2.704   2.164  -2.070  0.00  0.00    +0.000 OA
BRANCH   6   8
ATOM      8  O   UNL     1      -2.380   1.768   0.446  0.00  0.00    +0.000 OA
ATOM      9  H   UNL     1      -3.320   1.960   0.588  0.00  0.00    +0.000 HD
ENDBRANCH   6   8
BRANCH   6  10
ATOM     10  O   UNL     1      -3.028  -0.338  -1.233  0.00  0.00    +0.000 OA
BRANCH  10  11
ATOM     11  C   UNL     1      -2.645  -1.148  -0.233  0.00  0.00    +0.000 C 
BRANCH  11  14
ATOM     12  C   UNL     1      -6.006  -0.907   0.833  0.00  0.00    +0.000 C 
ATOM     13  O   UNL     1      -4.748  -0.207   0.254  0.00  0.00    +0.000 OA
ATOM     14  C   UNL     1      -3.932  -1.360   0.821  0.00  0.00    +0.000 C 
ATOM     15  C   UNL     1      -4.616  -2.599  -0.197  0.00  0.00    +0.000 C 
ATOM     16  C   UNL     1      -5.962  -1.681  -0.738  0.00  0.00    +0.000 C 
BRANCH  12  20
ATOM     17  C   UNL     1      -8.171   2.132  -2.379  0.00  0.00    +0.000 C 
ATOM     18  N   UNL     1      -7.994   1.531  -1.084  0.00  0.00    +0.000 N 
ATOM     19  C   UNL     1      -6.835   0.873  -0.830  0.00  0.00    +0.000 A 
ATOM     20  N   UNL     1      -6.987   0.260   0.309  0.00  0.00    +0.000 N 
ATOM     21  C   UNL     1      -8.296   0.140   0.571  0.00  0.00    +0.000 A 
ATOM     22  N   UNL     1      -9.033  -0.356   1.570  0.00  0.00    +0.000 NA
ATOM     23  C   UNL     1     -10.384  -0.367   1.478  0.00  0.00    +0.000 A 
ATOM     24  N   UNL     1     -11.209  -0.615   2.621  0.00  0.00    +0.000 N 
ATOM     25  N   UNL     1     -10.945  -0.120   0.268  0.00  0.00    +0.000 N 
ATOM     26  C   UNL     1     -10.280   0.566  -0.693  0.00  0.00    +0.000 A 
ATOM     27  O   UNL     1     -10.749   0.701  -1.866  0.00  0.00    +0.000 OA
ATOM     28  C   UNL     1      -8.968   0.904  -0.378  0.00  0.00    +0.000 A 
ATOM     29  H   UNL     1     -10.796  -0.793   3.497  0.00  0.00    +0.000 HD
ATOM     30  H   UNL     1     -12.189  -0.606   2.531  0.00  0.00    +0.000 HD
ATOM     31  H   UNL     1     -11.855  -0.447   0.084  0.00  0.00    +0.000 HD
ENDBRANCH  12  20
BRANCH  15  32
ATOM     32  O   UNL     1      -5.329  -3.167   1.025  0.00  0.00    +0.000 OA
ATOM     33  H   UNL     1      -5.770  -2.448   1.505  0.00  0.00    +0.000 HD
ENDBRANCH  15  32
BRANCH  16  34
ATOM     34  O   UNL     1      -7.013  -2.717  -0.383  0.00  0.00    +0.000 OA
ATOM     35  H   UNL     1      -6.829  -3.076   0.499  0.00  0.00    +0.000 HD
ENDBRANCH  16  34
ENDBRANCH  11  14
ENDBRANCH  10  11
ENDBRANCH   6  10
ENDBRANCH   5   6
ENDBRANCH   1   5
BRANCH   1  36
ATOM     36  O   UNL     1       1.659  -0.065   0.141  0.00  0.00    +0.000 OA
BRANCH  36  37
ATOM     37  P   UNL     1       2.231   0.237   1.715  0.00  0.00    +0.000 P 
ATOM     38  O   UNL     1       1.808   1.601   2.216  0.00  0.00    +0.000 OA
BRANCH  37  39
ATOM     39  O   UNL     1       1.629  -0.921   2.808  0.00  0.00    +0.000 OA
ATOM     40  H   UNL     1       0.660  -0.875   2.827  0.00  0.00    +0.000 HD
ENDBRANCH  37  39
BRANCH  37  41
ATOM     41  O   UNL     1       3.888   0.203   1.641  0.00  0.00    +0.000 OA
BRANCH  41  42
ATOM     42  C   UNL     1       4.556   1.176   2.311  0.00  0.00    +0.000 C 
BRANCH  42  43
ATOM     43  C   UNL     1       5.846   1.629   1.354  0.00  0.00    +0.000 C 
ATOM     44  O   UNL     1       6.027   0.224   0.763  0.00  0.00    +0.000 OA
ATOM     45  C   UNL     1       7.113   1.079   0.053  0.00  0.00    +0.000 C 
ATOM     46  C   UNL     1       5.941   1.547  -1.158  0.00  0.00    +0.000 C 
ATOM     47  C   UNL     1       4.804   2.071   0.034  0.00  0.00    +0.000 C 
BRANCH  45  48
ATOM     48  N   UNL     1       7.641  -0.133  -0.863  0.00  0.00    +0.000 N 
ATOM     49  C   UNL     1       6.894  -1.074  -1.350  0.00  0.00    +0.000 A 
ATOM     50  N   UNL     1       7.694  -2.158  -1.545  0.00  0.00    +0.000 NA
ATOM     51  C   UNL     1       8.838  -2.009  -0.866  0.00  0.00    +0.000 A 
ATOM     52  C   UNL     1       8.856  -0.650  -0.567  0.00  0.00    +0.000 A 
ATOM     53  N   UNL     1       9.985  -0.061  -0.102  0.00  0.00    +0.000 NA
ATOM     54  C   UNL     1      11.006  -0.894   0.216  0.00  0.00    +0.000 A 
ATOM     55  N   UNL     1      12.330  -0.346   0.198  0.00  0.00    +0.000 N 
ATOM     56  N   UNL     1      10.739  -2.184   0.427  0.00  0.00    +0.000 N 
ATOM     57  C   UNL     1       9.716  -2.833  -0.172  0.00  0.00    +0.000 A 
ATOM     58  O   UNL     1       9.325  -3.980   0.162  0.00  0.00    +0.000 OA
ATOM     59  H   UNL     1      12.462   0.617   0.037  0.00  0.00    +0.000 HD
ATOM     60  H   UNL     1      13.107  -0.931   0.347  0.00  0.00    +0.000 HD
ATOM     61  H   UNL     1      11.314  -2.687   1.048  0.00  0.00    +0.000 HD
ENDBRANCH  45  48
BRANCH  46  62
ATOM     62  O   UNL     1       6.648   2.867  -1.369  0.00  0.00    +0.000 OA
ATOM     63  H   UNL     1       6.857   3.264  -0.509  0.00  0.00    +0.000 HD
ENDBRANCH  46  62
BRANCH  47  64
ATOM     64  O   UNL     1       5.271   3.510   0.129  0.00  0.00    +0.000 OA
ATOM     65  H   UNL     1       6.238   3.533   0.201  0.00  0.00    +0.000 HD
ENDBRANCH  47  64
ENDBRANCH  42  43
ENDBRANCH  41  42
ENDBRANCH  37  41
ENDBRANCH  36  37
ENDBRANCH   1  36
TORSDOF 19
