REMARK  Name = 6133
REMARK  14 active torsions:
REMARK  status: ('A' for Active; 'I' for Inactive)
REMARK    1  A    between atoms: P_1  and  O_7
REMARK    2  A    between atoms: P_1  and  O_9
REMARK    3  A    between atoms: P_1  and  O_10
REMARK    4  A    between atoms: P_2  and  O_9
REMARK    5  A    between atoms: P_2  and  O_13
REMARK    6  A    between atoms: P_2  and  O_14
REMARK    7  A    between atoms: P_3  and  O_13
REMARK    8  A    between atoms: P_3  and  O_16
REMARK    9  A    between atoms: P_3  and  O_17
REMARK   10  A    between atoms: O_5  and  C_21
REMARK   11  A    between atoms: O_6  and  C_22
REMARK   12  A    between atoms: O_7  and  C_25
REMARK   13  A    between atoms: N_19  and  C_24
REMARK   14  A    between atoms: C_23  and  C_25
REMARK                            x       y       z     vdW  Elec       q    Type
REMARK                         _______ _______ _______ _____ _____    ______ ____
ROOT
ATOM      1  O   UNL     1      -1.136   0.840  -0.973  0.00  0.00    +0.000 OA
ATOM      2  C   UNL     1      -0.465   2.296   0.771  0.00  0.00    +0.000 C 
ATOM      3  C   UNL     1      -1.895   1.868   1.023  0.00  0.00    +0.000 C 
ATOM      4  C   UNL     1       0.021   1.229  -0.201  0.00  0.00    +0.000 C 
ATOM      5  C   UNL     1      -2.318   1.363  -0.346  0.00  0.00    +0.000 C 
ENDROOT
BRANCH   5   8
ATOM      6  O   UNL     1      -5.106   1.790  -0.501  0.00  0.00    +0.000 OA
ATOM      7  O   UNL     1      -6.005  -2.705  -0.024  0.00  0.00    +0.000 OA
ATOM      8  N   UNL     1      -3.303   0.323  -0.266  0.00  0.00    +0.000 N 
ATOM      9  N   UNL     1      -5.551  -0.449  -0.263  0.00  0.00    +0.000 N 
ATOM     10  C   UNL     1      -4.678   0.643  -0.354  0.00  0.00    +0.000 A 
ATOM     11  C   UNL     1      -2.904  -0.999  -0.102  0.00  0.00    +0.000 A 
ATOM     12  C   UNL     1      -3.748  -2.029  -0.017  0.00  0.00    +0.000 A 
ATOM     13  C   UNL     1      -5.202  -1.780  -0.099  0.00  0.00    +0.000 A 
ATOM     14  H   UNL     1      -6.545  -0.242  -0.323  0.00  0.00    +0.000 HD
ENDBRANCH   5   8
BRANCH   2  15
ATOM     15  O   UNL     1      -0.435   3.553   0.095  0.00  0.00    +0.000 OA
ATOM     16  H   UNL     1      -0.872   3.459  -0.768  0.00  0.00    +0.000 HD
ENDBRANCH   2  15
BRANCH   3  17
ATOM     17  O   UNL     1      -2.701   2.934   1.482  0.00  0.00    +0.000 OA
ATOM     18  H   UNL     1      -2.300   3.271   2.301  0.00  0.00    +0.000 HD
ENDBRANCH   3  17
BRANCH   4  19
ATOM     19  C   UNL     1       0.568  -0.011   0.492  0.00  0.00    +0.000 C 
BRANCH  19  20
ATOM     20  O   UNL     1       0.983  -0.944  -0.492  0.00  0.00    +0.000 OA
BRANCH  20  21
ATOM     21  P   UNL     1       1.610  -2.367  -0.043  0.00  0.00    +0.000 P 
ATOM     22  O   UNL     1       2.010  -3.265  -1.177  0.00  0.00    +0.000 OA
BRANCH  21  23
ATOM     23  O   UNL     1       0.502  -2.999   0.952  0.00  0.00    +0.000 OA
ATOM     24  H   UNL     1      -0.288  -3.434   0.567  0.00  0.00    +0.000 HD
ENDBRANCH  21  23
BRANCH  21  25
ATOM     25  O   UNL     1       2.822  -1.979   0.952  0.00  0.00    +0.000 OA
BRANCH  25  26
ATOM     26  P   UNL     1       4.220  -1.215   0.686  0.00  0.00    +0.000 P 
ATOM     27  O   UNL     1       5.095  -1.045   1.893  0.00  0.00    +0.000 OA
BRANCH  26  28
ATOM     28  O   UNL     1       4.891  -2.047  -0.527  0.00  0.00    +0.000 OA
ATOM     29  H   UNL     1       5.333  -2.900  -0.330  0.00  0.00    +0.000 HD
ENDBRANCH  26  28
BRANCH  26  30
ATOM     30  O   UNL     1       3.762   0.167  -0.013  0.00  0.00    +0.000 OA
BRANCH  30  31
ATOM     31  P   UNL     1       4.611   1.372  -0.676  0.00  0.00    +0.000 P 
ATOM     32  O   UNL     1       5.475   0.966  -1.834  0.00  0.00    +0.000 OA
BRANCH  31  33
ATOM     33  O   UNL     1       3.479   2.474  -1.018  0.00  0.00    +0.000 OA
ATOM     34  H   UNL     1       3.733   3.277  -1.520  0.00  0.00    +0.000 HD
ENDBRANCH  31  33
BRANCH  31  35
ATOM     35  O   UNL     1       5.398   2.018   0.579  0.00  0.00    +0.000 OA
ATOM     36  H   UNL     1       6.052   2.730   0.415  0.00  0.00    +0.000 HD
ENDBRANCH  31  35
ENDBRANCH  30  31
ENDBRANCH  26  30
ENDBRANCH  25  26
ENDBRANCH  21  25
ENDBRANCH  20  21
ENDBRANCH  19  20
ENDBRANCH   4  19
TORSDOF 14
