REMARK  Name = 439450
REMARK  17 active torsions:
REMARK  status: ('A' for Active; 'I' for Inactive)
REMARK    1  A    between atoms: P_1  and  O_6
REMARK    2  A    between atoms: P_1  and  O_9
REMARK    3  A    between atoms: P_1  and  O_10
REMARK    4  A    between atoms: P_2  and  O_8
REMARK    5  A    between atoms: P_2  and  O_12
REMARK    6  A    between atoms: P_2  and  O_13
REMARK    7  A    between atoms: P_3  and  O_9
REMARK    8  A    between atoms: P_3  and  O_16
REMARK    9  A    between atoms: P_3  and  O_17
REMARK   10  A    between atoms: P_4  and  O_12
REMARK   11  A    between atoms: P_4  and  O_19
REMARK   12  A    between atoms: P_4  and  O_20
REMARK   13  A    between atoms: O_6  and  C_27
REMARK   14  A    between atoms: O_7  and  C_28
REMARK   15  A    between atoms: O_8  and  C_31
REMARK   16  A    between atoms: N_22  and  C_29
REMARK   17  A    between atoms: C_30  and  C_31
REMARK                            x       y       z     vdW  Elec       q    Type
REMARK                         _______ _______ _______ _____ _____    ______ ____
ROOT
ATOM      1  O   UNL     1      -0.725  -0.234  -1.075  0.00  0.00    +0.000 OA
ATOM      2  C   UNL     1       0.216   1.181   0.591  0.00  0.00    +0.000 C 
ATOM      3  C   UNL     1      -1.206   0.831   0.984  0.00  0.00    +0.000 C 
ATOM      4  C   UNL     1      -1.794   0.407  -0.353  0.00  0.00    +0.000 C 
ATOM      5  C   UNL     1       0.534   0.120  -0.458  0.00  0.00    +0.000 C 
ENDROOT
BRANCH   4   7
ATOM      6  O   UNL     1      -7.014  -2.421   0.052  0.00  0.00    +0.000 OA
ATOM      7  N   UNL     1      -2.930  -0.505  -0.241  0.00  0.00    +0.000 N 
ATOM      8  N   UNL     1      -4.845   0.994  -0.298  0.00  0.00    +0.000 N 
ATOM      9  N   UNL     1      -4.067  -2.430  -0.047  0.00  0.00    +0.000 NA
ATOM     10  N   UNL     1      -6.971  -0.111  -0.136  0.00  0.00    +0.000 NA
ATOM     11  N   UNL     1      -6.796   2.232  -0.331  0.00  0.00    +0.000 N 
ATOM     12  C   UNL     1      -4.247  -0.199  -0.221  0.00  0.00    +0.000 A 
ATOM     13  C   UNL     1      -2.869  -1.876  -0.133  0.00  0.00    +0.000 A 
ATOM     14  C   UNL     1      -4.931  -1.373  -0.103  0.00  0.00    +0.000 A 
ATOM     15  C   UNL     1      -6.380  -1.378  -0.053  0.00  0.00    +0.000 A 
ATOM     16  C   UNL     1      -6.237   0.981  -0.250  0.00  0.00    +0.000 A 
ATOM     17  H   UNL     1      -4.340   1.870  -0.382  0.00  0.00    +0.000 HD
ATOM     18  H   UNL     1      -7.802   2.359  -0.307  0.00  0.00    +0.000 HD
ATOM     19  H   UNL     1      -6.222   3.063  -0.418  0.00  0.00    +0.000 HD
ENDBRANCH   4   7
BRANCH   3  20
ATOM     20  O   UNL     1      -1.908   1.920   1.547  0.00  0.00    +0.000 OA
ATOM     21  H   UNL     1      -1.410   2.215   2.329  0.00  0.00    +0.000 HD
ENDBRANCH   3  20
BRANCH   2  22
ATOM     22  O   UNL     1       0.235   2.465  -0.032  0.00  0.00    +0.000 OA
BRANCH  22  23
ATOM     23  P   UNL     1       1.617   3.294  -0.113  0.00  0.00    +0.000 P 
ATOM     24  O   UNL     1       1.638   4.366  -1.163  0.00  0.00    +0.000 OA
BRANCH  23  25
ATOM     25  O   UNL     1       1.859   3.832   1.394  0.00  0.00    +0.000 OA
ATOM     26  H   UNL     1       2.578   4.479   1.556  0.00  0.00    +0.000 HD
ENDBRANCH  23  25
BRANCH  23  27
ATOM     27  O   UNL     1       2.762   2.167  -0.292  0.00  0.00    +0.000 OA
BRANCH  27  28
ATOM     28  P   UNL     1       4.373   2.287  -0.312  0.00  0.00    +0.000 P 
ATOM     29  O   UNL     1       4.975   2.847   0.944  0.00  0.00    +0.000 OA
BRANCH  28  30
ATOM     30  O   UNL     1       4.854   0.794  -0.702  0.00  0.00    +0.000 OA
ATOM     31  H   UNL     1       5.813   0.587  -0.699  0.00  0.00    +0.000 HD
ENDBRANCH  28  30
BRANCH  28  32
ATOM     32  O   UNL     1       4.662   3.140  -1.654  0.00  0.00    +0.000 OA
ATOM     33  H   UNL     1       5.580   3.424  -1.848  0.00  0.00    +0.000 HD
ENDBRANCH  28  32
ENDBRANCH  27  28
ENDBRANCH  23  27
ENDBRANCH  22  23
ENDBRANCH   2  22
BRANCH   5  34
ATOM     34  C   UNL     1       1.148  -1.139   0.138  0.00  0.00    +0.000 C 
BRANCH  34  35
ATOM     35  O   UNL     1       2.361  -0.790   0.782  0.00  0.00    +0.000 OA
BRANCH  35  36
ATOM     36  P   UNL     1       3.245  -1.931   1.514  0.00  0.00    +0.000 P 
ATOM     37  O   UNL     1       4.506  -1.433   2.159  0.00  0.00    +0.000 OA
BRANCH  36  38
ATOM     38  O   UNL     1       2.213  -2.649   2.534  0.00  0.00    +0.000 OA
ATOM     39  H   UNL     1       2.562  -3.294   3.185  0.00  0.00    +0.000 HD
ENDBRANCH  36  38
BRANCH  36  40
ATOM     40  O   UNL     1       3.482  -3.054   0.376  0.00  0.00    +0.000 OA
BRANCH  40  41
ATOM     41  P   UNL     1       4.313  -3.002  -1.009  0.00  0.00    +0.000 P 
ATOM     42  O   UNL     1       3.841  -1.964  -1.984  0.00  0.00    +0.000 OA
BRANCH  41  43
ATOM     43  O   UNL     1       5.845  -2.843  -0.518  0.00  0.00    +0.000 OA
ATOM     44  H   UNL     1       6.547  -2.706  -1.190  0.00  0.00    +0.000 HD
ENDBRANCH  41  43
BRANCH  41  45
ATOM     45  O   UNL     1       4.242  -4.527  -1.538  0.00  0.00    +0.000 OA
ATOM     46  H   UNL     1       4.608  -4.741  -2.422  0.00  0.00    +0.000 HD
ENDBRANCH  41  45
ENDBRANCH  40  41
ENDBRANCH  36  40
ENDBRANCH  35  36
ENDBRANCH  34  35
ENDBRANCH   5  34
TORSDOF 17
