REMARK  Name = 165491
REMARK  19 active torsions:
REMARK  status: ('A' for Active; 'I' for Inactive)
REMARK    1  A    between atoms: P_1  and  O_9
REMARK    2  A    between atoms: P_1  and  O_11
REMARK    3  A    between atoms: P_1  and  O_12
REMARK    4  A    between atoms: P_2  and  O_10
REMARK    5  A    between atoms: P_2  and  O_11
REMARK    6  A    between atoms: P_2  and  O_13
REMARK    7  A    between atoms: O_5  and  C_24
REMARK    8  A    between atoms: O_6  and  C_25
REMARK    9  A    between atoms: O_7  and  C_28
REMARK   10  A    between atoms: O_8  and  C_29
REMARK   11  A    between atoms: O_9  and  C_32
REMARK   12  A    between atoms: O_10  and  C_33
REMARK   13  A    between atoms: O_16  and  C_44
REMARK   14  A    between atoms: N_18  and  C_27
REMARK   15  A    between atoms: N_19  and  C_31
REMARK   16  A    between atoms: N_23  and  C_41
REMARK   17  A    between atoms: C_26  and  C_32
REMARK   18  A    between atoms: C_30  and  C_33
REMARK   19  A    between atoms: C_39  and  C_44
REMARK                            x       y       z     vdW  Elec       q    Type
REMARK                         _______ _______ _______ _____ _____    ______ ____
ROOT
ATOM      1  P   UNL     1       3.350  -2.648   0.059  0.00  0.00    +0.000 P 
ATOM      2  O   UNL     1       3.730  -2.311  -1.353  0.00  0.00    +0.000 OA
ENDROOT
BRANCH   1   3
ATOM      3  O   UNL     1       3.713  -4.161   0.505  0.00  0.00    +0.000 OA
ATOM      4  H   UNL     1       4.593  -4.525   0.273  0.00  0.00    +0.000 HD
ENDBRANCH   1   3
BRANCH   1   5
ATOM      5  O   UNL     1       1.774  -2.497   0.392  0.00  0.00    +0.000 OA
BRANCH   5   6
ATOM      6  C   UNL     1       0.822  -3.264  -0.324  0.00  0.00    +0.000 C 
BRANCH   6  10
ATOM      7  O   UNL     1      -0.823  -1.524  -0.064  0.00  0.00    +0.000 OA
ATOM      8  C   UNL     1      -1.673  -3.698  -0.534  0.00  0.00    +0.000 C 
ATOM      9  C   UNL     1      -2.013  -2.774  -1.686  0.00  0.00    +0.000 C 
ATOM     10  C   UNL     1      -0.572  -2.926   0.187  0.00  0.00    +0.000 C 
ATOM     11  C   UNL     1      -1.889  -1.409  -1.026  0.00  0.00    +0.000 C 
BRANCH  11  12
ATOM     12  N   UNL     1      -1.596  -0.322  -1.958  0.00  0.00    +0.000 N 
ATOM     13  N   UNL     1      -1.952   1.385  -3.347  0.00  0.00    +0.000 NA
ATOM     14  N   UNL     1       0.827  -0.449  -2.067  0.00  0.00    +0.000 NA
ATOM     15  N   UNL     1       1.738   1.251  -3.562  0.00  0.00    +0.000 NA
ATOM     16  C   UNL     1      -0.364   0.073  -2.396  0.00  0.00    +0.000 A 
ATOM     17  C   UNL     1      -2.517   0.496  -2.558  0.00  0.00    +0.000 A 
ATOM     18  C   UNL     1      -0.607   1.133  -3.255  0.00  0.00    +0.000 A 
ATOM     19  C   UNL     1       0.502   1.728  -3.849  0.00  0.00    +0.000 A 
ATOM     20  C   UNL     1       1.822   0.208  -2.702  0.00  0.00    +0.000 A 
BRANCH  19  21
ATOM     21  N   UNL     1       0.349   2.809  -4.733  0.00  0.00    +0.000 N 
ATOM     22  H   UNL     1       1.170   3.225  -5.151  0.00  0.00    +0.000 HD
ATOM     23  H   UNL     1      -0.572   3.167  -4.948  0.00  0.00    +0.000 HD
ENDBRANCH  19  21
ENDBRANCH  11  12
BRANCH   8  24
ATOM     24  O   UNL     1      -2.800  -3.811   0.335  0.00  0.00    +0.000 OA
ATOM     25  H   UNL     1      -2.531  -4.364   1.088  0.00  0.00    +0.000 HD
ENDBRANCH   8  24
BRANCH   9  26
ATOM     26  O   UNL     1      -3.309  -2.991  -2.206  0.00  0.00    +0.000 OA
ATOM     27  H   UNL     1      -3.467  -2.322  -2.894  0.00  0.00    +0.000 HD
ENDBRANCH   9  26
ENDBRANCH   6  10
ENDBRANCH   5   6
ENDBRANCH   1   5
BRANCH   1  28
ATOM     28  O   UNL     1       4.090  -1.746   1.178  0.00  0.00    +0.000 OA
BRANCH  28  29
ATOM     29  P   UNL     1       4.082  -0.149   1.428  0.00  0.00    +0.000 P 
ATOM     30  O   UNL     1       4.597   0.666   0.278  0.00  0.00    +0.000 OA
BRANCH  29  31
ATOM     31  O   UNL     1       4.917   0.008   2.805  0.00  0.00    +0.000 OA
ATOM     32  H   UNL     1       4.644  -0.518   3.587  0.00  0.00    +0.000 HD
ENDBRANCH  29  31
BRANCH  29  33
ATOM     33  O   UNL     1       2.552   0.143   1.866  0.00  0.00    +0.000 OA
BRANCH  33  34
ATOM     34  C   UNL     1       2.208   1.451   2.289  0.00  0.00    +0.000 C 
BRANCH  34  38
ATOM     35  O   UNL     1       0.593   1.637   0.512  0.00  0.00    +0.000 OA
ATOM     36  C   UNL     1       1.363   3.690   1.437  0.00  0.00    +0.000 C 
ATOM     37  C   UNL     1      -0.119   3.544   1.723  0.00  0.00    +0.000 C 
ATOM     38  C   UNL     1       1.767   2.264   1.080  0.00  0.00    +0.000 C 
ATOM     39  C   UNL     1      -0.529   2.524   0.677  0.00  0.00    +0.000 C 
BRANCH  39  40
ATOM     40  N   UNL     1      -1.755   1.803   1.106  0.00  0.00    +0.000 N 
ATOM     41  C   UNL     1      -1.629   0.708   1.867  0.00  0.00    +0.000 A 
ATOM     42  C   UNL     1      -2.949   2.273   0.717  0.00  0.00    +0.000 A 
ATOM     43  C   UNL     1      -2.757   0.015   2.282  0.00  0.00    +0.000 A 
ATOM     44  C   UNL     1      -4.111   1.621   1.102  0.00  0.00    +0.000 A 
ATOM     45  C   UNL     1      -4.010   0.481   1.893  0.00  0.00    +0.000 A 
BRANCH  43  47
ATOM     46  O   UNL     1      -3.571  -1.858   3.528  0.00  0.00    +0.000 OA
ATOM     47  C   UNL     1      -2.631  -1.173   3.108  0.00  0.00    +0.000 C 
BRANCH  47  48
ATOM     48  O   UNL     1      -1.334  -1.480   3.388  0.00  0.00    +0.000 OA
ATOM     49  H   UNL     1      -1.261  -2.285   3.942  0.00  0.00    +0.000 HD
ENDBRANCH  47  48
ENDBRANCH  43  47
ENDBRANCH  39  40
BRANCH  36  50
ATOM     50  O   UNL     1       1.546   4.521   0.291  0.00  0.00    +0.000 OA
ATOM     51  H   UNL     1       2.500   4.556   0.108  0.00  0.00    +0.000 HD
ENDBRANCH  36  50
BRANCH  37  52
ATOM     52  O   UNL     1      -0.831   4.757   1.587  0.00  0.00    +0.000 OA
ATOM     53  H   UNL     1      -0.437   5.396   2.205  0.00  0.00    +0.000 HD
ENDBRANCH  37  52
ENDBRANCH  34  38
ENDBRANCH  33  34
ENDBRANCH  29  33
ENDBRANCH  28  29
ENDBRANCH   1  28
TORSDOF 19
