REMARK  Name = 
REMARK  26 active torsions:
REMARK  status: ('A' for Active; 'I' for Inactive)
REMARK    1  A    between atoms: C_1  and  C_2
REMARK    2  A    between atoms: N_4  and  C_5
REMARK    3  A    between atoms: C_6  and  O_7
REMARK    4  A    between atoms: O_7  and  P_8
REMARK    5  A    between atoms: P_8  and  O_10
REMARK    6  A    between atoms: P_8  and  O_11
REMARK    7  A    between atoms: O_11  and  P_12
REMARK    8  A    between atoms: P_12  and  O_14
REMARK    9  A    between atoms: P_12  and  O_15
REMARK   10  A    between atoms: O_15  and  C_16
REMARK   11  A    between atoms: C_16  and  C_17
REMARK   12  A    between atoms: C_19  and  N_20
REMARK   13  A    between atoms: C_28  and  O_29
REMARK   14  A    between atoms: C_30  and  O_31
REMARK   15  A    between atoms: C_33  and  C_34
REMARK   16  A    between atoms: C_34  and  O_35
REMARK   17  A    between atoms: C_36  and  O_37
REMARK   18  A    between atoms: C_38  and  O_39
REMARK   19  A    between atoms: O_39  and  C_40
REMARK   20  A    between atoms: C_40  and  C_41
REMARK   21  A    between atoms: C_40  and  O_42
REMARK   22  A    between atoms: C_40  and  C_47
REMARK   23  A    between atoms: O_42  and  P_43
REMARK   24  A    between atoms: P_43  and  O_45
REMARK   25  A    between atoms: P_43  and  O_46
REMARK   26  A    between atoms: C_47  and  O_49
REMARK                            x       y       z     vdW  Elec       q    Type
REMARK                         _______ _______ _______ _____ _____    ______ ____
ROOT
ATOM      1  C   UNL     1      -4.057   0.779  -0.434  0.00  0.00    +0.000 C 
ATOM      2  C   UNL     1      -2.457   0.627  -1.042  0.00  0.00    +0.000 C 
ATOM      3  O   UNL     1      -2.767  -0.724  -1.668  0.00  0.00    +0.000 OA
ATOM      4  C   UNL     1      -2.550  -1.713  -0.572  0.00  0.00    +0.000 C 
ATOM      5  C   UNL     1      -4.225  -1.714  -0.213  0.00  0.00    +0.000 C 
ATOM      6  C   UNL     1      -3.958  -0.373   0.802  0.00  0.00    +0.000 C 
ENDROOT
BRANCH   1  10
ATOM      7  C   UNL     1      -3.873   4.168   1.236  0.00  0.00    +0.000 C 
ATOM      8  C   UNL     1      -4.312   3.116   0.496  0.00  0.00    +0.000 C 
ATOM      9  O   UNL     1      -5.505   3.131   0.085  0.00  0.00    +0.000 OA
ATOM     10  N   UNL     1      -3.603   1.900   0.528  0.00  0.00    +0.000 N 
ATOM     11  H   UNL     1      -2.845   1.769   1.142  0.00  0.00    +0.000 HD
ENDBRANCH   1  10
BRANCH   5  12
ATOM     12  O   UNL     1      -3.982  -2.671   0.912  0.00  0.00    +0.000 OA
ATOM     13  H   UNL     1      -3.203  -2.387   1.415  0.00  0.00    +0.000 HD
ENDBRANCH   5  12
BRANCH   2  14
ATOM     14  O   UNL     1      -1.834   0.152   0.269  0.00  0.00    +0.000 OA
BRANCH  14  15
ATOM     15  P   UNL     1      -0.191   0.263   0.083  0.00  0.00    +0.000 P 
ATOM     16  O   UNL     1       0.275  -0.593  -1.073  0.00  0.00    +0.000 OA
BRANCH  15  17
ATOM     17  O   UNL     1       0.232   1.854  -0.233  0.00  0.00    +0.000 OA
ATOM     18  H   UNL     1      -0.146   2.126  -1.084  0.00  0.00    +0.000 HD
ENDBRANCH  15  17
BRANCH  15  19
ATOM     19  O   UNL     1       0.439  -0.286   1.568  0.00  0.00    +0.000 OA
BRANCH  19  20
ATOM     20  P   UNL     1       1.664  -1.385   1.135  0.00  0.00    +0.000 P 
ATOM     21  O   UNL     1       2.529  -1.769   2.291  0.00  0.00    +0.000 OA
BRANCH  20  22
ATOM     22  O   UNL     1       0.923  -2.691   0.383  0.00  0.00    +0.000 OA
ATOM     23  H   UNL     1       0.428  -3.204   1.040  0.00  0.00    +0.000 HD
ENDBRANCH  20  22
BRANCH  20  24
ATOM     24  O   UNL     1       2.521  -0.511  -0.055  0.00  0.00    +0.000 OA
BRANCH  24  25
ATOM     25  C   UNL     1       3.833  -0.666   0.297  0.00  0.00    +0.000 C 
BRANCH  25  26
ATOM     26  C   UNL     1       4.404   0.832   0.675  0.00  0.00    +0.000 C 
ATOM     27  O   UNL     1       5.767   0.265   0.847  0.00  0.00    +0.000 OA
ATOM     28  C   UNL     1       6.589   1.305   0.144  0.00  0.00    +0.000 C 
ATOM     29  C   UNL     1       5.992   0.537  -1.262  0.00  0.00    +0.000 C 
ATOM     30  C   UNL     1       4.479   1.236  -0.980  0.00  0.00    +0.000 C 
BRANCH  28  31
ATOM     31  N   UNL     1       7.872   0.396   0.277  0.00  0.00    +0.000 N 
ATOM     32  C   UNL     1       8.457   0.452   1.500  0.00  0.00    +0.000 A 
ATOM     33  C   UNL     1       9.754  -0.045   1.561  0.00  0.00    +0.000 A 
ATOM     34  C   UNL     1      10.414  -0.263   0.356  0.00  0.00    +0.000 A 
ATOM     35  O   UNL     1      11.649  -0.003   0.218  0.00  0.00    +0.000 OA
ATOM     36  N   UNL     1       9.655  -0.598  -0.718  0.00  0.00    +0.000 N 
ATOM     37  C   UNL     1       8.355  -0.215  -0.773  0.00  0.00    +0.000 A 
ATOM     38  O   UNL     1       7.474  -0.877  -1.403  0.00  0.00    +0.000 OA
ATOM     39  H   UNL     1      10.047  -1.117  -1.457  0.00  0.00    +0.000 HD
ENDBRANCH  28  31
BRANCH  29  40
ATOM     40  O   UNL     1       6.455   1.656  -2.145  0.00  0.00    +0.000 OA
ATOM     41  H   UNL     1       6.224   2.506  -1.738  0.00  0.00    +0.000 HD
ENDBRANCH  29  40
BRANCH  30  42
ATOM     42  O   UNL     1       4.947   2.627  -0.650  0.00  0.00    +0.000 OA
ATOM     43  H   UNL     1       5.667   2.580  -0.001  0.00  0.00    +0.000 HD
ENDBRANCH  30  42
ENDBRANCH  25  26
ENDBRANCH  24  25
ENDBRANCH  20  24
ENDBRANCH  19  20
ENDBRANCH  15  19
ENDBRANCH  14  15
ENDBRANCH   2  14
BRANCH   4  44
ATOM     44  C   UNL     1      -2.736  -2.971  -1.606  0.00  0.00    +0.000 C 
BRANCH  44  45
ATOM     45  O   UNL     1      -1.628  -3.743  -1.222  0.00  0.00    +0.000 OA
ATOM     46  H   UNL     1      -0.821  -3.211  -1.299  0.00  0.00    +0.000 HD
ENDBRANCH  44  45
ENDBRANCH   4  44
BRANCH   6  47
ATOM     47  O   UNL     1      -5.385  -0.188   1.164  0.00  0.00    +0.000 OA
BRANCH  47  48
ATOM     48  C   UNL     1      -6.310  -0.503   0.303  0.00  0.00    +0.000 C 
ATOM     49  C   UNL     1      -7.547   0.222   0.877  0.00  0.00    +0.000 C 
BRANCH  48  50
ATOM     50  C   UNL     1      -6.847  -1.907   0.335  0.00  0.00    +0.000 C 
ATOM     51  O   UNL     1      -7.318  -2.350   1.426  0.00  0.00    +0.000 OA
BRANCH  50  52
ATOM     52  O   UNL     1      -7.153  -2.617  -0.805  0.00  0.00    +0.000 OA
ATOM     53  H   UNL     1      -6.829  -2.331  -1.636  0.00  0.00    +0.000 HD
ENDBRANCH  50  52
ENDBRANCH  48  50
BRANCH  48  54
ATOM     54  O   UNL     1      -6.290  -0.099  -0.995  0.00  0.00    +0.000 OA
BRANCH  54  55
ATOM     55  P   UNL     1      -7.285   1.175  -1.403  0.00  0.00    +0.000 P 
ATOM     56  O   UNL     1      -6.754   1.770  -2.702  0.00  0.00    +0.000 OA
BRANCH  55  57
ATOM     57  O   UNL     1      -8.821   0.569  -1.725  0.00  0.00    +0.000 OA
ATOM     58  H   UNL     1      -8.755  -0.158  -2.364  0.00  0.00    +0.000 HD
ENDBRANCH  55  57
BRANCH  55  59
ATOM     59  O   UNL     1      -7.292   2.441  -0.305  0.00  0.00    +0.000 OA
ATOM     60  H   UNL     1      -6.383   2.748  -0.159  0.00  0.00    +0.000 HD
ENDBRANCH  55  59
ENDBRANCH  54  55
ENDBRANCH  48  54
ENDBRANCH  47  48
ENDBRANCH   6  47
TORSDOF 24
