REMARK  Name = 448924
REMARK  18 active torsions:
REMARK  status: ('A' for Active; 'I' for Inactive)
REMARK    1  A    between atoms: O_2  and  C_17
REMARK    2  A    between atoms: O_2  and  C_23
REMARK    3  A    between atoms: O_3  and  C_21
REMARK    4  A    between atoms: O_3  and  C_22
REMARK    5  A    between atoms: O_6  and  C_18
REMARK    6  A    between atoms: O_7  and  C_19
REMARK    7  A    between atoms: O_8  and  C_24
REMARK    8  A    between atoms: O_9  and  C_26
REMARK    9  A    between atoms: O_10  and  C_27
REMARK   10  A    between atoms: O_11  and  C_28
REMARK   11  A    between atoms: O_12  and  C_29
REMARK   12  A    between atoms: O_13  and  C_31
REMARK   13  A    between atoms: O_14  and  C_32
REMARK   14  A    between atoms: O_15  and  C_33
REMARK   15  A    between atoms: O_16  and  C_34
REMARK   16  A    between atoms: C_20  and  C_31
REMARK   17  A    between atoms: C_25  and  C_33
REMARK   18  A    between atoms: C_30  and  C_34
REMARK                            x       y       z     vdW  Elec       q    Type
REMARK                         _______ _______ _______ _____ _____    ______ ____
ROOT
ATOM      1  O   UNL     1      -0.700  -0.556   0.810  0.00  0.00    +0.000 OA
ATOM      2  C   UNL     1       1.297  -1.570  -0.129  0.00  0.00    +0.000 C 
ATOM      3  C   UNL     1       0.433  -2.342  -1.127  0.00  0.00    +0.000 C 
ATOM      4  C   UNL     1      -0.895  -1.626  -1.372  0.00  0.00    +0.000 C 
ATOM      5  C   UNL     1       0.490  -1.282   1.142  0.00  0.00    +0.000 C 
ATOM      6  C   UNL     1      -1.579  -1.284  -0.046  0.00  0.00    +0.000 C 
ENDROOT
BRANCH   3   7
ATOM      7  O   UNL     1       1.124  -2.486  -2.365  0.00  0.00    +0.000 OA
ATOM      8  H   UNL     1       1.960  -2.946  -2.181  0.00  0.00    +0.000 HD
ENDBRANCH   3   7
BRANCH   4   9
ATOM      9  O   UNL     1      -1.758  -2.482  -2.120  0.00  0.00    +0.000 OA
ATOM     10  H   UNL     1      -1.910  -3.289  -1.599  0.00  0.00    +0.000 HD
ENDBRANCH   4   9
BRANCH   2  11
ATOM     11  O   UNL     1       1.708  -0.330  -0.709  0.00  0.00    +0.000 OA
BRANCH  11  13
ATOM     12  O   UNL     1       3.699  -0.358   0.509  0.00  0.00    +0.000 OA
ATOM     13  C   UNL     1       3.130  -0.244  -0.795  0.00  0.00    +0.000 C 
ATOM     14  C   UNL     1       3.482   1.103  -1.430  0.00  0.00    +0.000 C 
ATOM     15  C   UNL     1       4.993   1.332  -1.413  0.00  0.00    +0.000 C 
ATOM     16  C   UNL     1       5.567   1.103  -0.014  0.00  0.00    +0.000 C 
ATOM     17  C   UNL     1       5.130  -0.270   0.507  0.00  0.00    +0.000 C 
BRANCH  14  18
ATOM     18  O   UNL     1       3.023   1.100  -2.782  0.00  0.00    +0.000 OA
ATOM     19  H   UNL     1       3.472   0.377  -3.252  0.00  0.00    +0.000 HD
ENDBRANCH  14  18
BRANCH  15  20
ATOM     20  O   UNL     1       5.271   2.661  -1.846  0.00  0.00    +0.000 OA
ATOM     21  H   UNL     1       6.235   2.782  -1.816  0.00  0.00    +0.000 HD
ENDBRANCH  15  20
BRANCH  16  22
ATOM     22  O   UNL     1       5.084   2.113   0.874  0.00  0.00    +0.000 OA
ATOM     23  H   UNL     1       5.595   2.054   1.698  0.00  0.00    +0.000 HD
ENDBRANCH  16  22
BRANCH  17  24
ATOM     24  C   UNL     1       5.603  -0.527   1.933  0.00  0.00    +0.000 C 
BRANCH  24  25
ATOM     25  O   UNL     1       5.571  -1.922   2.176  0.00  0.00    +0.000 OA
ATOM     26  H   UNL     1       5.878  -2.062   3.088  0.00  0.00    +0.000 HD
ENDBRANCH  24  25
ENDBRANCH  17  24
ENDBRANCH  11  13
ENDBRANCH   2  11
BRANCH   6  27
ATOM     27  O   UNL     1      -2.731  -0.494  -0.339  0.00  0.00    +0.000 OA
BRANCH  27  29
ATOM     28  O   UNL     1      -4.218   1.936  -0.136  0.00  0.00    +0.000 OA
ATOM     29  C   UNL     1      -3.432  -0.137   0.854  0.00  0.00    +0.000 C 
ATOM     30  C   UNL     1      -4.854  -0.698   0.801  0.00  0.00    +0.000 C 
ATOM     31  C   UNL     1      -3.482   1.390   0.966  0.00  0.00    +0.000 C 
ATOM     32  C   UNL     1      -5.674  -0.013  -0.292  0.00  0.00    +0.000 C 
ATOM     33  C   UNL     1      -5.579   1.510  -0.166  0.00  0.00    +0.000 C 
BRANCH  30  34
ATOM     34  O   UNL     1      -4.819  -2.100   0.550  0.00  0.00    +0.000 OA
ATOM     35  H   UNL     1      -4.296  -2.511   1.260  0.00  0.00    +0.000 HD
ENDBRANCH  30  34
BRANCH  32  36
ATOM     36  O   UNL     1      -7.043  -0.394  -0.161  0.00  0.00    +0.000 OA
ATOM     37  H   UNL     1      -7.353  -0.108   0.716  0.00  0.00    +0.000 HD
ENDBRANCH  32  36
BRANCH  33  38
ATOM     38  O   UNL     1      -6.239   2.084  -1.293  0.00  0.00    +0.000 OA
ATOM     39  H   UNL     1      -6.523   2.977  -1.032  0.00  0.00    +0.000 HD
ENDBRANCH  33  38
BRANCH  31  40
ATOM     40  C   UNL     1      -2.093   2.019   0.942  0.00  0.00    +0.000 C 
BRANCH  40  41
ATOM     41  O   UNL     1      -2.232   3.425   1.039  0.00  0.00    +0.000 OA
ATOM     42  H   UNL     1      -1.336   3.804   1.027  0.00  0.00    +0.000 HD
ENDBRANCH  40  41
ENDBRANCH  31  40
ENDBRANCH  27  29
ENDBRANCH   6  27
BRANCH   5  43
ATOM     43  C   UNL     1       1.270  -0.443   2.147  0.00  0.00    +0.000 C 
BRANCH  43  44
ATOM     44  O   UNL     1       0.451  -0.217   3.280  0.00  0.00    +0.000 OA
ATOM     45  H   UNL     1       0.968   0.318   3.906  0.00  0.00    +0.000 HD
ENDBRANCH  43  44
ENDBRANCH   5  43
TORSDOF 18
