REMARK  Name = 445888
REMARK  17 active torsions:
REMARK  status: ('A' for Active; 'I' for Inactive)
REMARK    1  A    between atoms: P_1  and  O_4
REMARK    2  A    between atoms: P_1  and  O_7
REMARK    3  A    between atoms: P_1  and  O_12
REMARK    4  A    between atoms: O_4  and  C_23
REMARK    5  A    between atoms: O_5  and  C_21
REMARK    6  A    between atoms: O_6  and  C_22
REMARK    7  A    between atoms: O_7  and  C_30
REMARK    8  A    between atoms: O_8  and  C_26
REMARK    9  A    between atoms: O_9  and  C_27
REMARK   10  A    between atoms: O_10  and  C_29
REMARK   11  A    between atoms: O_11  and  C_31
REMARK   12  A    between atoms: O_13  and  C_32
REMARK   13  A    between atoms: N_17  and  C_28
REMARK   14  A    between atoms: C_20  and  C_29
REMARK   15  A    between atoms: C_23  and  C_31
REMARK   16  A    between atoms: C_25  and  C_30
REMARK   17  A    between atoms: C_29  and  C_32
REMARK                            x       y       z     vdW  Elec       q    Type
REMARK                         _______ _______ _______ _____ _____    ______ ____
ROOT
ATOM      1  P   UNL     1      -1.833   2.180  -1.483  0.00  0.00    +0.000 P 
ATOM      2  O   UNL     1      -1.574   1.292  -2.666  0.00  0.00    +0.000 OA
ENDROOT
BRANCH   1   3
ATOM      3  O   UNL     1      -2.046   3.739  -1.862  0.00  0.00    +0.000 OA
ATOM      4  H   UNL     1      -1.455   4.151  -2.527  0.00  0.00    +0.000 HD
ENDBRANCH   1   3
BRANCH   1   5
ATOM      5  O   UNL     1      -3.148   1.789  -0.635  0.00  0.00    +0.000 OA
BRANCH   5  10
ATOM      6  O   UNL     1      -2.004   0.138   0.556  0.00  0.00    +0.000 OA
ATOM      7  C   UNL     1      -1.965  -1.170   1.145  0.00  0.00    +0.000 C 
ATOM      8  C   UNL     1      -2.304  -2.245   0.106  0.00  0.00    +0.000 C 
ATOM      9  C   UNL     1      -3.669  -1.950  -0.513  0.00  0.00    +0.000 C 
ATOM     10  C   UNL     1      -3.244   0.495  -0.034  0.00  0.00    +0.000 C 
ATOM     11  C   UNL     1      -3.707  -0.530  -1.073  0.00  0.00    +0.000 C 
BRANCH   8  12
ATOM     12  O   UNL     1      -1.302  -2.244  -0.913  0.00  0.00    +0.000 OA
ATOM     13  H   UNL     1      -1.152  -1.326  -1.195  0.00  0.00    +0.000 HD
ENDBRANCH   8  12
BRANCH   9  14
ATOM     14  O   UNL     1      -3.940  -2.892  -1.544  0.00  0.00    +0.000 OA
ATOM     15  H   UNL     1      -4.810  -2.673  -1.920  0.00  0.00    +0.000 HD
ENDBRANCH   9  14
BRANCH  10  17
ATOM     16  O   UNL     1      -4.152   0.550   2.209  0.00  0.00    +0.000 OA
ATOM     17  C   UNL     1      -4.293   0.745   1.011  0.00  0.00    +0.000 C 
BRANCH  17  18
ATOM     18  O   UNL     1      -5.430   1.217   0.443  0.00  0.00    +0.000 OA
ATOM     19  H   UNL     1      -6.130   1.385   1.110  0.00  0.00    +0.000 HD
ENDBRANCH  17  18
ENDBRANCH  10  17
BRANCH   7  20
ATOM     20  C   UNL     1      -0.571  -1.356   1.735  0.00  0.00    +0.000 C 
BRANCH  20  21
ATOM     21  O   UNL     1      -0.492  -2.652   2.323  0.00  0.00    +0.000 OA
ATOM     22  H   UNL     1       0.398  -2.746   2.703  0.00  0.00    +0.000 HD
ENDBRANCH  20  21
BRANCH  20  23
ATOM     23  C   UNL     1      -0.283  -0.320   2.813  0.00  0.00    +0.000 C 
BRANCH  23  24
ATOM     24  O   UNL     1       1.037  -0.524   3.305  0.00  0.00    +0.000 OA
ATOM     25  H   UNL     1       1.194   0.150   3.988  0.00  0.00    +0.000 HD
ENDBRANCH  23  24
ENDBRANCH  20  23
ENDBRANCH   7  20
ENDBRANCH   5  10
ENDBRANCH   1   5
BRANCH   1  26
ATOM     26  O   UNL     1      -0.631   2.227  -0.399  0.00  0.00    +0.000 OA
BRANCH  26  27
ATOM     27  C   UNL     1       0.643   2.681  -0.824  0.00  0.00    +0.000 C 
BRANCH  27  29
ATOM     28  O   UNL     1       1.731   1.264   0.783  0.00  0.00    +0.000 OA
ATOM     29  C   UNL     1       1.604   2.638   0.356  0.00  0.00    +0.000 C 
ATOM     30  C   UNL     1       3.012   3.097   0.004  0.00  0.00    +0.000 C 
ATOM     31  C   UNL     1       3.648   1.817  -0.495  0.00  0.00    +0.000 C 
ATOM     32  C   UNL     1       3.038   0.780   0.432  0.00  0.00    +0.000 C 
BRANCH  32  34
ATOM     33  O   UNL     1       4.113  -1.628   1.422  0.00  0.00    +0.000 OA
ATOM     34  N   UNL     1       2.907  -0.505  -0.193  0.00  0.00    +0.000 N 
ATOM     35  N   UNL     1       3.311  -2.882  -0.291  0.00  0.00    +0.000 NA
ATOM     36  N   UNL     1       2.488  -4.162  -2.050  0.00  0.00    +0.000 N 
ATOM     37  C   UNL     1       2.201  -0.598  -1.383  0.00  0.00    +0.000 A 
ATOM     38  C   UNL     1       3.478  -1.676   0.368  0.00  0.00    +0.000 A 
ATOM     39  C   UNL     1       2.030  -1.748  -2.031  0.00  0.00    +0.000 A 
ATOM     40  C   UNL     1       2.642  -2.953  -1.411  0.00  0.00    +0.000 A 
ATOM     41  H   UNL     1       2.888  -5.009  -1.662  0.00  0.00    +0.000 HD
ATOM     42  H   UNL     1       1.974  -4.249  -2.920  0.00  0.00    +0.000 HD
ENDBRANCH  32  34
BRANCH  30  43
ATOM     43  O   UNL     1       3.648   3.530   1.206  0.00  0.00    +0.000 OA
ATOM     44  H   UNL     1       3.183   4.329   1.509  0.00  0.00    +0.000 HD
ENDBRANCH  30  43
BRANCH  31  45
ATOM     45  O   UNL     1       5.058   1.853  -0.418  0.00  0.00    +0.000 OA
ATOM     46  H   UNL     1       5.385   0.971  -0.665  0.00  0.00    +0.000 HD
ENDBRANCH  31  45
ENDBRANCH  27  29
ENDBRANCH  26  27
ENDBRANCH   1  26
TORSDOF 17
