REMARK  Name = 49866449
REMARK  13 active torsions:
REMARK  status: ('A' for Active; 'I' for Inactive)
REMARK    1  A    between atoms: P_1  and  O_5
REMARK    2  A    between atoms: P_1  and  O_7
REMARK    3  A    between atoms: P_1  and  O_8
REMARK    4  A    between atoms: O_3  and  C_13
REMARK    5  A    between atoms: O_3  and  C_18
REMARK    6  A    between atoms: O_4  and  C_14
REMARK    7  A    between atoms: O_5  and  C_17
REMARK    8  A    between atoms: N_11  and  C_15
REMARK    9  A    between atoms: C_16  and  C_17
REMARK   10  A    between atoms: C_18  and  C_21
REMARK   11  A    between atoms: C_21  and  C_23
REMARK   12  A    between atoms: C_22  and  C_25
REMARK   13  A    between atoms: C_23  and  C_26
REMARK                            x       y       z     vdW  Elec       q    Type
REMARK                         _______ _______ _______ _____ _____    ______ ____
ROOT
ATOM      1  O   UNL     1      -0.766   0.606   1.653  0.00  0.00    +0.000 OA
ATOM      2  C   UNL     1       1.191   0.796   0.330  0.00  0.00    +0.000 C 
ATOM      3  C   UNL     1       0.766   2.181   0.768  0.00  0.00    +0.000 C 
ATOM      4  C   UNL     1       0.445  -0.089   1.314  0.00  0.00    +0.000 C 
ATOM      5  C   UNL     1      -0.689   1.961   1.157  0.00  0.00    +0.000 C 
ENDROOT
BRANCH   4   8
ATOM      6  O   UNL     1       1.998  -2.465   1.582  0.00  0.00    +0.000 OA
ATOM      7  O   UNL     1      -1.002  -4.913  -0.900  0.00  0.00    +0.000 OA
ATOM      8  N   UNL     1       0.109  -1.368   0.757  0.00  0.00    +0.000 N 
ATOM      9  N   UNL     1       0.494  -3.674   0.343  0.00  0.00    +0.000 N 
ATOM     10  C   UNL     1      -1.065  -1.485   0.021  0.00  0.00    +0.000 A 
ATOM     11  C   UNL     1       0.944  -2.493   0.943  0.00  0.00    +0.000 A 
ATOM     12  C   UNL     1      -1.494  -2.617  -0.552  0.00  0.00    +0.000 A 
ATOM     13  C   UNL     1      -0.666  -3.843  -0.399  0.00  0.00    +0.000 A 
ATOM     14  C   UNL     1      -2.761  -2.718  -1.337  0.00  0.00    +0.000 C 
ATOM     15  H   UNL     1       1.080  -4.495   0.464  0.00  0.00    +0.000 HD
ENDBRANCH   4   8
BRANCH   3  16
ATOM     16  O   UNL     1       1.481   2.570   1.941  0.00  0.00    +0.000 OA
ATOM     17  H   UNL     1       1.150   3.444   2.208  0.00  0.00    +0.000 HD
ENDBRANCH   3  16
BRANCH   2  18
ATOM     18  O   UNL     1       2.591   0.618   0.392  0.00  0.00    +0.000 OA
BRANCH  18  19
ATOM     19  C   UNL     1       3.248   1.189  -0.735  0.00  0.00    +0.000 C 
BRANCH  19  20
ATOM     20  C   UNL     1       4.745   0.942  -0.609  0.00  0.00    +0.000 C 
BRANCH  20  21
ATOM     21  C   UNL     1       5.516   1.543  -1.780  0.00  0.00    +0.000 C 
ATOM     22  C   UNL     1       7.014   1.332  -1.629  0.00  0.00    +0.000 C 
ENDBRANCH  20  21
ENDBRANCH  19  20
ENDBRANCH  18  19
ENDBRANCH   2  18
BRANCH   5  23
ATOM     23  C   UNL     1      -1.652   2.094  -0.015  0.00  0.00    +0.000 C 
BRANCH  23  24
ATOM     24  O   UNL     1      -2.969   1.861   0.452  0.00  0.00    +0.000 OA
BRANCH  24  25
ATOM     25  P   UNL     1      -4.191   1.943  -0.608  0.00  0.00    +0.000 P 
ATOM     26  O   UNL     1      -5.551   1.683  -0.029  0.00  0.00    +0.000 OA
BRANCH  25  27
ATOM     27  O   UNL     1      -3.739   0.938  -1.792  0.00  0.00    +0.000 OA
ATOM     28  H   UNL     1      -4.362   0.762  -2.529  0.00  0.00    +0.000 HD
ENDBRANCH  25  27
BRANCH  25  29
ATOM     29  O   UNL     1      -3.998   3.406  -1.268  0.00  0.00    +0.000 OA
ATOM     30  H   UNL     1      -4.679   3.740  -1.891  0.00  0.00    +0.000 HD
ENDBRANCH  25  29
ENDBRANCH  24  25
ENDBRANCH  23  24
ENDBRANCH   5  23
TORSDOF 11
