REMARK  Name = 5287514
REMARK  12 active torsions:
REMARK  status: ('A' for Active; 'I' for Inactive)
REMARK    1  A    between atoms: O_2  and  C_19
REMARK    2  A    between atoms: O_2  and  C_20
REMARK    3  A    between atoms: O_5  and  C_17
REMARK    4  A    between atoms: O_7  and  C_18
REMARK    5  A    between atoms: O_8  and  C_22
REMARK    6  A    between atoms: O_9  and  C_25
REMARK    7  A    between atoms: O_10  and  C_26
REMARK    8  A    between atoms: O_11  and  C_28
REMARK    9  A    between atoms: O_12  and  C_29
REMARK   10  A    between atoms: C_23  and  C_27
REMARK   11  A    between atoms: C_23  and  C_28
REMARK   12  A    between atoms: C_24  and  C_29
REMARK                            x       y       z     vdW  Elec       q    Type
REMARK                         _______ _______ _______ _____ _____    ______ ____
ROOT
ATOM      1  O   UNL     1       0.348   0.306  -0.038  0.00  0.00    +0.000 OA
ATOM      2  O   UNL     1       3.806  -0.794   0.472  0.00  0.00    +0.000 OA
ATOM      3  O   UNL     1       3.442   1.250   1.682  0.00  0.00    +0.000 OA
ATOM      4  C   UNL     1       2.589  -0.618  -0.253  0.00  0.00    +0.000 C 
ATOM      5  C   UNL     1       1.590   0.123   0.634  0.00  0.00    +0.000 C 
ATOM      6  C   UNL     1       2.004  -1.974  -0.651  0.00  0.00    +0.000 C 
ATOM      7  C   UNL     1       0.618  -1.790  -1.279  0.00  0.00    +0.000 C 
ATOM      8  C   UNL     1      -0.272  -0.948  -0.355  0.00  0.00    +0.000 C 
ATOM      9  C   UNL     1       2.195   1.462   1.022  0.00  0.00    +0.000 C 
ATOM     10  C   UNL     1       4.350   0.443   0.934  0.00  0.00    +0.000 C 
ATOM     11  C   UNL     1       5.499   0.089   1.875  0.00  0.00    +0.000 C 
ENDROOT
BRANCH   6  12
ATOM     12  O   UNL     1       2.873  -2.634  -1.567  0.00  0.00    +0.000 OA
ATOM     13  H   UNL     1       3.748  -2.693  -1.147  0.00  0.00    +0.000 HD
ENDBRANCH   6  12
BRANCH   7  14
ATOM     14  O   UNL     1       0.776  -1.105  -2.525  0.00  0.00    +0.000 OA
ATOM     15  H   UNL     1       1.368  -1.643  -3.078  0.00  0.00    +0.000 HD
ENDBRANCH   7  14
BRANCH  10  17
ATOM     16  O   UNL     1       5.075   2.447  -0.226  0.00  0.00    +0.000 OA
ATOM     17  C   UNL     1       4.951   1.232  -0.204  0.00  0.00    +0.000 C 
BRANCH  17  18
ATOM     18  O   UNL     1       5.335   0.406  -1.208  0.00  0.00    +0.000 OA
ATOM     19  H   UNL     1       5.726   0.901  -1.960  0.00  0.00    +0.000 HD
ENDBRANCH  17  18
ENDBRANCH  10  17
BRANCH   8  20
ATOM     20  O   UNL     1      -1.560  -0.741  -0.927  0.00  0.00    +0.000 OA
BRANCH  20  22
ATOM     21  O   UNL     1      -4.605  -0.067   1.006  0.00  0.00    +0.000 OA
ATOM     22  C   UNL     1      -2.399   0.021  -0.060  0.00  0.00    +0.000 C 
ATOM     23  C   UNL     1      -2.793   1.323  -0.761  0.00  0.00    +0.000 C 
ATOM     24  C   UNL     1      -3.626  -0.817   0.290  0.00  0.00    +0.000 C 
ATOM     25  C   UNL     1      -3.906   2.027   0.013  0.00  0.00    +0.000 C 
ATOM     26  C   UNL     1      -5.071   1.075   0.286  0.00  0.00    +0.000 C 
BRANCH  23  27
ATOM     27  O   UNL     1      -1.640   2.163  -0.811  0.00  0.00    +0.000 OA
ATOM     28  H   UNL     1      -1.910   3.001  -1.223  0.00  0.00    +0.000 HD
ENDBRANCH  23  27
BRANCH  25  29
ATOM     29  O   UNL     1      -4.388   3.150  -0.717  0.00  0.00    +0.000 OA
ATOM     30  H   UNL     1      -5.080   3.574  -0.182  0.00  0.00    +0.000 HD
ENDBRANCH  25  29
BRANCH  26  31
ATOM     31  O   UNL     1      -5.711   0.714  -0.936  0.00  0.00    +0.000 OA
ATOM     32  H   UNL     1      -6.630   0.480  -0.720  0.00  0.00    +0.000 HD
ENDBRANCH  26  31
BRANCH  24  34
ATOM     33  O   UNL     1      -3.248  -1.790   2.466  0.00  0.00    +0.000 OA
ATOM     34  C   UNL     1      -3.268  -1.905   1.250  0.00  0.00    +0.000 C 
BRANCH  34  35
ATOM     35  O   UNL     1      -2.963  -3.047   0.587  0.00  0.00    +0.000 OA
ATOM     36  H   UNL     1      -2.722  -3.774   1.200  0.00  0.00    +0.000 HD
ENDBRANCH  34  35
ENDBRANCH  24  34
ENDBRANCH  20  22
ENDBRANCH   8  20
TORSDOF 11
