REMARK  Name = 
REMARK  18 active torsions:
REMARK  status: ('A' for Active; 'I' for Inactive)
REMARK    1  A    between atoms: C_2  and  O_3
REMARK    2  A    between atoms: C_2  and  C_55
REMARK    3  A    between atoms: O_3  and  C_4
REMARK    4  A    between atoms: C_5  and  O_6
REMARK    5  A    between atoms: O_6  and  C_7
REMARK    6  A    between atoms: C_7  and  C_9
REMARK    7  A    between atoms: C_15  and  O_16
REMARK    8  A    between atoms: O_16  and  C_17
REMARK    9  A    between atoms: C_17  and  C_19
REMARK   10  A    between atoms: C_25  and  O_26
REMARK   11  A    between atoms: O_26  and  C_27
REMARK   12  A    between atoms: C_27  and  C_29
REMARK   13  A    between atoms: C_35  and  O_36
REMARK   14  A    between atoms: O_36  and  C_37
REMARK   15  A    between atoms: C_37  and  C_39
REMARK   16  A    between atoms: C_45  and  O_46
REMARK   17  A    between atoms: O_46  and  C_47
REMARK   18  A    between atoms: C_47  and  C_49
REMARK                            x       y       z     vdW  Elec       q    Type
REMARK                         _______ _______ _______ _____ _____    ______ ____
ROOT
ATOM      1  C   UNL     1       0.055  -1.310   0.687  0.00  0.00    +0.000 C 
ATOM      2  C   UNL     1       1.282  -0.614  -0.270  0.00  0.00    +0.000 C 
ATOM      3  C   UNL     1       1.098   0.980   0.273  0.00  0.00    +0.000 C 
ATOM      4  C   UNL     1      -0.189   0.995  -0.854  0.00  0.00    +0.000 C 
ATOM      5  C   UNL     1      -1.374   1.005   0.371  0.00  0.00    +0.000 C 
ATOM      6  C   UNL     1      -0.524   0.050   1.494  0.00  0.00    +0.000 C 
ENDROOT
BRANCH   1   7
ATOM      7  O   UNL     1      -0.868  -1.442  -0.511  0.00  0.00    +0.000 OA
BRANCH   7   9
ATOM      8  O   UNL     1      -0.153  -2.662  -0.998  0.00  0.00    +0.000 OA
ATOM      9  C   UNL     1      -0.377  -2.617  -1.088  0.00  0.00    +0.000 C 
BRANCH   9  10
ATOM     10  C   UNL     1      -1.192  -3.707  -1.680  0.00  0.00    +0.000 A 
ATOM     11  C   UNL     1      -1.292  -3.643  -3.071  0.00  0.00    +0.000 A 
ATOM     12  C   UNL     1      -1.666  -4.794  -3.752  0.00  0.00    +0.000 A 
ATOM     13  C   UNL     1      -1.556  -5.997  -3.096  0.00  0.00    +0.000 A 
ATOM     14  N   UNL     1      -0.986  -6.100  -1.889  0.00  0.00    +0.000 NA
ATOM     15  C   UNL     1      -0.689  -4.954  -1.292  0.00  0.00    +0.000 A 
ENDBRANCH   9  10
ENDBRANCH   7   9
ENDBRANCH   1   7
BRANCH   2  16
ATOM     16  O   UNL     1       2.351  -1.077   0.686  0.00  0.00    +0.000 OA
BRANCH  16  17
ATOM     17  C   UNL     1       2.786  -0.444   1.754  0.00  0.00    +0.000 C 
ATOM     18  O   UNL     1       2.398   0.710   1.971  0.00  0.00    +0.000 OA
BRANCH  17  19
ATOM     19  C   UNL     1       4.128  -0.851   2.209  0.00  0.00    +0.000 A 
ATOM     20  C   UNL     1       5.018  -1.506   1.366  0.00  0.00    +0.000 A 
ATOM     21  C   UNL     1       6.330  -1.684   1.725  0.00  0.00    +0.000 A 
ATOM     22  C   UNL     1       6.697  -1.148   2.954  0.00  0.00    +0.000 A 
ATOM     23  N   UNL     1       5.732  -0.893   3.870  0.00  0.00    +0.000 NA
ATOM     24  C   UNL     1       4.442  -0.810   3.538  0.00  0.00    +0.000 A 
ENDBRANCH  17  19
ENDBRANCH  16  17
ENDBRANCH   2  16
BRANCH   3  25
ATOM     25  O   UNL     1       2.085   1.592  -0.692  0.00  0.00    +0.000 OA
BRANCH  25  26
ATOM     26  C   UNL     1       2.540   1.011  -1.806  0.00  0.00    +0.000 C 
ATOM     27  O   UNL     1       1.687   0.315  -2.401  0.00  0.00    +0.000 OA
BRANCH  26  28
ATOM     28  C   UNL     1       3.927   1.172  -2.271  0.00  0.00    +0.000 A 
ATOM     29  C   UNL     1       4.860   0.459  -1.525  0.00  0.00    +0.000 A 
ATOM     30  C   UNL     1       6.184   0.872  -1.523  0.00  0.00    +0.000 A 
ATOM     31  C   UNL     1       6.518   1.918  -2.371  0.00  0.00    +0.000 A 
ATOM     32  N   UNL     1       5.667   2.204  -3.387  0.00  0.00    +0.000 NA
ATOM     33  C   UNL     1       4.330   2.007  -3.262  0.00  0.00    +0.000 A 
ENDBRANCH  26  28
ENDBRANCH  25  26
ENDBRANCH   3  25
BRANCH   4  34
ATOM     34  O   UNL     1      -0.150   2.499  -1.032  0.00  0.00    +0.000 OA
BRANCH  34  35
ATOM     35  C   UNL     1      -0.519   3.375  -0.095  0.00  0.00    +0.000 C 
ATOM     36  O   UNL     1      -0.898   2.973   1.016  0.00  0.00    +0.000 OA
BRANCH  35  37
ATOM     37  C   UNL     1      -0.830   4.769  -0.443  0.00  0.00    +0.000 A 
ATOM     38  C   UNL     1       0.127   5.684  -0.793  0.00  0.00    +0.000 A 
ATOM     39  C   UNL     1      -0.242   6.948  -1.228  0.00  0.00    +0.000 A 
ATOM     40  C   UNL     1      -1.438   7.438  -0.720  0.00  0.00    +0.000 A 
ATOM     41  N   UNL     1      -2.369   6.555  -0.295  0.00  0.00    +0.000 NA
ATOM     42  C   UNL     1      -2.054   5.273  -0.016  0.00  0.00    +0.000 A 
ENDBRANCH  35  37
ENDBRANCH  34  35
ENDBRANCH   4  34
BRANCH   5  43
ATOM     43  O   UNL     1      -2.310  -0.037  -0.219  0.00  0.00    +0.000 OA
BRANCH  43  44
ATOM     44  C   UNL     1      -3.218   0.436  -1.111  0.00  0.00    +0.000 C 
ATOM     45  O   UNL     1      -3.637   1.613  -1.026  0.00  0.00    +0.000 OA
BRANCH  44  46
ATOM     46  C   UNL     1      -3.859  -0.387  -2.145  0.00  0.00    +0.000 A 
ATOM     47  C   UNL     1      -5.204  -0.653  -2.043  0.00  0.00    +0.000 A 
ATOM     48  C   UNL     1      -5.881  -1.309  -3.035  0.00  0.00    +0.000 A 
ATOM     49  C   UNL     1      -5.212  -1.619  -4.191  0.00  0.00    +0.000 A 
ATOM     50  N   UNL     1      -3.895  -1.343  -4.343  0.00  0.00    +0.000 NA
ATOM     51  C   UNL     1      -3.267  -0.629  -3.376  0.00  0.00    +0.000 A 
ENDBRANCH  44  46
ENDBRANCH  43  44
ENDBRANCH   5  43
BRANCH   6  52
ATOM     52  O   UNL     1      -1.771  -0.725   1.950  0.00  0.00    +0.000 OA
BRANCH  52  53
ATOM     53  C   UNL     1      -1.515  -1.322   3.189  0.00  0.00    +0.000 C 
ATOM     54  O   UNL     1      -0.562  -2.158   3.175  0.00  0.00    +0.000 OA
BRANCH  53  55
ATOM     55  C   UNL     1      -2.405  -1.212   4.336  0.00  0.00    +0.000 A 
ATOM     56  C   UNL     1      -2.557  -0.041   5.066  0.00  0.00    +0.000 A 
ATOM     57  C   UNL     1      -3.726   0.186   5.777  0.00  0.00    +0.000 A 
ATOM     58  C   UNL     1      -4.531  -0.913   6.047  0.00  0.00    +0.000 A 
ATOM     59  N   UNL     1      -4.210  -2.134   5.575  0.00  0.00    +0.000 NA
ATOM     60  C   UNL     1      -3.116  -2.304   4.818  0.00  0.00    +0.000 A 
ENDBRANCH  53  55
ENDBRANCH  52  53
ENDBRANCH   6  52
TORSDOF 18
