REMARK  Name = 
REMARK  30 active torsions:
REMARK  status: ('A' for Active; 'I' for Inactive)
REMARK    1  A    between atoms: C_1  and  C_2
REMARK    2  A    between atoms: C_1  and  C_3
REMARK    3  A    between atoms: C_1  and  O_4
REMARK    4  A    between atoms: C_2  and  C_5
REMARK    5  A    between atoms: C_2  and  O_6
REMARK    6  A    between atoms: C_3  and  C_7
REMARK    7  A    between atoms: C_3  and  O_8
REMARK    8  A    between atoms: C_5  and  C_9
REMARK    9  A    between atoms: C_5  and  O_10
REMARK   10  A    between atoms: C_7  and  O_11
REMARK   11  A    between atoms: C_9  and  O_13
REMARK   12  A    between atoms: O_13  and  CA_38
REMARK   13  A    between atoms: C_14  and  O_15
REMARK   14  A    between atoms: O_15  and  C_18
REMARK   15  A    between atoms: C_17  and  O_21
REMARK   16  A    between atoms: C_18  and  C_22
REMARK   17  A    between atoms: C_18  and  C_23
REMARK   18  A    between atoms: C_19  and  C_25
REMARK   19  A    between atoms: C_20  and  O_26
REMARK   20  A    between atoms: C_22  and  C_27
REMARK   21  A    between atoms: C_22  and  O_28
REMARK   22  A    between atoms: C_23  and  C_29
REMARK   23  A    between atoms: C_23  and  O_30
REMARK   24  A    between atoms: C_24  and  O_31
REMARK   25  A    between atoms: C_25  and  O_32
REMARK   26  A    between atoms: C_27  and  C_33
REMARK   27  A    between atoms: C_27  and  O_34
REMARK   28  A    between atoms: C_29  and  O_35
REMARK   29  A    between atoms: C_33  and  O_37
REMARK   30  A    between atoms: O_37  and  CA_38
REMARK                            x       y       z     vdW  Elec       q    Type
REMARK                         _______ _______ _______ _____ _____    ______ ____
ROOT
ATOM      1  C   UNL     1      -2.476  -1.861   0.000  0.00  0.00    +0.000 C 
ENDROOT
BRANCH   1   2
ATOM      2  O   UNL     1      -2.476  -2.689   0.000  0.00  0.00    +0.000 OA
ATOM      3  H   UNL     1      -3.316  -3.174   0.000  0.00  0.00    +0.000 HD
ENDBRANCH   1   2
BRANCH   1   4
ATOM      4  C   UNL     1      -3.194  -1.454   0.000  0.00  0.00    +0.000 C 
BRANCH   4   5
ATOM      5  O   UNL     1      -3.225   0.091   0.000  0.00  0.00    +0.000 OA
BRANCH   5   6
ATOM      6  C   UNL     1      -4.167   0.526   0.000  0.00  0.00    +0.000 C 
ATOM      7  O   UNL     1      -4.588   1.237   0.000  0.00  0.00    +0.000 OA
ATOM      8  C   UNL     1      -4.564  -0.195   0.000  0.00  0.00    +0.000 C 
ATOM      9  C   UNL     1      -5.374   1.240   0.000  0.00  0.00    +0.000 C 
ATOM     10  C   UNL     1      -5.409  -0.174   0.000  0.00  0.00    +0.000 C 
ATOM     11  C   UNL     1      -5.782   0.540   0.000  0.00  0.00    +0.000 C 
BRANCH   8  12
ATOM     12  O   UNL     1      -4.174  -0.912   0.000  0.00  0.00    +0.000 OA
ATOM     13  H   UNL     1      -4.680  -1.740   0.000  0.00  0.00    +0.000 HD
ENDBRANCH   8  12
BRANCH  10  14
ATOM     14  O   UNL     1      -5.813  -0.902   0.000  0.00  0.00    +0.000 OA
ATOM     15  H   UNL     1      -6.782  -0.919   0.000  0.00  0.00    +0.000 HD
ENDBRANCH  10  14
BRANCH  11  16
ATOM     16  O   UNL     1      -6.641   0.547   0.000  0.00  0.00    +0.000 OA
ATOM     17  H   UNL     1      -7.119   1.391   0.000  0.00  0.00    +0.000 HD
ENDBRANCH  11  16
BRANCH   9  18
ATOM     18  C   UNL     1      -5.788   1.989   0.000  0.00  0.00    +0.000 C 
BRANCH  18  19
ATOM     19  O   UNL     1      -5.347   2.693   0.000  0.00  0.00    +0.000 OA
ATOM     20  H   UNL     1      -4.377   2.657   0.000  0.00  0.00    +0.000 HD
ENDBRANCH  18  19
ENDBRANCH   9  18
ENDBRANCH   5   6
ENDBRANCH   4   5
BRANCH   4  21
ATOM     21  C   UNL     1      -3.908  -1.868   0.000  0.00  0.00    +0.000 C 
BRANCH  21  22
ATOM     22  O   UNL     1      -3.908  -2.693   0.000  0.00  0.00    +0.000 OA
ATOM     23  H   UNL     1      -4.748  -3.178   0.000  0.00  0.00    +0.000 HD
ENDBRANCH  21  22
BRANCH  21  24
ATOM     24  C   UNL     1      -4.629  -1.454   0.000  0.00  0.00    +0.000 C 
BRANCH  24  25
ATOM     25  O   UNL     1      -5.343  -1.868   0.000  0.00  0.00    +0.000 OA
ATOM     26  H   UNL     1      -6.184  -1.385   0.000  0.00  0.00    +0.000 HD
ENDBRANCH  24  25
ENDBRANCH  21  24
ENDBRANCH   4  21
ENDBRANCH   1   4
BRANCH   1  27
ATOM     27  C   UNL     1      -1.766  -1.451   0.000  0.00  0.00    +0.000 C 
BRANCH  27  28
ATOM     28  C   UNL     1      -1.044  -1.855   0.000  0.00  0.00    +0.000 C 
ATOM     29  O   UNL     1      -1.041  -2.689   0.000  0.00  0.00    +0.000 OA
BRANCH  28  30
ATOM     30  O   UNL     1      -0.327  -1.440   0.000  0.00  0.00    +0.000 OA
BRANCH  30  31
ATOM     31 CA   UNL     1       0.546  -1.436   0.000  0.00  0.00    +0.000 Ca
BRANCH  31  32
ATOM     32  O   UNL     1       1.624  -1.437   0.000  0.00  0.00    +0.000 OA
BRANCH  32  33
ATOM     33  C   UNL     1       2.342  -1.843   0.000  0.00  0.00    +0.000 C 
ATOM     34  O   UNL     1       2.338  -2.678   0.000  0.00  0.00    +0.000 OA
BRANCH  33  35
ATOM     35  C   UNL     1       3.063  -1.448   0.000  0.00  0.00    +0.000 C 
BRANCH  35  36
ATOM     36  O   UNL     1       3.063  -0.612   0.000  0.00  0.00    +0.000 OA
ATOM     37  H   UNL     1       3.903  -0.127   0.000  0.00  0.00    +0.000 HD
ENDBRANCH  35  36
BRANCH  35  38
ATOM     38  C   UNL     1       3.773  -1.850   0.000  0.00  0.00    +0.000 C 
BRANCH  38  39
ATOM     39  O   UNL     1       3.773  -2.678   0.000  0.00  0.00    +0.000 OA
ATOM     40  H   UNL     1       2.933  -3.163   0.000  0.00  0.00    +0.000 HD
ENDBRANCH  38  39
BRANCH  38  41
ATOM     41  C   UNL     1       4.491  -1.458   0.000  0.00  0.00    +0.000 C 
BRANCH  41  42
ATOM     42  O   UNL     1       4.491  -0.622   0.000  0.00  0.00    +0.000 OA
ATOM     43  H   UNL     1       5.331  -0.136   0.000  0.00  0.00    +0.000 HD
ENDBRANCH  41  42
BRANCH  41  44
ATOM     44  C   UNL     1       5.205  -1.857   0.000  0.00  0.00    +0.000 C 
BRANCH  44  45
ATOM     45  O   UNL     1       5.205  -2.682   0.000  0.00  0.00    +0.000 OA
ATOM     46  H   UNL     1       4.365  -3.167   0.000  0.00  0.00    +0.000 HD
ENDBRANCH  44  45
BRANCH  44  47
ATOM     47  C   UNL     1       5.926  -1.458   0.000  0.00  0.00    +0.000 C 
BRANCH  47  48
ATOM     48  O   UNL     1       6.641  -1.857   0.000  0.00  0.00    +0.000 OA
ATOM     49  H   UNL     1       6.654  -2.827   0.000  0.00  0.00    +0.000 HD
ENDBRANCH  47  48
ENDBRANCH  44  47
ENDBRANCH  41  44
ENDBRANCH  38  41
ENDBRANCH  35  38
ENDBRANCH  33  35
ENDBRANCH  32  33
ENDBRANCH  31  32
ENDBRANCH  30  31
ENDBRANCH  28  30
ENDBRANCH  27  28
BRANCH  27  50
ATOM     50  O   UNL     1      -1.766  -0.616   0.000  0.00  0.00    +0.000 OA
ATOM     51  H   UNL     1      -0.925  -0.131   0.000  0.00  0.00    +0.000 HD
ENDBRANCH  27  50
ENDBRANCH   1  27
TORSDOF 30
