REMARK  Name = 
REMARK  24 active torsions:
REMARK  status: ('A' for Active; 'I' for Inactive)
REMARK    1  A    between atoms: P_2  and  O_3
REMARK    2  A    between atoms: P_2  and  O_4
REMARK    3  A    between atoms: P_2  and  O_5
REMARK    4  A    between atoms: O_5  and  C_6
REMARK    5  A    between atoms: C_7  and  O_8
REMARK    6  A    between atoms: O_8  and  P_9
REMARK    7  A    between atoms: P_9  and  O_11
REMARK    8  A    between atoms: P_9  and  O_12
REMARK    9  A    between atoms: C_13  and  O_14
REMARK   10  A    between atoms: O_14  and  P_15
REMARK   11  A    between atoms: P_15  and  O_17
REMARK   12  A    between atoms: P_15  and  O_18
REMARK   13  A    between atoms: C_19  and  O_20
REMARK   14  A    between atoms: O_20  and  P_21
REMARK   15  A    between atoms: P_21  and  O_23
REMARK   16  A    between atoms: P_21  and  O_24
REMARK   17  A    between atoms: C_25  and  O_26
REMARK   18  A    between atoms: O_26  and  P_27
REMARK   19  A    between atoms: P_27  and  O_29
REMARK   20  A    between atoms: P_27  and  O_30
REMARK   21  A    between atoms: C_31  and  O_32
REMARK   22  A    between atoms: O_32  and  P_33
REMARK   23  A    between atoms: P_33  and  O_35
REMARK   24  A    between atoms: P_33  and  O_36
REMARK                            x       y       z     vdW  Elec       q    Type
REMARK                         _______ _______ _______ _____ _____    ______ ____
ROOT
ATOM      1  C   UNL     1       1.397  -0.566   0.314  0.00  0.00    +0.000 C 
ATOM      2  C   UNL     1      -0.219  -0.550   0.943  0.00  0.00    +0.000 C 
ATOM      3  C   UNL     1      -0.847  -0.965  -0.617  0.00  0.00    +0.000 C 
ATOM      4  C   UNL     1      -1.516   0.618  -0.779  0.00  0.00    +0.000 C 
ATOM      5  C   UNL     1      -0.000   1.467  -0.896  0.00  0.00    +0.000 C 
ATOM      6  C   UNL     1       0.973   0.080  -1.241  0.00  0.00    +0.000 C 
ENDROOT
BRANCH   1   7
ATOM      7  O   UNL     1       1.887   0.713   0.958  0.00  0.00    +0.000 OA
BRANCH   7   9
ATOM      8  O   UNL     1       1.207   0.560   3.522  0.00  0.00    +0.000 OA
ATOM      9  P   UNL     1       2.254   0.197   2.499  0.00  0.00    +0.000 P 
BRANCH   9  10
ATOM     10  O   UNL     1       2.510  -1.447   2.637  0.00  0.00    +0.000 OA
ATOM     11  H   UNL     1       2.717  -1.666   3.559  0.00  0.00    +0.000 HD
ENDBRANCH   9  10
BRANCH   9  12
ATOM     12  O   UNL     1       3.664   0.975   3.054  0.00  0.00    +0.000 OA
ATOM     13  H   UNL     1       3.871   0.669   3.951  0.00  0.00    +0.000 HD
ENDBRANCH   9  12
ENDBRANCH   7   9
ENDBRANCH   1   7
BRANCH   2  14
ATOM     14  O   UNL     1      -0.144  -1.978   1.420  0.00  0.00    +0.000 OA
BRANCH  14  15
ATOM     15  P   UNL     1       0.057  -3.122   0.362  0.00  0.00    +0.000 P 
ATOM     16  O   UNL     1       1.041  -4.127   0.987  0.00  0.00    +0.000 OA
BRANCH  15  17
ATOM     17  O   UNL     1      -1.258  -4.183   0.069  0.00  0.00    +0.000 OA
ATOM     18  H   UNL     1      -1.712  -4.373   0.905  0.00  0.00    +0.000 HD
ENDBRANCH  15  17
BRANCH  15  19
ATOM     19  O   UNL     1       0.729  -2.892  -1.134  0.00  0.00    +0.000 OA
ATOM     20  H   UNL     1       1.490  -2.296  -1.059  0.00  0.00    +0.000 HD
ENDBRANCH  15  19
ENDBRANCH  14  15
ENDBRANCH   2  14
BRANCH   3  21
ATOM     21  O   UNL     1      -2.139  -1.498  -0.066  0.00  0.00    +0.000 OA
BRANCH  21  22
ATOM     22  P   UNL     1      -2.758  -1.033   1.261  0.00  0.00    +0.000 P 
ATOM     23  O   UNL     1      -4.133  -0.413   1.014  0.00  0.00    +0.000 OA
BRANCH  22  24
ATOM     24  O   UNL     1      -3.156  -2.438   2.172  0.00  0.00    +0.000 OA
ATOM     25  H   UNL     1      -3.556  -3.100   1.587  0.00  0.00    +0.000 HD
ENDBRANCH  22  24
BRANCH  22  26
ATOM     26  O   UNL     1      -2.102  -0.035   2.401  0.00  0.00    +0.000 OA
ATOM     27  H   UNL     1      -1.838   0.801   1.986  0.00  0.00    +0.000 HD
ENDBRANCH  22  26
ENDBRANCH  21  22
ENDBRANCH   3  21
BRANCH   4  28
ATOM     28  O   UNL     1      -1.624   0.496  -2.287  0.00  0.00    +0.000 OA
BRANCH  28  29
ATOM     29  P   UNL     1      -3.306   0.644  -2.507  0.00  0.00    +0.000 P 
ATOM     30  O   UNL     1      -3.954  -0.734  -2.418  0.00  0.00    +0.000 OA
BRANCH  29  31
ATOM     31  O   UNL     1      -4.022   1.543  -1.272  0.00  0.00    +0.000 OA
ATOM     32  H   UNL     1      -3.801   1.147  -0.415  0.00  0.00    +0.000 HD
ENDBRANCH  29  31
BRANCH  29  33
ATOM     33  O   UNL     1      -3.696   1.342  -3.990  0.00  0.00    +0.000 OA
ATOM     34  H   UNL     1      -3.287   0.831  -4.705  0.00  0.00    +0.000 HD
ENDBRANCH  29  33
ENDBRANCH  28  29
ENDBRANCH   4  28
BRANCH   5  35
ATOM     35  O   UNL     1       0.153   1.601   0.598  0.00  0.00    +0.000 OA
BRANCH  35  36
ATOM     36  P   UNL     1       0.272   3.310   0.601  0.00  0.00    +0.000 P 
ATOM     37  O   UNL     1      -0.982   3.912   0.049  0.00  0.00    +0.000 OA
BRANCH  36  38
ATOM     38  O   UNL     1       0.634   3.916   2.112  0.00  0.00    +0.000 OA
ATOM     39  H   UNL     1      -0.071   3.677   2.733  0.00  0.00    +0.000 HD
ENDBRANCH  36  38
BRANCH  36  40
ATOM     40  O   UNL     1       1.509   3.726  -0.499  0.00  0.00    +0.000 OA
ATOM     41  H   UNL     1       1.294   3.372  -1.376  0.00  0.00    +0.000 HD
ENDBRANCH  36  40
ENDBRANCH  35  36
ENDBRANCH   5  35
BRANCH   6  42
ATOM     42  O   UNL     1       2.186   1.007  -1.325  0.00  0.00    +0.000 OA
BRANCH  42  43
ATOM     43  P   UNL     1       3.474   0.112  -1.853  0.00  0.00    +0.000 P 
ATOM     44  O   UNL     1       3.200  -1.365  -1.871  0.00  0.00    +0.000 OA
BRANCH  43  45
ATOM     45  O   UNL     1       3.914   0.682  -3.393  0.00  0.00    +0.000 OA
ATOM     46  H   UNL     1       3.192   0.515  -4.019  0.00  0.00    +0.000 HD
ENDBRANCH  43  45
BRANCH  43  47
ATOM     47  O   UNL     1       4.794   0.445  -0.826  0.00  0.00    +0.000 OA
ATOM     48  H   UNL     1       4.591   0.137   0.071  0.00  0.00    +0.000 HD
ENDBRANCH  43  47
ENDBRANCH  42  43
ENDBRANCH   6  42
TORSDOF 24
