REMARK  Name = 
REMARK  14 active torsions:
REMARK  status: ('A' for Active; 'I' for Inactive)
REMARK    1  A    between atoms: O_1  and  C_2
REMARK    2  A    between atoms: O_1  and  P_3
REMARK    3  A    between atoms: C_2  and  C_4
REMARK    4  A    between atoms: C_2  and  C_5
REMARK    5  A    between atoms: C_4  and  C_9
REMARK    6  A    between atoms: C_5  and  C_10
REMARK    7  A    between atoms: C_9  and  O_11
REMARK    8  A    between atoms: C_10  and  O_12
REMARK    9  A    between atoms: O_13  and  P_14
REMARK   10  A    between atoms: O_13  and  C_15
REMARK   11  A    between atoms: C_15  and  C_19
REMARK   12  A    between atoms: C_19  and  C_20
REMARK   13  A    between atoms: C_19  and  O_21
REMARK   14  A    between atoms: C_20  and  O_22
REMARK                            x       y       z     vdW  Elec       q    Type
REMARK                         _______ _______ _______ _____ _____    ______ ____
ROOT
ATOM      1  C   UNL     1      -0.322  -1.286   0.000  0.00  0.00    +0.000 C 
ENDROOT
BRANCH   1   2
ATOM      2  O   UNL     1       0.483  -1.107   0.000  0.00  0.00    +0.000 OA
BRANCH   2   3
ATOM      3  P   UNL     1       1.038  -1.672   0.000  0.00  0.00    +0.000 P 
ATOM      4  O   UNL     1       1.622  -1.107   0.000  0.00  0.00    +0.000 OA
ATOM      5  O   UNL     1       1.603  -2.255   0.000  0.00  0.00    +0.000 OA
ATOM      6  O   UNL     1       0.471  -2.224   0.000  0.00  0.00    +0.000 OA
ENDBRANCH   2   3
ENDBRANCH   1   2
BRANCH   1   7
ATOM      7  C   UNL     1      -0.973  -0.913   0.000  0.00  0.00    +0.000 C 
BRANCH   7   8
ATOM      8  C   UNL     1      -1.677  -1.240   0.000  0.00  0.00    +0.000 C 
BRANCH   8   9
ATOM      9  O   UNL     1      -2.436  -0.857   0.000  0.00  0.00    +0.000 OA
ATOM     10  H   UNL     1      -2.491   0.111   0.000  0.00  0.00    +0.000 HD
ENDBRANCH   8   9
ENDBRANCH   7   8
ENDBRANCH   1   7
BRANCH   1  11
ATOM     11  C   UNL     1      -0.794  -1.944   0.000  0.00  0.00    +0.000 C 
BRANCH  11  12
ATOM     12  C   UNL     1      -1.600  -1.764   0.000  0.00  0.00    +0.000 C 
BRANCH  12  13
ATOM     13  O   UNL     1      -2.171  -2.181   0.000  0.00  0.00    +0.000 OA
ATOM     14  H   UNL     1      -3.058  -1.788   0.000  0.00  0.00    +0.000 HD
ENDBRANCH  12  13
ENDBRANCH  11  12
ENDBRANCH   1  11
TORSDOF 8
REMARK  Name = 
REMARK  14 active torsions:
REMARK  status: ('A' for Active; 'I' for Inactive)
REMARK    1  A    between atoms: O_1  and  C_2
REMARK    2  A    between atoms: O_1  and  P_3
REMARK    3  A    between atoms: C_2  and  C_4
REMARK    4  A    between atoms: C_2  and  C_5
REMARK    5  A    between atoms: C_4  and  C_9
REMARK    6  A    between atoms: C_5  and  C_10
REMARK    7  A    between atoms: C_9  and  O_11
REMARK    8  A    between atoms: C_10  and  O_12
REMARK    9  A    between atoms: O_13  and  P_14
REMARK   10  A    between atoms: O_13  and  C_15
REMARK   11  A    between atoms: C_15  and  C_19
REMARK   12  A    between atoms: C_19  and  C_20
REMARK   13  A    between atoms: C_19  and  O_21
REMARK   14  A    between atoms: C_20  and  O_22
REMARK                            x       y       z     vdW  Elec       q    Type
REMARK                         _______ _______ _______ _____ _____    ______ ____
ROOT
ATOM      1  C   UNL     1      -0.532   1.075   0.000  0.00  0.00    +0.000 C 
ENDROOT
BRANCH   1   2
ATOM      2  O   UNL     1       0.205   1.611   0.000  0.00  0.00    +0.000 OA
BRANCH   2   3
ATOM      3  P   UNL     1       1.056   1.232   0.000  0.00  0.00    +0.000 P 
ATOM      4  O   UNL     1       1.369   2.040   0.000  0.00  0.00    +0.000 OA
ATOM      5  O   UNL     1       2.004   0.943   0.000  0.00  0.00    +0.000 OA
ATOM      6  O   UNL     1       0.722   0.465   0.000  0.00  0.00    +0.000 OA
ENDBRANCH   2   3
ENDBRANCH   1   2
BRANCH   1   7
ATOM      7  C   UNL     1      -1.362   1.466   0.000  0.00  0.00    +0.000 C 
BRANCH   7   8
ATOM      8  O   UNL     1      -1.473   2.352   0.000  0.00  0.00    +0.000 OA
ATOM      9  H   UNL     1      -0.700   2.938   0.000  0.00  0.00    +0.000 HD
ENDBRANCH   7   8
BRANCH   7  10
ATOM     10  C   UNL     1      -2.094   0.923   0.000  0.00  0.00    +0.000 C 
BRANCH  10  11
ATOM     11  O   UNL     1      -2.930   1.309   0.000  0.00  0.00    +0.000 OA
ATOM     12  H   UNL     1      -3.018   2.275   0.000  0.00  0.00    +0.000 HD
ENDBRANCH  10  11
ENDBRANCH   7  10
ENDBRANCH   1   7
TORSDOF 6
REMARK  Name = 
REMARK  14 active torsions:
REMARK  status: ('A' for Active; 'I' for Inactive)
REMARK    1  A    between atoms: O_1  and  C_2
REMARK    2  A    between atoms: O_1  and  P_3
REMARK    3  A    between atoms: C_2  and  C_4
REMARK    4  A    between atoms: C_2  and  C_5
REMARK    5  A    between atoms: C_4  and  C_9
REMARK    6  A    between atoms: C_5  and  C_10
REMARK    7  A    between atoms: C_9  and  O_11
REMARK    8  A    between atoms: C_10  and  O_12
REMARK    9  A    between atoms: O_13  and  P_14
REMARK   10  A    between atoms: O_13  and  C_15
REMARK   11  A    between atoms: C_15  and  C_19
REMARK   12  A    between atoms: C_19  and  C_20
REMARK   13  A    between atoms: C_19  and  O_21
REMARK   14  A    between atoms: C_20  and  O_22
REMARK                            x       y       z     vdW  Elec       q    Type
REMARK                         _______ _______ _______ _____ _____    ______ ____
ROOT
ATOM      1 FE   UNL     1       2.930   0.521   0.000  0.00  0.00    +0.000 Fe
ENDROOT
TORSDOF 0
REMARK  Name = 
REMARK  14 active torsions:
REMARK  status: ('A' for Active; 'I' for Inactive)
REMARK    1  A    between atoms: O_1  and  C_2
REMARK    2  A    between atoms: O_1  and  P_3
REMARK    3  A    between atoms: C_2  and  C_4
REMARK    4  A    between atoms: C_2  and  C_5
REMARK    5  A    between atoms: C_4  and  C_9
REMARK    6  A    between atoms: C_5  and  C_10
REMARK    7  A    between atoms: C_9  and  O_11
REMARK    8  A    between atoms: C_10  and  O_12
REMARK    9  A    between atoms: O_13  and  P_14
REMARK   10  A    between atoms: O_13  and  C_15
REMARK   11  A    between atoms: C_15  and  C_19
REMARK   12  A    between atoms: C_19  and  C_20
REMARK   13  A    between atoms: C_19  and  O_21
REMARK   14  A    between atoms: C_20  and  O_22
REMARK                            x       y       z     vdW  Elec       q    Type
REMARK                         _______ _______ _______ _____ _____    ______ ____
ROOT
ATOM      1 FE   UNL     1       2.717  -2.352   0.000  0.00  0.00    +0.000 Fe
ENDROOT
TORSDOF 0
