REMARK  Name = 151171
REMARK  5 active torsions:
REMARK  status: ('A' for Active; 'I' for Inactive)
REMARK    1  A    between atoms: N_6  and  C_23
REMARK    2  A    between atoms: C_13  and  C_20
REMARK    3  A    between atoms: C_14  and  C_17
REMARK    4  A    between atoms: C_26  and  C_28
REMARK    5  A    between atoms: C_27  and  C_29
REMARK                            x       y       z     vdW  Elec       q    Type
REMARK                         _______ _______ _______ _____ _____    ______ ____
ROOT
ATOM      1  C   UNL     1       0.977  -1.902  -0.098  0.00  0.00    +0.000 A 
ATOM      2  C   UNL     1       0.341  -1.234  -1.139  0.00  0.00    +0.000 A 
ATOM      3  C   UNL     1       0.241  -2.417   0.965  0.00  0.00    +0.000 A 
ATOM      4  C   UNL     1      -1.788  -1.591  -0.054  0.00  0.00    +0.000 A 
ATOM      5  C   UNL     1      -1.045  -1.078  -1.117  0.00  0.00    +0.000 A 
ATOM      6  C   UNL     1      -1.145  -2.261   0.987  0.00  0.00    +0.000 A 
ENDROOT
BRANCH   1  18
ATOM      7  O   UNL     1       2.843  -3.072  -0.703  0.00  0.00    +0.000 OA
ATOM      8  N   UNL     1       3.228  -1.067   0.478  0.00  0.00    +0.000 N 
ATOM      9  N   UNL     1       4.014   3.061  -0.710  0.00  0.00    +0.000 N 
ATOM     10  N   UNL     1       6.037   2.172  -0.691  0.00  0.00    +0.000 NA
ATOM     11  C   UNL     1       2.532   1.292   0.213  0.00  0.00    +0.000 C 
ATOM     12  C   UNL     1       2.670   0.113   1.159  0.00  0.00    +0.000 C 
ATOM     13  C   UNL     1       3.860   1.795  -0.202  0.00  0.00    +0.000 A 
ATOM     14  C   UNL     1       5.130   1.249  -0.201  0.00  0.00    +0.000 A 
ATOM     15  C   UNL     1       4.663  -1.181   0.454  0.00  0.00    +0.000 A 
ATOM     16  C   UNL     1       5.539  -0.093   0.219  0.00  0.00    +0.000 A 
ATOM     17  C   UNL     1       5.336   3.241  -0.984  0.00  0.00    +0.000 A 
ATOM     18  C   UNL     1       2.436  -2.066  -0.121  0.00  0.00    +0.000 C 
ATOM     19  C   UNL     1       5.217  -2.451   0.733  0.00  0.00    +0.000 A 
ATOM     20  C   UNL     1       6.931  -0.327   0.298  0.00  0.00    +0.000 A 
ATOM     21  C   UNL     1       6.594  -2.653   0.795  0.00  0.00    +0.000 A 
ATOM     22  C   UNL     1       7.452  -1.588   0.583  0.00  0.00    +0.000 A 
ATOM     23  C   UNL     1       5.843   4.508  -1.541  0.00  0.00    +0.000 C 
ATOM     24  H   UNL     1       3.276   3.738  -0.848  0.00  0.00    +0.000 HD
ENDBRANCH   1  18
BRANCH   4  26
ATOM     25  O   UNL     1      -3.619  -0.253  -2.014  0.00  0.00    +0.000 OA
ATOM     26  N   UNL     1      -3.174  -1.435  -0.031  0.00  0.00    +0.000 N 
ATOM     27  C   UNL     1      -3.986  -0.797  -0.979  0.00  0.00    +0.000 C 
ATOM     28  H   UNL     1      -3.645  -1.832   0.779  0.00  0.00    +0.000 HD
BRANCH  27  29
ATOM     29  C   UNL     1      -5.437  -0.768  -0.658  0.00  0.00    +0.000 A 
ATOM     30  C   UNL     1      -5.980   0.276   0.063  0.00  0.00    +0.000 A 
ATOM     31  C   UNL     1      -6.205  -1.823  -1.111  0.00  0.00    +0.000 A 
ATOM     32  C   UNL     1      -7.346   0.266   0.343  0.00  0.00    +0.000 A 
ATOM     33  C   UNL     1      -7.572  -1.833  -0.831  0.00  0.00    +0.000 A 
ATOM     34  C   UNL     1      -8.142  -0.789  -0.104  0.00  0.00    +0.000 A 
BRANCH  30  35
ATOM     35  C   UNL     1      -5.178   1.386   0.541  0.00  0.00    +0.000 A 
ATOM     36  C   UNL     1      -4.579   1.319   1.797  0.00  0.00    +0.000 A 
ATOM     37  C   UNL     1      -5.009   2.515  -0.258  0.00  0.00    +0.000 A 
ATOM     38  C   UNL     1      -3.807   2.386   2.257  0.00  0.00    +0.000 A 
ATOM     39  C   UNL     1      -4.237   3.582   0.202  0.00  0.00    +0.000 A 
ATOM     40  C   UNL     1      -3.636   3.518   1.460  0.00  0.00    +0.000 A 
ENDBRANCH  30  35
ENDBRANCH  27  29
ENDBRANCH   4  26
TORSDOF 4
