REMARK  Name = 447371
REMARK  10 active torsions:
REMARK  status: ('A' for Active; 'I' for Inactive)
REMARK    1  A    between atoms: N_5  and  C_11
REMARK    2  A    between atoms: N_6  and  C_17
REMARK    3  A    between atoms: N_9  and  C_29
REMARK    4  A    between atoms: C_11  and  C_13
REMARK    5  A    between atoms: C_13  and  C_18
REMARK    6  A    between atoms: C_16  and  C_19
REMARK    7  A    between atoms: C_17  and  C_20
REMARK    8  A    between atoms: C_18  and  C_22
REMARK    9  A    between atoms: C_19  and  C_21
REMARK   10  A    between atoms: C_33  and  C_34
REMARK                            x       y       z     vdW  Elec       q    Type
REMARK                         _______ _______ _______ _____ _____    ______ ____
ROOT
ATOM      1  O   UNL     1      -3.893  -2.110  -0.022  0.00  0.00    +0.000 OA
ATOM      2  O   UNL     1      -2.462   1.864   2.029  0.00  0.00    +0.000 OA
ATOM      3  N   UNL     1      -1.698  -1.994   0.739  0.00  0.00    +0.000 N 
ATOM      4  N   UNL     1      -3.205  -0.116   0.996  0.00  0.00    +0.000 N 
ATOM      5  N   UNL     1       0.173   0.497   2.341  0.00  0.00    +0.000 N 
ATOM      6  N   UNL     1       0.557  -1.583   1.638  0.00  0.00    +0.000 NA
ATOM      7  C   UNL     1      -0.733  -1.214   1.364  0.00  0.00    +0.000 A 
ATOM      8  C   UNL     1      -0.996   0.060   1.786  0.00  0.00    +0.000 A 
ATOM      9  C   UNL     1      -2.994  -1.463   0.528  0.00  0.00    +0.000 A 
ATOM     10  C   UNL     1      -2.253   0.719   1.639  0.00  0.00    +0.000 A 
ATOM     11  C   UNL     1       1.077  -0.527   2.228  0.00  0.00    +0.000 A 
ATOM     12  H   UNL     1       0.340   1.405   2.757  0.00  0.00    +0.000 HD
ENDROOT
BRANCH   3  13
ATOM     13  C   UNL     1      -1.370  -3.347   0.307  0.00  0.00    +0.000 C 
BRANCH  13  14
ATOM     14  C   UNL     1      -0.831  -3.388  -1.119  0.00  0.00    +0.000 C 
BRANCH  14  15
ATOM     15  C   UNL     1      -0.512  -4.810  -1.585  0.00  0.00    +0.000 C 
ATOM     16  C   UNL     1      -0.034  -4.826  -3.029  0.00  0.00    +0.000 C 
ENDBRANCH  14  15
ENDBRANCH  13  14
ENDBRANCH   3  13
BRANCH   4  17
ATOM     17  C   UNL     1      -4.535   0.448   0.789  0.00  0.00    +0.000 C 
BRANCH  17  19
ATOM     18  F   UNL     1      -3.951   3.196   0.475  0.00  0.00    +0.000 F 
ATOM     19  C   UNL     1      -4.644   1.159  -0.529  0.00  0.00    +0.000 A 
ATOM     20  C   UNL     1      -4.340   2.513  -0.611  0.00  0.00    +0.000 A 
ATOM     21  C   UNL     1      -5.049   0.454  -1.656  0.00  0.00    +0.000 A 
ATOM     22  C   UNL     1      -4.443   3.171  -1.837  0.00  0.00    +0.000 A 
ATOM     23  C   UNL     1      -5.151   1.111  -2.882  0.00  0.00    +0.000 A 
ATOM     24  C   UNL     1      -4.848   2.470  -2.973  0.00  0.00    +0.000 A 
ENDBRANCH  17  19
ENDBRANCH   4  17
BRANCH  11  25
ATOM     25  C   UNL     1       2.456  -0.390   2.734  0.00  0.00    +0.000 C 
BRANCH  25  26
ATOM     26  C   UNL     1       3.440   0.159   1.710  0.00  0.00    +0.000 A 
ATOM     27  C   UNL     1       3.624   1.524   1.629  0.00  0.00    +0.000 A 
ATOM     28  C   UNL     1       4.116  -0.725   0.895  0.00  0.00    +0.000 A 
ATOM     29  C   UNL     1       4.526   2.026   0.691  0.00  0.00    +0.000 A 
ATOM     30  C   UNL     1       5.017  -0.222  -0.043  0.00  0.00    +0.000 A 
ATOM     31  C   UNL     1       5.222   1.154  -0.145  0.00  0.00    +0.000 A 
BRANCH  31  33
ATOM     32  O   UNL     1       6.949  -0.273  -2.158  0.00  0.00    +0.000 OA
ATOM     33  N   UNL     1       6.124   1.657  -1.084  0.00  0.00    +0.000 N 
ATOM     34  C   UNL     1       6.907   0.943  -2.000  0.00  0.00    +0.000 C 
ATOM     35  C   UNL     1       7.755   1.861  -2.844  0.00  0.00    +0.000 C 
ATOM     36  H   UNL     1       6.217   2.671  -1.096  0.00  0.00    +0.000 HD
ENDBRANCH  31  33
ENDBRANCH  25  26
ENDBRANCH  11  25
TORSDOF 8
