REMARK  Name = 11670435
REMARK  7 active torsions:
REMARK  status: ('A' for Active; 'I' for Inactive)
REMARK    1  A    between atoms: N_6  and  C_15
REMARK    2  A    between atoms: N_8  and  C_23
REMARK    3  A    between atoms: C_11  and  C_21
REMARK    4  A    between atoms: C_22  and  C_23
REMARK    5  A    between atoms: C_23  and  C_24
REMARK    6  A    between atoms: C_23  and  C_25
REMARK    7  A    between atoms: C_34  and  C_35
REMARK                            x       y       z     vdW  Elec       q    Type
REMARK                         _______ _______ _______ _____ _____    ______ ____
ROOT
ATOM      1  O   UNL     1      -2.909  -3.040   1.507  0.00  0.00    +0.000 OA
ATOM      2  N   UNL     1      -3.005  -1.420  -0.139  0.00  0.00    +0.000 N 
ATOM      3  C   UNL     1      -2.490  -2.568   0.450  0.00  0.00    +0.000 C 
ATOM      4  H   UNL     1      -2.545  -1.058  -0.968  0.00  0.00    +0.000 HD
ENDROOT
BRANCH   2   9
ATOM      5  C   UNL     1      -3.726   2.180  -0.361  0.00  0.00    +0.000 C 
ATOM      6  C   UNL     1      -3.604   0.409   1.437  0.00  0.00    +0.000 C 
ATOM      7  C   UNL     1      -4.973   0.000  -0.644  0.00  0.00    +0.000 C 
ATOM      8  C   UNL     1      -5.749   1.691   1.063  0.00  0.00    +0.000 C 
ATOM      9  C   UNL     1      -4.090  -0.662   0.436  0.00  0.00    +0.000 C 
ATOM     10  C   UNL     1      -2.827   1.519   0.702  0.00  0.00    +0.000 C 
ATOM     11  C   UNL     1      -4.189   1.111  -1.370  0.00  0.00    +0.000 C 
ATOM     12  C   UNL     1      -4.960   2.790   0.331  0.00  0.00    +0.000 C 
ATOM     13  C   UNL     1      -4.837   1.036   2.117  0.00  0.00    +0.000 C 
ATOM     14  C   UNL     1      -6.199   0.629   0.044  0.00  0.00    +0.000 C 
BRANCH   5  17
ATOM     15  O   UNL     1      -3.301   4.431  -1.056  0.00  0.00    +0.000 OA
ATOM     16  N   UNL     1      -1.836   2.789  -1.729  0.00  0.00    +0.000 N 
ATOM     17  C   UNL     1      -2.948   3.254  -1.067  0.00  0.00    +0.000 C 
ATOM     18  H   UNL     1      -1.241   3.429  -2.245  0.00  0.00    +0.000 HD
ATOM     19  H   UNL     1      -1.550   1.816  -1.735  0.00  0.00    +0.000 HD
ENDBRANCH   5  17
ENDBRANCH   2   9
BRANCH   3  20
ATOM     20  C   UNL     1      -1.339  -3.210  -0.347  0.00  0.00    +0.000 C 
ATOM     21  C   UNL     1      -1.800  -3.612  -1.751  0.00  0.00    +0.000 C 
ATOM     22  C   UNL     1      -0.756  -4.411   0.404  0.00  0.00    +0.000 C 
BRANCH  20  23
ATOM     23  N   UNL     1      -0.283  -2.208  -0.487  0.00  0.00    +0.000 NA
ATOM     24  N   UNL     1       2.335  -1.115  -0.158  0.00  0.00    +0.000 N 
ATOM     25  N   UNL     1       3.592   0.834   0.317  0.00  0.00    +0.000 NA
ATOM     26  C   UNL     1       0.851  -2.755  -1.241  0.00  0.00    +0.000 C 
ATOM     27  C   UNL     1       0.169  -1.749   0.832  0.00  0.00    +0.000 C 
ATOM     28  C   UNL     1       1.939  -1.698  -1.443  0.00  0.00    +0.000 C 
ATOM     29  C   UNL     1       1.234  -0.657   0.699  0.00  0.00    +0.000 C 
ATOM     30  C   UNL     1       3.571  -0.470  -0.040  0.00  0.00    +0.000 A 
ATOM     31  C   UNL     1       4.706  -1.221  -0.299  0.00  0.00    +0.000 A 
ATOM     32  C   UNL     1       5.942  -0.593  -0.186  0.00  0.00    +0.000 A 
ATOM     33  C   UNL     1       4.811   1.411   0.416  0.00  0.00    +0.000 A 
ATOM     34  C   UNL     1       6.004   0.748   0.178  0.00  0.00    +0.000 A 
BRANCH  34  38
ATOM     35  F   UNL     1       8.390   0.653   0.040  0.00  0.00    +0.000 F 
ATOM     36  F   UNL     1       7.445   2.521  -0.528  0.00  0.00    +0.000 F 
ATOM     37  F   UNL     1       7.524   1.938   1.565  0.00  0.00    +0.000 F 
ATOM     38  C   UNL     1       7.310   1.447   0.308  0.00  0.00    +0.000 C 
ENDBRANCH  34  38
ENDBRANCH  20  23
ENDBRANCH   3  20
TORSDOF 5
