REMARK  Name = 11950726
REMARK  6 active torsions:
REMARK  status: ('A' for Active; 'I' for Inactive)
REMARK    1  A    between atoms: N_4  and  C_28
REMARK    2  A    between atoms: N_5  and  C_29
REMARK    3  A    between atoms: C_10  and  C_22
REMARK    4  A    between atoms: C_13  and  C_23
REMARK    5  A    between atoms: C_15  and  C_25
REMARK    6  A    between atoms: C_29  and  C_30
REMARK                            x       y       z     vdW  Elec       q    Type
REMARK                         _______ _______ _______ _____ _____    ______ ____
ROOT
ATOM      1  F   UNL     1      -5.086   3.423  -1.729  0.00  0.00    +0.000 F 
ATOM      2  O   UNL     1      -7.131   2.481  -0.290  0.00  0.00    +0.000 OA
ATOM      3  N   UNL     1      -5.929   0.585   0.370  0.00  0.00    +0.000 N 
ATOM      4  C   UNL     1      -0.950  -2.404  -0.132  0.00  0.00    +0.000 C 
ATOM      5  C   UNL     1       0.410  -1.677  -0.068  0.00  0.00    +0.000 C 
ATOM      6  C   UNL     1      -2.100  -1.576   0.454  0.00  0.00    +0.000 C 
ATOM      7  C   UNL     1      -2.226  -0.248  -0.362  0.00  0.00    +0.000 C 
ATOM      8  C   UNL     1      -3.425   0.635   0.145  0.00  0.00    +0.000 C 
ATOM      9  C   UNL     1       0.298  -0.401  -0.913  0.00  0.00    +0.000 C 
ATOM     10  C   UNL     1       1.311  -2.779  -0.668  0.00  0.00    +0.000 C 
ATOM     11  C   UNL     1      -0.862   0.495  -0.439  0.00  0.00    +0.000 C 
ATOM     12  C   UNL     1      -0.645  -3.776   0.462  0.00  0.00    +0.000 C 
ATOM     13  C   UNL     1      -3.415  -2.362   0.446  0.00  0.00    +0.000 C 
ATOM     14  C   UNL     1      -4.726  -0.233   0.093  0.00  0.00    +0.000 C 
ATOM     15  C   UNL     1       0.777  -4.085  -0.041  0.00  0.00    +0.000 C 
ATOM     16  C   UNL     1      -4.595  -1.519   0.923  0.00  0.00    +0.000 C 
ATOM     17  C   UNL     1       0.862  -1.312   1.371  0.00  0.00    +0.000 C 
ATOM     18  C   UNL     1      -3.163   1.189   1.565  0.00  0.00    +0.000 C 
ATOM     19  C   UNL     1      -3.672   1.831  -0.760  0.00  0.00    +0.000 C 
ATOM     20  C   UNL     1      -4.894   2.333  -0.961  0.00  0.00    +0.000 C 
ATOM     21  C   UNL     1      -6.098   1.816  -0.272  0.00  0.00    +0.000 C 
ATOM     22  C   UNL     1      -6.936   0.108   1.310  0.00  0.00    +0.000 C 
ENDROOT
BRANCH  10  25
ATOM     23  O   UNL     1       3.325  -3.013   0.588  0.00  0.00    +0.000 OA
ATOM     24  N   UNL     1       3.385  -1.865  -1.436  0.00  0.00    +0.000 N 
ATOM     25  C   UNL     1       2.775  -2.584  -0.422  0.00  0.00    +0.000 C 
ATOM     26  H   UNL     1       2.827  -1.531  -2.216  0.00  0.00    +0.000 HD
BRANCH  24  27
ATOM     27  C   UNL     1       4.789  -1.523  -1.428  0.00  0.00    +0.000 C 
BRANCH  27  31
ATOM     28  N   UNL     1       4.973   0.949  -1.415  0.00  0.00    +0.000 N 
ATOM     29  N   UNL     1       5.237  -0.069   0.549  0.00  0.00    +0.000 NA
ATOM     30  N   UNL     1       5.614   1.933   1.870  0.00  0.00    +0.000 NA
ATOM     31  C   UNL     1       5.007  -0.214  -0.721  0.00  0.00    +0.000 A 
ATOM     32  C   UNL     1       5.203   1.949  -0.510  0.00  0.00    +0.000 A 
ATOM     33  C   UNL     1       5.364   1.289   0.703  0.00  0.00    +0.000 A 
ATOM     34  C   UNL     1       5.287   3.334  -0.612  0.00  0.00    +0.000 A 
ATOM     35  C   UNL     1       5.543   4.008   0.579  0.00  0.00    +0.000 A 
ATOM     36  C   UNL     1       5.693   3.280   1.754  0.00  0.00    +0.000 A 
ATOM     37  H   UNL     1       4.809   1.063  -2.407  0.00  0.00    +0.000 HD
ENDBRANCH  27  31
ENDBRANCH  24  27
ENDBRANCH  10  25
TORSDOF 3
