REMARK  Name = 5275422
REMARK  11 active torsions:
REMARK  status: ('A' for Active; 'I' for Inactive)
REMARK    1  A    between atoms: O_5  and  C_17
REMARK    2  A    between atoms: O_7  and  C_20
REMARK    3  A    between atoms: C_11  and  C_15
REMARK    4  A    between atoms: C_11  and  C_17
REMARK    5  A    between atoms: C_13  and  C_20
REMARK    6  A    between atoms: C_14  and  C_18
REMARK    7  A    between atoms: C_15  and  C_16
REMARK    8  A    between atoms: C_16  and  C_21
REMARK    9  A    between atoms: C_16  and  C_22
REMARK   10  A    between atoms: C_19  and  C_24
REMARK   11  A    between atoms: C_31  and  C_32
REMARK                            x       y       z     vdW  Elec       q    Type
REMARK                         _______ _______ _______ _____ _____    ______ ____
ROOT
ATOM      1  O   UNL     1       0.177   1.501  -2.051  0.00  0.00    +0.000 OA
ATOM      2  N   UNL     1       0.880   0.384  -0.118  0.00  0.00    +0.000 N 
ATOM      3  C   UNL     1       2.204   0.993   0.087  0.00  0.00    +0.000 C 
ATOM      4  C   UNL     1       2.714   0.374   1.403  0.00  0.00    +0.000 C 
ATOM      5  C   UNL     1       2.030  -0.987   1.499  0.00  0.00    +0.000 C 
ATOM      6  C   UNL     1       0.680  -0.771   0.790  0.00  0.00    +0.000 C 
ATOM      7  C   UNL     1      -0.070   0.943  -0.983  0.00  0.00    +0.000 C 
ENDROOT
BRANCH   7   8
ATOM      8  C   UNL     1      -1.492   0.877  -0.607  0.00  0.00    +0.000 A 
ATOM      9  C   UNL     1      -2.058   1.905   0.142  0.00  0.00    +0.000 A 
ATOM     10  C   UNL     1      -2.262  -0.212  -1.006  0.00  0.00    +0.000 A 
ATOM     11  C   UNL     1      -3.406   1.843   0.496  0.00  0.00    +0.000 A 
ATOM     12  C   UNL     1      -3.610  -0.274  -0.652  0.00  0.00    +0.000 A 
ATOM     13  C   UNL     1      -4.182   0.753   0.099  0.00  0.00    +0.000 A 
BRANCH  13  17
ATOM     14  F   UNL     1      -6.045   1.759   1.212  0.00  0.00    +0.000 F 
ATOM     15  F   UNL     1      -6.468   0.634  -0.593  0.00  0.00    +0.000 F 
ATOM     16  F   UNL     1      -5.917  -0.412   1.232  0.00  0.00    +0.000 F 
ATOM     17  C   UNL     1      -5.623   0.687   0.478  0.00  0.00    +0.000 C 
ENDBRANCH  13  17
ENDBRANCH   7   8
BRANCH   6  19
ATOM     18  S   UNL     1      -0.893  -3.064   0.960  0.00  0.00    +0.000 S 
ATOM     19  C   UNL     1       0.147  -2.013   0.102  0.00  0.00    +0.000 A 
ATOM     20  C   UNL     1       0.389  -2.446  -1.179  0.00  0.00    +0.000 A 
ATOM     21  C   UNL     1      -0.293  -3.664  -1.464  0.00  0.00    +0.000 A 
ATOM     22  C   UNL     1      -1.026  -4.111  -0.388  0.00  0.00    +0.000 A 
ENDBRANCH   6  19
BRANCH   3  24
ATOM     23  O   UNL     1       2.906   0.954  -2.232  0.00  0.00    +0.000 OA
ATOM     24  C   UNL     1       3.080   0.604  -1.073  0.00  0.00    +0.000 C 
BRANCH  24  25
ATOM     25  O   UNL     1       4.094  -0.196  -0.661  0.00  0.00    +0.000 OA
ATOM     26  H   UNL     1       4.673  -0.466  -1.405  0.00  0.00    +0.000 HD
ENDBRANCH  24  25
ENDBRANCH   3  24
BRANCH   5  28
ATOM     27  O   UNL     1       2.913  -2.426  -0.238  0.00  0.00    +0.000 OA
ATOM     28  C   UNL     1       2.914  -2.062   0.929  0.00  0.00    +0.000 C 
BRANCH  28  29
ATOM     29  O   UNL     1       3.717  -2.580   1.890  0.00  0.00    +0.000 OA
ATOM     30  H   UNL     1       4.302  -3.284   1.537  0.00  0.00    +0.000 HD
ENDBRANCH  28  29
ENDBRANCH   5  28
BRANCH   3  31
ATOM     31  C   UNL     1       2.201   2.519   0.211  0.00  0.00    +0.000 C 
BRANCH  31  32
ATOM     32  C   UNL     1       3.584   3.107   0.530  0.00  0.00    +0.000 C 
ATOM     33  C   UNL     1       4.538   2.842  -0.637  0.00  0.00    +0.000 C 
ATOM     34  C   UNL     1       4.177   2.541   1.821  0.00  0.00    +0.000 C 
ENDBRANCH  31  32
ENDBRANCH   3  31
TORSDOF 9
