REMARK  Name = 444703
REMARK  2 active torsions:
REMARK  status: ('A' for Active; 'I' for Inactive)
REMARK    1  A    between atoms: C_4  and  C_8
REMARK    2  A    between atoms: C_16  and  C_20
REMARK                            x       y       z     vdW  Elec       q    Type
REMARK                         _______ _______ _______ _____ _____    ______ ____
ROOT
ATOM      1  S   UNL     1       0.306  -1.413  -2.246  0.00  0.00    +0.000 S 
ATOM      2  O   UNL     1       2.265  -1.681   1.964  0.00  0.00    +0.000 OA
ATOM      3  N   UNL     1       0.577  -1.476   0.327  0.00  0.00    +0.000 N 
ATOM      4  C   UNL     1       0.145  -0.478  -0.662  0.00  0.00    +0.000 C 
ATOM      5  C   UNL     1       1.188   0.590  -0.459  0.00  0.00    +0.000 A 
ATOM      6  C   UNL     1       0.263  -2.852   0.002  0.00  0.00    +0.000 C 
ATOM      7  C   UNL     1       0.661  -3.022  -1.456  0.00  0.00    +0.000 C 
ATOM      8  C   UNL     1       2.018   0.263   0.620  0.00  0.00    +0.000 A 
ATOM      9  C   UNL     1       1.651  -1.071   1.108  0.00  0.00    +0.000 C 
ATOM     10  C   UNL     1       1.389   1.780  -1.141  0.00  0.00    +0.000 A 
ATOM     11  C   UNL     1       3.048   1.077   1.050  0.00  0.00    +0.000 A 
ATOM     12  C   UNL     1       2.422   2.625  -0.720  0.00  0.00    +0.000 A 
ATOM     13  C   UNL     1       3.242   2.277   0.367  0.00  0.00    +0.000 A 
ENDROOT
BRANCH   4  14
ATOM     14  C   UNL     1      -1.276   0.035  -0.420  0.00  0.00    +0.000 A 
ATOM     15  C   UNL     1      -1.839  -0.036   0.856  0.00  0.00    +0.000 A 
ATOM     16  C   UNL     1      -2.014   0.577  -1.474  0.00  0.00    +0.000 A 
ATOM     17  C   UNL     1      -3.134   0.433   1.077  0.00  0.00    +0.000 A 
ATOM     18  C   UNL     1      -3.309   1.046  -1.253  0.00  0.00    +0.000 A 
ATOM     19  C   UNL     1      -3.869   0.974   0.022  0.00  0.00    +0.000 A 
ATOM     20  C   UNL     1      -3.733   0.354   2.440  0.00  0.00    +0.000 C 
ENDBRANCH   4  14
TORSDOF 1
