REMARK  Name = 45268539
REMARK  5 active torsions:
REMARK  status: ('A' for Active; 'I' for Inactive)
REMARK    1  A    between atoms: O_5  and  N_7
REMARK    2  A    between atoms: N_6  and  C_8
REMARK    3  A    between atoms: C_8  and  C_11
REMARK    4  A    between atoms: C_15  and  C_24
REMARK    5  A    between atoms: C_26  and  C_27
REMARK                            x       y       z     vdW  Elec       q    Type
REMARK                         _______ _______ _______ _____ _____    ______ ____
ROOT
ATOM      1  O   UNL     1      -0.679   3.211  -1.156  0.00  0.00    +0.000 OA
ATOM      2  N   UNL     1      -1.242   0.904  -1.263  0.00  0.00    +0.000 N 
ATOM      3  N   UNL     1       1.994   2.211  -0.761  0.00  0.00    +0.000 NA
ATOM      4  C   UNL     1      -0.482  -0.277  -1.158  0.00  0.00    +0.000 A 
ATOM      5  C   UNL     1       0.864   0.026  -0.951  0.00  0.00    +0.000 A 
ATOM      6  C   UNL     1      -0.437   2.023  -1.130  0.00  0.00    +0.000 C 
ATOM      7  C   UNL     1       0.954   1.473  -0.924  0.00  0.00    +0.000 C 
ATOM      8  C   UNL     1       1.838  -0.940  -0.812  0.00  0.00    +0.000 A 
ATOM      9  C   UNL     1      -0.902  -1.592  -1.234  0.00  0.00    +0.000 A 
ATOM     10  C   UNL     1       1.422  -2.270  -0.887  0.00  0.00    +0.000 A 
ATOM     11  C   UNL     1       0.067  -2.593  -1.096  0.00  0.00    +0.000 A 
ENDROOT
BRANCH   3  12
ATOM     12  O   UNL     1       1.599   3.551  -0.808  0.00  0.00    +0.000 OA
ATOM     13  H   UNL     1       2.447   4.009  -0.676  0.00  0.00    +0.000 HD
ENDBRANCH   3  12
BRANCH   8  14
ATOM     14  C   UNL     1       3.240  -0.631  -0.598  0.00  0.00    +0.000 C 
ATOM     15  C   UNL     1       3.980  -1.044   0.461  0.00  0.00    +0.000 C 
BRANCH  15  16
ATOM     16  C   UNL     1       5.408  -0.745   0.670  0.00  0.00    +0.000 A 
ATOM     17  C   UNL     1       6.001   0.327   0.003  0.00  0.00    +0.000 A 
ATOM     18  C   UNL     1       6.166  -1.533   1.536  0.00  0.00    +0.000 A 
ATOM     19  C   UNL     1       7.353   0.610   0.201  0.00  0.00    +0.000 A 
ATOM     20  C   UNL     1       7.517  -1.250   1.734  0.00  0.00    +0.000 A 
ATOM     21  C   UNL     1       8.111  -0.179   1.066  0.00  0.00    +0.000 A 
ENDBRANCH  15  16
ENDBRANCH   8  14
BRANCH   2  22
ATOM     22  C   UNL     1      -2.668   0.914  -1.479  0.00  0.00    +0.000 C 
BRANCH  22  26
ATOM     23  F   UNL     1      -3.800   2.337   3.031  0.00  0.00    +0.000 F 
ATOM     24  O   UNL     1      -4.435  -1.222  -1.110  0.00  0.00    +0.000 OA
ATOM     25  O   UNL     1      -5.618  -2.717   0.349  0.00  0.00    +0.000 OA
ATOM     26  C   UNL     1      -3.432   0.712  -0.203  0.00  0.00    +0.000 A 
ATOM     27  C   UNL     1      -4.309  -0.362  -0.048  0.00  0.00    +0.000 A 
ATOM     28  C   UNL     1      -5.002  -0.546   1.155  0.00  0.00    +0.000 A 
ATOM     29  C   UNL     1      -3.261   1.622   0.840  0.00  0.00    +0.000 A 
ATOM     30  C   UNL     1      -5.938  -1.706   1.304  0.00  0.00    +0.000 C 
ATOM     31  C   UNL     1      -4.833   0.378   2.191  0.00  0.00    +0.000 A 
ATOM     32  C   UNL     1      -3.963   1.458   2.034  0.00  0.00    +0.000 A 
ATOM     33  C   UNL     1      -5.514  -2.150  -0.955  0.00  0.00    +0.000 C 
ENDBRANCH  22  26
ENDBRANCH   2  22
TORSDOF 5
