REMARK  Name = 5288679
REMARK  7 active torsions:
REMARK  status: ('A' for Active; 'I' for Inactive)
REMARK    1  A    between atoms: O_3  and  C_28
REMARK    2  A    between atoms: O_3  and  C_29
REMARK    3  A    between atoms: N_4  and  C_8
REMARK    4  A    between atoms: N_5  and  C_7
REMARK    5  A    between atoms: N_5  and  C_13
REMARK    6  A    between atoms: C_6  and  C_11
REMARK    7  A    between atoms: C_8  and  C_12
REMARK                            x       y       z     vdW  Elec       q    Type
REMARK                         _______ _______ _______ _____ _____    ______ ____
ROOT
ATOM      1  O   UNL     1      -3.467  -0.356   0.677  0.00  0.00    +0.000 OA
ATOM      2  O   UNL     1       0.787   1.204   1.442  0.00  0.00    +0.000 OA
ATOM      3  N   UNL     1      -1.501   0.780   1.221  0.00  0.00    +0.000 N 
ATOM      4  C   UNL     1      -1.297  -1.340   0.397  0.00  0.00    +0.000 C 
ATOM      5  C   UNL     1      -0.056  -0.882   0.623  0.00  0.00    +0.000 C 
ATOM      6  C   UNL     1      -2.254  -0.271   0.777  0.00  0.00    +0.000 C 
ATOM      7  C   UNL     1      -0.165   0.499   1.149  0.00  0.00    +0.000 C 
ENDROOT
BRANCH   4   8
ATOM      8  C   UNL     1      -1.679  -2.659  -0.109  0.00  0.00    +0.000 A 
ATOM      9  C   UNL     1      -1.915  -3.715   0.779  0.00  0.00    +0.000 A 
ATOM     10  C   UNL     1      -1.811  -2.879  -1.485  0.00  0.00    +0.000 A 
ATOM     11  C   UNL     1      -2.279  -4.973   0.298  0.00  0.00    +0.000 A 
ATOM     12  C   UNL     1      -2.174  -4.137  -1.966  0.00  0.00    +0.000 A 
ATOM     13  C   UNL     1      -2.409  -5.184  -1.075  0.00  0.00    +0.000 A 
ENDBRANCH   4   8
BRANCH   5  14
ATOM     14  N   UNL     1       1.165  -1.448   0.473  0.00  0.00    +0.000 N 
ATOM     15  H   UNL     1       1.184  -2.462   0.442  0.00  0.00    +0.000 HD
BRANCH  14  16
ATOM     16  C   UNL     1       2.391  -0.827   0.174  0.00  0.00    +0.000 A 
ATOM     17  C   UNL     1       3.587  -1.373   0.646  0.00  0.00    +0.000 A 
ATOM     18  C   UNL     1       2.418   0.338  -0.595  0.00  0.00    +0.000 A 
ATOM     19  C   UNL     1       4.803  -0.758   0.350  0.00  0.00    +0.000 A 
ATOM     20  C   UNL     1       3.635   0.954  -0.891  0.00  0.00    +0.000 A 
ATOM     21  C   UNL     1       4.827   0.406  -0.418  0.00  0.00    +0.000 A 
BRANCH  21  22
ATOM     22  O   UNL     1       6.013   1.007  -0.707  0.00  0.00    +0.000 OA
ATOM     23  C   UNL     1       7.194   0.394  -0.193  0.00  0.00    +0.000 C 
ENDBRANCH  21  22
ENDBRANCH  14  16
ENDBRANCH   5  14
BRANCH   3  24
ATOM     24  C   UNL     1      -2.050   2.041   1.683  0.00  0.00    +0.000 C 
BRANCH  24  25
ATOM     25  C   UNL     1      -2.176   2.982   0.534  0.00  0.00    +0.000 A 
ATOM     26  C   UNL     1      -1.119   3.832   0.208  0.00  0.00    +0.000 A 
ATOM     27  C   UNL     1      -3.352   3.014  -0.217  0.00  0.00    +0.000 A 
ATOM     28  C   UNL     1      -1.236   4.713  -0.867  0.00  0.00    +0.000 A 
ATOM     29  C   UNL     1      -3.470   3.895  -1.292  0.00  0.00    +0.000 A 
ATOM     30  C   UNL     1      -2.412   4.744  -1.618  0.00  0.00    +0.000 A 
ENDBRANCH  24  25
ENDBRANCH   3  24
TORSDOF 6
