REMARK  Name = 3038522
REMARK  12 active torsions:
REMARK  status: ('A' for Active; 'I' for Inactive)
REMARK    1  A    between atoms: O_1  and  C_22
REMARK    2  A    between atoms: O_1  and  C_27
REMARK    3  A    between atoms: O_3  and  C_30
REMARK    4  A    between atoms: O_3  and  C_35
REMARK    5  A    between atoms: O_4  and  C_38
REMARK    6  A    between atoms: O_4  and  C_39
REMARK    7  A    between atoms: N_5  and  C_16
REMARK    8  A    between atoms: N_9  and  C_32
REMARK    9  A    between atoms: C_16  and  C_17
REMARK   10  A    between atoms: C_17  and  C_22
REMARK   11  A    between atoms: C_39  and  C_40
REMARK   12  A    between atoms: C_39  and  C_41
REMARK                            x       y       z     vdW  Elec       q    Type
REMARK                         _______ _______ _______ _____ _____    ______ ____
ROOT
ATOM      1  O   UNL     1       4.357   1.380   2.174  0.00  0.00    +0.000 OA
ATOM      2  N   UNL     1       0.227   0.973  -0.274  0.00  0.00    +0.000 N 
ATOM      3  N   UNL     1       2.441   0.377   1.366  0.00  0.00    +0.000 N 
ATOM      4  N   UNL     1      -0.463   1.476  -2.450  0.00  0.00    +0.000 NA
ATOM      5  N   UNL     1       4.507  -0.756   1.280  0.00  0.00    +0.000 N 
ATOM      6  N   UNL     1      -2.790   1.876  -2.933  0.00  0.00    +0.000 NA
ATOM      7  C   UNL     1       1.019  -0.242  -0.534  0.00  0.00    +0.000 C 
ATOM      8  C   UNL     1       0.918   2.061   0.435  0.00  0.00    +0.000 C 
ATOM      9  C   UNL     1       1.685  -0.721   0.754  0.00  0.00    +0.000 C 
ATOM     10  C   UNL     1       1.608   1.532   1.693  0.00  0.00    +0.000 C 
ATOM     11  C   UNL     1      -0.809   1.279  -1.164  0.00  0.00    +0.000 A 
ATOM     12  C   UNL     1      -2.115   1.363  -0.689  0.00  0.00    +0.000 A 
ATOM     13  C   UNL     1       3.820   0.398   1.655  0.00  0.00    +0.000 C 
ATOM     14  C   UNL     1      -3.101   1.673  -1.641  0.00  0.00    +0.000 A 
ATOM     15  C   UNL     1      -4.763   1.558   0.136  0.00  0.00    +0.000 A 
ATOM     16  C   UNL     1      -2.452   1.153   0.659  0.00  0.00    +0.000 A 
ATOM     17  C   UNL     1      -4.420   1.766  -1.203  0.00  0.00    +0.000 A 
ATOM     18  C   UNL     1      -3.778   1.252   1.069  0.00  0.00    +0.000 A 
ATOM     19  C   UNL     1      -1.488   1.767  -3.268  0.00  0.00    +0.000 A 
ATOM     20  H   UNL     1       3.996  -1.630   1.241  0.00  0.00    +0.000 HD
ENDROOT
BRANCH   5  21
ATOM     21  C   UNL     1       5.863  -0.858   0.882  0.00  0.00    +0.000 A 
ATOM     22  C   UNL     1       6.682   0.271   0.901  0.00  0.00    +0.000 A 
ATOM     23  C   UNL     1       6.379  -2.087   0.471  0.00  0.00    +0.000 A 
ATOM     24  C   UNL     1       8.017   0.172   0.509  0.00  0.00    +0.000 A 
ATOM     25  C   UNL     1       7.714  -2.186   0.078  0.00  0.00    +0.000 A 
ATOM     26  C   UNL     1       8.533  -1.057   0.097  0.00  0.00    +0.000 A 
BRANCH  26  27
ATOM     27  O   UNL     1       9.834  -1.154  -0.288  0.00  0.00    +0.000 OA
BRANCH  27  28
ATOM     28  C   UNL     1      10.246  -0.353  -1.394  0.00  0.00    +0.000 C 
ATOM     29  C   UNL     1      11.332   0.610  -0.939  0.00  0.00    +0.000 C 
ATOM     30  C   UNL     1      10.726  -1.259  -2.518  0.00  0.00    +0.000 C 
ENDBRANCH  27  28
ENDBRANCH  26  27
ENDBRANCH   5  21
BRANCH  18  31
ATOM     31  O   UNL     1      -4.097   1.046   2.376  0.00  0.00    +0.000 OA
ATOM     32  C   UNL     1      -3.026   0.736   3.265  0.00  0.00    +0.000 C 
ENDBRANCH  18  31
BRANCH  15  33
ATOM     33  O   UNL     1      -6.068   1.660   0.515  0.00  0.00    +0.000 OA
BRANCH  33  34
ATOM     34  C   UNL     1      -7.053   1.323  -0.459  0.00  0.00    +0.000 C 
BRANCH  34  35
ATOM     35  C   UNL     1      -8.275   0.758   0.253  0.00  0.00    +0.000 C 
BRANCH  35  36
ATOM     36  C   UNL     1      -7.931  -0.503   1.040  0.00  0.00    +0.000 C 
BRANCH  36  37
ATOM     37  N   UNL     1      -7.393  -1.528   0.147  0.00  0.00    +0.000 NA
ATOM     38  C   UNL     1      -6.538  -2.462   0.894  0.00  0.00    +0.000 C 
ATOM     39  C   UNL     1      -8.482  -2.237  -0.538  0.00  0.00    +0.000 C 
ATOM     40  C   UNL     1      -5.927  -3.513  -0.035  0.00  0.00    +0.000 C 
ATOM     41  C   UNL     1      -7.934  -3.280  -1.514  0.00  0.00    +0.000 C 
ATOM     42  C   UNL     1      -7.004  -4.262  -0.810  0.00  0.00    +0.000 C 
ENDBRANCH  36  37
ENDBRANCH  35  36
ENDBRANCH  34  35
ENDBRANCH  33  34
ENDBRANCH  15  33
TORSDOF 9
