REMARK  Name = 1549120
REMARK  6 active torsions:
REMARK  status: ('A' for Active; 'I' for Inactive)
REMARK    1  A    between atoms: O_4  and  C_16
REMARK    2  A    between atoms: N_6  and  C_9
REMARK    3  A    between atoms: C_9  and  C_16
REMARK    4  A    between atoms: C_10  and  C_11
REMARK    5  A    between atoms: C_10  and  C_15
REMARK    6  A    between atoms: C_13  and  C_14
REMARK                            x       y       z     vdW  Elec       q    Type
REMARK                         _______ _______ _______ _____ _____    ______ ____
ROOT
ATOM      1  S   UNL     1       0.635  -0.977   0.696  0.00  0.00    +0.000 S 
ATOM      2  S   UNL     1       2.990  -2.827   0.972  0.00  0.00    +0.000 S 
ATOM      3  O   UNL     1       2.696   2.193   0.181  0.00  0.00    +0.000 OA
ATOM      4  N   UNL     1       3.055  -0.103   0.536  0.00  0.00    +0.000 N 
ATOM      5  C   UNL     1       0.853   0.703   0.428  0.00  0.00    +0.000 C 
ATOM      6  C   UNL     1       2.291   1.052   0.361  0.00  0.00    +0.000 C 
ATOM      7  C   UNL     1      -0.126   1.600   0.296  0.00  0.00    +0.000 C 
ATOM      8  C   UNL     1       2.368  -1.295   0.732  0.00  0.00    +0.000 C 
ENDROOT
BRANCH   7   9
ATOM      9  C   UNL     1      -1.568   1.346   0.348  0.00  0.00    +0.000 C 
ATOM     10  C   UNL     1      -2.051   0.233  -0.244  0.00  0.00    +0.000 C 
ATOM     11  C   UNL     1      -2.427   2.348   1.078  0.00  0.00    +0.000 C 
BRANCH  10  12
ATOM     12  C   UNL     1      -3.461  -0.168  -0.299  0.00  0.00    +0.000 A 
ATOM     13  C   UNL     1      -3.988  -0.959   0.713  0.00  0.00    +0.000 A 
ATOM     14  C   UNL     1      -4.251   0.248  -1.363  0.00  0.00    +0.000 A 
ATOM     15  C   UNL     1      -5.329  -1.341   0.660  0.00  0.00    +0.000 A 
ATOM     16  C   UNL     1      -5.591  -0.134  -1.416  0.00  0.00    +0.000 A 
ATOM     17  C   UNL     1      -6.130  -0.929  -0.404  0.00  0.00    +0.000 A 
ENDBRANCH  10  12
ENDBRANCH   7   9
BRANCH   4  18
ATOM     18  C   UNL     1       4.514  -0.061   0.515  0.00  0.00    +0.000 C 
BRANCH  18  20
ATOM     19  O   UNL     1       6.289  -0.260  -1.100  0.00  0.00    +0.000 OA
ATOM     20  C   UNL     1       5.087  -0.253  -0.866  0.00  0.00    +0.000 C 
BRANCH  20  21
ATOM     21  O   UNL     1       4.145  -0.415  -1.825  0.00  0.00    +0.000 OA
ATOM     22  H   UNL     1       4.542  -0.537  -2.713  0.00  0.00    +0.000 HD
ENDBRANCH  20  21
ENDBRANCH  18  20
ENDBRANCH   4  18
TORSDOF 5
