REMARK  Name = 
REMARK  16 active torsions:
REMARK  status: ('A' for Active; 'I' for Inactive)
REMARK    1  A    between atoms: C_2  and  O_3
REMARK    2  A    between atoms: C_2  and  C_4
REMARK    3  A    between atoms: C_7  and  C_8
REMARK    4  A    between atoms: C_8  and  C_9
REMARK    5  A    between atoms: C_9  and  C_10
REMARK    6  A    between atoms: C_10  and  C_11
REMARK    7  A    between atoms: N_19  and  C_20
REMARK    8  A    between atoms: C_20  and  C_21
REMARK    9  A    between atoms: C_20  and  C_27
REMARK   10  A    between atoms: C_33  and  C_34
REMARK   11  A    between atoms: C_34  and  C_35
REMARK   12  A    between atoms: C_35  and  N_36
REMARK   13  A    between atoms: N_36  and  S_37
REMARK   14  A    between atoms: S_37  and  C_40
REMARK   15  A    between atoms: C_40  and  C_41
REMARK   16  A    between atoms: C_46  and  C_47
REMARK                            x       y       z     vdW  Elec       q    Type
REMARK                         _______ _______ _______ _____ _____    ______ ____
ROOT
ATOM      1  C   UNL     1       1.187   0.312  -0.026  0.00  0.00    +0.000 A 
ATOM      2  C   UNL     1       1.906  -0.525  -0.870  0.00  0.00    +0.000 A 
ATOM      3  C   UNL     1       2.676  -0.319  -1.997  0.00  0.00    +0.000 A 
ATOM      4  C   UNL     1       3.684  -1.202  -2.362  0.00  0.00    +0.000 A 
ATOM      5 CL   UNL     1       5.124  -0.635  -3.203  0.00  0.00    +0.000 Cl
ATOM      6  C   UNL     1       3.809  -2.357  -1.605  0.00  0.00    +0.000 A 
ATOM      7  C   UNL     1       2.693  -2.817  -0.915  0.00  0.00    +0.000 A 
ATOM      8  C   UNL     1       1.905  -1.817  -0.357  0.00  0.00    +0.000 A 
ATOM      9  N   UNL     1       0.859  -1.829   0.500  0.00  0.00    +0.000 N 
ATOM     10  C   UNL     1       0.643  -0.556   0.914  0.00  0.00    +0.000 A 
ENDROOT
BRANCH   1  11
ATOM     11  C   UNL     1       1.631   1.698   0.323  0.00  0.00    +0.000 C 
BRANCH  11  12
ATOM     12  C   UNL     1       0.994   2.740  -0.546  0.00  0.00    +0.000 C 
BRANCH  12  13
ATOM     13  C   UNL     1       1.793   3.071  -1.777  0.00  0.00    +0.000 C 
BRANCH  13  17
ATOM     14  C   UNL     1       5.660   4.526  -1.060  0.00  0.00    +0.000 A 
ATOM     15  C   UNL     1       5.307   4.058  -2.313  0.00  0.00    +0.000 A 
ATOM     16  C   UNL     1       4.115   3.369  -2.497  0.00  0.00    +0.000 A 
ATOM     17  C   UNL     1       3.177   3.497  -1.479  0.00  0.00    +0.000 A 
ATOM     18  C   UNL     1       3.673   3.486  -0.193  0.00  0.00    +0.000 A 
ATOM     19  C   UNL     1       4.941   4.009   0.007  0.00  0.00    +0.000 A 
BRANCH  14  21
ATOM     20  O   UNL     1       6.761   6.530  -1.490  0.00  0.00    +0.000 OA
ATOM     21  C   UNL     1       6.769   5.452  -0.847  0.00  0.00    +0.000 C 
BRANCH  21  22
ATOM     22  O   UNL     1       7.583   5.407   0.281  0.00  0.00    +0.000 OA
ATOM     23  H   UNL     1       7.626   4.625   0.797  0.00  0.00    +0.000 HD
ENDBRANCH  21  22
ENDBRANCH  14  21
ENDBRANCH  13  17
ENDBRANCH  12  13
ENDBRANCH  11  12
ENDBRANCH   1  11
BRANCH   9  24
ATOM     24  C   UNL     1       0.290  -2.967   1.171  0.00  0.00    +0.000 C 
BRANCH  24  25
ATOM     25  C   UNL     1       0.971  -3.211   2.458  0.00  0.00    +0.000 A 
ATOM     26  C   UNL     1       0.521  -4.291   3.206  0.00  0.00    +0.000 A 
ATOM     27  C   UNL     1       1.367  -4.934   4.095  0.00  0.00    +0.000 A 
ATOM     28  C   UNL     1       2.422  -4.178   4.582  0.00  0.00    +0.000 A 
ATOM     29  C   UNL     1       2.886  -3.131   3.817  0.00  0.00    +0.000 A 
ATOM     30  C   UNL     1       2.139  -2.551   2.803  0.00  0.00    +0.000 A 
ENDBRANCH  24  25
BRANCH  24  31
ATOM     31  C   UNL     1       0.186  -4.167   0.323  0.00  0.00    +0.000 A 
ATOM     32  C   UNL     1       0.888  -5.326   0.600  0.00  0.00    +0.000 A 
ATOM     33  C   UNL     1       0.746  -6.420  -0.224  0.00  0.00    +0.000 A 
ATOM     34  C   UNL     1       0.265  -6.184  -1.503  0.00  0.00    +0.000 A 
ATOM     35  C   UNL     1      -0.692  -5.191  -1.623  0.00  0.00    +0.000 A 
ATOM     36  C   UNL     1      -0.849  -4.272  -0.596  0.00  0.00    +0.000 A 
ENDBRANCH  24  31
ENDBRANCH   9  24
BRANCH  10  37
ATOM     37  C   UNL     1      -0.391  -0.136   1.910  0.00  0.00    +0.000 C 
BRANCH  37  38
ATOM     38  C   UNL     1      -1.629  -1.005   1.754  0.00  0.00    +0.000 C 
BRANCH  38  39
ATOM     39  N   UNL     1      -2.770  -0.161   2.008  0.00  0.00    +0.000 NA
ATOM     40  H   UNL     1      -2.519   0.529   2.716  0.00  0.00    +0.000 HD
BRANCH  39  41
ATOM     41  S   UNL     1      -3.288   0.669   0.572  0.00  0.00    +0.000 S 
ATOM     42  O   UNL     1      -2.450   1.892   0.409  0.00  0.00    +0.000 OA
ATOM     43  O   UNL     1      -3.083  -0.259  -0.577  0.00  0.00    +0.000 OA
BRANCH  41  44
ATOM     44  C   UNL     1      -4.971   1.144   0.793  0.00  0.00    +0.000 C 
BRANCH  44  45
ATOM     45  C   UNL     1      -5.676   1.354  -0.510  0.00  0.00    +0.000 A 
ATOM     46  C   UNL     1      -5.512   0.486  -1.575  0.00  0.00    +0.000 A 
ATOM     47  C   UNL     1      -6.544   0.236  -2.471  0.00  0.00    +0.000 A 
ATOM     48  C   UNL     1      -7.809   0.694  -2.210  0.00  0.00    +0.000 A 
ATOM     49  C   UNL     1      -7.958   1.701  -1.271  0.00  0.00    +0.000 A 
ATOM     50  C   UNL     1      -6.875   2.055  -0.479  0.00  0.00    +0.000 A 
BRANCH  50  51
ATOM     51  C   UNL     1      -7.180   2.865   0.733  0.00  0.00    +0.000 C 
ATOM     52  F   UNL     1      -6.013   3.189   1.378  0.00  0.00    +0.000 F 
ATOM     53  F   UNL     1      -7.935   3.956   0.380  0.00  0.00    +0.000 F 
ATOM     54  F   UNL     1      -7.946   2.048   1.559  0.00  0.00    +0.000 F 
ENDBRANCH  50  51
ENDBRANCH  44  45
ENDBRANCH  41  44
ENDBRANCH  39  41
ENDBRANCH  38  39
ENDBRANCH  37  38
ENDBRANCH  10  37
TORSDOF 16
