REMARK  Name = 11683
REMARK  8 active torsions:
REMARK  status: ('A' for Active; 'I' for Inactive)
REMARK    1  A    between atoms: O_1  and  C_9
REMARK    2  A    between atoms: O_1  and  C_27
REMARK    3  A    between atoms: C_5  and  C_15
REMARK    4  A    between atoms: C_9  and  C_19
REMARK    5  A    between atoms: C_13  and  C_21
REMARK    6  A    between atoms: C_19  and  C_24
REMARK    7  A    between atoms: C_20  and  C_26
REMARK    8  A    between atoms: C_27  and  C_28
REMARK                            x       y       z     vdW  Elec       q    Type
REMARK                         _______ _______ _______ _____ _____    ______ ____
ROOT
ATOM      1  O   UNL     1       6.587   0.317   1.395  0.00  0.00    +0.000 OA
ATOM      2  C   UNL     1      -1.701   0.528  -0.640  0.00  0.00    +0.000 C 
ATOM      3  C   UNL     1      -0.857  -0.757  -0.427  0.00  0.00    +0.000 C 
ATOM      4  C   UNL     1       0.600  -0.582  -0.880  0.00  0.00    +0.000 C 
ATOM      5  C   UNL     1       1.236   0.549  -0.020  0.00  0.00    +0.000 C 
ATOM      6  C   UNL     1      -3.085   0.003  -0.178  0.00  0.00    +0.000 C 
ATOM      7  C   UNL     1      -1.074   1.651   0.204  0.00  0.00    +0.000 C 
ATOM      8  C   UNL     1      -1.712  -1.847  -1.070  0.00  0.00    +0.000 C 
ATOM      9  C   UNL     1       0.417   1.860  -0.127  0.00  0.00    +0.000 C 
ATOM     10  C   UNL     1       2.774   0.684  -0.301  0.00  0.00    +0.000 C 
ATOM     11  C   UNL     1      -3.164  -1.423  -0.767  0.00  0.00    +0.000 C 
ATOM     12  C   UNL     1      -1.772   0.982  -2.125  0.00  0.00    +0.000 C 
ATOM     13  C   UNL     1       1.415  -1.842  -0.780  0.00  0.00    +0.000 C 
ATOM     14  C   UNL     1       3.452  -0.675  -0.012  0.00  0.00    +0.000 C 
ATOM     15  C   UNL     1       3.362   1.772   0.640  0.00  0.00    +0.000 C 
ATOM     16  C   UNL     1       2.700  -1.893  -0.377  0.00  0.00    +0.000 C 
ATOM     17  C   UNL     1       3.059   1.081  -1.769  0.00  0.00    +0.000 C 
ATOM     18  C   UNL     1       4.882   1.812   0.647  0.00  0.00    +0.000 C 
ATOM     19  C   UNL     1       4.670  -0.751   0.559  0.00  0.00    +0.000 C 
ATOM     20  C   UNL     1       5.460   0.451   0.921  0.00  0.00    +0.000 C 
ATOM     21  C   UNL     1       3.395  -3.231  -0.337  0.00  0.00    +0.000 C 
ENDROOT
BRANCH   6  23
ATOM     22  O   UNL     1      -5.169   0.467  -1.291  0.00  0.00    +0.000 OA
ATOM     23  C   UNL     1      -4.247   0.865  -0.570  0.00  0.00    +0.000 C 
ATOM     24  C   UNL     1      -4.260   2.278  -0.043  0.00  0.00    +0.000 C 
ENDBRANCH   6  23
BRANCH   6  25
ATOM     25  O   UNL     1      -3.158  -0.066   1.243  0.00  0.00    +0.000 OA
BRANCH  25  27
ATOM     26  O   UNL     1      -5.258  -1.020   1.104  0.00  0.00    +0.000 OA
ATOM     27  C   UNL     1      -4.308  -0.602   1.752  0.00  0.00    +0.000 C 
ATOM     28  C   UNL     1      -4.244  -0.611   3.249  0.00  0.00    +0.000 C 
ENDBRANCH  25  27
ENDBRANCH   6  25
TORSDOF 3
