REMARK  Name = 9900246
REMARK  3 active torsions:
REMARK  status: ('A' for Active; 'I' for Inactive)
REMARK    1  A    between atoms: O_1  and  C_8
REMARK    2  A    between atoms: O_2  and  C_20
REMARK    3  A    between atoms: C_4  and  C_14
REMARK                            x       y       z     vdW  Elec       q    Type
REMARK                         _______ _______ _______ _____ _____    ______ ____
ROOT
ATOM      1  C   UNL     1      -1.976  -0.688   0.367  0.00  0.00    +0.000 C 
ATOM      2  C   UNL     1      -2.715   0.568  -0.135  0.00  0.00    +0.000 C 
ATOM      3  C   UNL     1      -0.533  -0.760  -0.131  0.00  0.00    +0.000 C 
ATOM      4  C   UNL     1       0.239   0.496   0.356  0.00  0.00    +0.000 C 
ATOM      5  C   UNL     1      -1.995   1.798   0.432  0.00  0.00    +0.000 C 
ATOM      6  C   UNL     1      -4.106   0.296   0.469  0.00  0.00    +0.000 C 
ATOM      7  C   UNL     1      -0.507   1.816   0.039  0.00  0.00    +0.000 C 
ATOM      8  C   UNL     1      -2.934  -1.827   0.029  0.00  0.00    +0.000 C 
ATOM      9  C   UNL     1       1.690   0.495  -0.213  0.00  0.00    +0.000 C 
ATOM     10  C   UNL     1      -4.330  -1.210   0.232  0.00  0.00    +0.000 C 
ATOM     11  C   UNL     1       0.176  -2.030   0.363  0.00  0.00    +0.000 C 
ATOM     12  C   UNL     1      -2.811   0.689  -1.677  0.00  0.00    +0.000 C 
ATOM     13  C   UNL     1       2.333  -0.884  -0.201  0.00  0.00    +0.000 C 
ATOM     14  C   UNL     1       2.571   1.506   0.554  0.00  0.00    +0.000 C 
ATOM     15  C   UNL     1       1.648  -2.003   0.092  0.00  0.00    +0.000 C 
ATOM     16  C   UNL     1       3.793  -0.938  -0.567  0.00  0.00    +0.000 C 
ATOM     17  C   UNL     1       4.033   1.469   0.117  0.00  0.00    +0.000 C 
ATOM     18  C   UNL     1       4.614   0.064   0.240  0.00  0.00    +0.000 C 
ENDROOT
BRANCH   6  19
ATOM     19  O   UNL     1      -5.143   1.058  -0.119  0.00  0.00    +0.000 OA
ATOM     20  H   UNL     1      -5.293   0.740  -1.025  0.00  0.00    +0.000 HD
ENDBRANCH   6  19
BRANCH  18  21
ATOM     21  O   UNL     1       5.953   0.086  -0.246  0.00  0.00    +0.000 OA
ATOM     22  H   UNL     1       6.310  -0.815  -0.159  0.00  0.00    +0.000 HD
ENDBRANCH  18  21
TORSDOF 2
