REMARK  Name = 5755
REMARK  7 active torsions:
REMARK  status: ('A' for Active; 'I' for Inactive)
REMARK    1  A    between atoms: O_1  and  C_10
REMARK    2  A    between atoms: O_2  and  C_13
REMARK    3  A    between atoms: O_4  and  C_24
REMARK    4  A    between atoms: C_6  and  C_17
REMARK    5  A    between atoms: C_10  and  C_20
REMARK    6  A    between atoms: C_14  and  C_21
REMARK    7  A    between atoms: C_20  and  C_24
REMARK                            x       y       z     vdW  Elec       q    Type
REMARK                         _______ _______ _______ _____ _____    ______ ____
ROOT
ATOM      1  O   UNL     1      -6.105  -0.483   1.654  0.00  0.00    +0.000 OA
ATOM      2  C   UNL     1       1.895   0.040  -0.189  0.00  0.00    +0.000 C 
ATOM      3  C   UNL     1       0.924   1.174   0.210  0.00  0.00    +0.000 C 
ATOM      4  C   UNL     1      -0.450   1.074  -0.468  0.00  0.00    +0.000 C 
ATOM      5  C   UNL     1      -1.117  -0.286  -0.059  0.00  0.00    +0.000 C 
ATOM      6  C   UNL     1       3.151   0.489   0.607  0.00  0.00    +0.000 C 
ATOM      7  C   UNL     1       1.254  -1.292   0.250  0.00  0.00    +0.000 C 
ATOM      8  C   UNL     1       1.756   2.438   0.011  0.00  0.00    +0.000 C 
ATOM      9  C   UNL     1      -0.169  -1.500  -0.315  0.00  0.00    +0.000 C 
ATOM     10  C   UNL     1      -2.587  -0.423  -0.623  0.00  0.00    +0.000 C 
ATOM     11  C   UNL     1       3.182   2.025   0.433  0.00  0.00    +0.000 C 
ATOM     12  C   UNL     1      -1.334   2.270  -0.070  0.00  0.00    +0.000 C 
ATOM     13  C   UNL     1       2.221   0.019  -1.708  0.00  0.00    +0.000 C 
ATOM     14  C   UNL     1      -2.752   2.149  -0.615  0.00  0.00    +0.000 C 
ATOM     15  C   UNL     1      -3.358   0.833  -0.201  0.00  0.00    +0.000 C 
ATOM     16  C   UNL     1      -2.662  -0.539  -2.162  0.00  0.00    +0.000 C 
ATOM     17  C   UNL     1      -3.241  -1.681  -0.070  0.00  0.00    +0.000 C 
ATOM     18  C   UNL     1      -4.482   0.807   0.531  0.00  0.00    +0.000 C 
ATOM     19  C   UNL     1      -4.360  -1.714   0.660  0.00  0.00    +0.000 C 
ATOM     20  C   UNL     1      -5.068  -0.466   1.000  0.00  0.00    +0.000 C 
ENDROOT
BRANCH   6  21
ATOM     21  O   UNL     1       3.027   0.172   1.990  0.00  0.00    +0.000 OA
ATOM     22  H   UNL     1       3.711   0.661   2.480  0.00  0.00    +0.000 HD
ENDBRANCH   6  21
BRANCH   9  23
ATOM     23  O   UNL     1      -0.090  -1.810  -1.699  0.00  0.00    +0.000 OA
ATOM     24  H   UNL     1       0.469  -2.599  -1.796  0.00  0.00    +0.000 HD
ENDBRANCH   9  23
BRANCH   6  26
ATOM     25  O   UNL     1       5.133   0.301  -0.702  0.00  0.00    +0.000 OA
ATOM     26  C   UNL     1       4.427  -0.175   0.186  0.00  0.00    +0.000 C 
BRANCH  26  27
ATOM     27  C   UNL     1       4.789  -1.453   0.912  0.00  0.00    +0.000 C 
BRANCH  27  28
ATOM     28  O   UNL     1       6.013  -1.969   0.434  0.00  0.00    +0.000 OA
ATOM     29  H   UNL     1       6.710  -1.331   0.663  0.00  0.00    +0.000 HD
ENDBRANCH  27  28
ENDBRANCH  26  27
ENDBRANCH   6  26
TORSDOF 5
