REMARK  Name = 5991
REMARK  4 active torsions:
REMARK  status: ('A' for Active; 'I' for Inactive)
REMARK    1  A    between atoms: O_1  and  C_6
REMARK    2  A    between atoms: O_2  and  C_21
REMARK    3  A    between atoms: C_3  and  C_13
REMARK    4  A    between atoms: C_6  and  C_17
REMARK                            x       y       z     vdW  Elec       q    Type
REMARK                         _______ _______ _______ _____ _____    ______ ____
ROOT
ATOM      1  C   UNL     1      -2.246   0.388  -0.590  0.00  0.00    +0.000 C 
ATOM      2  C   UNL     1      -1.569  -0.781   0.161  0.00  0.00    +0.000 C 
ATOM      3  C   UNL     1      -0.066  -0.864  -0.117  0.00  0.00    +0.000 C 
ATOM      4  C   UNL     1      -3.737   0.140  -0.210  0.00  0.00    +0.000 C 
ATOM      5  C   UNL     1       0.610   0.456   0.360  0.00  0.00    +0.000 C 
ATOM      6  C   UNL     1      -1.607   1.702  -0.107  0.00  0.00    +0.000 C 
ATOM      7  C   UNL     1      -2.447  -1.982  -0.181  0.00  0.00    +0.000 C 
ATOM      8  C   UNL     1      -0.074   1.697  -0.271  0.00  0.00    +0.000 C 
ATOM      9  C   UNL     1      -3.870  -1.402  -0.313  0.00  0.00    +0.000 C 
ATOM     10  C   UNL     1       0.596  -2.047   0.594  0.00  0.00    +0.000 C 
ATOM     11  C   UNL     1      -2.089   0.310  -2.138  0.00  0.00    +0.000 C 
ATOM     12  C   UNL     1       2.126   0.396   0.187  0.00  0.00    +0.000 A 
ATOM     13  C   UNL     1       2.054  -2.162   0.159  0.00  0.00    +0.000 C 
ATOM     14  C   UNL     1       2.793  -0.847   0.135  0.00  0.00    +0.000 A 
ATOM     15  C   UNL     1       2.902   1.568   0.163  0.00  0.00    +0.000 A 
ATOM     16  C   UNL     1       4.193  -0.886   0.009  0.00  0.00    +0.000 A 
ATOM     17  C   UNL     1       4.293   1.515   0.047  0.00  0.00    +0.000 A 
ATOM     18  C   UNL     1       4.939   0.288  -0.036  0.00  0.00    +0.000 A 
ENDROOT
BRANCH   4  19
ATOM     19  O   UNL     1      -4.639   0.755  -1.120  0.00  0.00    +0.000 OA
ATOM     20  H   UNL     1      -5.533   0.423  -0.933  0.00  0.00    +0.000 HD
ENDBRANCH   4  19
BRANCH  18  21
ATOM     21  O   UNL     1       6.293   0.234  -0.153  0.00  0.00    +0.000 OA
ATOM     22  H   UNL     1       6.569  -0.697  -0.197  0.00  0.00    +0.000 HD
ENDBRANCH  18  21
BRANCH   4  23
ATOM     23  C   UNL     1      -4.086   0.581   1.155  0.00  0.00    +0.000 C 
ATOM     24  C   UNL     1      -4.369   0.940   2.266  0.00  0.00    +0.000 C 
ENDBRANCH   4  23
TORSDOF 3
