REMARK  Name = 6918462
REMARK  12 active torsions:
REMARK  status: ('A' for Active; 'I' for Inactive)
REMARK    1  A    between atoms: S_1  and  C_30
REMARK    2  A    between atoms: S_1  and  C_33
REMARK    3  A    between atoms: O_2  and  C_14
REMARK    4  A    between atoms: O_2  and  C_26
REMARK    5  A    between atoms: O_3  and  C_17
REMARK    6  A    between atoms: N_6  and  C_36
REMARK    7  A    between atoms: C_9  and  C_21
REMARK    8  A    between atoms: C_10  and  C_22
REMARK    9  A    between atoms: C_11  and  C_23
REMARK   10  A    between atoms: C_19  and  C_24
REMARK   11  A    between atoms: C_19  and  C_25
REMARK   12  A    between atoms: C_26  and  C_33
REMARK                            x       y       z     vdW  Elec       q    Type
REMARK                         _______ _______ _______ _____ _____    ______ ____
ROOT
ATOM      1  O   UNL     1      -4.140  -3.030   1.966  0.00  0.00    +0.000 OA
ATOM      2  C   UNL     1      -4.478  -0.146  -0.086  0.00  0.00    +0.000 C 
ATOM      3  C   UNL     1      -3.494  -0.950   0.820  0.00  0.00    +0.000 C 
ATOM      4  C   UNL     1      -2.210  -1.494   0.116  0.00  0.00    +0.000 C 
ATOM      5  C   UNL     1      -4.013   1.320  -0.460  0.00  0.00    +0.000 C 
ATOM      6  C   UNL     1      -2.651  -2.331  -1.142  0.00  0.00    +0.000 C 
ATOM      7  C   UNL     1      -4.789  -0.974  -1.375  0.00  0.00    +0.000 C 
ATOM      8  C   UNL     1      -5.756  -0.104   0.796  0.00  0.00    +0.000 C 
ATOM      9  C   UNL     1      -1.256  -0.303  -0.295  0.00  0.00    +0.000 C 
ATOM     10  C   UNL     1      -3.557  -1.519  -2.086  0.00  0.00    +0.000 C 
ATOM     11  C   UNL     1      -4.456  -1.965   1.452  0.00  0.00    +0.000 C 
ATOM     12  C   UNL     1      -3.278   2.087   0.701  0.00  0.00    +0.000 C 
ATOM     13  C   UNL     1      -5.882  -1.480   1.438  0.00  0.00    +0.000 C 
ATOM     14  C   UNL     1      -1.708   2.143   0.617  0.00  0.00    +0.000 C 
ATOM     15  C   UNL     1      -1.006   0.762   0.797  0.00  0.00    +0.000 C 
ATOM     16  C   UNL     1      -1.435  -2.419   1.098  0.00  0.00    +0.000 C 
ATOM     17  C   UNL     1      -5.181   2.159  -1.035  0.00  0.00    +0.000 C 
ATOM     18  C   UNL     1      -1.513  -2.953  -1.961  0.00  0.00    +0.000 C 
ATOM     19  C   UNL     1      -1.170   3.053   1.754  0.00  0.00    +0.000 C 
ENDROOT
BRANCH  12  20
ATOM     20  O   UNL     1      -3.774   3.436   0.762  0.00  0.00    +0.000 OA
ATOM     21  H   UNL     1      -3.639   3.763   1.668  0.00  0.00    +0.000 HD
ENDBRANCH  12  20
BRANCH  14  22
ATOM     22  C   UNL     1      -1.255   2.783  -0.678  0.00  0.00    +0.000 C 
ATOM     23  C   UNL     1      -0.196   3.593  -0.783  0.00  0.00    +0.000 C 
ENDBRANCH  14  22
BRANCH   9  24
ATOM     24  O   UNL     1       0.030  -0.824  -0.669  0.00  0.00    +0.000 OA
BRANCH  24  26
ATOM     25  O   UNL     1       0.669   1.154  -1.663  0.00  0.00    +0.000 OA
ATOM     26  C   UNL     1       0.936   0.105  -1.095  0.00  0.00    +0.000 C 
BRANCH  26  27
ATOM     27  C   UNL     1       2.316  -0.393  -0.743  0.00  0.00    +0.000 C 
BRANCH  27  28
ATOM     28  S   UNL     1       3.592   0.773  -1.272  0.00  0.00    +0.000 S 
BRANCH  28  32
ATOM     29  N   UNL     1       7.423   0.177   1.100  0.00  0.00    +0.000 NA
ATOM     30  C   UNL     1       6.359  -0.783   1.417  0.00  0.00    +0.000 C 
ATOM     31  C   UNL     1       7.586   0.051  -0.352  0.00  0.00    +0.000 C 
ATOM     32  C   UNL     1       5.057  -0.146  -0.693  0.00  0.00    +0.000 C 
ATOM     33  C   UNL     1       4.994  -0.364   0.828  0.00  0.00    +0.000 C 
ATOM     34  C   UNL     1       6.353   0.559  -1.130  0.00  0.00    +0.000 C 
ATOM     35  C   UNL     1       6.918  -2.027   0.713  0.00  0.00    +0.000 C 
ATOM     36  C   UNL     1       7.734  -1.472  -0.463  0.00  0.00    +0.000 C 
ATOM     37  C   UNL     1       7.233   1.524   1.604  0.00  0.00    +0.000 C 
ENDBRANCH  28  32
ENDBRANCH  27  28
ENDBRANCH  26  27
ENDBRANCH  24  26
ENDBRANCH   9  24
TORSDOF 7
