REMARK  Name = 20054882
REMARK  9 active torsions:
REMARK  status: ('A' for Active; 'I' for Inactive)
REMARK    1  A    between atoms: O_2  and  C_9
REMARK    2  A    between atoms: O_2  and  C_31
REMARK    3  A    between atoms: O_3  and  C_20
REMARK    4  A    between atoms: O_4  and  C_25
REMARK    5  A    between atoms: N_5  and  C_22
REMARK    6  A    between atoms: C_12  and  C_20
REMARK    7  A    between atoms: C_20  and  C_28
REMARK    8  A    between atoms: C_20  and  C_29
REMARK    9  A    between atoms: C_22  and  C_23
REMARK                            x       y       z     vdW  Elec       q    Type
REMARK                         _______ _______ _______ _____ _____    ______ ____
ROOT
ATOM      1  O   UNL     1      -2.484   1.106   1.016  0.00  0.00    +0.000 OA
ATOM      2  N   UNL     1       2.696   0.246   0.200  0.00  0.00    +0.000 NA
ATOM      3  C   UNL     1      -0.150   0.461   0.638  0.00  0.00    +0.000 C 
ATOM      4  C   UNL     1       0.428  -0.321  -0.577  0.00  0.00    +0.000 C 
ATOM      5  C   UNL     1      -1.557  -0.025   1.043  0.00  0.00    +0.000 C 
ATOM      6  C   UNL     1      -1.956  -1.189   0.084  0.00  0.00    +0.000 C 
ATOM      7  C   UNL     1       1.761   0.410  -0.938  0.00  0.00    +0.000 C 
ATOM      8  C   UNL     1       0.526  -1.822  -0.178  0.00  0.00    +0.000 C 
ATOM      9  C   UNL     1      -0.887  -2.327   0.289  0.00  0.00    +0.000 C 
ATOM     10  C   UNL     1       0.828   0.508   1.827  0.00  0.00    +0.000 C 
ATOM     11  C   UNL     1      -0.482   1.822   0.155  0.00  0.00    +0.000 A 
ATOM     12  C   UNL     1      -0.608  -0.331  -1.715  0.00  0.00    +0.000 C 
ATOM     13  C   UNL     1       1.517   1.927  -1.334  0.00  0.00    +0.000 C 
ATOM     14  C   UNL     1       2.249   0.924   1.421  0.00  0.00    +0.000 C 
ATOM     15  C   UNL     1      -1.839  -0.740  -1.360  0.00  0.00    +0.000 C 
ATOM     16  C   UNL     1       0.296   2.571  -0.711  0.00  0.00    +0.000 A 
ATOM     17  C   UNL     1      -1.784   2.149   0.463  0.00  0.00    +0.000 A 
ATOM     18  C   UNL     1      -0.204   3.815  -1.094  0.00  0.00    +0.000 A 
ATOM     19  C   UNL     1      -2.304   3.368   0.087  0.00  0.00    +0.000 A 
ATOM     20  C   UNL     1      -1.487   4.221  -0.671  0.00  0.00    +0.000 A 
ENDROOT
BRANCH   9  21
ATOM     21  C   UNL     1      -1.253  -3.645  -0.401  0.00  0.00    +0.000 C 
ATOM     22  C   UNL     1      -1.355  -3.444  -1.911  0.00  0.00    +0.000 C 
ATOM     23  C   UNL     1      -0.232  -4.726  -0.059  0.00  0.00    +0.000 C 
BRANCH  21  24
ATOM     24  O   UNL     1      -2.529  -4.045   0.095  0.00  0.00    +0.000 OA
ATOM     25  H   UNL     1      -2.780  -4.870  -0.354  0.00  0.00    +0.000 HD
ENDBRANCH  21  24
ENDBRANCH   9  21
BRANCH   6  26
ATOM     26  O   UNL     1      -3.259  -1.653   0.384  0.00  0.00    +0.000 OA
ATOM     27  C   UNL     1      -3.514  -1.642   1.784  0.00  0.00    +0.000 C 
ENDBRANCH   6  26
BRANCH  19  28
ATOM     28  O   UNL     1      -3.577   3.721   0.391  0.00  0.00    +0.000 OA
ATOM     29  H   UNL     1      -3.754   4.606   0.027  0.00  0.00    +0.000 HD
ENDBRANCH  19  28
BRANCH   2  30
ATOM     30  C   UNL     1       4.074   0.595  -0.131  0.00  0.00    +0.000 C 
BRANCH  30  31
ATOM     31  C   UNL     1       5.045  -0.165   0.714  0.00  0.00    +0.000 C 
ATOM     32  C   UNL     1       5.569  -1.483   0.224  0.00  0.00    +0.000 C 
ATOM     33  C   UNL     1       6.471  -0.285   0.265  0.00  0.00    +0.000 C 
ENDBRANCH  30  31
ENDBRANCH   2  30
TORSDOF 6
