REMARK  Name = 447865
REMARK  11 active torsions:
REMARK  status: ('A' for Active; 'I' for Inactive)
REMARK    1  A    between atoms: O_2  and  C_10
REMARK    2  A    between atoms: O_3  and  C_13
REMARK    3  A    between atoms: C_8  and  C_15
REMARK    4  A    between atoms: C_8  and  C_16
REMARK    5  A    between atoms: C_9  and  C_17
REMARK    6  A    between atoms: C_11  and  C_19
REMARK    7  A    between atoms: C_23  and  C_27
REMARK    8  A    between atoms: C_24  and  C_28
REMARK    9  A    between atoms: C_28  and  C_29
REMARK   10  A    between atoms: C_30  and  C_31
REMARK   11  A    between atoms: C_33  and  C_34
REMARK                            x       y       z     vdW  Elec       q    Type
REMARK                         _______ _______ _______ _____ _____    ______ ____
ROOT
ATOM      1  O   UNL     1       4.606   1.923  -1.397  0.00  0.00    +0.000 OA
ATOM      2  O   UNL     1      -1.080   0.134  -0.466  0.00  0.00    +0.000 OA
ATOM      3  O   UNL     1      -1.496   1.378  -2.364  0.00  0.00    +0.000 OA
ATOM      4  C   UNL     1       2.614   2.567  -0.162  0.00  0.00    +0.000 C 
ATOM      5  C   UNL     1       4.544   0.957   0.800  0.00  0.00    +0.000 C 
ATOM      6  C   UNL     1       5.070  -0.378   0.194  0.00  0.00    +0.000 C 
ATOM      7  C   UNL     1       4.950  -1.650   1.079  0.00  0.00    +0.000 C 
ATOM      8  C   UNL     1       3.977   1.830  -0.336  0.00  0.00    +0.000 C 
ATOM      9  C   UNL     1       1.459   1.558  -0.459  0.00  0.00    +0.000 C 
ATOM     10  C   UNL     1       3.502  -2.154   1.281  0.00  0.00    +0.000 C 
ATOM     11  C   UNL     1       2.484   3.206   1.232  0.00  0.00    +0.000 C 
ATOM     12  C   UNL     1       2.614   3.727  -1.187  0.00  0.00    +0.000 C 
ATOM     13  C   UNL     1       5.608   1.782   1.528  0.00  0.00    +0.000 C 
ATOM     14  C   UNL     1       2.774  -2.492  -0.026  0.00  0.00    +0.000 C 
ATOM     15  C   UNL     1       5.619  -1.506   2.451  0.00  0.00    +0.000 C 
ATOM     16  C   UNL     1       0.082   2.184  -0.720  0.00  0.00    +0.000 C 
ATOM     17  C   UNL     1       1.390  -3.106   0.237  0.00  0.00    +0.000 C 
ATOM     18  C   UNL     1      -0.908   1.194  -1.306  0.00  0.00    +0.000 C 
ATOM     19  C   UNL     1       0.579  -3.314  -1.026  0.00  0.00    +0.000 C 
ATOM     20  C   UNL     1      -2.086  -0.848  -0.797  0.00  0.00    +0.000 C 
ATOM     21  C   UNL     1      -1.622  -2.208  -0.254  0.00  0.00    +0.000 C 
ATOM     22  C   UNL     1      -0.691  -2.904  -1.213  0.00  0.00    +0.000 C 
ATOM     23  C   UNL     1       1.266  -4.089  -2.125  0.00  0.00    +0.000 C 
ENDROOT
BRANCH  20  24
ATOM     24  C   UNL     1      -3.367  -0.435  -0.144  0.00  0.00    +0.000 C 
ATOM     25  C   UNL     1      -3.281  -0.300   1.354  0.00  0.00    +0.000 C 
ATOM     26  C   UNL     1      -4.522  -0.168  -0.786  0.00  0.00    +0.000 C 
BRANCH  26  29
ATOM     27  S   UNL     1      -8.046   1.239   0.170  0.00  0.00    +0.000 S 
ATOM     28  N   UNL     1      -6.077  -0.182   1.056  0.00  0.00    +0.000 NA
ATOM     29  C   UNL     1      -5.779   0.231  -0.215  0.00  0.00    +0.000 A 
ATOM     30  C   UNL     1      -6.700   1.001  -0.864  0.00  0.00    +0.000 A 
ATOM     31  C   UNL     1      -7.262   0.295   1.369  0.00  0.00    +0.000 A 
ATOM     32  C   UNL     1      -7.940   0.070   2.665  0.00  0.00    +0.000 C 
ENDBRANCH  26  29
ENDBRANCH  20  24
BRANCH   6  33
ATOM     33  O   UNL     1       6.428  -0.235  -0.238  0.00  0.00    +0.000 OA
ATOM     34  H   UNL     1       6.996  -0.150   0.544  0.00  0.00    +0.000 HD
ENDBRANCH   6  33
BRANCH   9  35
ATOM     35  O   UNL     1       1.292   0.693   0.668  0.00  0.00    +0.000 OA
ATOM     36  H   UNL     1       0.853   1.187   1.380  0.00  0.00    +0.000 HD
ENDBRANCH   9  35
TORSDOF 4
