REMARK  Name = 5460316
REMARK  12 active torsions:
REMARK  status: ('A' for Active; 'I' for Inactive)
REMARK    1  A    between atoms: O_1  and  C_14
REMARK    2  A    between atoms: O_2  and  C_18
REMARK    3  A    between atoms: O_3  and  C_27
REMARK    4  A    between atoms: N_7  and  C_32
REMARK    5  A    between atoms: C_8  and  C_22
REMARK    6  A    between atoms: C_12  and  C_25
REMARK    7  A    between atoms: C_13  and  C_23
REMARK    8  A    between atoms: C_23  and  C_28
REMARK    9  A    between atoms: C_23  and  C_29
REMARK   10  A    between atoms: C_28  and  C_30
REMARK   11  A    between atoms: C_30  and  C_31
REMARK   12  A    between atoms: C_32  and  C_33
REMARK                            x       y       z     vdW  Elec       q    Type
REMARK                         _______ _______ _______ _____ _____    ______ ____
ROOT
ATOM      1  C   UNL     1       0.320  -1.657  -0.021  0.00  0.00    +0.000 C 
ATOM      2  C   UNL     1       0.887  -0.676   1.033  0.00  0.00    +0.000 C 
ATOM      3  C   UNL     1       2.422  -0.682   1.098  0.00  0.00    +0.000 C 
ATOM      4  C   UNL     1       2.991  -0.285  -0.306  0.00  0.00    +0.000 C 
ATOM      5  C   UNL     1       4.569  -0.272  -0.313  0.00  0.00    +0.000 C 
ATOM      6  C   UNL     1      -1.194  -1.447   0.246  0.00  0.00    +0.000 C 
ATOM      7  C   UNL     1       0.827  -1.239  -1.416  0.00  0.00    +0.000 C 
ATOM      8  C   UNL     1       2.366  -1.135  -1.452  0.00  0.00    +0.000 C 
ATOM      9  C   UNL     1       5.083   0.689   0.811  0.00  0.00    +0.000 C 
ATOM     10  C   UNL     1       0.103  -1.015   2.300  0.00  0.00    +0.000 C 
ATOM     11  C   UNL     1       2.962   0.230   2.217  0.00  0.00    +0.000 C 
ATOM     12  C   UNL     1      -1.294  -1.409   1.788  0.00  0.00    +0.000 C 
ATOM     13  C   UNL     1       4.488   0.349   2.192  0.00  0.00    +0.000 C 
ATOM     14  C   UNL     1       5.159   0.195  -1.677  0.00  0.00    +0.000 C 
ATOM     15  C   UNL     1       0.724  -3.135   0.232  0.00  0.00    +0.000 C 
ATOM     16  C   UNL     1       4.877   2.179   0.467  0.00  0.00    +0.000 C 
ATOM     17  C   UNL     1       5.144  -1.694  -0.070  0.00  0.00    +0.000 C 
ATOM     18  C   UNL     1       4.911   1.664  -1.991  0.00  0.00    +0.000 C 
ATOM     19  C   UNL     1       5.470   2.553  -0.888  0.00  0.00    +0.000 C 
ENDROOT
BRANCH   7  20
ATOM     20  O   UNL     1       0.261  -0.000  -1.844  0.00  0.00    +0.000 OA
ATOM     21  H   UNL     1       0.600   0.188  -2.736  0.00  0.00    +0.000 HD
ENDBRANCH   7  20
BRANCH  11  22
ATOM     22  O   UNL     1       2.366   1.521   2.135  0.00  0.00    +0.000 OA
ATOM     23  H   UNL     1       2.119   1.718   1.220  0.00  0.00    +0.000 HD
ENDBRANCH  11  22
BRANCH  19  24
ATOM     24  O   UNL     1       5.153   3.907  -1.193  0.00  0.00    +0.000 OA
ATOM     25  H   UNL     1       5.559   4.117  -2.052  0.00  0.00    +0.000 HD
ENDBRANCH  19  24
BRANCH   6  26
ATOM     26  C   UNL     1      -2.139  -2.459  -0.385  0.00  0.00    +0.000 C 
ATOM     27  C   UNL     1      -1.940  -2.487  -1.904  0.00  0.00    +0.000 C 
BRANCH  26  28
ATOM     28  C   UNL     1      -3.621  -2.169  -0.069  0.00  0.00    +0.000 C 
BRANCH  28  29
ATOM     29  C   UNL     1      -4.107  -0.829  -0.622  0.00  0.00    +0.000 C 
BRANCH  29  32
ATOM     30  O   UNL     1      -6.405  -1.507  -0.273  0.00  0.00    +0.000 OA
ATOM     31  N   UNL     1      -5.873   0.754  -0.228  0.00  0.00    +0.000 N 
ATOM     32  C   UNL     1      -5.586  -0.597  -0.360  0.00  0.00    +0.000 C 
ATOM     33  H   UNL     1      -5.123   1.432  -0.334  0.00  0.00    +0.000 HD
BRANCH  31  34
ATOM     34  C   UNL     1      -7.202   1.257   0.034  0.00  0.00    +0.000 C 
BRANCH  34  37
ATOM     35  O   UNL     1      -6.846   3.386  -0.906  0.00  0.00    +0.000 OA
ATOM     36  O   UNL     1      -7.644   3.234   1.233  0.00  0.00    +0.000 OA
ATOM     37  C   UNL     1      -7.231   2.775   0.131  0.00  0.00    +0.000 C 
ENDBRANCH  34  37
ENDBRANCH  31  34
ENDBRANCH  29  32
ENDBRANCH  28  29
ENDBRANCH  26  28
ENDBRANCH   6  26
TORSDOF 9
