REMARK  Name = 9046
REMARK  5 active torsions:
REMARK  status: ('A' for Active; 'I' for Inactive)
REMARK    1  A    between atoms: O_1  and  C_6
REMARK    2  A    between atoms: O_2  and  C_21
REMARK    3  A    between atoms: O_2  and  C_23
REMARK    4  A    between atoms: C_3  and  C_13
REMARK    5  A    between atoms: C_6  and  C_17
REMARK                            x       y       z     vdW  Elec       q    Type
REMARK                         _______ _______ _______ _____ _____    ______ ____
ROOT
ATOM      1  C   UNL     1       3.693   0.439   0.661  0.00  0.00    +0.000 C 
ATOM      2  C   UNL     1       3.133  -0.763  -0.133  0.00  0.00    +0.000 C 
ATOM      3  C   UNL     1       1.619  -0.916   0.027  0.00  0.00    +0.000 C 
ATOM      4  C   UNL     1       5.220   0.261   0.400  0.00  0.00    +0.000 C 
ATOM      5  C   UNL     1       0.921   0.368  -0.513  0.00  0.00    +0.000 C 
ATOM      6  C   UNL     1       3.034   1.720   0.119  0.00  0.00    +0.000 C 
ATOM      7  C   UNL     1       4.037  -1.919   0.286  0.00  0.00    +0.000 C 
ATOM      8  C   UNL     1       1.494   1.643   0.161  0.00  0.00    +0.000 C 
ATOM      9  C   UNL     1       5.417  -1.272   0.525  0.00  0.00    +0.000 C 
ATOM     10  C   UNL     1       1.071  -2.132  -0.726  0.00  0.00    +0.000 C 
ATOM     11  C   UNL     1       3.418   0.361   2.192  0.00  0.00    +0.000 C 
ATOM     12  C   UNL     1      -0.599   0.237  -0.459  0.00  0.00    +0.000 A 
ATOM     13  C   UNL     1      -0.409  -2.315  -0.406  0.00  0.00    +0.000 C 
ATOM     14  C   UNL     1      -1.210  -1.036  -0.450  0.00  0.00    +0.000 A 
ATOM     15  C   UNL     1      -1.429   1.371  -0.505  0.00  0.00    +0.000 A 
ATOM     16  C   UNL     1      -2.612  -1.141  -0.434  0.00  0.00    +0.000 A 
ATOM     17  C   UNL     1      -2.821   1.252  -0.499  0.00  0.00    +0.000 A 
ATOM     18  C   UNL     1      -3.413  -0.003  -0.458  0.00  0.00    +0.000 A 
ENDROOT
BRANCH   4  19
ATOM     19  O   UNL     1       6.016   0.922   1.374  0.00  0.00    +0.000 OA
ATOM     20  H   UNL     1       6.938   0.632   1.260  0.00  0.00    +0.000 HD
ENDBRANCH   4  19
BRANCH   4  21
ATOM     21  C   UNL     1       5.654   0.713  -0.936  0.00  0.00    +0.000 C 
ATOM     22  C   UNL     1       6.006   1.081  -2.023  0.00  0.00    +0.000 C 
ENDBRANCH   4  21
BRANCH  18  23
ATOM     23  O   UNL     1      -4.768  -0.121  -0.447  0.00  0.00    +0.000 OA
BRANCH  23  24
ATOM     24  C   UNL     1      -5.462   0.487   0.636  0.00  0.00    +0.000 C 
ATOM     25  C   UNL     1      -6.301  -0.561   1.350  0.00  0.00    +0.000 C 
ATOM     26  C   UNL     1      -6.505   1.464   0.115  0.00  0.00    +0.000 C 
ATOM     27  C   UNL     1      -7.547  -0.715   0.479  0.00  0.00    +0.000 C 
ATOM     28  C   UNL     1      -7.660   0.574  -0.337  0.00  0.00    +0.000 C 
ENDBRANCH  23  24
ENDBRANCH  18  23
TORSDOF 4
