REMARK  Name = 5839
REMARK  6 active torsions:
REMARK  status: ('A' for Active; 'I' for Inactive)
REMARK    1  A    between atoms: O_1  and  C_11
REMARK    2  A    between atoms: O_5  and  C_26
REMARK    3  A    between atoms: C_8  and  C_20
REMARK    4  A    between atoms: C_10  and  C_21
REMARK    5  A    between atoms: C_13  and  C_22
REMARK    6  A    between atoms: C_22  and  C_26
REMARK                            x       y       z     vdW  Elec       q    Type
REMARK                         _______ _______ _______ _____ _____    ______ ____
ROOT
ATOM      1  O   UNL     1       5.815   0.832   1.781  0.00  0.00    +0.000 OA
ATOM      2  C   UNL     1      -0.878  -1.066   0.593  0.00  0.00    +0.000 C 
ATOM      3  C   UNL     1       0.424  -1.094  -0.218  0.00  0.00    +0.000 C 
ATOM      4  C   UNL     1      -1.863   0.001   0.099  0.00  0.00    +0.000 C 
ATOM      5  C   UNL     1       1.119   0.311  -0.083  0.00  0.00    +0.000 C 
ATOM      6  C   UNL     1       2.533   0.328  -0.783  0.00  0.00    +0.000 C 
ATOM      7  C   UNL     1       0.153   1.470  -0.466  0.00  0.00    +0.000 C 
ATOM      8  C   UNL     1      -1.217   1.384   0.249  0.00  0.00    +0.000 C 
ATOM      9  C   UNL     1      -3.063  -0.274   1.024  0.00  0.00    +0.000 C 
ATOM     10  C   UNL     1      -1.731  -2.328   0.682  0.00  0.00    +0.000 C 
ATOM     11  C   UNL     1       1.338  -2.241   0.259  0.00  0.00    +0.000 C 
ATOM     12  C   UNL     1      -3.101  -1.812   1.153  0.00  0.00    +0.000 C 
ATOM     13  C   UNL     1       3.320  -0.822  -0.141  0.00  0.00    +0.000 C 
ATOM     14  C   UNL     1       2.736  -2.195  -0.356  0.00  0.00    +0.000 C 
ATOM     15  C   UNL     1       3.295   1.669  -0.589  0.00  0.00    +0.000 C 
ATOM     16  C   UNL     1       2.461   0.113  -2.316  0.00  0.00    +0.000 C 
ATOM     17  C   UNL     1       3.873   1.844   0.804  0.00  0.00    +0.000 C 
ATOM     18  C   UNL     1       4.378  -0.661   0.670  0.00  0.00    +0.000 C 
ATOM     19  C   UNL     1       4.794   0.691   1.113  0.00  0.00    +0.000 C 
ENDROOT
BRANCH   7  20
ATOM     20  O   UNL     1      -0.054   1.506  -1.873  0.00  0.00    +0.000 OA
ATOM     21  H   UNL     1      -0.613   2.276  -2.070  0.00  0.00    +0.000 HD
ENDBRANCH   7  20
BRANCH   4  23
ATOM     22  O   UNL     1      -1.866  -1.091  -2.063  0.00  0.00    +0.000 OA
ATOM     23  C   UNL     1      -2.290  -0.190  -1.346  0.00  0.00    +0.000 C 
ENDBRANCH   4  23
BRANCH   9  25
ATOM     24  O   UNL     1      -5.087  -0.371  -0.228  0.00  0.00    +0.000 OA
ATOM     25  C   UNL     1      -4.367   0.277   0.530  0.00  0.00    +0.000 C 
BRANCH  25  26
ATOM     26  C   UNL     1      -4.736   1.662   1.015  0.00  0.00    +0.000 C 
BRANCH  26  27
ATOM     27  O   UNL     1      -5.986   2.058   0.490  0.00  0.00    +0.000 OA
ATOM     28  H   UNL     1      -6.660   1.464   0.862  0.00  0.00    +0.000 HD
ENDBRANCH  26  27
ENDBRANCH  25  26
ENDBRANCH   9  25
TORSDOF 5
