REMARK  Name = 111332
REMARK  8 active torsions:
REMARK  status: ('A' for Active; 'I' for Inactive)
REMARK    1  A    between atoms: O_1  and  C_9
REMARK    2  A    between atoms: O_3  and  C_25
REMARK    3  A    between atoms: O_3  and  C_27
REMARK    4  A    between atoms: C_6  and  C_16
REMARK    5  A    between atoms: C_9  and  C_20
REMARK    6  A    between atoms: C_14  and  C_22
REMARK    7  A    between atoms: C_20  and  C_25
REMARK    8  A    between atoms: C_27  and  C_28
REMARK                            x       y       z     vdW  Elec       q    Type
REMARK                         _______ _______ _______ _____ _____    ______ ____
ROOT
ATOM      1  O   UNL     1      -6.840   1.641  -1.095  0.00  0.00    +0.000 OA
ATOM      2  C   UNL     1       1.134  -0.639   0.197  0.00  0.00    +0.000 C 
ATOM      3  C   UNL     1       0.051  -1.608  -0.323  0.00  0.00    +0.000 C 
ATOM      4  C   UNL     1      -1.341  -1.325   0.267  0.00  0.00    +0.000 C 
ATOM      5  C   UNL     1       2.398  -1.289  -0.422  0.00  0.00    +0.000 C 
ATOM      6  C   UNL     1       0.647  -2.994  -0.077  0.00  0.00    +0.000 C 
ATOM      7  C   UNL     1       2.166  -2.805  -0.248  0.00  0.00    +0.000 C 
ATOM      8  C   UNL     1       0.745   0.761  -0.307  0.00  0.00    +0.000 C 
ATOM      9  C   UNL     1      -1.675   0.176   0.241  0.00  0.00    +0.000 C 
ATOM     10  C   UNL     1      -3.136   0.569   0.601  0.00  0.00    +0.000 C 
ATOM     11  C   UNL     1      -2.398  -2.137  -0.495  0.00  0.00    +0.000 C 
ATOM     12  C   UNL     1       1.234  -0.621   1.749  0.00  0.00    +0.000 C 
ATOM     13  C   UNL     1      -0.708   1.082  -0.039  0.00  0.00    +0.000 C 
ATOM     14  C   UNL     1      -3.791  -1.886   0.063  0.00  0.00    +0.000 C 
ATOM     15  C   UNL     1      -4.145  -0.421  -0.002  0.00  0.00    +0.000 C 
ATOM     16  C   UNL     1      -3.480   2.009   0.113  0.00  0.00    +0.000 C 
ATOM     17  C   UNL     1      -3.264   0.523   2.143  0.00  0.00    +0.000 C 
ATOM     18  C   UNL     1      -4.959   2.356   0.199  0.00  0.00    +0.000 C 
ATOM     19  C   UNL     1      -5.316  -0.063  -0.556  0.00  0.00    +0.000 C 
ATOM     20  C   UNL     1      -5.778   1.343  -0.552  0.00  0.00    +0.000 C 
ENDROOT
BRANCH   5  21
ATOM     21  O   UNL     1       2.523  -1.029  -1.817  0.00  0.00    +0.000 OA
ATOM     22  H   UNL     1       3.241  -1.581  -2.171  0.00  0.00    +0.000 HD
ENDBRANCH   5  21
BRANCH   5  24
ATOM     23  O   UNL     1       4.460  -1.650   0.715  0.00  0.00    +0.000 OA
ATOM     24  C   UNL     1       3.704  -0.849   0.168  0.00  0.00    +0.000 C 
BRANCH  24  25
ATOM     25  C   UNL     1       4.030   0.625   0.050  0.00  0.00    +0.000 C 
BRANCH  25  26
ATOM     26  O   UNL     1       5.426   0.822  -0.034  0.00  0.00    +0.000 OA
BRANCH  26  28
ATOM     27  O   UNL     1       5.123   3.108  -0.175  0.00  0.00    +0.000 OA
ATOM     28  C   UNL     1       5.848   2.122  -0.144  0.00  0.00    +0.000 C 
ATOM     29  C   UNL     1       7.343   2.178  -0.223  0.00  0.00    +0.000 C 
ENDBRANCH  26  28
ENDBRANCH  25  26
ENDBRANCH  24  25
ENDBRANCH   5  24
TORSDOF 5
