REMARK  Name = 400769
REMARK  11 active torsions:
REMARK  status: ('A' for Active; 'I' for Inactive)
REMARK    1  A    between atoms: O_2  and  C_27
REMARK    2  A    between atoms: O_2  and  C_37
REMARK    3  A    between atoms: C_6  and  C_21
REMARK    4  A    between atoms: C_7  and  C_24
REMARK    5  A    between atoms: C_10  and  C_27
REMARK    6  A    between atoms: C_14  and  C_28
REMARK    7  A    between atoms: C_19  and  C_30
REMARK    8  A    between atoms: C_19  and  C_31
REMARK    9  A    between atoms: C_26  and  C_34
REMARK   10  A    between atoms: C_26  and  C_35
REMARK   11  A    between atoms: C_33  and  C_36
REMARK                            x       y       z     vdW  Elec       q    Type
REMARK                         _______ _______ _______ _____ _____    ______ ____
ROOT
ATOM      1  O   UNL     1       1.236   2.012   2.113  0.00  0.00    +0.000 OA
ATOM      2  O   UNL     1      -6.827   0.384  -0.586  0.00  0.00    +0.000 OA
ATOM      3  C   UNL     1       0.896  -0.531  -0.527  0.00  0.00    +0.000 C 
ATOM      4  C   UNL     1      -0.449  -1.202   0.076  0.00  0.00    +0.000 C 
ATOM      5  C   UNL     1       1.667   0.133   0.654  0.00  0.00    +0.000 C 
ATOM      6  C   UNL     1       3.102   0.662   0.355  0.00  0.00    +0.000 C 
ATOM      7  C   UNL     1       3.964  -0.452  -0.301  0.00  0.00    +0.000 C 
ATOM      8  C   UNL     1       1.828  -1.582  -1.198  0.00  0.00    +0.000 C 
ATOM      9  C   UNL     1      -1.320  -0.075   0.698  0.00  0.00    +0.000 C 
ATOM     10  C   UNL     1       3.245  -1.071  -1.516  0.00  0.00    +0.000 C 
ATOM     11  C   UNL     1      -2.880  -0.223   0.704  0.00  0.00    +0.000 C 
ATOM     12  C   UNL     1      -1.154  -2.046  -1.025  0.00  0.00    +0.000 C 
ATOM     13  C   UNL     1       3.155   1.988  -0.437  0.00  0.00    +0.000 C 
ATOM     14  C   UNL     1      -3.359  -0.958  -0.593  0.00  0.00    +0.000 C 
ATOM     15  C   UNL     1       5.371   0.058  -0.688  0.00  0.00    +0.000 C 
ATOM     16  C   UNL     1       4.586   2.492  -0.731  0.00  0.00    +0.000 C 
ATOM     17  C   UNL     1      -2.633  -2.297  -0.778  0.00  0.00    +0.000 C 
ATOM     18  C   UNL     1       0.510   0.529  -1.614  0.00  0.00    +0.000 C 
ATOM     19  C   UNL     1       0.778   1.120   1.400  0.00  0.00    +0.000 C 
ATOM     20  C   UNL     1       5.374   1.381  -1.448  0.00  0.00    +0.000 C 
ATOM     21  C   UNL     1      -0.149  -2.203   1.239  0.00  0.00    +0.000 C 
ATOM     22  C   UNL     1      -0.702   0.956   1.320  0.00  0.00    +0.000 C 
ATOM     23  C   UNL     1      -4.909  -1.070  -0.783  0.00  0.00    +0.000 C 
ATOM     24  C   UNL     1      -3.266  -0.925   2.026  0.00  0.00    +0.000 C 
ATOM     25  C   UNL     1      -3.615   1.120   0.716  0.00  0.00    +0.000 C 
ATOM     26  C   UNL     1       4.502   3.720  -1.660  0.00  0.00    +0.000 C 
ATOM     27  C   UNL     1       5.296   2.931   0.564  0.00  0.00    +0.000 C 
ATOM     28  C   UNL     1      -5.618   0.234  -0.395  0.00  0.00    +0.000 C 
ATOM     29  C   UNL     1      -4.842   1.344   0.220  0.00  0.00    +0.000 C 
ATOM     30  C   UNL     1      -5.564  -2.228  -0.009  0.00  0.00    +0.000 C 
ATOM     31  C   UNL     1      -5.223  -1.283  -2.287  0.00  0.00    +0.000 C 
ENDROOT
BRANCH   7  33
ATOM     32  O   UNL     1       3.789  -1.549   1.852  0.00  0.00    +0.000 OA
ATOM     33  C   UNL     1       4.226  -1.550   0.709  0.00  0.00    +0.000 C 
BRANCH  33  34
ATOM     34  O   UNL     1       5.011  -2.511   0.144  0.00  0.00    +0.000 OA
ATOM     35  C   UNL     1       5.339  -3.615   0.993  0.00  0.00    +0.000 C 
ENDBRANCH  33  34
ENDBRANCH   7  33
BRANCH  29  37
ATOM     36  N   UNL     1      -5.926   3.678   0.450  0.00  0.00    +0.000 NA
ATOM     37  C   UNL     1      -5.439   2.631   0.347  0.00  0.00    +0.000 C 
ENDBRANCH  29  37
TORSDOF 3
