REMARK  Name = 457928
REMARK  17 active torsions:
REMARK  status: ('A' for Active; 'I' for Inactive)
REMARK    1  A    between atoms: O_1  and  C_29
REMARK    2  A    between atoms: O_1  and  C_37
REMARK    3  A    between atoms: O_2  and  C_31
REMARK    4  A    between atoms: O_5  and  C_42
REMARK    5  A    between atoms: C_7  and  C_24
REMARK    6  A    between atoms: C_8  and  C_25
REMARK    7  A    between atoms: C_11  and  C_28
REMARK    8  A    between atoms: C_14  and  C_31
REMARK    9  A    between atoms: C_21  and  C_32
REMARK   10  A    between atoms: C_21  and  C_33
REMARK   11  A    between atoms: C_22  and  C_34
REMARK   12  A    between atoms: C_34  and  C_35
REMARK   13  A    between atoms: C_37  and  C_38
REMARK   14  A    between atoms: C_38  and  C_39
REMARK   15  A    between atoms: C_39  and  C_40
REMARK   16  A    between atoms: C_39  and  C_41
REMARK   17  A    between atoms: C_39  and  C_42
REMARK                            x       y       z     vdW  Elec       q    Type
REMARK                         _______ _______ _______ _____ _____    ______ ____
ROOT
ATOM      1  C   UNL     1       1.522  -1.290   0.057  0.00  0.00    +0.000 C 
ATOM      2  C   UNL     1       2.941  -0.905  -0.646  0.00  0.00    +0.000 C 
ATOM      3  C   UNL     1       0.585  -0.013   0.050  0.00  0.00    +0.000 C 
ATOM      4  C   UNL     1       3.582   0.311   0.142  0.00  0.00    +0.000 C 
ATOM      5  C   UNL     1      -0.941  -0.246   0.460  0.00  0.00    +0.000 C 
ATOM      6  C   UNL     1       4.995   0.639  -0.390  0.00  0.00    +0.000 C 
ATOM      7  C   UNL     1      -1.491  -1.416  -0.442  0.00  0.00    +0.000 C 
ATOM      8  C   UNL     1       5.927  -0.580  -0.263  0.00  0.00    +0.000 C 
ATOM      9  C   UNL     1       0.811  -2.445  -0.703  0.00  0.00    +0.000 C 
ATOM     10  C   UNL     1       1.264   1.187   0.746  0.00  0.00    +0.000 C 
ATOM     11  C   UNL     1       3.951  -2.108  -0.657  0.00  0.00    +0.000 C 
ATOM     12  C   UNL     1       2.643   1.522   0.171  0.00  0.00    +0.000 C 
ATOM     13  C   UNL     1      -0.642  -2.692  -0.283  0.00  0.00    +0.000 C 
ATOM     14  C   UNL     1       5.388  -1.746  -1.091  0.00  0.00    +0.000 C 
ATOM     15  C   UNL     1      -3.048  -1.648  -0.402  0.00  0.00    +0.000 C 
ATOM     16  C   UNL     1       5.819   1.777   0.244  0.00  0.00    +0.000 C 
ATOM     17  C   UNL     1      -1.756   1.041   0.117  0.00  0.00    +0.000 C 
ATOM     18  C   UNL     1       1.772  -1.802   1.508  0.00  0.00    +0.000 C 
ATOM     19  C   UNL     1       2.733  -0.525  -2.152  0.00  0.00    +0.000 C 
ATOM     20  C   UNL     1       7.257   0.007  -0.730  0.00  0.00    +0.000 C 
ATOM     21  C   UNL     1       7.281   1.421  -0.119  0.00  0.00    +0.000 C 
ATOM     22  C   UNL     1      -1.101  -0.502   1.978  0.00  0.00    +0.000 C 
ATOM     23  C   UNL     1      -3.750  -0.292  -0.706  0.00  0.00    +0.000 C 
ATOM     24  C   UNL     1      -3.272   0.862   0.168  0.00  0.00    +0.000 C 
ATOM     25  C   UNL     1      -3.483  -2.077   1.027  0.00  0.00    +0.000 C 
ATOM     26  C   UNL     1      -3.541  -2.764  -1.345  0.00  0.00    +0.000 C 
ENDROOT
BRANCH  16  27
ATOM     27  C   UNL     1       5.463   3.147  -0.237  0.00  0.00    +0.000 C 
ATOM     28  C   UNL     1       5.050   4.131   0.816  0.00  0.00    +0.000 C 
ATOM     29  C   UNL     1       5.511   3.477  -1.536  0.00  0.00    +0.000 C 
ENDBRANCH  16  27
BRANCH   8  31
ATOM     30  O   UNL     1       5.520  -0.674   2.136  0.00  0.00    +0.000 OA
ATOM     31  C   UNL     1       6.136  -1.071   1.158  0.00  0.00    +0.000 C 
BRANCH  31  32
ATOM     32  O   UNL     1       7.107  -2.017   1.199  0.00  0.00    +0.000 OA
ATOM     33  H   UNL     1       7.258  -2.347   2.111  0.00  0.00    +0.000 HD
ENDBRANCH  31  32
ENDBRANCH   8  31
BRANCH  23  34
ATOM     34  O   UNL     1      -5.165  -0.418  -0.563  0.00  0.00    +0.000 OA
BRANCH  34  36
ATOM     35  O   UNL     1      -5.481   1.154  -2.223  0.00  0.00    +0.000 OA
ATOM     36  C   UNL     1      -5.915   0.369  -1.389  0.00  0.00    +0.000 C 
BRANCH  36  37
ATOM     37  C   UNL     1      -7.388   0.152  -1.120  0.00  0.00    +0.000 C 
BRANCH  37  38
ATOM     38  C   UNL     1      -7.941   1.021   0.028  0.00  0.00    +0.000 C 
ATOM     39  C   UNL     1      -9.449   0.758   0.212  0.00  0.00    +0.000 C 
ATOM     40  C   UNL     1      -7.766   2.510  -0.322  0.00  0.00    +0.000 C 
BRANCH  38  42
ATOM     41  O   UNL     1      -6.606   1.574   2.001  0.00  0.00    +0.000 OA
ATOM     42  C   UNL     1      -7.217   0.734   1.350  0.00  0.00    +0.000 C 
BRANCH  42  43
ATOM     43  O   UNL     1      -7.308  -0.559   1.754  0.00  0.00    +0.000 OA
ATOM     44  H   UNL     1      -6.832  -0.713   2.599  0.00  0.00    +0.000 HD
ENDBRANCH  42  43
ENDBRANCH  38  42
ENDBRANCH  37  38
ENDBRANCH  36  37
ENDBRANCH  34  36
ENDBRANCH  23  34
TORSDOF 9
