REMARK  Name = 6917864
REMARK  9 active torsions:
REMARK  status: ('A' for Active; 'I' for Inactive)
REMARK    1  A    between atoms: O_5  and  C_20
REMARK    2  A    between atoms: O_5  and  C_24
REMARK    3  A    between atoms: O_7  and  C_27
REMARK    4  A    between atoms: C_12  and  C_21
REMARK    5  A    between atoms: C_15  and  C_22
REMARK    6  A    between atoms: C_18  and  C_23
REMARK    7  A    between atoms: C_24  and  C_25
REMARK    8  A    between atoms: C_25  and  C_26
REMARK    9  A    between atoms: C_26  and  C_27
REMARK                            x       y       z     vdW  Elec       q    Type
REMARK                         _______ _______ _______ _____ _____    ______ ____
ROOT
ATOM      1  O   UNL     1      -2.078  -0.584  -1.675  0.00  0.00    +0.000 OA
ATOM      2  O   UNL     1      -1.474  -1.837   0.876  0.00  0.00    +0.000 OA
ATOM      3  O   UNL     1       0.209  -0.374   0.197  0.00  0.00    +0.000 OA
ATOM      4  O   UNL     1      -1.403  -1.863  -1.483  0.00  0.00    +0.000 OA
ATOM      5  C   UNL     1      -2.119   0.152  -0.424  0.00  0.00    +0.000 C 
ATOM      6  C   UNL     1      -3.621   0.104   0.002  0.00  0.00    +0.000 C 
ATOM      7  C   UNL     1      -1.677   1.597  -0.783  0.00  0.00    +0.000 C 
ATOM      8  C   UNL     1      -3.968   1.153   1.091  0.00  0.00    +0.000 C 
ATOM      9  C   UNL     1      -1.155  -0.462   0.624  0.00  0.00    +0.000 C 
ATOM     10  C   UNL     1      -2.047   2.603   0.319  0.00  0.00    +0.000 C 
ATOM     11  C   UNL     1      -0.165   1.618  -1.133  0.00  0.00    +0.000 C 
ATOM     12  C   UNL     1      -4.103  -1.304   0.426  0.00  0.00    +0.000 C 
ATOM     13  C   UNL     1      -3.530   2.553   0.651  0.00  0.00    +0.000 C 
ATOM     14  C   UNL     1      -1.946  -2.479  -0.311  0.00  0.00    +0.000 C 
ATOM     15  C   UNL     1      -3.486  -2.484  -0.331  0.00  0.00    +0.000 C 
ATOM     16  C   UNL     1       0.663   0.957  -0.021  0.00  0.00    +0.000 C 
ATOM     17  C   UNL     1      -5.464   1.184   1.429  0.00  0.00    +0.000 C 
ATOM     18  C   UNL     1       0.353   3.018  -1.475  0.00  0.00    +0.000 C 
ATOM     19  C   UNL     1      -1.413  -3.910  -0.296  0.00  0.00    +0.000 C 
ENDROOT
BRANCH  16  20
ATOM     20  O   UNL     1       2.032   0.929  -0.422  0.00  0.00    +0.000 OA
BRANCH  20  22
ATOM     21  O   UNL     1       2.592  -0.137   1.545  0.00  0.00    +0.000 OA
ATOM     22  C   UNL     1       2.897   0.347   0.464  0.00  0.00    +0.000 C 
BRANCH  22  23
ATOM     23  C   UNL     1       4.298   0.402  -0.109  0.00  0.00    +0.000 C 
BRANCH  23  24
ATOM     24  C   UNL     1       5.330  -0.300   0.766  0.00  0.00    +0.000 C 
BRANCH  24  26
ATOM     25  O   UNL     1       6.942   0.271  -0.942  0.00  0.00    +0.000 OA
ATOM     26  C   UNL     1       6.698  -0.269   0.130  0.00  0.00    +0.000 C 
BRANCH  26  27
ATOM     27  O   UNL     1       7.639  -0.885   0.886  0.00  0.00    +0.000 OA
ATOM     28  H   UNL     1       8.526  -0.850   0.467  0.00  0.00    +0.000 HD
ENDBRANCH  26  27
ENDBRANCH  24  26
ENDBRANCH  23  24
ENDBRANCH  22  23
ENDBRANCH  20  22
ENDBRANCH  16  20
TORSDOF 6
