REMARK  Name = 251636
REMARK  4 active torsions:
REMARK  status: ('A' for Active; 'I' for Inactive)
REMARK    1  A    between atoms: O_1  and  C_7
REMARK    2  A    between atoms: C_3  and  C_14
REMARK    3  A    between atoms: C_7  and  C_17
REMARK    4  A    between atoms: C_11  and  C_19
REMARK                            x       y       z     vdW  Elec       q    Type
REMARK                         _______ _______ _______ _____ _____    ______ ____
ROOT
ATOM      1  O   UNL     1      -5.862   0.171  -0.726  0.00  0.00    +0.000 OA
ATOM      2  C   UNL     1       2.535   0.629   0.243  0.00  0.00    +0.000 C 
ATOM      3  C   UNL     1       1.749  -0.656  -0.106  0.00  0.00    +0.000 C 
ATOM      4  C   UNL     1       0.325  -0.663   0.467  0.00  0.00    +0.000 C 
ATOM      5  C   UNL     1      -0.460   0.560  -0.101  0.00  0.00    +0.000 C 
ATOM      6  C   UNL     1       3.934   0.280  -0.359  0.00  0.00    +0.000 C 
ATOM      7  C   UNL     1       1.784   1.817  -0.383  0.00  0.00    +0.000 C 
ATOM      8  C   UNL     1       2.702  -1.775   0.301  0.00  0.00    +0.000 C 
ATOM      9  C   UNL     1       0.320   1.888   0.088  0.00  0.00    +0.000 C 
ATOM     10  C   UNL     1      -0.437  -1.991   0.231  0.00  0.00    +0.000 C 
ATOM     11  C   UNL     1       4.106  -1.226  -0.015  0.00  0.00    +0.000 C 
ATOM     12  C   UNL     1      -1.900   0.641   0.496  0.00  0.00    +0.000 C 
ATOM     13  C   UNL     1       2.669   0.879   1.773  0.00  0.00    +0.000 C 
ATOM     14  C   UNL     1      -1.820  -1.898   0.892  0.00  0.00    +0.000 C 
ATOM     15  C   UNL     1      -2.614  -0.701   0.428  0.00  0.00    +0.000 C 
ATOM     16  C   UNL     1       4.068   0.498  -1.872  0.00  0.00    +0.000 C 
ATOM     17  C   UNL     1      -2.708   1.755  -0.204  0.00  0.00    +0.000 C 
ATOM     18  C   UNL     1      -0.561  -2.410  -1.239  0.00  0.00    +0.000 C 
ATOM     19  C   UNL     1      -4.193   1.681   0.101  0.00  0.00    +0.000 C 
ATOM     20  C   UNL     1      -3.887  -0.856   0.029  0.00  0.00    +0.000 C 
ATOM     21  C   UNL     1      -4.731   0.323  -0.269  0.00  0.00    +0.000 C 
ENDROOT
BRANCH   6  22
ATOM     22  O   UNL     1       4.982   1.052   0.224  0.00  0.00    +0.000 OA
ATOM     23  H   UNL     1       5.830   0.676  -0.068  0.00  0.00    +0.000 HD
ENDBRANCH   6  22
TORSDOF 1
