REMARK  Name = 5283820
REMARK  10 active torsions:
REMARK  status: ('A' for Active; 'I' for Inactive)
REMARK    1  A    between atoms: O_1  and  C_17
REMARK    2  A    between atoms: O_2  and  C_24
REMARK    3  A    between atoms: O_3  and  C_28
REMARK    4  A    between atoms: C_6  and  C_19
REMARK    5  A    between atoms: C_9  and  C_22
REMARK    6  A    between atoms: C_10  and  C_21
REMARK    7  A    between atoms: C_21  and  C_25
REMARK    8  A    between atoms: C_21  and  C_26
REMARK    9  A    between atoms: C_25  and  C_27
REMARK   10  A    between atoms: C_27  and  C_28
REMARK                            x       y       z     vdW  Elec       q    Type
REMARK                         _______ _______ _______ _____ _____    ______ ____
ROOT
ATOM      1  C   UNL     1       0.284   0.634   0.692  0.00  0.00    +0.000 C 
ATOM      2  C   UNL     1       1.093   0.921  -0.592  0.00  0.00    +0.000 C 
ATOM      3  C   UNL     1      -1.196   1.011   0.560  0.00  0.00    +0.000 C 
ATOM      4  C   UNL     1      -1.822   0.180  -0.606  0.00  0.00    +0.000 C 
ATOM      5  C   UNL     1      -3.362   0.469  -0.780  0.00  0.00    +0.000 C 
ATOM      6  C   UNL     1       2.497   0.490  -0.100  0.00  0.00    +0.000 C 
ATOM      7  C   UNL     1      -4.090   0.232   0.589  0.00  0.00    +0.000 C 
ATOM      8  C   UNL     1       0.511   0.055  -1.717  0.00  0.00    +0.000 C 
ATOM      9  C   UNL     1      -0.995   0.312  -1.914  0.00  0.00    +0.000 C 
ATOM     10  C   UNL     1       1.120   1.277   1.794  0.00  0.00    +0.000 C 
ATOM     11  C   UNL     1      -1.951   0.785   1.875  0.00  0.00    +0.000 C 
ATOM     12  C   UNL     1       2.575   1.066   1.333  0.00  0.00    +0.000 C 
ATOM     13  C   UNL     1      -3.447   1.052   1.728  0.00  0.00    +0.000 C 
ATOM     14  C   UNL     1      -4.019  -0.443  -1.857  0.00  0.00    +0.000 C 
ATOM     15  C   UNL     1       1.087   2.409  -1.026  0.00  0.00    +0.000 C 
ATOM     16  C   UNL     1      -4.185  -1.268   0.957  0.00  0.00    +0.000 C 
ATOM     17  C   UNL     1      -3.605   1.927  -1.250  0.00  0.00    +0.000 C 
ATOM     18  C   UNL     1      -4.070  -1.916  -1.475  0.00  0.00    +0.000 C 
ATOM     19  C   UNL     1      -4.806  -2.107  -0.155  0.00  0.00    +0.000 C 
ENDROOT
BRANCH  13  20
ATOM     20  O   UNL     1      -4.078   0.773   2.975  0.00  0.00    +0.000 OA
ATOM     21  H   UNL     1      -5.026   0.966   2.872  0.00  0.00    +0.000 HD
ENDBRANCH  13  20
BRANCH  19  22
ATOM     22  O   UNL     1      -4.753  -3.478   0.226  0.00  0.00    +0.000 OA
ATOM     23  H   UNL     1      -5.248  -3.571   1.058  0.00  0.00    +0.000 HD
ENDBRANCH  19  22
BRANCH   6  24
ATOM     24  C   UNL     1       3.678   0.899  -0.968  0.00  0.00    +0.000 C 
ATOM     25  C   UNL     1       3.507   0.343  -2.385  0.00  0.00    +0.000 C 
BRANCH  24  26
ATOM     26  C   UNL     1       4.999   0.434  -0.320  0.00  0.00    +0.000 C 
BRANCH  26  27
ATOM     27  C   UNL     1       5.062  -1.072  -0.061  0.00  0.00    +0.000 C 
BRANCH  27  29
ATOM     28  O   UNL     1       7.229  -0.704   0.989  0.00  0.00    +0.000 OA
ATOM     29  C   UNL     1       6.340  -1.470   0.643  0.00  0.00    +0.000 C 
BRANCH  29  30
ATOM     30  O   UNL     1       6.397  -2.812   0.847  0.00  0.00    +0.000 OA
ATOM     31  H   UNL     1       7.225  -3.078   1.300  0.00  0.00    +0.000 HD
ENDBRANCH  29  30
ENDBRANCH  27  29
ENDBRANCH  26  27
ENDBRANCH  24  26
ENDBRANCH   6  24
TORSDOF 7
