REMARK  Name = 11376392
REMARK  15 active torsions:
REMARK  status: ('A' for Active; 'I' for Inactive)
REMARK    1  A    between atoms: O_3  and  C_13
REMARK    2  A    between atoms: O_3  and  C_27
REMARK    3  A    between atoms: O_4  and  C_18
REMARK    4  A    between atoms: O_5  and  C_28
REMARK    5  A    between atoms: O_5  and  C_39
REMARK    6  A    between atoms: C_10  and  C_24
REMARK    7  A    between atoms: C_13  and  C_28
REMARK    8  A    between atoms: C_16  and  C_29
REMARK    9  A    between atoms: C_19  and  C_30
REMARK   10  A    between atoms: C_19  and  C_31
REMARK   11  A    between atoms: C_20  and  C_32
REMARK   12  A    between atoms: C_20  and  C_33
REMARK   13  A    between atoms: C_21  and  C_27
REMARK   14  A    between atoms: C_22  and  C_34
REMARK   15  A    between atoms: C_39  and  C_40
REMARK                            x       y       z     vdW  Elec       q    Type
REMARK                         _______ _______ _______ _____ _____    ______ ____
ROOT
ATOM      1  F   UNL     1       2.144   0.758  -0.672  0.00  0.00    +0.000 F 
ATOM      2  F   UNL     1       4.968   1.331   2.571  0.00  0.00    +0.000 F 
ATOM      3  O   UNL     1       6.583   2.281  -1.961  0.00  0.00    +0.000 OA
ATOM      4  C   UNL     1      -0.327  -1.340   0.671  0.00  0.00    +0.000 C 
ATOM      5  C   UNL     1       0.557  -0.309   1.405  0.00  0.00    +0.000 C 
ATOM      6  C   UNL     1       2.065  -0.577   1.266  0.00  0.00    +0.000 C 
ATOM      7  C   UNL     1      -1.731  -0.785   1.060  0.00  0.00    +0.000 C 
ATOM      8  C   UNL     1       2.454  -0.528  -0.251  0.00  0.00    +0.000 C 
ATOM      9  C   UNL     1      -0.056  -0.236   2.803  0.00  0.00    +0.000 C 
ATOM     10  C   UNL     1      -1.579  -0.427   2.571  0.00  0.00    +0.000 C 
ATOM     11  C   UNL     1       0.032  -1.279  -0.828  0.00  0.00    +0.000 C 
ATOM     12  C   UNL     1       1.540  -1.445  -1.120  0.00  0.00    +0.000 C 
ATOM     13  C   UNL     1       4.011  -0.675  -0.476  0.00  0.00    +0.000 C 
ATOM     14  C   UNL     1       2.865   0.457   2.077  0.00  0.00    +0.000 C 
ATOM     15  C   UNL     1      -0.151  -2.788   1.206  0.00  0.00    +0.000 C 
ATOM     16  C   UNL     1       4.367   0.325   1.870  0.00  0.00    +0.000 C 
ATOM     17  C   UNL     1       4.704   0.379   0.401  0.00  0.00    +0.000 C 
ATOM     18  C   UNL     1      -2.385   0.785   3.029  0.00  0.00    +0.000 C 
ATOM     19  C   UNL     1       4.572  -2.063  -0.090  0.00  0.00    +0.000 C 
ATOM     20  C   UNL     1       4.347  -0.476  -1.947  0.00  0.00    +0.000 C 
ATOM     21  C   UNL     1       5.525   1.323  -0.085  0.00  0.00    +0.000 C 
ATOM     22  C   UNL     1       5.162   0.465  -2.434  0.00  0.00    +0.000 C 
ATOM     23  C   UNL     1       5.820   1.424  -1.529  0.00  0.00    +0.000 C 
ENDROOT
BRANCH  12  24
ATOM     24  O   UNL     1       1.900  -2.812  -0.978  0.00  0.00    +0.000 OA
ATOM     25  H   UNL     1       2.387  -3.072  -1.778  0.00  0.00    +0.000 HD
ENDBRANCH  12  24
BRANCH   7  27
ATOM     26  O   UNL     1      -3.542  -2.168   1.744  0.00  0.00    +0.000 OA
ATOM     27  C   UNL     1      -2.856  -1.746   0.824  0.00  0.00    +0.000 C 
BRANCH  27  28
ATOM     28  O   UNL     1      -2.980  -2.052  -0.497  0.00  0.00    +0.000 OA
BRANCH  28  29
ATOM     29  C   UNL     1      -4.032  -2.967  -0.819  0.00  0.00    +0.000 C 
BRANCH  29  31
ATOM     30  N   UNL     1      -4.098  -3.419  -3.402  0.00  0.00    +0.000 NA
ATOM     31  C   UNL     1      -4.068  -3.219  -2.259  0.00  0.00    +0.000 C 
ENDBRANCH  29  31
ENDBRANCH  28  29
ENDBRANCH  27  28
ENDBRANCH   7  27
BRANCH   7  32
ATOM     32  O   UNL     1      -2.122   0.329   0.267  0.00  0.00    +0.000 OA
BRANCH  32  34
ATOM     33  O   UNL     1      -4.285   0.337   1.086  0.00  0.00    +0.000 OA
ATOM     34  C   UNL     1      -3.317   0.900   0.596  0.00  0.00    +0.000 C 
BRANCH  34  37
ATOM     35  C   UNL     1      -3.013   2.827  -1.093  0.00  0.00    +0.000 C 
ATOM     36  C   UNL     1      -4.419   2.917  -0.578  0.00  0.00    +0.000 C 
ATOM     37  C   UNL     1      -3.337   2.353   0.287  0.00  0.00    +0.000 C 
ATOM     38  C   UNL     1      -2.697   1.825  -2.154  0.00  0.00    +0.000 C 
ATOM     39  C   UNL     1      -2.202   4.075  -1.209  0.00  0.00    +0.000 C 
ATOM     40  C   UNL     1      -4.983   4.261  -0.257  0.00  0.00    +0.000 C 
ATOM     41  C   UNL     1      -5.440   1.960  -1.096  0.00  0.00    +0.000 C 
ENDBRANCH  34  37
ENDBRANCH  32  34
ENDBRANCH   7  32
TORSDOF 8
