REMARK  Name = 6398761
REMARK  13 active torsions:
REMARK  status: ('A' for Active; 'I' for Inactive)
REMARK    1  A    between atoms: O_1  and  C_12
REMARK    2  A    between atoms: O_1  and  C_18
REMARK    3  A    between atoms: O_2  and  C_22
REMARK    4  A    between atoms: O_3  and  C_25
REMARK    5  A    between atoms: O_4  and  C_26
REMARK    6  A    between atoms: C_5  and  C_13
REMARK    7  A    between atoms: C_7  and  C_12
REMARK    8  A    between atoms: C_12  and  C_16
REMARK    9  A    between atoms: C_17  and  C_19
REMARK   10  A    between atoms: C_18  and  C_20
REMARK   11  A    between atoms: C_20  and  C_22
REMARK   12  A    between atoms: C_22  and  C_28
REMARK   13  A    between atoms: C_22  and  C_29
REMARK                            x       y       z     vdW  Elec       q    Type
REMARK                         _______ _______ _______ _____ _____    ______ ____
ROOT
ATOM      1  C   UNL     1       1.185   1.748   0.371  0.00  0.00    +0.000 C 
ATOM      2  C   UNL     1      -0.049   2.157  -0.471  0.00  0.00    +0.000 C 
ATOM      3  C   UNL     1       2.311   2.169  -0.605  0.00  0.00    +0.000 C 
ATOM      4  C   UNL     1       0.262   1.579  -1.853  0.00  0.00    +0.000 C 
ATOM      5  C   UNL     1       1.788   1.726  -1.991  0.00  0.00    +0.000 C 
ATOM      6  C   UNL     1       1.160   2.543   1.692  0.00  0.00    +0.000 C 
ATOM      7  C   UNL     1      -1.331   1.862   0.258  0.00  0.00    +0.000 C 
ATOM      8  C   UNL     1       1.241   0.230   0.678  0.00  0.00    +0.000 C 
ATOM      9  C   UNL     1      -0.154   2.324   2.463  0.00  0.00    +0.000 C 
ATOM     10  C   UNL     1      -1.409   2.552   1.605  0.00  0.00    +0.000 C 
ATOM     11  C   UNL     1      -2.320   1.085  -0.205  0.00  0.00    +0.000 C 
ENDROOT
BRANCH  11  12
ATOM     12  C   UNL     1      -3.538   0.836   0.526  0.00  0.00    +0.000 C 
ATOM     13  C   UNL     1      -4.529   0.058   0.063  0.00  0.00    +0.000 C 
ATOM     14  C   UNL     1      -5.771  -0.216   0.874  0.00  0.00    +0.000 C 
ATOM     15  C   UNL     1      -4.471  -0.616  -1.232  0.00  0.00    +0.000 C 
ATOM     16  C   UNL     1      -6.092  -1.710   0.954  0.00  0.00    +0.000 C 
ATOM     17  C   UNL     1      -4.849  -2.080  -1.226  0.00  0.00    +0.000 C 
ATOM     18  C   UNL     1      -6.143  -2.333  -0.446  0.00  0.00    +0.000 C 
ATOM     19  C   UNL     1      -4.160   0.026  -2.370  0.00  0.00    +0.000 C 
BRANCH  16  20
ATOM     20  O   UNL     1      -7.355  -1.870   1.592  0.00  0.00    +0.000 OA
ATOM     21  H   UNL     1      -7.543  -2.823   1.633  0.00  0.00    +0.000 HD
ENDBRANCH  16  20
BRANCH  17  22
ATOM     22  O   UNL     1      -3.779  -2.815  -0.629  0.00  0.00    +0.000 OA
ATOM     23  H   UNL     1      -2.981  -2.662  -1.164  0.00  0.00    +0.000 HD
ENDBRANCH  17  22
ENDBRANCH  11  12
BRANCH   3  24
ATOM     24  C   UNL     1       3.705   1.641  -0.301  0.00  0.00    +0.000 C 
ATOM     25  C   UNL     1       4.720   2.090  -1.341  0.00  0.00    +0.000 C 
BRANCH  24  26
ATOM     26  O   UNL     1       3.669   0.218  -0.264  0.00  0.00    +0.000 OA
BRANCH  26  27
ATOM     27  C   UNL     1       4.950  -0.327   0.017  0.00  0.00    +0.000 C 
BRANCH  27  28
ATOM     28  C   UNL     1       4.862  -1.852   0.046  0.00  0.00    +0.000 C 
BRANCH  28  29
ATOM     29  C   UNL     1       6.189  -2.565   0.368  0.00  0.00    +0.000 C 
ATOM     30  C   UNL     1       7.288  -2.231  -0.641  0.00  0.00    +0.000 C 
ATOM     31  C   UNL     1       5.971  -4.080   0.412  0.00  0.00    +0.000 C 
BRANCH  29  32
ATOM     32  O   UNL     1       6.649  -2.149   1.656  0.00  0.00    +0.000 OA
ATOM     33  H   UNL     1       6.952  -1.228   1.595  0.00  0.00    +0.000 HD
ENDBRANCH  29  32
ENDBRANCH  28  29
ENDBRANCH  27  28
ENDBRANCH  26  27
ENDBRANCH  24  26
ENDBRANCH   3  24
TORSDOF 9
