REMARK  Name = 11809740
REMARK  5 active torsions:
REMARK  status: ('A' for Active; 'I' for Inactive)
REMARK    1  A    between atoms: O_1  and  C_13
REMARK    2  A    between atoms: O_1  and  C_23
REMARK    3  A    between atoms: C_7  and  C_18
REMARK    4  A    between atoms: C_8  and  C_19
REMARK    5  A    between atoms: C_23  and  C_24
REMARK                            x       y       z     vdW  Elec       q    Type
REMARK                         _______ _______ _______ _____ _____    ______ ____
ROOT
ATOM      1  O   UNL     1      -6.476   0.200  -1.035  0.00  0.00    +0.000 OA
ATOM      2  C   UNL     1      -0.284  -0.884   0.337  0.00  0.00    +0.000 C 
ATOM      3  C   UNL     1      -1.011   0.384  -0.218  0.00  0.00    +0.000 C 
ATOM      4  C   UNL     1       1.148  -0.904  -0.207  0.00  0.00    +0.000 C 
ATOM      5  C   UNL     1       1.958   0.340   0.204  0.00  0.00    +0.000 C 
ATOM      6  C   UNL     1      -2.511   0.458   0.255  0.00  0.00    +0.000 C 
ATOM      7  C   UNL     1      -3.208  -0.874  -0.176  0.00  0.00    +0.000 C 
ATOM      8  C   UNL     1      -0.194   1.681   0.034  0.00  0.00    +0.000 C 
ATOM      9  C   UNL     1       1.278   1.573  -0.404  0.00  0.00    +0.000 C 
ATOM     10  C   UNL     1      -1.043  -2.165  -0.034  0.00  0.00    +0.000 C 
ATOM     11  C   UNL     1       3.315  -0.025  -0.429  0.00  0.00    +0.000 C 
ATOM     12  C   UNL     1       2.067  -2.066   0.161  0.00  0.00    +0.000 C 
ATOM     13  C   UNL     1      -2.508  -2.114   0.390  0.00  0.00    +0.000 C 
ATOM     14  C   UNL     1       3.482  -1.525  -0.117  0.00  0.00    +0.000 C 
ATOM     15  C   UNL     1      -3.252   1.619  -0.469  0.00  0.00    +0.000 C 
ATOM     16  C   UNL     1       2.112   0.535   1.734  0.00  0.00    +0.000 C 
ATOM     17  C   UNL     1      -2.598   0.692   1.784  0.00  0.00    +0.000 C 
ATOM     18  C   UNL     1      -4.706  -0.901   0.142  0.00  0.00    +0.000 C 
ATOM     19  C   UNL     1      -4.757   1.650  -0.216  0.00  0.00    +0.000 C 
ATOM     20  C   UNL     1      -5.392   0.302  -0.462  0.00  0.00    +0.000 C 
ENDROOT
BRANCH  11  21
ATOM     21  O   UNL     1       4.388   0.740   0.086  0.00  0.00    +0.000 OA
BRANCH  21  23
ATOM     22  O   UNL     1       5.889  -0.449  -1.208  0.00  0.00    +0.000 OA
ATOM     23  C   UNL     1       5.635   0.424  -0.390  0.00  0.00    +0.000 C 
ATOM     24  C   UNL     1       6.667   1.311   0.238  0.00  0.00    +0.000 C 
ENDBRANCH  21  23
ENDBRANCH  11  21
TORSDOF 2
