REMARK  Name = 5744
REMARK  9 active torsions:
REMARK  status: ('A' for Active; 'I' for Inactive)
REMARK    1  A    between atoms: O_1  and  C_11
REMARK    2  A    between atoms: O_2  and  C_14
REMARK    3  A    between atoms: O_4  and  C_27
REMARK    4  A    between atoms: O_4  and  C_28
REMARK    5  A    between atoms: C_7  and  C_18
REMARK    6  A    between atoms: C_11  and  C_23
REMARK    7  A    between atoms: C_13  and  C_22
REMARK    8  A    between atoms: C_23  and  C_27
REMARK    9  A    between atoms: C_28  and  C_29
REMARK                            x       y       z     vdW  Elec       q    Type
REMARK                         _______ _______ _______ _____ _____    ______ ____
ROOT
ATOM      1  O   UNL     1      -6.834   1.387  -1.381  0.00  0.00    +0.000 OA
ATOM      2  C   UNL     1       1.191  -0.698   0.239  0.00  0.00    +0.000 C 
ATOM      3  C   UNL     1       0.057  -1.617  -0.265  0.00  0.00    +0.000 C 
ATOM      4  C   UNL     1      -1.316  -1.288   0.341  0.00  0.00    +0.000 C 
ATOM      5  C   UNL     1      -1.690   0.184  -0.030  0.00  0.00    +0.000 C 
ATOM      6  C   UNL     1       2.393  -1.346  -0.503  0.00  0.00    +0.000 C 
ATOM      7  C   UNL     1       0.837   0.744  -0.177  0.00  0.00    +0.000 C 
ATOM      8  C   UNL     1      -3.141   0.592   0.456  0.00  0.00    +0.000 C 
ATOM      9  C   UNL     1      -0.554   1.194   0.321  0.00  0.00    +0.000 C 
ATOM     10  C   UNL     1       0.628  -3.020  -0.077  0.00  0.00    +0.000 C 
ATOM     11  C   UNL     1       2.129  -2.865  -0.401  0.00  0.00    +0.000 C 
ATOM     12  C   UNL     1      -2.381  -2.260  -0.190  0.00  0.00    +0.000 C 
ATOM     13  C   UNL     1       1.418  -0.788   1.773  0.00  0.00    +0.000 C 
ATOM     14  C   UNL     1      -4.142  -0.483   0.012  0.00  0.00    +0.000 C 
ATOM     15  C   UNL     1      -3.770  -1.912   0.323  0.00  0.00    +0.000 C 
ATOM     16  C   UNL     1      -3.502   1.957  -0.199  0.00  0.00    +0.000 C 
ATOM     17  C   UNL     1      -3.265   0.724   1.991  0.00  0.00    +0.000 C 
ATOM     18  C   UNL     1      -4.987   2.282  -0.149  0.00  0.00    +0.000 C 
ATOM     19  C   UNL     1      -5.315  -0.220  -0.588  0.00  0.00    +0.000 C 
ATOM     20  C   UNL     1      -5.783   1.172  -0.781  0.00  0.00    +0.000 C 
ENDROOT
BRANCH   6  21
ATOM     21  O   UNL     1       2.418  -0.964  -1.876  0.00  0.00    +0.000 OA
ATOM     22  H   UNL     1       3.089  -1.502  -2.329  0.00  0.00    +0.000 HD
ENDBRANCH   6  21
BRANCH   9  23
ATOM     23  O   UNL     1      -0.496   1.444   1.718  0.00  0.00    +0.000 OA
ATOM     24  H   UNL     1       0.187   2.119   1.872  0.00  0.00    +0.000 HD
ENDBRANCH   9  23
BRANCH   6  26
ATOM     25  O   UNL     1       4.513  -1.758   0.506  0.00  0.00    +0.000 OA
ATOM     26  C   UNL     1       3.731  -0.933   0.035  0.00  0.00    +0.000 C 
BRANCH  26  27
ATOM     27  C   UNL     1       4.055   0.544  -0.034  0.00  0.00    +0.000 C 
BRANCH  27  28
ATOM     28  O   UNL     1       5.445   0.743  -0.183  0.00  0.00    +0.000 OA
BRANCH  28  30
ATOM     29  O   UNL     1       5.143   3.034  -0.207  0.00  0.00    +0.000 OA
ATOM     30  C   UNL     1       5.865   2.047  -0.258  0.00  0.00    +0.000 C 
ATOM     31  C   UNL     1       7.354   2.104  -0.413  0.00  0.00    +0.000 C 
ENDBRANCH  28  30
ENDBRANCH  27  28
ENDBRANCH  26  27
ENDBRANCH   6  26
TORSDOF 6
