REMARK  Name = 11954310
REMARK  13 active torsions:
REMARK  status: ('A' for Active; 'I' for Inactive)
REMARK    1  A    between atoms: O_1  and  C_9
REMARK    2  A    between atoms: O_1  and  C_23
REMARK    3  A    between atoms: C_5  and  C_15
REMARK    4  A    between atoms: C_12  and  C_18
REMARK    5  A    between atoms: C_23  and  C_24
REMARK    6  A    between atoms: C_24  and  C_25
REMARK    7  A    between atoms: C_25  and  C_26
REMARK    8  A    between atoms: C_26  and  C_27
REMARK    9  A    between atoms: C_27  and  C_28
REMARK   10  A    between atoms: C_28  and  C_29
REMARK   11  A    between atoms: C_29  and  C_30
REMARK   12  A    between atoms: C_30  and  C_31
REMARK   13  A    between atoms: C_31  and  C_32
REMARK                            x       y       z     vdW  Elec       q    Type
REMARK                         _______ _______ _______ _____ _____    ______ ____
ROOT
ATOM      1  O   UNL     1      -8.757  -1.265  -0.388  0.00  0.00    +0.000 OA
ATOM      2  C   UNL     1      -1.549   0.380  -1.010  0.00  0.00    +0.000 C 
ATOM      3  C   UNL     1      -0.883   1.155   0.143  0.00  0.00    +0.000 C 
ATOM      4  C   UNL     1      -2.533  -0.684  -0.514  0.00  0.00    +0.000 C 
ATOM      5  C   UNL     1      -3.664   0.021   0.311  0.00  0.00    +0.000 C 
ATOM      6  C   UNL     1      -1.982   1.898   0.913  0.00  0.00    +0.000 C 
ATOM      7  C   UNL     1       0.057   2.061  -0.674  0.00  0.00    +0.000 C 
ATOM      8  C   UNL     1      -0.369  -0.044  -1.881  0.00  0.00    +0.000 C 
ATOM      9  C   UNL     1      -3.069   0.934   1.422  0.00  0.00    +0.000 C 
ATOM     10  C   UNL     1      -4.753  -0.997   0.818  0.00  0.00    +0.000 C 
ATOM     11  C   UNL     1       0.622   1.128  -1.763  0.00  0.00    +0.000 C 
ATOM     12  C   UNL     1      -3.124  -1.488  -1.681  0.00  0.00    +0.000 C 
ATOM     13  C   UNL     1      -0.072   0.274   1.128  0.00  0.00    +0.000 C 
ATOM     14  C   UNL     1      -4.162  -2.498  -1.201  0.00  0.00    +0.000 C 
ATOM     15  C   UNL     1      -5.232  -1.810  -0.390  0.00  0.00    +0.000 C 
ATOM     16  C   UNL     1      -4.203  -1.964   1.891  0.00  0.00    +0.000 C 
ATOM     17  C   UNL     1      -5.908  -0.254   1.474  0.00  0.00    +0.000 C 
ATOM     18  C   UNL     1      -6.516  -1.887  -0.773  0.00  0.00    +0.000 C 
ATOM     19  C   UNL     1      -7.188  -0.326   1.096  0.00  0.00    +0.000 C 
ATOM     20  C   UNL     1      -7.583  -1.169  -0.047  0.00  0.00    +0.000 C 
ENDROOT
BRANCH   7  21
ATOM     21  O   UNL     1       1.077   2.678   0.088  0.00  0.00    +0.000 OA
BRANCH  21  23
ATOM     22  O   UNL     1       1.941   3.648  -1.818  0.00  0.00    +0.000 OA
ATOM     23  C   UNL     1       1.968   3.456  -0.611  0.00  0.00    +0.000 C 
BRANCH  23  24
ATOM     24  C   UNL     1       2.967   4.066   0.347  0.00  0.00    +0.000 C 
BRANCH  24  25
ATOM     25  C   UNL     1       3.792   3.022   1.101  0.00  0.00    +0.000 C 
BRANCH  25  26
ATOM     26  C   UNL     1       4.610   2.131   0.161  0.00  0.00    +0.000 C 
BRANCH  26  27
ATOM     27  C   UNL     1       5.397   1.077   0.942  0.00  0.00    +0.000 C 
BRANCH  27  28
ATOM     28  C   UNL     1       6.189   0.165   0.003  0.00  0.00    +0.000 C 
BRANCH  28  29
ATOM     29  C   UNL     1       6.950  -0.908   0.786  0.00  0.00    +0.000 C 
BRANCH  29  30
ATOM     30  C   UNL     1       7.738  -1.871  -0.109  0.00  0.00    +0.000 C 
BRANCH  30  31
ATOM     31  C   UNL     1       8.477  -2.958   0.674  0.00  0.00    +0.000 C 
BRANCH  31  32
ATOM     32  C   UNL     1       9.221  -3.879  -0.250  0.00  0.00    +0.000 C 
ATOM     33  C   UNL     1      10.540  -4.092  -0.191  0.00  0.00    +0.000 C 
ENDBRANCH  31  32
ENDBRANCH  30  31
ENDBRANCH  29  30
ENDBRANCH  28  29
ENDBRANCH  27  28
ENDBRANCH  26  27
ENDBRANCH  25  26
ENDBRANCH  24  25
ENDBRANCH  23  24
ENDBRANCH  21  23
ENDBRANCH   7  21
TORSDOF 11
