REMARK  Name = 224246
REMARK  9 active torsions:
REMARK  status: ('A' for Active; 'I' for Inactive)
REMARK    1  A    between atoms: O_2  and  C_12
REMARK    2  A    between atoms: O_3  and  C_15
REMARK    3  A    between atoms: O_5  and  C_26
REMARK    4  A    between atoms: O_5  and  C_29
REMARK    5  A    between atoms: C_8  and  C_19
REMARK    6  A    between atoms: C_12  and  C_22
REMARK    7  A    between atoms: C_16  and  C_23
REMARK    8  A    between atoms: C_22  and  C_26
REMARK    9  A    between atoms: C_29  and  C_30
REMARK                            x       y       z     vdW  Elec       q    Type
REMARK                         _______ _______ _______ _____ _____    ______ ____
ROOT
ATOM      1  F   UNL     1       1.790  -0.310  -1.245  0.00  0.00    +0.000 F 
ATOM      2  O   UNL     1       6.506  -1.520  -1.556  0.00  0.00    +0.000 OA
ATOM      3  C   UNL     1      -1.212   0.710   0.267  0.00  0.00    +0.000 C 
ATOM      4  C   UNL     1      -0.062   1.597  -0.260  0.00  0.00    +0.000 C 
ATOM      5  C   UNL     1       1.293   1.300   0.401  0.00  0.00    +0.000 C 
ATOM      6  C   UNL     1       1.681  -0.195   0.132  0.00  0.00    +0.000 C 
ATOM      7  C   UNL     1      -2.395   1.321  -0.534  0.00  0.00    +0.000 C 
ATOM      8  C   UNL     1      -0.845  -0.753  -0.053  0.00  0.00    +0.000 C 
ATOM      9  C   UNL     1      -0.631   3.010  -0.162  0.00  0.00    +0.000 C 
ATOM     10  C   UNL     1       0.531  -1.175   0.514  0.00  0.00    +0.000 C 
ATOM     11  C   UNL     1       3.111  -0.548   0.702  0.00  0.00    +0.000 C 
ATOM     12  C   UNL     1      -2.125   2.843  -0.507  0.00  0.00    +0.000 C 
ATOM     13  C   UNL     1       2.372   2.260  -0.134  0.00  0.00    +0.000 C 
ATOM     14  C   UNL     1      -1.474   0.888   1.790  0.00  0.00    +0.000 C 
ATOM     15  C   UNL     1       3.758   1.931   0.409  0.00  0.00    +0.000 C 
ATOM     16  C   UNL     1       4.096   0.486   0.144  0.00  0.00    +0.000 C 
ATOM     17  C   UNL     1       3.208  -0.502   2.245  0.00  0.00    +0.000 C 
ATOM     18  C   UNL     1       3.506  -1.960   0.292  0.00  0.00    +0.000 C 
ATOM     19  C   UNL     1       5.180   0.169  -0.581  0.00  0.00    +0.000 C 
ATOM     20  C   UNL     1       4.583  -2.282  -0.431  0.00  0.00    +0.000 C 
ATOM     21  C   UNL     1       5.505  -1.235  -0.906  0.00  0.00    +0.000 C 
ENDROOT
BRANCH   7  22
ATOM     22  O   UNL     1      -2.393   0.863  -1.883  0.00  0.00    +0.000 OA
ATOM     23  H   UNL     1      -3.042   1.386  -2.384  0.00  0.00    +0.000 HD
ENDBRANCH   7  22
BRANCH  10  24
ATOM     24  O   UNL     1       0.413  -1.359   1.915  0.00  0.00    +0.000 OA
ATOM     25  H   UNL     1       0.678  -0.545   2.368  0.00  0.00    +0.000 HD
ENDBRANCH  10  24
BRANCH   7  27
ATOM     26  O   UNL     1      -4.541   1.815   0.376  0.00  0.00    +0.000 OA
ATOM     27  C   UNL     1      -3.755   0.955  -0.018  0.00  0.00    +0.000 C 
BRANCH  27  28
ATOM     28  C   UNL     1      -4.095  -0.520  -0.013  0.00  0.00    +0.000 C 
BRANCH  28  29
ATOM     29  O   UNL     1      -5.482  -0.712  -0.198  0.00  0.00    +0.000 OA
BRANCH  29  31
ATOM     30  O   UNL     1      -5.208  -3.003  -0.079  0.00  0.00    +0.000 OA
ATOM     31  C   UNL     1      -5.916  -2.014  -0.212  0.00  0.00    +0.000 C 
ATOM     32  C   UNL     1      -7.400  -2.064  -0.415  0.00  0.00    +0.000 C 
ENDBRANCH  29  31
ENDBRANCH  28  29
ENDBRANCH  27  28
ENDBRANCH   7  27
TORSDOF 6
