REMARK  Name = 15251064
REMARK  4 active torsions:
REMARK  status: ('A' for Active; 'I' for Inactive)
REMARK    1  A    between atoms: C_7  and  C_18
REMARK    2  A    between atoms: C_10  and  C_20
REMARK    3  A    between atoms: C_20  and  C_26
REMARK    4  A    between atoms: C_22  and  C_27
REMARK                            x       y       z     vdW  Elec       q    Type
REMARK                         _______ _______ _______ _____ _____    ______ ____
ROOT
ATOM      1  O   UNL     1      -2.674   0.152  -0.733  0.00  0.00    +0.000 OA
ATOM      2  O   UNL     1      -3.362   0.967   1.357  0.00  0.00    +0.000 OA
ATOM      3  O   UNL     1       7.081   0.812  -0.940  0.00  0.00    +0.000 OA
ATOM      4  C   UNL     1      -1.000  -1.402   0.201  0.00  0.00    +0.000 C 
ATOM      5  C   UNL     1      -0.295  -0.210   0.894  0.00  0.00    +0.000 C 
ATOM      6  C   UNL     1       1.198  -0.457   1.128  0.00  0.00    +0.000 C 
ATOM      7  C   UNL     1      -2.458  -0.886   0.217  0.00  0.00    +0.000 C 
ATOM      8  C   UNL     1       1.887  -0.686  -0.249  0.00  0.00    +0.000 C 
ATOM      9  C   UNL     1      -1.194   0.096   2.093  0.00  0.00    +0.000 C 
ATOM     10  C   UNL     1      -2.617  -0.224   1.585  0.00  0.00    +0.000 C 
ATOM     11  C   UNL     1      -0.354  -1.575  -1.181  0.00  0.00    +0.000 C 
ATOM     12  C   UNL     1       1.169  -1.778  -1.082  0.00  0.00    +0.000 C 
ATOM     13  C   UNL     1       3.410  -0.972  -0.073  0.00  0.00    +0.000 C 
ATOM     14  C   UNL     1       1.865   0.718   1.854  0.00  0.00    +0.000 C 
ATOM     15  C   UNL     1      -0.898  -2.731   0.998  0.00  0.00    +0.000 C 
ATOM     16  C   UNL     1       3.347   0.438   2.082  0.00  0.00    +0.000 C 
ATOM     17  C   UNL     1       4.069   0.085   0.805  0.00  0.00    +0.000 C 
ATOM     18  C   UNL     1      -3.347   1.213  -0.051  0.00  0.00    +0.000 C 
ATOM     19  C   UNL     1       4.100  -1.083  -1.449  0.00  0.00    +0.000 C 
ATOM     20  C   UNL     1       5.614  -1.039  -1.348  0.00  0.00    +0.000 C 
ATOM     21  C   UNL     1       5.245   0.666   0.521  0.00  0.00    +0.000 C 
ATOM     22  C   UNL     1       6.050   0.215  -0.637  0.00  0.00    +0.000 C 
ENDROOT
BRANCH  18  24
ATOM     23  O   UNL     1      -2.560   2.899  -1.631  0.00  0.00    +0.000 OA
ATOM     24  C   UNL     1      -2.640   2.523  -0.329  0.00  0.00    +0.000 A 
ATOM     25  C   UNL     1      -2.035   3.454   0.482  0.00  0.00    +0.000 A 
ATOM     26  C   UNL     1      -1.552   4.469  -0.379  0.00  0.00    +0.000 A 
ATOM     27  C   UNL     1      -1.896   4.084  -1.653  0.00  0.00    +0.000 A 
ENDBRANCH  18  24
BRANCH   7  29
ATOM     28  O   UNL     1      -4.011  -2.599   0.808  0.00  0.00    +0.000 OA
ATOM     29  C   UNL     1      -3.491  -1.930  -0.084  0.00  0.00    +0.000 C 
BRANCH  29  31
ATOM     30  F   UNL     1      -4.791  -3.099  -1.677  0.00  0.00    +0.000 F 
ATOM     31  C   UNL     1      -3.859  -2.120  -1.530  0.00  0.00    +0.000 C 
ENDBRANCH  29  31
ENDBRANCH   7  29
TORSDOF 3
