REMARK  Name = 64945
REMARK  10 active torsions:
REMARK  status: ('A' for Active; 'I' for Inactive)
REMARK    1  A    between atoms: O_1  and  C_21
REMARK    2  A    between atoms: O_2  and  C_31
REMARK    3  A    between atoms: C_4  and  C_19
REMARK    4  A    between atoms: C_6  and  C_22
REMARK    5  A    between atoms: C_7  and  C_25
REMARK    6  A    between atoms: C_12  and  C_28
REMARK    7  A    between atoms: C_12  and  C_29
REMARK    8  A    between atoms: C_17  and  C_31
REMARK    9  A    between atoms: C_24  and  C_32
REMARK   10  A    between atoms: C_27  and  C_33
REMARK                            x       y       z     vdW  Elec       q    Type
REMARK                         _______ _______ _______ _____ _____    ______ ____
ROOT
ATOM      1  C   UNL     1      -0.690   0.926   0.157  0.00  0.00    +0.000 C 
ATOM      2  C   UNL     1      -1.400  -0.325  -0.490  0.00  0.00    +0.000 C 
ATOM      3  C   UNL     1      -2.971  -0.222  -0.757  0.00  0.00    +0.000 C 
ATOM      4  C   UNL     1       0.799   0.470   0.676  0.00  0.00    +0.000 C 
ATOM      5  C   UNL     1      -3.640   0.268   0.579  0.00  0.00    +0.000 C 
ATOM      6  C   UNL     1      -1.552   1.467   1.332  0.00  0.00    +0.000 C 
ATOM      7  C   UNL     1       1.546  -0.334  -0.404  0.00  0.00    +0.000 C 
ATOM      8  C   UNL     1      -3.042   1.619   1.022  0.00  0.00    +0.000 C 
ATOM      9  C   UNL     1      -5.209   0.180   0.647  0.00  0.00    +0.000 C 
ATOM     10  C   UNL     1       3.074  -0.514  -0.331  0.00  0.00    +0.000 C 
ATOM     11  C   UNL     1      -0.582  -0.847  -1.690  0.00  0.00    +0.000 C 
ATOM     12  C   UNL     1       1.638   1.724   1.062  0.00  0.00    +0.000 C 
ATOM     13  C   UNL     1      -3.514  -1.651  -1.069  0.00  0.00    +0.000 C 
ATOM     14  C   UNL     1       3.823   0.760   0.171  0.00  0.00    +0.000 C 
ATOM     15  C   UNL     1       3.108   1.435   1.356  0.00  0.00    +0.000 C 
ATOM     16  C   UNL     1      -0.554   2.079  -0.882  0.00  0.00    +0.000 C 
ATOM     17  C   UNL     1       0.895  -0.878  -1.452  0.00  0.00    +0.000 C 
ATOM     18  C   UNL     1      -5.638  -1.268   0.265  0.00  0.00    +0.000 C 
ATOM     19  C   UNL     1      -3.314   0.675  -1.973  0.00  0.00    +0.000 C 
ATOM     20  C   UNL     1      -5.037  -1.765  -1.046  0.00  0.00    +0.000 C 
ATOM     21  C   UNL     1       3.579  -1.778   0.436  0.00  0.00    +0.000 C 
ATOM     22  C   UNL     1       0.701  -0.432   1.940  0.00  0.00    +0.000 C 
ATOM     23  C   UNL     1       5.283   0.455   0.596  0.00  0.00    +0.000 C 
ATOM     24  C   UNL     1       5.090  -2.029   0.134  0.00  0.00    +0.000 C 
ATOM     25  C   UNL     1      -5.935   1.233  -0.213  0.00  0.00    +0.000 C 
ATOM     26  C   UNL     1      -5.684   0.422   2.107  0.00  0.00    +0.000 C 
ATOM     27  C   UNL     1       5.862  -0.731  -0.165  0.00  0.00    +0.000 C 
ATOM     28  C   UNL     1       2.775  -3.049   0.124  0.00  0.00    +0.000 C 
ATOM     29  C   UNL     1       5.760  -2.788   1.288  0.00  0.00    +0.000 C 
ENDROOT
BRANCH  18  30
ATOM     30  O   UNL     1      -7.059  -1.363   0.181  0.00  0.00    +0.000 OA
ATOM     31  H   UNL     1      -7.412  -1.385   1.086  0.00  0.00    +0.000 HD
ENDBRANCH  18  30
BRANCH  14  33
ATOM     32  O   UNL     1       3.469   1.590  -2.090  0.00  0.00    +0.000 OA
ATOM     33  C   UNL     1       3.900   1.768  -0.960  0.00  0.00    +0.000 C 
BRANCH  33  34
ATOM     34  O   UNL     1       4.519   2.902  -0.550  0.00  0.00    +0.000 OA
ATOM     35  H   UNL     1       4.579   3.567  -1.268  0.00  0.00    +0.000 HD
ENDBRANCH  33  34
ENDBRANCH  14  33
TORSDOF 3
