REMARK  Name = 442534
REMARK  13 active torsions:
REMARK  status: ('A' for Active; 'I' for Inactive)
REMARK    1  A    between atoms: O_3  and  C_13
REMARK    2  A    between atoms: O_3  and  C_22
REMARK    3  A    between atoms: O_4  and  C_17
REMARK    4  A    between atoms: O_5  and  C_20
REMARK    5  A    between atoms: O_5  and  C_24
REMARK    6  A    between atoms: O_7  and  C_23
REMARK    7  A    between atoms: O_8  and  C_25
REMARK    8  A    between atoms: O_10  and  C_27
REMARK    9  A    between atoms: O_11  and  C_29
REMARK   10  A    between atoms: C_12  and  C_20
REMARK   11  A    between atoms: C_15  and  C_21
REMARK   12  A    between atoms: C_24  and  C_28
REMARK   13  A    between atoms: C_26  and  C_29
REMARK                            x       y       z     vdW  Elec       q    Type
REMARK                         _______ _______ _______ _____ _____    ______ ____
ROOT
ATOM      1  O   UNL     1       1.300   1.481  -1.457  0.00  0.00    +0.000 OA
ATOM      2  O   UNL     1      -0.881   2.351  -1.630  0.00  0.00    +0.000 OA
ATOM      3  C   UNL     1      -0.235   1.163   0.289  0.00  0.00    +0.000 C 
ATOM      4  C   UNL     1       1.092   1.732   0.857  0.00  0.00    +0.000 C 
ATOM      5  C   UNL     1      -0.873   2.514   0.706  0.00  0.00    +0.000 C 
ATOM      6  C   UNL     1       1.647   2.406  -0.409  0.00  0.00    +0.000 C 
ATOM      7  C   UNL     1       0.207   2.570   1.822  0.00  0.00    +0.000 C 
ATOM      8  C   UNL     1      -0.642   3.311  -0.586  0.00  0.00    +0.000 C 
ATOM      9  C   UNL     1      -0.094   1.219  -1.222  0.00  0.00    +0.000 C 
ATOM     10  C   UNL     1       0.850   3.706  -0.669  0.00  0.00    +0.000 C 
ATOM     11  C   UNL     1       3.143   2.646  -0.379  0.00  0.00    +0.000 C 
ENDROOT
BRANCH   8  12
ATOM     12  O   UNL     1      -1.505   4.428  -0.637  0.00  0.00    +0.000 OA
ATOM     13  H   UNL     1      -2.353   4.183  -0.231  0.00  0.00    +0.000 HD
ENDBRANCH   8  12
BRANCH   4  14
ATOM     14  O   UNL     1       1.994   0.782   1.443  0.00  0.00    +0.000 OA
BRANCH  14  16
ATOM     15  O   UNL     1       1.940  -0.701  -0.358  0.00  0.00    +0.000 OA
ATOM     16  C   UNL     1       2.787   0.034   0.522  0.00  0.00    +0.000 C 
ATOM     17  C   UNL     1       3.674  -0.915   1.328  0.00  0.00    +0.000 C 
ATOM     18  C   UNL     1       4.451  -1.861   0.413  0.00  0.00    +0.000 C 
ATOM     19  C   UNL     1       2.675  -1.454  -1.324  0.00  0.00    +0.000 C 
ATOM     20  C   UNL     1       3.531  -2.510  -0.622  0.00  0.00    +0.000 C 
BRANCH  17  21
ATOM     21  O   UNL     1       4.593  -0.130   2.088  0.00  0.00    +0.000 OA
ATOM     22  H   UNL     1       5.166  -0.746   2.576  0.00  0.00    +0.000 HD
ENDBRANCH  17  21
BRANCH  18  23
ATOM     23  O   UNL     1       5.040  -2.902   1.195  0.00  0.00    +0.000 OA
ATOM     24  H   UNL     1       5.515  -3.492   0.585  0.00  0.00    +0.000 HD
ENDBRANCH  18  23
BRANCH  20  25
ATOM     25  O   UNL     1       4.321  -3.196  -1.589  0.00  0.00    +0.000 OA
ATOM     26  H   UNL     1       4.883  -2.542  -2.037  0.00  0.00    +0.000 HD
ENDBRANCH  20  25
BRANCH  19  27
ATOM     27  C   UNL     1       1.667  -2.087  -2.277  0.00  0.00    +0.000 C 
BRANCH  27  28
ATOM     28  O   UNL     1       0.825  -2.950  -1.535  0.00  0.00    +0.000 OA
ATOM     29  H   UNL     1       0.184  -3.333  -2.158  0.00  0.00    +0.000 HD
ENDBRANCH  27  28
ENDBRANCH  19  27
ENDBRANCH  14  16
ENDBRANCH   4  14
BRANCH   3  30
ATOM     30  C   UNL     1      -0.812  -0.107   0.849  0.00  0.00    +0.000 C 
BRANCH  30  31
ATOM     31  O   UNL     1      -2.181  -0.210   0.474  0.00  0.00    +0.000 OA
BRANCH  31  33
ATOM     32  O   UNL     1      -2.360  -2.215   1.591  0.00  0.00    +0.000 OA
ATOM     33  C   UNL     1      -2.838  -1.318   0.914  0.00  0.00    +0.000 C 
BRANCH  33  34
ATOM     34  C   UNL     1      -4.250  -1.307   0.455  0.00  0.00    +0.000 A 
ATOM     35  C   UNL     1      -4.887  -2.510   0.230  0.00  0.00    +0.000 A 
ATOM     36  C   UNL     1      -4.882  -0.095   0.270  0.00  0.00    +0.000 A 
ATOM     37  C   UNL     1      -6.214  -2.500  -0.201  0.00  0.00    +0.000 A 
ATOM     38  C   UNL     1      -6.209  -0.085  -0.160  0.00  0.00    +0.000 A 
ATOM     39  C   UNL     1      -6.875  -1.288  -0.395  0.00  0.00    +0.000 A 
ENDBRANCH  33  34
ENDBRANCH  31  33
ENDBRANCH  30  31
ENDBRANCH   3  30
TORSDOF 12
