REMARK  Name = 31378
REMARK  7 active torsions:
REMARK  status: ('A' for Active; 'I' for Inactive)
REMARK    1  A    between atoms: O_2  and  C_11
REMARK    2  A    between atoms: O_3  and  C_14
REMARK    3  A    between atoms: O_5  and  C_27
REMARK    4  A    between atoms: C_7  and  C_18
REMARK    5  A    between atoms: C_11  and  C_23
REMARK    6  A    between atoms: C_13  and  C_22
REMARK    7  A    between atoms: C_23  and  C_27
REMARK                            x       y       z     vdW  Elec       q    Type
REMARK                         _______ _______ _______ _____ _____    ______ ____
ROOT
ATOM      1  F   UNL     1      -1.175   0.027   1.419  0.00  0.00    +0.000 F 
ATOM      2  O   UNL     1      -6.397   0.021   1.233  0.00  0.00    +0.000 OA
ATOM      3  C   UNL     1       1.935  -0.170  -0.186  0.00  0.00    +0.000 C 
ATOM      4  C   UNL     1       1.048   1.077   0.028  0.00  0.00    +0.000 C 
ATOM      5  C   UNL     1      -0.357   0.940  -0.579  0.00  0.00    +0.000 C 
ATOM      6  C   UNL     1      -1.078  -0.283   0.071  0.00  0.00    +0.000 C 
ATOM      7  C   UNL     1       3.248   0.337   0.469  0.00  0.00    +0.000 C 
ATOM      8  C   UNL     1       1.240  -1.355   0.515  0.00  0.00    +0.000 C 
ATOM      9  C   UNL     1      -2.570  -0.450  -0.434  0.00  0.00    +0.000 C 
ATOM     10  C   UNL     1      -0.211  -1.577   0.034  0.00  0.00    +0.000 C 
ATOM     11  C   UNL     1       1.939   2.228  -0.431  0.00  0.00    +0.000 C 
ATOM     12  C   UNL     1       3.357   1.810   0.013  0.00  0.00    +0.000 C 
ATOM     13  C   UNL     1      -1.166   2.225  -0.340  0.00  0.00    +0.000 C 
ATOM     14  C   UNL     1       2.189  -0.491  -1.685  0.00  0.00    +0.000 C 
ATOM     15  C   UNL     1      -3.299   0.894  -0.294  0.00  0.00    +0.000 C 
ATOM     16  C   UNL     1      -2.592   2.102  -0.859  0.00  0.00    +0.000 C 
ATOM     17  C   UNL     1      -3.270  -1.530   0.444  0.00  0.00    +0.000 C 
ATOM     18  C   UNL     1      -2.679  -0.869  -1.919  0.00  0.00    +0.000 C 
ATOM     19  C   UNL     1      -4.787  -1.509   0.339  0.00  0.00    +0.000 C 
ATOM     20  C   UNL     1      -4.518   1.037   0.254  0.00  0.00    +0.000 C 
ATOM     21  C   UNL     1      -5.310  -0.139   0.682  0.00  0.00    +0.000 C 
ENDROOT
BRANCH   7  22
ATOM     22  O   UNL     1       3.169   0.287   1.891  0.00  0.00    +0.000 OA
ATOM     23  H   UNL     1       3.152  -0.644   2.169  0.00  0.00    +0.000 HD
ENDBRANCH   7  22
BRANCH  10  24
ATOM     24  O   UNL     1      -0.200  -2.166  -1.257  0.00  0.00    +0.000 OA
ATOM     25  H   UNL     1       0.311  -2.991  -1.203  0.00  0.00    +0.000 HD
ENDBRANCH  10  24
BRANCH   7  27
ATOM     26  O   UNL     1       4.388  -1.679  -0.090  0.00  0.00    +0.000 OA
ATOM     27  C   UNL     1       4.465  -0.472   0.137  0.00  0.00    +0.000 C 
BRANCH  27  28
ATOM     28  C   UNL     1       5.780   0.279   0.098  0.00  0.00    +0.000 C 
BRANCH  28  29
ATOM     29  O   UNL     1       6.851  -0.573   0.446  0.00  0.00    +0.000 OA
ATOM     30  H   UNL     1       6.923  -1.250  -0.248  0.00  0.00    +0.000 HD
ENDBRANCH  28  29
ENDBRANCH  27  28
ENDBRANCH   7  27
TORSDOF 5
