REMARK  Name = 6446
REMARK  5 active torsions:
REMARK  status: ('A' for Active; 'I' for Inactive)
REMARK    1  A    between atoms: O_2  and  C_9
REMARK    2  A    between atoms: O_3  and  C_12
REMARK    3  A    between atoms: C_5  and  C_16
REMARK    4  A    between atoms: C_9  and  C_20
REMARK    5  A    between atoms: C_11  and  C_21
REMARK                            x       y       z     vdW  Elec       q    Type
REMARK                         _______ _______ _______ _____ _____    ______ ____
ROOT
ATOM      1  F   UNL     1      -0.505   0.004   1.436  0.00  0.00    +0.000 F 
ATOM      2  O   UNL     1      -5.710   0.320   1.136  0.00  0.00    +0.000 OA
ATOM      3  C   UNL     1       2.618  -0.415  -0.094  0.00  0.00    +0.000 C 
ATOM      4  C   UNL     1       1.810   0.887   0.077  0.00  0.00    +0.000 C 
ATOM      5  C   UNL     1       0.412   0.825  -0.558  0.00  0.00    +0.000 C 
ATOM      6  C   UNL     1      -0.399  -0.339   0.096  0.00  0.00    +0.000 C 
ATOM      7  C   UNL     1       3.978   0.006   0.553  0.00  0.00    +0.000 C 
ATOM      8  C   UNL     1       1.839  -1.545   0.609  0.00  0.00    +0.000 C 
ATOM      9  C   UNL     1      -1.887  -0.422  -0.439  0.00  0.00    +0.000 C 
ATOM     10  C   UNL     1       0.385  -1.686   0.105  0.00  0.00    +0.000 C 
ATOM     11  C   UNL     1       2.779   1.969  -0.390  0.00  0.00    +0.000 C 
ATOM     12  C   UNL     1       4.163   1.470   0.066  0.00  0.00    +0.000 C 
ATOM     13  C   UNL     1      -0.320   2.162  -0.361  0.00  0.00    +0.000 C 
ATOM     14  C   UNL     1       2.868  -0.795  -1.583  0.00  0.00    +0.000 C 
ATOM     15  C   UNL     1      -2.533   0.968  -0.339  0.00  0.00    +0.000 C 
ATOM     16  C   UNL     1      -1.739   2.118  -0.909  0.00  0.00    +0.000 C 
ATOM     17  C   UNL     1      -2.672  -1.439   0.440  0.00  0.00    +0.000 C 
ATOM     18  C   UNL     1       4.034  -0.066   2.084  0.00  0.00    +0.000 C 
ATOM     19  C   UNL     1      -1.990  -0.860  -1.919  0.00  0.00    +0.000 C 
ATOM     20  C   UNL     1      -4.182  -1.325   0.302  0.00  0.00    +0.000 C 
ATOM     21  C   UNL     1      -3.751   1.197   0.180  0.00  0.00    +0.000 C 
ATOM     22  C   UNL     1      -4.624   0.081   0.611  0.00  0.00    +0.000 C 
ENDROOT
BRANCH   7  23
ATOM     23  O   UNL     1       5.046  -0.806   0.068  0.00  0.00    +0.000 OA
ATOM     24  H   UNL     1       4.864  -1.724   0.333  0.00  0.00    +0.000 HD
ENDBRANCH   7  23
BRANCH  10  25
ATOM     25  O   UNL     1       0.379  -2.309  -1.170  0.00  0.00    +0.000 OA
ATOM     26  H   UNL     1       0.836  -3.163  -1.085  0.00  0.00    +0.000 HD
ENDBRANCH  10  25
TORSDOF 2
