REMARK  Name = 65076
REMARK  13 active torsions:
REMARK  status: ('A' for Active; 'I' for Inactive)
REMARK    1  A    between atoms: S_1  and  O_2
REMARK    2  A    between atoms: S_1  and  O_3
REMARK    3  A    between atoms: O_2  and  C_26
REMARK    4  A    between atoms: C_6  and  C_18
REMARK    5  A    between atoms: C_10  and  C_17
REMARK    6  A    between atoms: C_12  and  C_22
REMARK    7  A    between atoms: C_17  and  C_25
REMARK    8  A    between atoms: C_17  and  C_27
REMARK    9  A    between atoms: C_25  and  C_28
REMARK   10  A    between atoms: C_28  and  C_29
REMARK   11  A    between atoms: C_29  and  C_30
REMARK   12  A    between atoms: C_30  and  C_31
REMARK   13  A    between atoms: C_30  and  C_32
REMARK                            x       y       z     vdW  Elec       q    Type
REMARK                         _______ _______ _______ _____ _____    ______ ____
ROOT
ATOM      1  C   UNL     1      -2.028  -1.222   0.090  0.00  0.00    +0.000 C 
ATOM      2  C   UNL     1      -1.215  -0.318   1.038  0.00  0.00    +0.000 C 
ATOM      3  C   UNL     1       0.290  -0.605   1.006  0.00  0.00    +0.000 C 
ATOM      4  C   UNL     1       0.822  -0.429  -0.447  0.00  0.00    +0.000 C 
ATOM      5  C   UNL     1      -3.451  -0.712   0.422  0.00  0.00    +0.000 C 
ATOM      6  C   UNL     1      -1.558  -0.930  -1.342  0.00  0.00    +0.000 C 
ATOM      7  C   UNL     1       2.367  -0.753  -0.540  0.00  0.00    +0.000 C 
ATOM      8  C   UNL     1      -1.956  -0.426   2.367  0.00  0.00    +0.000 C 
ATOM      9  C   UNL     1      -0.047  -1.172  -1.499  0.00  0.00    +0.000 C 
ATOM     10  C   UNL     1      -3.435  -0.559   1.961  0.00  0.00    +0.000 C 
ATOM     11  C   UNL     1       1.043   0.332   1.962  0.00  0.00    +0.000 C 
ATOM     12  C   UNL     1      -1.892  -2.736   0.392  0.00  0.00    +0.000 C 
ATOM     13  C   UNL     1       3.130  -0.114   0.628  0.00  0.00    +0.000 C 
ATOM     14  C   UNL     1       2.907  -0.171  -1.881  0.00  0.00    +0.000 C 
ATOM     15  C   UNL     1       2.518   0.373   1.722  0.00  0.00    +0.000 C 
ATOM     16  C   UNL     1       2.626  -2.278  -0.502  0.00  0.00    +0.000 C 
ATOM     17  C   UNL     1       4.635  -0.037   0.510  0.00  0.00    +0.000 C 
ATOM     18  C   UNL     1       4.431  -0.164  -1.996  0.00  0.00    +0.000 C 
ATOM     19  C   UNL     1       5.070   0.570  -0.821  0.00  0.00    +0.000 C 
ENDROOT
BRANCH   5  20
ATOM     20  C   UNL     1      -4.612  -1.561  -0.076  0.00  0.00    +0.000 C 
ATOM     21  C   UNL     1      -4.521  -1.736  -1.597  0.00  0.00    +0.000 C 
BRANCH  20  22
ATOM     22  C   UNL     1      -5.988  -0.963   0.284  0.00  0.00    +0.000 C 
BRANCH  22  23
ATOM     23  C   UNL     1      -6.255   0.462  -0.220  0.00  0.00    +0.000 C 
BRANCH  23  24
ATOM     24  C   UNL     1      -7.605   1.028   0.233  0.00  0.00    +0.000 C 
BRANCH  24  25
ATOM     25  C   UNL     1      -7.902   2.430  -0.332  0.00  0.00    +0.000 C 
ATOM     26  C   UNL     1      -6.895   3.438   0.228  0.00  0.00    +0.000 C 
ATOM     27  C   UNL     1      -7.870   2.467  -1.861  0.00  0.00    +0.000 C 
ENDBRANCH  24  25
ENDBRANCH  23  24
ENDBRANCH  22  23
ENDBRANCH  20  22
ENDBRANCH   5  20
BRANCH  19  28
ATOM     28  O   UNL     1       6.485   0.477  -0.949  0.00  0.00    +0.000 OA
BRANCH  28  29
ATOM     29  S   UNL     1       7.446   1.206   0.153  0.00  0.00    +0.000 S 
ATOM     30  O   UNL     1       7.148   2.626   0.118  0.00  0.00    +0.000 OA
ATOM     31  O   UNL     1       7.369   0.475   1.404  0.00  0.00    +0.000 OA
BRANCH  29  32
ATOM     32  O   UNL     1       8.946   1.004  -0.455  0.00  0.00    +0.000 OA
ATOM     33  H   UNL     1       9.160   0.089  -0.754  0.00  0.00    +0.000 HD
ENDBRANCH  29  32
ENDBRANCH  28  29
ENDBRANCH  19  28
TORSDOF 8
