REMARK  Name = 8955
REMARK  5 active torsions:
REMARK  status: ('A' for Active; 'I' for Inactive)
REMARK    1  A    between atoms: O_1  and  C_22
REMARK    2  A    between atoms: C_3  and  C_15
REMARK    3  A    between atoms: C_7  and  C_18
REMARK    4  A    between atoms: C_9  and  C_21
REMARK    5  A    between atoms: C_21  and  C_23
REMARK                            x       y       z     vdW  Elec       q    Type
REMARK                         _______ _______ _______ _____ _____    ______ ____
ROOT
ATOM      1  C   UNL     1       2.286   0.253   0.064  0.00  0.00    +0.000 C 
ATOM      2  C   UNL     1       1.460  -0.972  -0.377  0.00  0.00    +0.000 C 
ATOM      3  C   UNL     1       0.023  -0.959   0.153  0.00  0.00    +0.000 C 
ATOM      4  C   UNL     1      -0.694   0.335  -0.330  0.00  0.00    +0.000 C 
ATOM      5  C   UNL     1      -2.182   0.418   0.201  0.00  0.00    +0.000 C 
ATOM      6  C   UNL     1       1.610   1.501  -0.520  0.00  0.00    +0.000 C 
ATOM      7  C   UNL     1       3.641  -0.112  -0.582  0.00  0.00    +0.000 C 
ATOM      8  C   UNL     1       0.147   1.614  -0.057  0.00  0.00    +0.000 C 
ATOM      9  C   UNL     1       2.362  -2.152  -0.034  0.00  0.00    +0.000 C 
ATOM     10  C   UNL     1       3.777  -1.632  -0.347  0.00  0.00    +0.000 C 
ATOM     11  C   UNL     1      -0.744  -2.199  -0.327  0.00  0.00    +0.000 C 
ATOM     12  C   UNL     1      -2.884  -0.941   0.100  0.00  0.00    +0.000 C 
ATOM     13  C   UNL     1       2.423   0.394   1.603  0.00  0.00    +0.000 C 
ATOM     14  C   UNL     1      -2.947   1.495  -0.640  0.00  0.00    +0.000 C 
ATOM     15  C   UNL     1      -2.224  -2.085  -0.156  0.00  0.00    +0.000 C 
ATOM     16  C   UNL     1      -2.211   0.831   1.695  0.00  0.00    +0.000 C 
ATOM     17  C   UNL     1      -4.390  -0.977   0.277  0.00  0.00    +0.000 C 
ATOM     18  C   UNL     1      -4.244   1.008  -1.293  0.00  0.00    +0.000 C 
ATOM     19  C   UNL     1      -5.116   0.236  -0.312  0.00  0.00    +0.000 C 
ENDROOT
BRANCH   7  21
ATOM     20  O   UNL     1       5.438   0.268   0.940  0.00  0.00    +0.000 OA
ATOM     21  C   UNL     1       4.809   0.655  -0.044  0.00  0.00    +0.000 C 
ATOM     22  C   UNL     1       5.176   1.923  -0.768  0.00  0.00    +0.000 C 
ENDBRANCH   7  21
BRANCH  19  23
ATOM     23  O   UNL     1      -5.516   1.097   0.753  0.00  0.00    +0.000 OA
ATOM     24  H   UNL     1      -6.125   0.597   1.322  0.00  0.00    +0.000 HD
ENDBRANCH  19  23
TORSDOF 2
