REMARK  Name = 146382
REMARK  12 active torsions:
REMARK  status: ('A' for Active; 'I' for Inactive)
REMARK    1  A    between atoms: S_1  and  O_5
REMARK    2  A    between atoms: S_1  and  C_25
REMARK    3  A    between atoms: S_2  and  O_6
REMARK    4  A    between atoms: S_2  and  C_26
REMARK    5  A    between atoms: C_11  and  C_25
REMARK    6  A    between atoms: C_12  and  C_26
REMARK    7  A    between atoms: C_13  and  C_27
REMARK    8  A    between atoms: C_13  and  C_28
REMARK    9  A    between atoms: C_14  and  C_29
REMARK   10  A    between atoms: C_14  and  C_30
REMARK   11  A    between atoms: C_31  and  C_33
REMARK   12  A    between atoms: C_32  and  C_34
REMARK                            x       y       z     vdW  Elec       q    Type
REMARK                         _______ _______ _______ _____ _____    ______ ____
ROOT
ATOM      1  C   UNL     1      -1.391  -2.734  -0.035  0.00  0.00    +0.000 A 
ATOM      2  C   UNL     1       1.376  -2.740   0.038  0.00  0.00    +0.000 A 
ATOM      3  C   UNL     1      -0.684  -2.736  -1.224  0.00  0.00    +0.000 A 
ATOM      4  C   UNL     1       0.710  -2.739  -1.188  0.00  0.00    +0.000 A 
ATOM      5  C   UNL     1      -0.747  -2.735   1.191  0.00  0.00    +0.000 A 
ATOM      6  C   UNL     1       0.647  -2.737   1.227  0.00  0.00    +0.000 A 
ENDROOT
BRANCH   1  17
ATOM      7  O   UNL     1      -2.021   0.147  -0.073  0.00  0.00    +0.000 OA
ATOM      8  C   UNL     1      -4.441   0.633   0.016  0.00  0.00    +0.000 C 
ATOM      9  C   UNL     1      -5.366  -0.289   0.870  0.00  0.00    +0.000 C 
ATOM     10  C   UNL     1      -5.156  -1.516  -0.065  0.00  0.00    +0.000 C 
ATOM     11  C   UNL     1      -5.035   0.509  -1.411  0.00  0.00    +0.000 C 
ATOM     12  C   UNL     1      -5.540  -0.959  -1.457  0.00  0.00    +0.000 C 
ATOM     13  C   UNL     1      -3.178  -0.228  -0.037  0.00  0.00    +0.000 C 
ATOM     14  C   UNL     1      -3.646  -1.651  -0.076  0.00  0.00    +0.000 C 
ATOM     15  C   UNL     1      -6.834   0.174   0.960  0.00  0.00    +0.000 C 
ATOM     16  C   UNL     1      -4.891  -0.514   2.324  0.00  0.00    +0.000 C 
ATOM     17  C   UNL     1      -2.867  -2.730  -0.074  0.00  0.00    +0.000 C 
BRANCH   8  18
ATOM     18  C   UNL     1      -4.216   2.046   0.495  0.00  0.00    +0.000 C 
BRANCH  18  19
ATOM     19  S   UNL     1      -3.076   2.909  -0.539  0.00  0.00    +0.000 S 
ATOM     20  O   UNL     1      -3.607   2.955  -1.889  0.00  0.00    +0.000 OA
ATOM     21  O   UNL     1      -1.736   2.422  -0.268  0.00  0.00    +0.000 OA
BRANCH  19  22
ATOM     22  O   UNL     1      -3.245   4.382   0.141  0.00  0.00    +0.000 OA
ATOM     23  H   UNL     1      -4.101   4.838  -0.041  0.00  0.00    +0.000 HD
ENDBRANCH  19  22
ENDBRANCH  18  19
ENDBRANCH   8  18
ENDBRANCH   1  17
BRANCH   2  34
ATOM     24  O   UNL     1       2.024   0.159   0.073  0.00  0.00    +0.000 OA
ATOM     25  C   UNL     1       4.449   0.620  -0.017  0.00  0.00    +0.000 C 
ATOM     26  C   UNL     1       5.364  -0.312  -0.871  0.00  0.00    +0.000 C 
ATOM     27  C   UNL     1       5.141  -1.536   0.066  0.00  0.00    +0.000 C 
ATOM     28  C   UNL     1       5.042   0.491   1.411  0.00  0.00    +0.000 C 
ATOM     29  C   UNL     1       5.532  -0.982   1.457  0.00  0.00    +0.000 C 
ATOM     30  C   UNL     1       3.177  -0.228   0.037  0.00  0.00    +0.000 C 
ATOM     31  C   UNL     1       3.631  -1.656   0.077  0.00  0.00    +0.000 C 
ATOM     32  C   UNL     1       4.881  -0.544  -2.316  0.00  0.00    +0.000 C 
ATOM     33  C   UNL     1       6.837   0.146  -0.973  0.00  0.00    +0.000 C 
ATOM     34  C   UNL     1       2.830  -2.741   0.076  0.00  0.00    +0.000 C 
BRANCH  25  35
ATOM     35  C   UNL     1       4.238   2.035  -0.497  0.00  0.00    +0.000 C 
BRANCH  35  36
ATOM     36  S   UNL     1       3.107   2.910   0.538  0.00  0.00    +0.000 S 
ATOM     37  O   UNL     1       3.639   2.952   1.888  0.00  0.00    +0.000 OA
ATOM     38  O   UNL     1       1.762   2.436   0.267  0.00  0.00    +0.000 OA
BRANCH  36  39
ATOM     39  O   UNL     1       3.291   4.381  -0.143  0.00  0.00    +0.000 OA
ATOM     40  H   UNL     1       4.151   4.828   0.038  0.00  0.00    +0.000 HD
ENDBRANCH  36  39
ENDBRANCH  35  36
ENDBRANCH  25  35
ENDBRANCH   2  34
TORSDOF 8
