REMARK  Name = 16752
REMARK  10 active torsions:
REMARK  status: ('A' for Active; 'I' for Inactive)
REMARK    1  A    between atoms: O_2  and  C_13
REMARK    2  A    between atoms: O_3  and  C_17
REMARK    3  A    between atoms: O_5  and  C_28
REMARK    4  A    between atoms: O_5  and  C_31
REMARK    5  A    between atoms: C_9  and  C_20
REMARK    6  A    between atoms: C_13  and  C_23
REMARK    7  A    between atoms: C_16  and  C_24
REMARK    8  A    between atoms: C_18  and  C_25
REMARK    9  A    between atoms: C_23  and  C_28
REMARK   10  A    between atoms: C_31  and  C_32
REMARK                            x       y       z     vdW  Elec       q    Type
REMARK                         _______ _______ _______ _____ _____    ______ ____
ROOT
ATOM      1  F   UNL     1       3.016   0.469   1.214  0.00  0.00    +0.000 F 
ATOM      2  O   UNL     1       7.530   2.244   1.726  0.00  0.00    +0.000 OA
ATOM      3  C   UNL     1       0.230  -0.908  -0.423  0.00  0.00    +0.000 C 
ATOM      4  C   UNL     1       1.455  -1.647   0.159  0.00  0.00    +0.000 C 
ATOM      5  C   UNL     1       2.791  -1.188  -0.446  0.00  0.00    +0.000 C 
ATOM      6  C   UNL     1       2.982   0.342  -0.166  0.00  0.00    +0.000 C 
ATOM      7  C   UNL     1      -0.901  -1.651   0.349  0.00  0.00    +0.000 C 
ATOM      8  C   UNL     1       1.071  -3.123   0.059  0.00  0.00    +0.000 C 
ATOM      9  C   UNL     1       0.400   0.590  -0.098  0.00  0.00    +0.000 C 
ATOM     10  C   UNL     1      -0.463  -3.146   0.293  0.00  0.00    +0.000 C 
ATOM     11  C   UNL     1       1.739   1.176  -0.602  0.00  0.00    +0.000 C 
ATOM     12  C   UNL     1       4.382   0.868  -0.674  0.00  0.00    +0.000 C 
ATOM     13  C   UNL     1       3.955  -2.010   0.139  0.00  0.00    +0.000 C 
ATOM     14  C   UNL     1       0.055  -1.117  -1.952  0.00  0.00    +0.000 C 
ATOM     15  C   UNL     1       5.312  -1.514  -0.343  0.00  0.00    +0.000 C 
ATOM     16  C   UNL     1       5.460  -0.039  -0.069  0.00  0.00    +0.000 C 
ATOM     17  C   UNL     1      -0.830  -3.977   1.519  0.00  0.00    +0.000 C 
ATOM     18  C   UNL     1       4.545   0.842  -2.211  0.00  0.00    +0.000 C 
ATOM     19  C   UNL     1       4.583   2.317  -0.253  0.00  0.00    +0.000 C 
ATOM     20  C   UNL     1       6.464   0.407   0.703  0.00  0.00    +0.000 C 
ATOM     21  C   UNL     1       5.580   2.767   0.515  0.00  0.00    +0.000 C 
ATOM     22  C   UNL     1       6.601   1.840   1.036  0.00  0.00    +0.000 C 
ENDROOT
BRANCH   7  23
ATOM     23  O   UNL     1      -0.988  -1.174   1.688  0.00  0.00    +0.000 OA
ATOM     24  H   UNL     1      -1.085  -0.213   1.727  0.00  0.00    +0.000 HD
ENDBRANCH   7  23
BRANCH  11  25
ATOM     25  O   UNL     1       1.691   1.347  -2.010  0.00  0.00    +0.000 OA
ATOM     26  H   UNL     1       1.960   2.260  -2.206  0.00  0.00    +0.000 HD
ENDBRANCH  11  25
BRANCH   7  28
ATOM     27  O   UNL     1      -2.937  -2.353  -0.673  0.00  0.00    +0.000 OA
ATOM     28  C   UNL     1      -2.270  -1.423  -0.221  0.00  0.00    +0.000 C 
BRANCH  28  29
ATOM     29  C   UNL     1      -2.775   0.004  -0.206  0.00  0.00    +0.000 C 
BRANCH  29  30
ATOM     30  O   UNL     1      -4.181   0.035  -0.082  0.00  0.00    +0.000 OA
BRANCH  30  32
ATOM     31  O   UNL     1      -4.170   2.336  -0.130  0.00  0.00    +0.000 OA
ATOM     32  C   UNL     1      -4.762   1.270  -0.056  0.00  0.00    +0.000 C 
BRANCH  32  34
ATOM     33  N   UNL     1      -8.983   0.971   0.329  0.00  0.00    +0.000 NA
ATOM     34  C   UNL     1      -6.237   1.166   0.079  0.00  0.00    +0.000 A 
ATOM     35  C   UNL     1      -6.921   2.170   0.724  0.00  0.00    +0.000 A 
ATOM     36  C   UNL     1      -6.878   0.068  -0.446  0.00  0.00    +0.000 A 
ATOM     37  C   UNL     1      -8.295   2.025   0.823  0.00  0.00    +0.000 A 
ATOM     38  C   UNL     1      -8.255   0.018  -0.294  0.00  0.00    +0.000 A 
ENDBRANCH  32  34
ENDBRANCH  30  32
ENDBRANCH  29  30
ENDBRANCH  28  29
ENDBRANCH   7  28
TORSDOF 7
