REMARK  Name = 11188409
REMARK  4 active torsions:
REMARK  status: ('A' for Active; 'I' for Inactive)
REMARK    1  A    between atoms: O_1  and  C_22
REMARK    2  A    between atoms: N_2  and  C_15
REMARK    3  A    between atoms: C_7  and  C_17
REMARK    4  A    between atoms: C_8  and  C_18
REMARK                            x       y       z     vdW  Elec       q    Type
REMARK                         _______ _______ _______ _____ _____    ______ ____
ROOT
ATOM      1  C   UNL     1       2.107  -0.306  -0.181  0.00  0.00    +0.000 C 
ATOM      2  C   UNL     1       1.555   0.930   0.583  0.00  0.00    +0.000 C 
ATOM      3  C   UNL     1       0.054   1.054   0.307  0.00  0.00    +0.000 C 
ATOM      4  C   UNL     1      -0.776  -0.179   0.770  0.00  0.00    +0.000 C 
ATOM      5  C   UNL     1       3.646  -0.523   0.106  0.00  0.00    +0.000 C 
ATOM      6  C   UNL     1       1.233  -1.572   0.017  0.00  0.00    +0.000 C 
ATOM      7  C   UNL     1      -0.283  -1.331  -0.131  0.00  0.00    +0.000 C 
ATOM      8  C   UNL     1       2.307   2.195   0.143  0.00  0.00    +0.000 C 
ATOM      9  C   UNL     1      -0.699   2.259   0.845  0.00  0.00    +0.000 C 
ATOM     10  C   UNL     1       4.405   0.809   0.031  0.00  0.00    +0.000 C 
ATOM     11  C   UNL     1       4.211  -1.495  -0.972  0.00  0.00    +0.000 C 
ATOM     12  C   UNL     1      -2.183   0.413   0.575  0.00  0.00    +0.000 C 
ATOM     13  C   UNL     1       3.786   2.003   0.034  0.00  0.00    +0.000 C 
ATOM     14  C   UNL     1      -0.593  -0.519   2.270  0.00  0.00    +0.000 C 
ATOM     15  C   UNL     1       3.877  -1.127   1.512  0.00  0.00    +0.000 C 
ATOM     16  C   UNL     1      -2.101   1.761   0.659  0.00  0.00    +0.000 C 
ATOM     17  C   UNL     1       5.912   0.740  -0.059  0.00  0.00    +0.000 C 
ATOM     18  C   UNL     1       5.736  -1.590  -0.996  0.00  0.00    +0.000 C 
ATOM     19  C   UNL     1       6.372  -0.214  -1.157  0.00  0.00    +0.000 C 
ENDROOT
BRANCH  12  20
ATOM     20  N   UNL     1      -3.375  -0.325   0.395  0.00  0.00    +0.000 N 
ATOM     21  N   UNL     1      -4.816  -2.035   0.540  0.00  0.00    +0.000 NA
ATOM     22  C   UNL     1      -4.519   0.074  -0.271  0.00  0.00    +0.000 A 
ATOM     23  C   UNL     1      -3.617  -1.600   0.859  0.00  0.00    +0.000 A 
ATOM     24  C   UNL     1      -5.393  -1.004  -0.165  0.00  0.00    +0.000 A 
ATOM     25  C   UNL     1      -4.840   1.259  -0.935  0.00  0.00    +0.000 A 
ATOM     26  C   UNL     1      -6.668  -0.912  -0.750  0.00  0.00    +0.000 A 
ATOM     27  C   UNL     1      -6.112   1.333  -1.511  0.00  0.00    +0.000 A 
ATOM     28  C   UNL     1      -7.011   0.268  -1.421  0.00  0.00    +0.000 A 
ENDBRANCH  12  20
BRANCH  19  29
ATOM     29  O   UNL     1       7.787  -0.362  -1.098  0.00  0.00    +0.000 OA
ATOM     30  H   UNL     1       8.017  -0.720  -0.223  0.00  0.00    +0.000 HD
ENDBRANCH  19  29
TORSDOF 2
