REMARK  Name = 91488
REMARK  8 active torsions:
REMARK  status: ('A' for Active; 'I' for Inactive)
REMARK    1  A    between atoms: O_3  and  C_13
REMARK    2  A    between atoms: O_4  and  C_16
REMARK    3  A    between atoms: O_5  and  C_17
REMARK    4  A    between atoms: O_7  and  C_27
REMARK    5  A    between atoms: C_9  and  C_20
REMARK    6  A    between atoms: C_13  and  C_23
REMARK    7  A    between atoms: C_18  and  C_24
REMARK    8  A    between atoms: C_23  and  C_27
REMARK                            x       y       z     vdW  Elec       q    Type
REMARK                         _______ _______ _______ _____ _____    ______ ____
ROOT
ATOM      1  F   UNL     1       1.181   0.322   1.265  0.00  0.00    +0.000 F 
ATOM      2  F   UNL     1       3.416  -3.004  -0.398  0.00  0.00    +0.000 F 
ATOM      3  O   UNL     1       6.021   0.569   1.725  0.00  0.00    +0.000 OA
ATOM      4  C   UNL     1      -1.945   0.166  -0.327  0.00  0.00    +0.000 C 
ATOM      5  C   UNL     1      -0.977  -0.992   0.007  0.00  0.00    +0.000 C 
ATOM      6  C   UNL     1       0.412  -0.839  -0.634  0.00  0.00    +0.000 C 
ATOM      7  C   UNL     1       1.071   0.483  -0.110  0.00  0.00    +0.000 C 
ATOM      8  C   UNL     1      -3.206  -0.347   0.428  0.00  0.00    +0.000 C 
ATOM      9  C   UNL     1      -1.317   1.466   0.215  0.00  0.00    +0.000 C 
ATOM     10  C   UNL     1      -1.796  -2.251  -0.286  0.00  0.00    +0.000 C 
ATOM     11  C   UNL     1       0.129   1.715  -0.274  0.00  0.00    +0.000 C 
ATOM     12  C   UNL     1      -3.245  -1.855   0.071  0.00  0.00    +0.000 C 
ATOM     13  C   UNL     1       2.554   0.660  -0.627  0.00  0.00    +0.000 C 
ATOM     14  C   UNL     1       1.287  -2.061  -0.308  0.00  0.00    +0.000 C 
ATOM     15  C   UNL     1      -2.241   0.303  -1.845  0.00  0.00    +0.000 C 
ATOM     16  C   UNL     1       2.717  -1.903  -0.804  0.00  0.00    +0.000 C 
ATOM     17  C   UNL     1       3.320  -0.624  -0.278  0.00  0.00    +0.000 C 
ATOM     18  C   UNL     1       2.663   0.883  -2.153  0.00  0.00    +0.000 C 
ATOM     19  C   UNL     1       3.192   1.878   0.026  0.00  0.00    +0.000 C 
ATOM     20  C   UNL     1       4.429  -0.644   0.478  0.00  0.00    +0.000 C 
ATOM     21  C   UNL     1       4.295   1.862   0.781  0.00  0.00    +0.000 C 
ATOM     22  C   UNL     1       4.999   0.595   1.047  0.00  0.00    +0.000 C 
ENDROOT
BRANCH   8  23
ATOM     23  O   UNL     1      -3.074  -0.159   1.832  0.00  0.00    +0.000 OA
ATOM     24  H   UNL     1      -3.778  -0.664   2.273  0.00  0.00    +0.000 HD
ENDBRANCH   8  23
BRANCH  11  25
ATOM     25  O   UNL     1       0.100   2.163  -1.622  0.00  0.00    +0.000 OA
ATOM     26  H   UNL     1       0.646   2.965  -1.677  0.00  0.00    +0.000 HD
ENDBRANCH  11  25
BRANCH  12  27
ATOM     27  O   UNL     1      -3.743  -2.642   1.142  0.00  0.00    +0.000 OA
ATOM     28  H   UNL     1      -4.665  -2.376   1.294  0.00  0.00    +0.000 HD
ENDBRANCH  12  27
BRANCH   8  30
ATOM     29  O   UNL     1      -5.414  -0.223  -0.461  0.00  0.00    +0.000 OA
ATOM     30  C   UNL     1      -4.472   0.370   0.064  0.00  0.00    +0.000 C 
BRANCH  30  31
ATOM     31  C   UNL     1      -4.519   1.850   0.379  0.00  0.00    +0.000 C 
BRANCH  31  32
ATOM     32  O   UNL     1      -5.840   2.258   0.665  0.00  0.00    +0.000 OA
ATOM     33  H   UNL     1      -6.363   2.147  -0.147  0.00  0.00    +0.000 HD
ENDBRANCH  31  32
ENDBRANCH  30  31
ENDBRANCH   8  30
TORSDOF 6
