REMARK  Name = 5858
REMARK  4 active torsions:
REMARK  status: ('A' for Active; 'I' for Inactive)
REMARK    1  A    between atoms: O_1  and  C_7
REMARK    2  A    between atoms: C_3  and  C_14
REMARK    3  A    between atoms: C_7  and  C_15
REMARK    4  A    between atoms: C_15  and  C_20
REMARK                            x       y       z     vdW  Elec       q    Type
REMARK                         _______ _______ _______ _____ _____    ______ ____
ROOT
ATOM      1  O   UNL     1       6.077   0.181   1.023  0.00  0.00    +0.000 OA
ATOM      2  C   UNL     1      -2.234   0.475  -0.500  0.00  0.00    +0.000 C 
ATOM      3  C   UNL     1      -1.479  -0.749   0.064  0.00  0.00    +0.000 C 
ATOM      4  C   UNL     1      -0.033  -0.837  -0.435  0.00  0.00    +0.000 C 
ATOM      5  C   UNL     1       0.733   0.448  -0.004  0.00  0.00    +0.000 C 
ATOM      6  C   UNL     1      -3.662   0.220   0.075  0.00  0.00    +0.000 C 
ATOM      7  C   UNL     1      -1.503   1.739  -0.017  0.00  0.00    +0.000 C 
ATOM      8  C   UNL     1      -2.421  -1.912  -0.225  0.00  0.00    +0.000 C 
ATOM      9  C   UNL     1      -0.018   1.736  -0.423  0.00  0.00    +0.000 C 
ATOM     10  C   UNL     1      -3.833  -1.316  -0.072  0.00  0.00    +0.000 C 
ATOM     11  C   UNL     1       2.206   0.421  -0.515  0.00  0.00    +0.000 C 
ATOM     12  C   UNL     1       0.686  -2.078   0.111  0.00  0.00    +0.000 C 
ATOM     13  C   UNL     1      -2.300   0.503  -2.055  0.00  0.00    +0.000 C 
ATOM     14  C   UNL     1       2.114  -2.150  -0.418  0.00  0.00    +0.000 C 
ATOM     15  C   UNL     1       2.893  -0.887  -0.145  0.00  0.00    +0.000 C 
ATOM     16  C   UNL     1       2.982   1.645   0.015  0.00  0.00    +0.000 C 
ATOM     17  C   UNL     1       4.483   1.512  -0.175  0.00  0.00    +0.000 C 
ATOM     18  C   UNL     1       4.135  -0.964   0.359  0.00  0.00    +0.000 C 
ATOM     19  C   UNL     1       4.978   0.247   0.478  0.00  0.00    +0.000 C 
ENDROOT
BRANCH   6  20
ATOM     20  O   UNL     1      -4.668   0.875  -0.694  0.00  0.00    +0.000 OA
ATOM     21  H   UNL     1      -5.495   0.368  -0.632  0.00  0.00    +0.000 HD
ENDBRANCH   6  20
BRANCH   6  22
ATOM     22  C   UNL     1      -3.878   0.644   1.533  0.00  0.00    +0.000 C 
ATOM     23  C   UNL     1      -5.256   0.248   2.019  0.00  0.00    +0.000 C 
ENDBRANCH   6  22
TORSDOF 2
