REMARK  Name = 5834
REMARK  9 active torsions:
REMARK  status: ('A' for Active; 'I' for Inactive)
REMARK    1  A    between atoms: O_1  and  C_11
REMARK    2  A    between atoms: O_2  and  C_14
REMARK    3  A    between atoms: O_4  and  C_25
REMARK    4  A    between atoms: O_4  and  C_28
REMARK    5  A    between atoms: C_7  and  C_18
REMARK    6  A    between atoms: C_11  and  C_21
REMARK    7  A    between atoms: C_15  and  C_22
REMARK    8  A    between atoms: C_21  and  C_25
REMARK    9  A    between atoms: C_28  and  C_29
REMARK                            x       y       z     vdW  Elec       q    Type
REMARK                         _______ _______ _______ _____ _____    ______ ____
ROOT
ATOM      1  O   UNL     1       6.585   1.614   1.618  0.00  0.00    +0.000 OA
ATOM      2  C   UNL     1      -1.097  -0.657  -0.250  0.00  0.00    +0.000 C 
ATOM      3  C   UNL     1       0.035  -1.511   0.361  0.00  0.00    +0.000 C 
ATOM      4  C   UNL     1       1.403  -1.282  -0.298  0.00  0.00    +0.000 C 
ATOM      5  C   UNL     1       1.801   0.227  -0.124  0.00  0.00    +0.000 C 
ATOM      6  C   UNL     1      -2.294  -1.183   0.589  0.00  0.00    +0.000 C 
ATOM      7  C   UNL     1      -0.723   0.825  -0.042  0.00  0.00    +0.000 C 
ATOM      8  C   UNL     1      -0.551  -2.920   0.374  0.00  0.00    +0.000 C 
ATOM      9  C   UNL     1       0.668   1.186  -0.609  0.00  0.00    +0.000 C 
ATOM     10  C   UNL     1       3.250   0.529  -0.677  0.00  0.00    +0.000 C 
ATOM     11  C   UNL     1      -2.046  -2.706   0.690  0.00  0.00    +0.000 C 
ATOM     12  C   UNL     1       2.462  -2.211   0.322  0.00  0.00    +0.000 C 
ATOM     13  C   UNL     1      -1.347  -0.955  -1.755  0.00  0.00    +0.000 C 
ATOM     14  C   UNL     1       3.862  -1.931  -0.210  0.00  0.00    +0.000 C 
ATOM     15  C   UNL     1       4.207  -0.475  -0.025  0.00  0.00    +0.000 C 
ATOM     16  C   UNL     1       3.380   0.392  -2.211  0.00  0.00    +0.000 C 
ATOM     17  C   UNL     1       3.646   1.961  -0.344  0.00  0.00    +0.000 C 
ATOM     18  C   UNL     1       5.272  -0.122   0.711  0.00  0.00    +0.000 C 
ATOM     19  C   UNL     1       4.704   2.319   0.390  0.00  0.00    +0.000 C 
ATOM     20  C   UNL     1       5.601   1.297   0.958  0.00  0.00    +0.000 C 
ENDROOT
BRANCH   6  21
ATOM     21  O   UNL     1      -2.297  -0.618   1.897  0.00  0.00    +0.000 OA
ATOM     22  H   UNL     1      -2.904  -1.134   2.454  0.00  0.00    +0.000 HD
ENDBRANCH   6  21
BRANCH   9  23
ATOM     23  O   UNL     1       0.606   1.236  -2.028  0.00  0.00    +0.000 OA
ATOM     24  H   UNL     1      -0.077   1.882  -2.273  0.00  0.00    +0.000 HD
ENDBRANCH   9  23
BRANCH   6  26
ATOM     25  O   UNL     1      -4.210  -1.584  -0.768  0.00  0.00    +0.000 OA
ATOM     26  C   UNL     1      -3.644  -0.843   0.034  0.00  0.00    +0.000 C 
BRANCH  26  27
ATOM     27  C   UNL     1      -4.260   0.453   0.515  0.00  0.00    +0.000 C 
BRANCH  27  28
ATOM     28  O   UNL     1      -5.530   0.649  -0.070  0.00  0.00    +0.000 OA
BRANCH  28  30
ATOM     29  O   UNL     1      -5.775   2.647   1.066  0.00  0.00    +0.000 OA
ATOM     30  C   UNL     1      -6.191   1.796   0.291  0.00  0.00    +0.000 C 
ATOM     31  C   UNL     1      -7.517   1.870  -0.404  0.00  0.00    +0.000 C 
ENDBRANCH  28  30
ENDBRANCH  27  28
ENDBRANCH  26  27
ENDBRANCH   6  26
TORSDOF 6
