REMARK  Name = 11508377
REMARK  6 active torsions:
REMARK  status: ('A' for Active; 'I' for Inactive)
REMARK    1  A    between atoms: O_2  and  C_17
REMARK    2  A    between atoms: O_2  and  C_23
REMARK    3  A    between atoms: O_3  and  C_21
REMARK    4  A    between atoms: O_3  and  C_24
REMARK    5  A    between atoms: N_5  and  C_19
REMARK    6  A    between atoms: C_23  and  C_25
REMARK                            x       y       z     vdW  Elec       q    Type
REMARK                         _______ _______ _______ _____ _____    ______ ____
ROOT
ATOM      1  O   UNL     1      -1.084  -1.156  -0.999  0.00  0.00    +0.000 OA
ATOM      2  N   UNL     1       2.610   2.529  -0.550  0.00  0.00    +0.000 NA
ATOM      3  C   UNL     1       0.285   0.794  -0.532  0.00  0.00    +0.000 C 
ATOM      4  C   UNL     1       0.525   1.865   0.537  0.00  0.00    +0.000 C 
ATOM      5  C   UNL     1       2.072   1.983   0.719  0.00  0.00    +0.000 C 
ATOM      6  C   UNL     1      -1.161   0.285  -0.708  0.00  0.00    +0.000 C 
ATOM      7  C   UNL     1       0.917   1.251  -1.863  0.00  0.00    +0.000 C 
ATOM      8  C   UNL     1       0.901  -0.483  -0.086  0.00  0.00    +0.000 A 
ATOM      9  C   UNL     1       2.731   0.632   1.180  0.00  0.00    +0.000 C 
ATOM     10  C   UNL     1      -0.234   1.595   1.850  0.00  0.00    +0.000 C 
ATOM     11  C   UNL     1       2.392   1.661  -1.711  0.00  0.00    +0.000 C 
ATOM     12  C   UNL     1       2.062  -0.612   0.653  0.00  0.00    +0.000 A 
ATOM     13  C   UNL     1       0.105  -1.552  -0.436  0.00  0.00    +0.000 A 
ATOM     14  C   UNL     1      -2.046   0.499   0.499  0.00  0.00    +0.000 C 
ATOM     15  C   UNL     1      -1.628   1.082   1.633  0.00  0.00    +0.000 C 
ATOM     16  C   UNL     1       4.003   2.953  -0.456  0.00  0.00    +0.000 C 
ATOM     17  C   UNL     1       2.478  -1.910   0.950  0.00  0.00    +0.000 A 
ATOM     18  C   UNL     1       0.500  -2.842  -0.163  0.00  0.00    +0.000 A 
ATOM     19  C   UNL     1       1.709  -3.016   0.527  0.00  0.00    +0.000 A 
ENDROOT
BRANCH  18  20
ATOM     20  O   UNL     1      -0.259  -3.908  -0.513  0.00  0.00    +0.000 OA
ATOM     21  C   UNL     1       0.242  -5.206  -0.183  0.00  0.00    +0.000 C 
ENDBRANCH  18  20
BRANCH  14  22
ATOM     22  O   UNL     1      -3.348   0.051   0.388  0.00  0.00    +0.000 OA
BRANCH  22  24
ATOM     23  O   UNL     1      -3.967   2.137  -0.441  0.00  0.00    +0.000 OA
ATOM     24  C   UNL     1      -4.220   0.987  -0.104  0.00  0.00    +0.000 C 
ATOM     25  C   UNL     1      -5.589   0.380  -0.189  0.00  0.00    +0.000 C 
ENDBRANCH  22  24
ENDBRANCH  14  22
TORSDOF 3
