REMARK  Name = 57383391
REMARK  19 active torsions:
REMARK  status: ('A' for Active; 'I' for Inactive)
REMARK    1  A    between atoms: O_2  and  C_11
REMARK    2  A    between atoms: O_2  and  C_33
REMARK    3  A    between atoms: O_3  and  C_21
REMARK    4  A    between atoms: O_4  and  C_30
REMARK    5  A    between atoms: O_4  and  C_38
REMARK    6  A    between atoms: O_6  and  C_43
REMARK    7  A    between atoms: N_8  and  C_25
REMARK    8  A    between atoms: C_13  and  C_21
REMARK    9  A    between atoms: C_21  and  C_26
REMARK   10  A    between atoms: C_21  and  C_28
REMARK   11  A    between atoms: C_25  and  C_27
REMARK   12  A    between atoms: C_26  and  C_35
REMARK   13  A    between atoms: C_26  and  C_36
REMARK   14  A    between atoms: C_26  and  C_37
REMARK   15  A    between atoms: C_38  and  C_39
REMARK   16  A    between atoms: C_39  and  C_40
REMARK   17  A    between atoms: C_40  and  C_41
REMARK   18  A    between atoms: C_41  and  C_42
REMARK   19  A    between atoms: C_42  and  C_43
REMARK                            x       y       z     vdW  Elec       q    Type
REMARK                         _______ _______ _______ _____ _____    ______ ____
ROOT
ATOM      1  O   UNL     1       1.035   0.410  -0.280  0.00  0.00    +0.000 OA
ATOM      2  N   UNL     1      -3.530  -2.165   0.583  0.00  0.00    +0.000 NA
ATOM      3  C   UNL     1      -2.452  -0.356  -0.711  0.00  0.00    +0.000 C 
ATOM      4  C   UNL     1      -1.173  -0.551   0.139  0.00  0.00    +0.000 C 
ATOM      5  C   UNL     1      -1.029   1.849  -0.551  0.00  0.00    +0.000 C 
ATOM      6  C   UNL     1      -0.305   0.713   0.225  0.00  0.00    +0.000 C 
ATOM      7  C   UNL     1      -2.433   2.050   0.111  0.00  0.00    +0.000 C 
ATOM      8  C   UNL     1      -3.298   0.763  -0.041  0.00  0.00    +0.000 C 
ATOM      9  C   UNL     1      -3.116  -1.774  -0.785  0.00  0.00    +0.000 C 
ATOM     10  C   UNL     1      -2.126   0.221  -2.133  0.00  0.00    +0.000 C 
ATOM     11  C   UNL     1      -1.218   1.456  -2.026  0.00  0.00    +0.000 C 
ATOM     12  C   UNL     1      -1.472  -1.141   1.534  0.00  0.00    +0.000 C 
ATOM     13  C   UNL     1      -0.276  -1.435  -0.635  0.00  0.00    +0.000 A 
ATOM     14  C   UNL     1      -2.160  -2.840  -1.470  0.00  0.00    +0.000 C 
ATOM     15  C   UNL     1      -2.399  -2.364   1.494  0.00  0.00    +0.000 C 
ATOM     16  C   UNL     1      -0.677  -2.559  -1.338  0.00  0.00    +0.000 A 
ATOM     17  C   UNL     1       0.971  -0.870  -0.771  0.00  0.00    +0.000 A 
ATOM     18  C   UNL     1       0.311  -3.248  -2.039  0.00  0.00    +0.000 A 
ATOM     19  C   UNL     1       1.960  -1.527  -1.469  0.00  0.00    +0.000 A 
ATOM     20  C   UNL     1       1.629  -2.746  -2.079  0.00  0.00    +0.000 A 
ENDROOT
BRANCH   5  21
ATOM     21  O   UNL     1      -0.263   3.041  -0.457  0.00  0.00    +0.000 OA
ATOM     22  C   UNL     1       0.315   3.190   0.833  0.00  0.00    +0.000 C 
ENDBRANCH   5  21
BRANCH   7  23
ATOM     23  C   UNL     1      -3.189   3.279  -0.403  0.00  0.00    +0.000 C 
ATOM     24  C   UNL     1      -4.082   2.848  -1.582  0.00  0.00    +0.000 C 
BRANCH  23  25
ATOM     25  C   UNL     1      -3.982   4.052   0.725  0.00  0.00    +0.000 C 
ATOM     26  C   UNL     1      -5.051   3.146   1.381  0.00  0.00    +0.000 C 
ATOM     27  C   UNL     1      -3.052   4.568   1.843  0.00  0.00    +0.000 C 
ATOM     28  C   UNL     1      -4.732   5.270   0.136  0.00  0.00    +0.000 C 
ENDBRANCH  23  25
BRANCH  23  29
ATOM     29  O   UNL     1      -2.207   4.181  -0.944  0.00  0.00    +0.000 OA
ATOM     30  H   UNL     1      -2.657   4.855  -1.478  0.00  0.00    +0.000 HD
ENDBRANCH  23  29
ENDBRANCH   7  23
BRANCH  19  31
ATOM     31  O   UNL     1       3.202  -0.999  -1.607  0.00  0.00    +0.000 OA
BRANCH  31  33
ATOM     32  O   UNL     1       3.863  -2.162   0.312  0.00  0.00    +0.000 OA
ATOM     33  C   UNL     1       4.114  -1.404  -0.616  0.00  0.00    +0.000 C 
BRANCH  33  34
ATOM     34  C   UNL     1       5.467  -0.773  -0.845  0.00  0.00    +0.000 C 
BRANCH  34  35
ATOM     35  C   UNL     1       6.261  -0.605   0.448  0.00  0.00    +0.000 C 
BRANCH  35  36
ATOM     36  C   UNL     1       7.623   0.060   0.216  0.00  0.00    +0.000 C 
BRANCH  36  37
ATOM     37  C   UNL     1       8.414   0.233   1.510  0.00  0.00    +0.000 C 
BRANCH  37  39
ATOM     38  O   UNL     1      10.104   1.369   0.210  0.00  0.00    +0.000 OA
ATOM     39  C   UNL     1       9.729   0.939   1.293  0.00  0.00    +0.000 C 
BRANCH  39  40
ATOM     40  O   UNL     1      10.455   1.053   2.433  0.00  0.00    +0.000 OA
ATOM     41  H   UNL     1      11.307   1.515   2.280  0.00  0.00    +0.000 HD
ENDBRANCH  39  40
ENDBRANCH  37  39
ENDBRANCH  36  37
ENDBRANCH  35  36
ENDBRANCH  34  35
ENDBRANCH  33  34
ENDBRANCH  31  33
ENDBRANCH  19  31
BRANCH   2  42
ATOM     42  C   UNL     1      -4.445  -3.301   0.608  0.00  0.00    +0.000 C 
BRANCH  42  43
ATOM     43  C   UNL     1      -5.333  -3.257   1.809  0.00  0.00    +0.000 C 
ATOM     44  C   UNL     1      -6.330  -4.358   2.024  0.00  0.00    +0.000 C 
ATOM     45  C   UNL     1      -5.124  -4.254   2.912  0.00  0.00    +0.000 C 
ENDBRANCH  42  43
ENDBRANCH   2  42
TORSDOF 14
