REMARK  Name = 
REMARK  33 active torsions:
REMARK  status: ('A' for Active; 'I' for Inactive)
REMARK    1  A    between atoms: C_1  and  C_2
REMARK    2  A    between atoms: C_2  and  C_3
REMARK    3  A    between atoms: C_4  and  C_5
REMARK    4  A    between atoms: C_5  and  C_6
REMARK    5  A    between atoms: C_6  and  C_7
REMARK    6  A    between atoms: C_7  and  C_8
REMARK    7  A    between atoms: C_9  and  C_10
REMARK    8  A    between atoms: C_10  and  C_11
REMARK    9  A    between atoms: C_11  and  C_12
REMARK   10  A    between atoms: C_12  and  C_13
REMARK   11  A    between atoms: C_14  and  C_15
REMARK   12  A    between atoms: C_15  and  C_16
REMARK   13  A    between atoms: C_16  and  C_17
REMARK   14  A    between atoms: C_17  and  C_18
REMARK   15  A    between atoms: C_19  and  C_20
REMARK   16  A    between atoms: C_20  and  C_21
REMARK   17  A    between atoms: C_21  and  C_22
REMARK   18  A    between atoms: C_22  and  C_23
REMARK   19  A    between atoms: C_24  and  C_25
REMARK   20  A    between atoms: C_25  and  C_26
REMARK   21  A    between atoms: C_26  and  C_27
REMARK   22  A    between atoms: C_27  and  C_28
REMARK   23  A    between atoms: C_29  and  C_30
REMARK   24  A    between atoms: C_30  and  C_31
REMARK   25  A    between atoms: C_31  and  C_32
REMARK   26  A    between atoms: C_32  and  C_33
REMARK   27  A    between atoms: C_34  and  C_35
REMARK   28  A    between atoms: C_35  and  C_36
REMARK   29  A    between atoms: C_36  and  C_37
REMARK   30  A    between atoms: C_37  and  C_38
REMARK   31  A    between atoms: C_39  and  C_40
REMARK   32  A    between atoms: C_40  and  C_41
REMARK   33  A    between atoms: C_46  and  O_47
REMARK                            x       y       z     vdW  Elec       q    Type
REMARK                         _______ _______ _______ _____ _____    ______ ____
ROOT
ATOM      1  C   UNL     1       0.940  -1.614  -0.096  0.00  0.00    +0.000 C 
ATOM      2  C   UNL     1       1.317  -2.494   1.056  0.00  0.00    +0.000 C 
ATOM      3  C   UNL     1       0.139  -2.113  -1.045  0.00  0.00    +0.000 C 
ENDROOT
BRANCH   1   4
ATOM      4  C   UNL     1       0.737  -0.163   0.225  0.00  0.00    +0.000 C 
BRANCH   4   5
ATOM      5  C   UNL     1       2.081   0.522   0.080  0.00  0.00    +0.000 C 
BRANCH   5   8
ATOM      6  C   UNL     1       4.415  -0.245   0.339  0.00  0.00    +0.000 C 
ATOM      7  C   UNL     1       4.854   1.023  -0.284  0.00  0.00    +0.000 C 
ATOM      8  C   UNL     1       3.119  -0.467   0.449  0.00  0.00    +0.000 C 
BRANCH   6   9
ATOM      9  C   UNL     1       5.325  -1.105   1.147  0.00  0.00    +0.000 C 
BRANCH   9  10
ATOM     10  C   UNL     1       5.279  -2.538   0.635  0.00  0.00    +0.000 C 
BRANCH  10  13
ATOM     11  C   UNL     1       7.620  -3.024  -0.012  0.00  0.00    +0.000 C 
ATOM     12  C   UNL     1       7.239  -2.845  -1.451  0.00  0.00    +0.000 C 
ATOM     13  C   UNL     1       6.635  -3.138   0.856  0.00  0.00    +0.000 C 
BRANCH  11  14
ATOM     14  C   UNL     1       9.017  -2.634   0.367  0.00  0.00    +0.000 C 
BRANCH  14  15
ATOM     15  C   UNL     1       9.380  -1.439  -0.470  0.00  0.00    +0.000 C 
BRANCH  15  18
ATOM     16  C   UNL     1       9.501   0.665   0.838  0.00  0.00    +0.000 C 
ATOM     17  C   UNL     1       8.076   0.460   1.255  0.00  0.00    +0.000 C 
ATOM     18  C   UNL     1      10.111  -0.395   0.320  0.00  0.00    +0.000 C 
BRANCH  16  19
ATOM     19  C   UNL     1      10.015   2.048   0.758  0.00  0.00    +0.000 C 
BRANCH  19  20
ATOM     20  C   UNL     1      11.514   2.135   0.826  0.00  0.00    +0.000 C 
BRANCH  20  24
ATOM     21  C   UNL     1      14.205   2.184  -1.141  0.00  0.00    +0.000 C 
ATOM     22  C   UNL     1      12.758   1.826  -1.300  0.00  0.00    +0.000 C 
ATOM     23  C   UNL     1      12.318   1.249  -2.611  0.00  0.00    +0.000 C 
ATOM     24  C   UNL     1      12.167   1.316  -0.217  0.00  0.00    +0.000 C 
ENDBRANCH  20  24
ENDBRANCH  19  20
ENDBRANCH  16  19
ENDBRANCH  15  18
ENDBRANCH  14  15
ENDBRANCH  11  14
ENDBRANCH  10  13
ENDBRANCH   9  10
ENDBRANCH   6   9
ENDBRANCH   5   8
ENDBRANCH   4   5
ENDBRANCH   1   4
BRANCH   3  25
ATOM     25  C   UNL     1       0.138  -3.582  -1.242  0.00  0.00    +0.000 C 
BRANCH  25  26
ATOM     26  C   UNL     1      -1.266  -4.042  -1.528  0.00  0.00    +0.000 C 
BRANCH  26  27
ATOM     27  C   UNL     1      -2.213  -3.483  -0.522  0.00  0.00    +0.000 C 
ATOM     28  C   UNL     1      -3.048  -4.419   0.298  0.00  0.00    +0.000 C 
ATOM     29  C   UNL     1      -2.553  -2.203  -0.479  0.00  0.00    +0.000 C 
BRANCH  29  30
ATOM     30  C   UNL     1      -2.867  -1.601   0.852  0.00  0.00    +0.000 C 
BRANCH  30  31
ATOM     31  C   UNL     1      -2.798  -0.089   0.678  0.00  0.00    +0.000 C 
BRANCH  31  32
ATOM     32  C   UNL     1      -4.135   0.364   0.183  0.00  0.00    +0.000 C 
ATOM     33  C   UNL     1      -4.720  -0.345  -0.993  0.00  0.00    +0.000 C 
ATOM     34  C   UNL     1      -5.008   0.998   0.974  0.00  0.00    +0.000 C 
BRANCH  34  35
ATOM     35  C   UNL     1      -6.484   0.791   0.810  0.00  0.00    +0.000 C 
BRANCH  35  36
ATOM     36  C   UNL     1      -7.157   2.046   1.295  0.00  0.00    +0.000 C 
BRANCH  36  37
ATOM     37  C   UNL     1      -8.604   2.100   0.908  0.00  0.00    +0.000 C 
ATOM     38  C   UNL     1      -9.449   0.874   0.814  0.00  0.00    +0.000 C 
ATOM     39  C   UNL     1      -9.243   3.261   0.725  0.00  0.00    +0.000 C 
BRANCH  39  40
ATOM     40  C   UNL     1     -10.622   3.473   1.216  0.00  0.00    +0.000 C 
BRANCH  40  41
ATOM     41  C   UNL     1     -11.606   2.553   0.609  0.00  0.00    +0.000 A 
ATOM     42  C   UNL     1     -12.515   1.948   1.469  0.00  0.00    +0.000 A 
ATOM     43  C   UNL     1     -13.629   1.315   0.934  0.00  0.00    +0.000 A 
ATOM     44  C   UNL     1     -14.225   1.874  -0.184  0.00  0.00    +0.000 A 
ATOM     45  C   UNL     1     -13.380   2.547  -1.051  0.00  0.00    +0.000 A 
ATOM     46  C   UNL     1     -12.110   2.906  -0.637  0.00  0.00    +0.000 A 
BRANCH  46  47
ATOM     47  O   UNL     1     -11.268   3.501  -1.551  0.00  0.00    +0.000 OA
ATOM     48  H   UNL     1     -11.591   3.745  -2.396  0.00  0.00    +0.000 HD
ENDBRANCH  46  47
ENDBRANCH  40  41
ENDBRANCH  39  40
ENDBRANCH  36  37
ENDBRANCH  35  36
ENDBRANCH  34  35
ENDBRANCH  31  32
ENDBRANCH  30  31
ENDBRANCH  29  30
ENDBRANCH  26  27
ENDBRANCH  25  26
ENDBRANCH   3  25
TORSDOF 24
