REMARK  Name = 131704306
REMARK  18 active torsions:
REMARK  status: ('A' for Active; 'I' for Inactive)
REMARK    1  A    between atoms: O_1  and  C_11
REMARK    2  A    between atoms: O_2  and  C_16
REMARK    3  A    between atoms: O_4  and  C_23
REMARK    4  A    between atoms: C_6  and  C_7
REMARK    5  A    between atoms: C_6  and  C_12
REMARK    6  A    between atoms: C_6  and  C_14
REMARK    7  A    between atoms: C_7  and  C_8
REMARK    8  A    between atoms: C_8  and  C_9
REMARK    9  A    between atoms: C_9  and  C_10
REMARK   10  A    between atoms: C_10  and  C_11
REMARK   11  A    between atoms: C_11  and  C_13
REMARK   12  A    between atoms: C_12  and  C_15
REMARK   13  A    between atoms: C_13  and  C_16
REMARK   14  A    between atoms: C_13  and  C_17
REMARK   15  A    between atoms: C_15  and  C_18
REMARK   16  A    between atoms: C_19  and  C_20
REMARK   17  A    between atoms: C_20  and  C_21
REMARK   18  A    between atoms: C_22  and  C_23
REMARK                            x       y       z     vdW  Elec       q    Type
REMARK                         _______ _______ _______ _____ _____    ______ ____
ROOT
ATOM      1  C   UNL     1      -1.052  -3.180  -0.633  0.00  0.00    +0.000 C 
ATOM      2  C   UNL     1      -0.300  -4.482  -0.339  0.00  0.00    +0.000 C 
ENDROOT
BRANCH   1   3
ATOM      3  C   UNL     1      -0.082  -1.998  -0.859  0.00  0.00    +0.000 C 
BRANCH   3   4
ATOM      4  C   UNL     1       0.796  -1.627   0.341  0.00  0.00    +0.000 C 
BRANCH   4   5
ATOM      5  C   UNL     1       1.671  -0.409   0.026  0.00  0.00    +0.000 C 
BRANCH   5   6
ATOM      6  C   UNL     1       2.572  -0.050   1.215  0.00  0.00    +0.000 C 
BRANCH   6   7
ATOM      7  C   UNL     1       3.436   1.187   0.925  0.00  0.00    +0.000 C 
BRANCH   7   8
ATOM      8  O   UNL     1       4.167   1.509   2.110  0.00  0.00    +0.000 OA
ATOM      9  H   UNL     1       3.522   1.679   2.817  0.00  0.00    +0.000 HD
ENDBRANCH   7   8
BRANCH   7  10
ATOM     10  C   UNL     1       4.434   1.007  -0.237  0.00  0.00    +0.000 C 
BRANCH  10  12
ATOM     11  O   UNL     1       5.443  -1.164  -0.715  0.00  0.00    +0.000 OA
ATOM     12  C   UNL     1       5.375  -0.167  -0.003  0.00  0.00    +0.000 C 
ENDBRANCH  10  12
BRANCH  10  13
ATOM     13  C   UNL     1       5.253   2.269  -0.529  0.00  0.00    +0.000 C 
BRANCH  13  14
ATOM     14  O   UNL     1       6.046   2.089  -1.699  0.00  0.00    +0.000 OA
ATOM     15  H   UNL     1       6.538   2.916  -1.840  0.00  0.00    +0.000 HD
ENDBRANCH  13  14
ENDBRANCH  10  13
ENDBRANCH   7  10
ENDBRANCH   6   7
ENDBRANCH   5   6
ENDBRANCH   4   5
ENDBRANCH   3   4
ENDBRANCH   1   3
BRANCH   1  16
ATOM     16  C   UNL     1      -2.089  -2.852   0.465  0.00  0.00    +0.000 C 
BRANCH  16  17
ATOM     17  C   UNL     1      -2.903  -1.597   0.208  0.00  0.00    +0.000 C 
ATOM     18  C   UNL     1      -3.769  -1.631  -1.026  0.00  0.00    +0.000 C 
ATOM     19  C   UNL     1      -2.908  -0.501   0.994  0.00  0.00    +0.000 C 
BRANCH  19  20
ATOM     20  C   UNL     1      -3.676   0.724   0.809  0.00  0.00    +0.000 C 
ATOM     21  C   UNL     1      -4.167   1.330   2.094  0.00  0.00    +0.000 C 
ATOM     22  C   UNL     1      -3.830   1.247  -0.422  0.00  0.00    +0.000 C 
BRANCH  22  24
ATOM     23  O   UNL     1      -5.232   3.155   0.064  0.00  0.00    +0.000 OA
ATOM     24  C   UNL     1      -4.618   2.461  -0.727  0.00  0.00    +0.000 C 
BRANCH  24  25
ATOM     25  O   UNL     1      -4.568   2.679  -2.063  0.00  0.00    +0.000 OA
ATOM     26  H   UNL     1      -5.082   3.472  -2.325  0.00  0.00    +0.000 HD
ENDBRANCH  24  25
ENDBRANCH  22  24
ENDBRANCH  19  20
ENDBRANCH  16  17
ENDBRANCH   1  16
TORSDOF 15
