REMARK  Name = 
REMARK  17 active torsions:
REMARK  status: ('A' for Active; 'I' for Inactive)
REMARK    1  A    between atoms: C_1  and  C_2
REMARK    2  A    between atoms: C_2  and  C_3
REMARK    3  A    between atoms: C_3  and  C_4
REMARK    4  A    between atoms: C_4  and  C_5
REMARK    5  A    between atoms: C_5  and  C_6
REMARK    6  A    between atoms: C_7  and  C_8
REMARK    7  A    between atoms: C_9  and  C_10
REMARK    8  A    between atoms: C_9  and  C_11
REMARK    9  A    between atoms: C_11  and  C_13
REMARK   10  A    between atoms: C_14  and  O_15
REMARK   11  A    between atoms: C_17  and  C_18
REMARK   12  A    between atoms: C_18  and  C_19
REMARK   13  A    between atoms: C_19  and  C_20
REMARK   14  A    between atoms: C_20  and  C_21
REMARK   15  A    between atoms: C_22  and  N_23
REMARK   16  A    between atoms: C_24  and  O_26
REMARK   17  A    between atoms: O_26  and  C_27
REMARK                            x       y       z     vdW  Elec       q    Type
REMARK                         _______ _______ _______ _____ _____    ______ ____
ROOT
ATOM      1  C   UNL     1       0.578  -0.185  -1.220  0.00  0.00    +0.000 A 
ATOM      2  C   UNL     1       0.428  -0.358   0.150  0.00  0.00    +0.000 A 
ATOM      3  C   UNL     1      -0.655   0.281   0.740  0.00  0.00    +0.000 A 
ATOM      4  C   UNL     1      -1.380   1.243   0.046  0.00  0.00    +0.000 A 
ATOM      5  O   UNL     1      -0.814   1.709  -1.054  0.00  0.00    +0.000 OA
ATOM      6  C   UNL     1       0.083   1.011  -1.729  0.00  0.00    +0.000 A 
ATOM      7  O   UNL     1       0.535   1.508  -2.804  0.00  0.00    +0.000 OA
ENDROOT
BRANCH   1   8
ATOM      8  C   UNL     1       1.674  -0.798  -1.964  0.00  0.00    +0.000 C 
ATOM      9  O   UNL     1       1.397  -1.445  -3.008  0.00  0.00    +0.000 OA
BRANCH   8  11
ATOM     10  C   UNL     1       3.335   0.609  -0.890  0.00  0.00    +0.000 C 
ATOM     11  C   UNL     1       2.941  -0.056  -1.978  0.00  0.00    +0.000 C 
ATOM     12  C   UNL     1       3.547   0.438  -3.255  0.00  0.00    +0.000 C 
BRANCH  10  15
ATOM     13  C   UNL     1       5.306  -0.096   0.262  0.00  0.00    +0.000 C 
ATOM     14  C   UNL     1       4.587  -0.101   1.574  0.00  0.00    +0.000 C 
ATOM     15  C   UNL     1       4.789   0.673  -0.692  0.00  0.00    +0.000 C 
BRANCH  13  16
ATOM     16  C   UNL     1       6.590  -0.838   0.093  0.00  0.00    +0.000 C 
BRANCH  16  17
ATOM     17  C   UNL     1       7.720   0.151   0.320  0.00  0.00    +0.000 C 
BRANCH  17  19
ATOM     18  C   UNL     1       9.270   0.171   2.190  0.00  0.00    +0.000 C 
ATOM     19  C   UNL     1       7.818   0.434   1.809  0.00  0.00    +0.000 C 
ENDBRANCH  17  19
ENDBRANCH  16  17
ENDBRANCH  13  16
ENDBRANCH  10  15
ENDBRANCH   8  11
ENDBRANCH   1   8
BRANCH   2  20
ATOM     20  O   UNL     1       0.968  -1.492   0.723  0.00  0.00    +0.000 OA
ATOM     21  H   UNL     1       1.699  -1.918   0.319  0.00  0.00    +0.000 HD
ENDBRANCH   2  20
BRANCH   4  22
ATOM     22  C   UNL     1      -2.852   1.363   0.289  0.00  0.00    +0.000 C 
BRANCH  22  23
ATOM     23  C   UNL     1      -3.478   0.154  -0.396  0.00  0.00    +0.000 C 
BRANCH  23  24
ATOM     24  C   UNL     1      -3.453  -1.034   0.552  0.00  0.00    +0.000 C 
BRANCH  24  25
ATOM     25  C   UNL     1      -4.593  -0.865   1.506  0.00  0.00    +0.000 C 
ATOM     26  C   UNL     1      -5.007   0.338   1.899  0.00  0.00    +0.000 C 
BRANCH  26  27
ATOM     27  N   UNL     1      -6.360   0.464   2.353  0.00  0.00    +0.000 N 
ATOM     28  C   UNL     1      -7.401   0.437   1.370  0.00  0.00    +0.000 C 
ATOM     29  O   UNL     1      -7.125  -0.194   0.305  0.00  0.00    +0.000 OA
ATOM     30  H   UNL     1      -6.568   0.565   3.310  0.00  0.00    +0.000 HD
BRANCH  28  31
ATOM     31  O   UNL     1      -8.724   0.435   1.820  0.00  0.00    +0.000 OA
ATOM     32  C   UNL     1      -9.724  -0.131   0.988  0.00  0.00    +0.000 C 
ENDBRANCH  28  31
ENDBRANCH  26  27
ENDBRANCH  24  25
ENDBRANCH  23  24
ENDBRANCH  22  23
ENDBRANCH   4  22
TORSDOF 13
