REMARK  Name = 131704307
REMARK  17 active torsions:
REMARK  status: ('A' for Active; 'I' for Inactive)
REMARK    1  A    between atoms: O_5  and  C_29
REMARK    2  A    between atoms: O_5  and  C_30
REMARK    3  A    between atoms: N_7  and  C_29
REMARK    4  A    between atoms: C_8  and  C_9
REMARK    5  A    between atoms: C_8  and  C_11
REMARK    6  A    between atoms: C_8  and  C_12
REMARK    7  A    between atoms: C_9  and  C_10
REMARK    8  A    between atoms: C_10  and  C_14
REMARK    9  A    between atoms: C_13  and  C_18
REMARK   10  A    between atoms: C_14  and  C_19
REMARK   11  A    between atoms: C_18  and  C_20
REMARK   12  A    between atoms: C_20  and  C_24
REMARK   13  A    between atoms: C_21  and  C_25
REMARK   14  A    between atoms: C_22  and  C_23
REMARK   15  A    between atoms: C_22  and  C_26
REMARK   16  A    between atoms: C_23  and  C_27
REMARK   17  A    between atoms: C_26  and  C_28
REMARK                            x       y       z     vdW  Elec       q    Type
REMARK                         _______ _______ _______ _____ _____    ______ ____
ROOT
ATOM      1  O   UNL     1       1.471  -1.796   0.542  0.00  0.00    +0.000 OA
ATOM      2  O   UNL     1      -1.955  -2.809  -1.359  0.00  0.00    +0.000 OA
ATOM      3  O   UNL     1       0.354  -1.196   2.405  0.00  0.00    +0.000 OA
ATOM      4  C   UNL     1       1.476  -2.302  -0.773  0.00  0.00    +0.000 C 
ATOM      5  C   UNL     1      -0.952  -1.533   0.418  0.00  0.00    +0.000 C 
ATOM      6  C   UNL     1       0.372  -2.621  -1.454  0.00  0.00    +0.000 C 
ATOM      7  C   UNL     1      -0.935  -2.380  -0.825  0.00  0.00    +0.000 C 
ATOM      8  C   UNL     1       0.324  -1.515   1.219  0.00  0.00    +0.000 C 
ENDROOT
BRANCH   5  10
ATOM      9  O   UNL     1      -2.222  -2.975   1.816  0.00  0.00    +0.000 OA
ATOM     10  C   UNL     1      -2.138  -1.863   1.291  0.00  0.00    +0.000 C 
BRANCH  10  11
ATOM     11  C   UNL     1      -3.220  -0.834   1.526  0.00  0.00    +0.000 C 
ATOM     12  C   UNL     1      -3.490   0.082   0.576  0.00  0.00    +0.000 C 
ATOM     13  C   UNL     1      -3.909  -0.960   2.859  0.00  0.00    +0.000 C 
BRANCH  12  15
ATOM     14  C   UNL     1      -4.745   2.073  -0.290  0.00  0.00    +0.000 C 
ATOM     15  C   UNL     1      -4.469   1.151   0.656  0.00  0.00    +0.000 C 
ATOM     16  C   UNL     1      -3.993   2.046  -1.599  0.00  0.00    +0.000 C 
BRANCH  14  17
ATOM     17  C   UNL     1      -5.747   3.203  -0.159  0.00  0.00    +0.000 C 
BRANCH  17  18
ATOM     18  C   UNL     1      -6.813   3.235  -1.260  0.00  0.00    +0.000 C 
ATOM     19  C   UNL     1      -7.711   2.006  -1.271  0.00  0.00    +0.000 C 
ENDBRANCH  17  18
ENDBRANCH  14  17
ENDBRANCH  12  15
ENDBRANCH  10  11
ENDBRANCH   5  10
BRANCH   4  20
ATOM     20  C   UNL     1       2.851  -2.499  -1.328  0.00  0.00    +0.000 C 
ATOM     21  C   UNL     1       3.622  -3.502  -0.467  0.00  0.00    +0.000 C 
BRANCH  20  22
ATOM     22  C   UNL     1       3.632  -1.174  -1.424  0.00  0.00    +0.000 C 
BRANCH  22  23
ATOM     23  C   UNL     1       2.960  -0.146  -2.345  0.00  0.00    +0.000 C 
BRANCH  23  24
ATOM     24  C   UNL     1       3.761   1.150  -2.449  0.00  0.00    +0.000 C 
BRANCH  24  26
ATOM     25  N   UNL     1       5.072   1.948  -0.567  0.00  0.00    +0.000 NA
ATOM     26  C   UNL     1       3.905   1.804  -1.101  0.00  0.00    +0.000 C 
BRANCH  25  28
ATOM     27  O   UNL     1       4.207   2.996   1.326  0.00  0.00    +0.000 OA
ATOM     28  C   UNL     1       5.142   2.561   0.662  0.00  0.00    +0.000 C 
BRANCH  28  29
ATOM     29  O   UNL     1       6.452   2.618   1.054  0.00  0.00    +0.000 OA
ATOM     30  C   UNL     1       6.699   3.233   2.324  0.00  0.00    +0.000 C 
ENDBRANCH  28  29
ENDBRANCH  25  28
ENDBRANCH  24  26
ENDBRANCH  23  24
ENDBRANCH  22  23
ENDBRANCH  20  22
ENDBRANCH   4  20
TORSDOF 12
