REMARK  Name = 30219
REMARK  12 active torsions:
REMARK  status: ('A' for Active; 'I' for Inactive)
REMARK    1  A    between atoms: O_2  and  C_15
REMARK    2  A    between atoms: C_3  and  C_4
REMARK    3  A    between atoms: C_3  and  C_7
REMARK    4  A    between atoms: C_4  and  C_8
REMARK    5  A    between atoms: C_8  and  C_18
REMARK    6  A    between atoms: C_10  and  C_12
REMARK    7  A    between atoms: C_12  and  C_14
REMARK    8  A    between atoms: C_14  and  C_17
REMARK    9  A    between atoms: C_17  and  C_19
REMARK   10  A    between atoms: C_19  and  C_21
REMARK   11  A    between atoms: C_20  and  C_22
REMARK   12  A    between atoms: C_20  and  C_23
REMARK                            x       y       z     vdW  Elec       q    Type
REMARK                         _______ _______ _______ _____ _____    ______ ____
ROOT
ATOM      1  O   UNL     1       0.945   0.759   1.536  0.00  0.00    +0.000 OA
ATOM      2  C   UNL     1       2.307   1.138   1.244  0.00  0.00    +0.000 C 
ATOM      3  C   UNL     1       2.525   1.874  -0.057  0.00  0.00    +0.000 C 
ATOM      4  C   UNL     1      -0.042   1.080   0.647  0.00  0.00    +0.000 A 
ATOM      5  C   UNL     1       2.765   2.025   2.408  0.00  0.00    +0.000 C 
ATOM      6  C   UNL     1       0.186   1.763  -0.549  0.00  0.00    +0.000 A 
ATOM      7  C   UNL     1      -2.406   0.969   0.144  0.00  0.00    +0.000 A 
ATOM      8  C   UNL     1       1.535   2.170  -0.902  0.00  0.00    +0.000 C 
ATOM      9  C   UNL     1      -1.337   0.684   0.993  0.00  0.00    +0.000 A 
ATOM     10  C   UNL     1      -0.891   2.047  -1.398  0.00  0.00    +0.000 A 
ATOM     11  C   UNL     1      -2.183   1.651  -1.050  0.00  0.00    +0.000 A 
ENDROOT
BRANCH  10  12
ATOM     12  O   UNL     1      -0.716   2.711  -2.577  0.00  0.00    +0.000 OA
ATOM     13  H   UNL     1      -1.575   2.811  -3.021  0.00  0.00    +0.000 HD
ENDBRANCH  10  12
BRANCH   2  14
ATOM     14  C   UNL     1       3.122  -0.161   1.232  0.00  0.00    +0.000 C 
BRANCH  14  15
ATOM     15  C   UNL     1       2.668  -1.079   0.104  0.00  0.00    +0.000 C 
BRANCH  15  16
ATOM     16  C   UNL     1       3.463  -2.354   0.102  0.00  0.00    +0.000 C 
ATOM     17  C   UNL     1       4.577  -2.629  -0.603  0.00  0.00    +0.000 C 
ATOM     18  C   UNL     1       5.328  -3.929  -0.560  0.00  0.00    +0.000 C 
ATOM     19  C   UNL     1       5.163  -1.602  -1.536  0.00  0.00    +0.000 C 
ENDBRANCH  15  16
ENDBRANCH  14  15
ENDBRANCH   2  14
BRANCH   7  20
ATOM     20  C   UNL     1      -3.787   0.546   0.515  0.00  0.00    +0.000 C 
BRANCH  20  21
ATOM     21  C   UNL     1      -4.180  -0.855   0.013  0.00  0.00    +0.000 C 
BRANCH  21  22
ATOM     22  C   UNL     1      -5.626  -1.226   0.356  0.00  0.00    +0.000 C 
BRANCH  22  23
ATOM     23  C   UNL     1      -5.985  -2.612  -0.181  0.00  0.00    +0.000 C 
ATOM     24  C   UNL     1      -7.431  -2.970   0.122  0.00  0.00    +0.000 C 
ENDBRANCH  22  23
ENDBRANCH  21  22
ENDBRANCH  20  21
ENDBRANCH   7  20
TORSDOF 8
