REMARK  Name = 14009404
REMARK  21 active torsions:
REMARK  status: ('A' for Active; 'I' for Inactive)
REMARK    1  A    between atoms: C_3  and  C_6
REMARK    2  A    between atoms: C_3  and  C_9
REMARK    3  A    between atoms: C_4  and  C_5
REMARK    4  A    between atoms: C_4  and  C_11
REMARK    5  A    between atoms: C_5  and  C_14
REMARK    6  A    between atoms: C_6  and  C_17
REMARK    7  A    between atoms: C_7  and  C_8
REMARK    8  A    between atoms: C_8  and  C_16
REMARK    9  A    between atoms: C_9  and  C_25
REMARK   10  A    between atoms: C_10  and  C_12
REMARK   11  A    between atoms: C_10  and  C_13
REMARK   12  A    between atoms: C_11  and  C_26
REMARK   13  A    between atoms: C_12  and  C_27
REMARK   14  A    between atoms: C_13  and  C_23
REMARK   15  A    between atoms: C_15  and  C_29
REMARK   16  A    between atoms: C_21  and  C_24
REMARK   17  A    between atoms: C_21  and  C_32
REMARK   18  A    between atoms: C_24  and  C_28
REMARK   19  A    between atoms: C_28  and  C_35
REMARK   20  A    between atoms: C_36  and  C_37
REMARK   21  A    between atoms: C_36  and  C_38
REMARK                            x       y       z     vdW  Elec       q    Type
REMARK                         _______ _______ _______ _____ _____    ______ ____
ROOT
ATOM      1  C   UNL     1      -0.563  -4.698   0.057  0.00  0.00    +0.000 C 
ENDROOT
BRANCH   1   3
ATOM      2  C   UNL     1       0.401  -2.679  -1.200  0.00  0.00    +0.000 C 
ATOM      3  C   UNL     1       0.156  -3.385  -0.080  0.00  0.00    +0.000 C 
ATOM      4  C   UNL     1      -0.052  -3.068  -2.580  0.00  0.00    +0.000 C 
BRANCH   2   5
ATOM      5  C   UNL     1       1.157  -1.365  -1.114  0.00  0.00    +0.000 C 
BRANCH   5   6
ATOM      6  C   UNL     1       0.257  -0.134  -0.947  0.00  0.00    +0.000 C 
BRANCH   6   8
ATOM      7  C   UNL     1       1.041   2.076   0.087  0.00  0.00    +0.000 C 
ATOM      8  C   UNL     1       1.037   1.152  -0.894  0.00  0.00    +0.000 C 
ATOM      9  C   UNL     1       0.242   1.976   1.358  0.00  0.00    +0.000 C 
BRANCH   7  10
ATOM     10  C   UNL     1       1.875   3.336  -0.061  0.00  0.00    +0.000 C 
BRANCH  10  11
ATOM     11  C   UNL     1       2.968   3.515   1.001  0.00  0.00    +0.000 C 
BRANCH  11  13
ATOM     12  C   UNL     1       5.128   2.297   0.369  0.00  0.00    +0.000 C 
ATOM     13  C   UNL     1       3.956   2.382   1.029  0.00  0.00    +0.000 C 
ATOM     14  C   UNL     1       5.670   3.361  -0.544  0.00  0.00    +0.000 C 
BRANCH  12  15
ATOM     15  C   UNL     1       5.982   1.049   0.494  0.00  0.00    +0.000 C 
BRANCH  15  16
ATOM     16  C   UNL     1       5.628  -0.060  -0.503  0.00  0.00    +0.000 C 
BRANCH  16  17
ATOM     17  C   UNL     1       6.426  -1.317  -0.291  0.00  0.00    +0.000 C 
ATOM     18  C   UNL     1       6.130  -2.338   0.536  0.00  0.00    +0.000 C 
ATOM     19  C   UNL     1       6.968  -3.573   0.707  0.00  0.00    +0.000 C 
ATOM     20  C   UNL     1       4.873  -2.313   1.362  0.00  0.00    +0.000 C 
ENDBRANCH  16  17
ENDBRANCH  15  16
ENDBRANCH  12  15
ENDBRANCH  11  13
ENDBRANCH  10  11
ENDBRANCH   7  10
ENDBRANCH   6   8
ENDBRANCH   5   6
ENDBRANCH   2   5
ENDBRANCH   1   3
BRANCH   1  21
ATOM     21  C   UNL     1      -1.791  -4.605   0.973  0.00  0.00    +0.000 C 
BRANCH  21  22
ATOM     22  C   UNL     1      -2.894  -3.721   0.428  0.00  0.00    +0.000 C 
ATOM     23  C   UNL     1      -3.434  -2.674   1.083  0.00  0.00    +0.000 C 
ATOM     24  C   UNL     1      -3.416  -4.109  -0.932  0.00  0.00    +0.000 C 
BRANCH  23  25
ATOM     25  C   UNL     1      -4.550  -1.777   0.631  0.00  0.00    +0.000 C 
BRANCH  25  28
ATOM     26  O   UNL     1      -3.542  -0.761  -1.732  0.00  0.00    +0.000 OA
ATOM     27  O   UNL     1      -3.697   2.745   2.290  0.00  0.00    +0.000 OA
ATOM     28  C   UNL     1      -4.117  -0.352   0.538  0.00  0.00    +0.000 C 
ATOM     29  C   UNL     1      -4.175   0.538   1.547  0.00  0.00    +0.000 C 
ATOM     30  C   UNL     1      -3.084   1.411  -0.989  0.00  0.00    +0.000 A 
ATOM     31  C   UNL     1      -3.576   0.037  -0.800  0.00  0.00    +0.000 C 
ATOM     32  C   UNL     1      -3.129   2.326   0.058  0.00  0.00    +0.000 A 
ATOM     33  C   UNL     1      -3.670   1.934   1.369  0.00  0.00    +0.000 C 
ATOM     34  C   UNL     1      -4.745   0.259   2.912  0.00  0.00    +0.000 C 
ATOM     35  C   UNL     1      -2.567   1.797  -2.232  0.00  0.00    +0.000 A 
ATOM     36  C   UNL     1      -2.656   3.630  -0.134  0.00  0.00    +0.000 A 
ATOM     37  C   UNL     1      -2.097   3.096  -2.421  0.00  0.00    +0.000 A 
ATOM     38  C   UNL     1      -2.141   4.012  -1.373  0.00  0.00    +0.000 A 
ENDBRANCH  25  28
ENDBRANCH  23  25
ENDBRANCH  21  22
ENDBRANCH   1  21
TORSDOF 14
