REMARK  Name = 5282199
REMARK  18 active torsions:
REMARK  status: ('A' for Active; 'I' for Inactive)
REMARK    1  A    between atoms: C_2  and  C_3
REMARK    2  A    between atoms: C_2  and  C_4
REMARK    3  A    between atoms: C_3  and  C_11
REMARK    4  A    between atoms: C_4  and  C_13
REMARK    5  A    between atoms: C_5  and  C_6
REMARK    6  A    between atoms: C_5  and  C_7
REMARK    7  A    between atoms: C_6  and  C_10
REMARK    8  A    between atoms: C_8  and  C_9
REMARK    9  A    between atoms: C_8  and  C_16
REMARK   10  A    between atoms: C_9  and  C_12
REMARK   11  A    between atoms: C_10  and  C_17
REMARK   12  A    between atoms: C_12  and  C_19
REMARK   13  A    between atoms: C_14  and  C_15
REMARK   14  A    between atoms: C_15  and  C_18
REMARK   15  A    between atoms: C_18  and  C_21
REMARK   16  A    between atoms: C_20  and  C_22
REMARK   17  A    between atoms: C_20  and  C_23
REMARK   18  A    between atoms: C_21  and  C_24
REMARK                            x       y       z     vdW  Elec       q    Type
REMARK                         _______ _______ _______ _____ _____    ______ ____
ROOT
ATOM      1  C   UNL     1       2.303   2.545  -0.675  0.00  0.00    +0.000 C 
ATOM      2  C   UNL     1       3.208   2.230   0.274  0.00  0.00    +0.000 C 
ATOM      3  C   UNL     1       2.686   2.460  -2.131  0.00  0.00    +0.000 C 
ENDROOT
BRANCH   1   4
ATOM      4  C   UNL     1       0.868   2.947  -0.413  0.00  0.00    +0.000 C 
BRANCH   4   5
ATOM      5  C   UNL     1      -0.092   1.749  -0.427  0.00  0.00    +0.000 C 
BRANCH   5   7
ATOM      6  C   UNL     1      -2.341   1.841   0.807  0.00  0.00    +0.000 C 
ATOM      7  C   UNL     1      -1.505   2.201  -0.185  0.00  0.00    +0.000 C 
ATOM      8  C   UNL     1      -2.009   0.876   1.912  0.00  0.00    +0.000 C 
BRANCH   6   9
ATOM      9  C   UNL     1      -3.733   2.442   0.877  0.00  0.00    +0.000 C 
BRANCH   9  10
ATOM     10  C   UNL     1      -4.851   1.391   0.875  0.00  0.00    +0.000 C 
BRANCH  10  11
ATOM     11  C   UNL     1      -4.891   0.601  -0.405  0.00  0.00    +0.000 C 
ATOM     12  C   UNL     1      -4.848  -0.736  -0.561  0.00  0.00    +0.000 C 
ATOM     13  C   UNL     1      -4.906  -1.343  -1.938  0.00  0.00    +0.000 C 
ATOM     14  C   UNL     1      -4.728  -1.739   0.550  0.00  0.00    +0.000 C 
ENDBRANCH  10  11
ENDBRANCH   9  10
ENDBRANCH   6   9
ENDBRANCH   5   7
ENDBRANCH   4   5
ENDBRANCH   1   4
BRANCH   2  15
ATOM     15  C   UNL     1       4.631   1.778   0.097  0.00  0.00    +0.000 C 
BRANCH  15  16
ATOM     16  C   UNL     1       4.939   0.460   0.819  0.00  0.00    +0.000 C 
BRANCH  16  17
ATOM     17  C   UNL     1       4.101  -0.716   0.365  0.00  0.00    +0.000 C 
ATOM     18  C   UNL     1       3.275  -1.428   1.156  0.00  0.00    +0.000 C 
ATOM     19  C   UNL     1       4.299  -1.130  -1.071  0.00  0.00    +0.000 C 
BRANCH  18  20
ATOM     20  C   UNL     1       2.472  -2.649   0.797  0.00  0.00    +0.000 C 
BRANCH  20  21
ATOM     21  C   UNL     1       1.113  -2.294   0.196  0.00  0.00    +0.000 C 
BRANCH  21  23
ATOM     22  O   UNL     1       0.767  -4.658  -0.019  0.00  0.00    +0.000 OA
ATOM     23  C   UNL     1       0.307  -3.525  -0.162  0.00  0.00    +0.000 C 
ATOM     24  C   UNL     1      -1.066  -3.301  -0.739  0.00  0.00    +0.000 C 
ENDBRANCH  21  23
ENDBRANCH  20  21
ENDBRANCH  18  20
ENDBRANCH  16  17
ENDBRANCH  15  16
ENDBRANCH   2  15
TORSDOF 12
