REMARK  Name = 5287678
REMARK  9 active torsions:
REMARK  status: ('A' for Active; 'I' for Inactive)
REMARK    1  A    between atoms: C_1  and  C_5
REMARK    2  A    between atoms: C_1  and  C_6
REMARK    3  A    between atoms: C_7  and  C_10
REMARK    4  A    between atoms: C_9  and  C_11
REMARK    5  A    between atoms: C_12  and  C_13
REMARK    6  A    between atoms: C_12  and  C_14
REMARK    7  A    between atoms: C_15  and  C_16
REMARK    8  A    between atoms: C_17  and  C_18
REMARK    9  A    between atoms: C_17  and  C_19
REMARK                            x       y       z     vdW  Elec       q    Type
REMARK                         _______ _______ _______ _____ _____    ______ ____
ROOT
ATOM      1  C   UNL     1      -3.100  -1.237   0.102  0.00  0.00    +0.000 C 
ATOM      2  C   UNL     1      -4.294  -1.717  -0.761  0.00  0.00    +0.000 C 
ATOM      3  C   UNL     1      -2.998   0.304   0.027  0.00  0.00    +0.000 C 
ATOM      4  C   UNL     1      -5.612  -1.045  -0.391  0.00  0.00    +0.000 C 
ATOM      5  C   UNL     1      -1.848  -1.975  -0.433  0.00  0.00    +0.000 C 
ATOM      6  C   UNL     1      -3.292  -1.659   1.575  0.00  0.00    +0.000 C 
ATOM      7  C   UNL     1      -4.273   1.050   0.007  0.00  0.00    +0.000 C 
ATOM      8  C   UNL     1      -5.453   0.423  -0.160  0.00  0.00    +0.000 C 
ATOM      9  C   UNL     1      -1.811   0.941  -0.006  0.00  0.00    +0.000 C 
ATOM     10  C   UNL     1      -4.261   2.543   0.217  0.00  0.00    +0.000 C 
ENDROOT
BRANCH   9  11
ATOM     11  C   UNL     1      -0.541   0.244   0.012  0.00  0.00    +0.000 C 
ATOM     12  C   UNL     1       0.704   0.766  -0.018  0.00  0.00    +0.000 C 
ATOM     13  C   UNL     1       0.853   2.269  -0.077  0.00  0.00    +0.000 C 
BRANCH  12  14
ATOM     14  C   UNL     1       1.929  -0.034   0.005  0.00  0.00    +0.000 C 
ATOM     15  C   UNL     1       3.190   0.435  -0.022  0.00  0.00    +0.000 C 
BRANCH  15  16
ATOM     16  C   UNL     1       4.349  -0.437   0.004  0.00  0.00    +0.000 C 
ATOM     17  C   UNL     1       5.652  -0.080  -0.019  0.00  0.00    +0.000 C 
ATOM     18  C   UNL     1       6.153   1.341  -0.080  0.00  0.00    +0.000 C 
BRANCH  17  19
ATOM     19  C   UNL     1       6.661  -1.141   0.016  0.00  0.00    +0.000 C 
ATOM     20  C   UNL     1       7.992  -0.989   0.001  0.00  0.00    +0.000 C 
ENDBRANCH  17  19
ENDBRANCH  15  16
ENDBRANCH  12  14
ENDBRANCH   9  11
TORSDOF 4
