REMARK  Name = 83975
REMARK  9 active torsions:
REMARK  status: ('A' for Active; 'I' for Inactive)
REMARK    1  A    between atoms: O_1  and  C_12
REMARK    2  A    between atoms: O_1  and  C_14
REMARK    3  A    between atoms: N_5  and  C_14
REMARK    4  A    between atoms: C_6  and  C_9
REMARK    5  A    between atoms: C_6  and  C_10
REMARK    6  A    between atoms: C_7  and  C_11
REMARK    7  A    between atoms: C_8  and  C_12
REMARK    8  A    between atoms: C_13  and  C_15
REMARK    9  A    between atoms: C_13  and  C_16
REMARK                            x       y       z     vdW  Elec       q    Type
REMARK                         _______ _______ _______ _____ _____    ______ ____
ROOT
ATOM      1  O   UNL     1      -0.215   0.543   0.432  0.00  0.00    +0.000 OA
ENDROOT
BRANCH   1   3
ATOM      2  O   UNL     1      -1.807   1.208   1.973  0.00  0.00    +0.000 OA
ATOM      3  C   UNL     1      -1.480   0.779   0.876  0.00  0.00    +0.000 C 
BRANCH   3   6
ATOM      4  C   UNL     1      -2.996  -0.954  -0.294  0.00  0.00    +0.000 C 
ATOM      5  C   UNL     1      -3.880   0.115   0.280  0.00  0.00    +0.000 C 
ATOM      6  C   UNL     1      -2.490   0.447  -0.162  0.00  0.00    +0.000 C 
ATOM      7  C   UNL     1      -2.497  -2.005   0.640  0.00  0.00    +0.000 C 
ATOM      8  C   UNL     1      -3.246  -1.456  -1.677  0.00  0.00    +0.000 C 
BRANCH   5   9
ATOM      9  C   UNL     1      -4.994   0.642  -0.492  0.00  0.00    +0.000 C 
ATOM     10  C   UNL     1      -6.247   0.154  -0.571  0.00  0.00    +0.000 C 
ATOM     11  C   UNL     1      -7.290   0.823  -1.422  0.00  0.00    +0.000 C 
ATOM     12  C   UNL     1      -6.713  -1.073   0.161  0.00  0.00    +0.000 C 
ENDBRANCH   5   9
ENDBRANCH   3   6
ENDBRANCH   1   3
BRANCH   1  13
ATOM     13  C   UNL     1       0.825   0.835   1.368  0.00  0.00    +0.000 C 
BRANCH  13  16
ATOM     14  O   UNL     1       2.297  -1.742   1.439  0.00  0.00    +0.000 OA
ATOM     15  O   UNL     1       2.654   2.519  -0.291  0.00  0.00    +0.000 OA
ATOM     16  N   UNL     1       2.098   0.496   0.763  0.00  0.00    +0.000 N 
ATOM     17  C   UNL     1       3.943  -0.646   0.109  0.00  0.00    +0.000 C 
ATOM     18  C   UNL     1       4.048   0.590  -0.387  0.00  0.00    +0.000 C 
ATOM     19  C   UNL     1       4.953  -1.719  -0.069  0.00  0.00    +0.000 C 
ATOM     20  C   UNL     1       5.175   1.073  -1.223  0.00  0.00    +0.000 C 
ATOM     21  C   UNL     1       6.272  -1.149  -0.617  0.00  0.00    +0.000 C 
ATOM     22  C   UNL     1       6.042  -0.099  -1.713  0.00  0.00    +0.000 C 
ATOM     23  C   UNL     1       2.687  -0.740   0.864  0.00  0.00    +0.000 C 
ATOM     24  C   UNL     1       2.861   1.357   0.014  0.00  0.00    +0.000 C 
ENDBRANCH  13  16
ENDBRANCH   1  13
TORSDOF 5
