REMARK  Name = 5281232
REMARK  14 active torsions:
REMARK  status: ('A' for Active; 'I' for Inactive)
REMARK    1  A    between atoms: O_1  and  C_23
REMARK    2  A    between atoms: O_2  and  C_24
REMARK    3  A    between atoms: C_5  and  C_9
REMARK    4  A    between atoms: C_5  and  C_13
REMARK    5  A    between atoms: C_6  and  C_10
REMARK    6  A    between atoms: C_6  and  C_14
REMARK    7  A    between atoms: C_7  and  C_11
REMARK    8  A    between atoms: C_8  and  C_12
REMARK    9  A    between atoms: C_15  and  C_17
REMARK   10  A    between atoms: C_16  and  C_18
REMARK   11  A    between atoms: C_19  and  C_21
REMARK   12  A    between atoms: C_19  and  C_23
REMARK   13  A    between atoms: C_20  and  C_22
REMARK   14  A    between atoms: C_20  and  C_24
REMARK                            x       y       z     vdW  Elec       q    Type
REMARK                         _______ _______ _______ _____ _____    ______ ____
ROOT
ATOM      1  C   UNL     1       0.237  -0.436   0.228  0.00  0.00    +0.000 C 
ATOM      2  C   UNL     1      -0.730  -1.349   0.037  0.00  0.00    +0.000 C 
ENDROOT
BRANCH   1   4
ATOM      3  C   UNL     1       2.705   0.086   0.187  0.00  0.00    +0.000 C 
ATOM      4  C   UNL     1       1.643  -0.734   0.031  0.00  0.00    +0.000 C 
ATOM      5  C   UNL     1       2.457   1.513   0.621  0.00  0.00    +0.000 C 
BRANCH   3   6
ATOM      6  C   UNL     1       4.093  -0.317  -0.039  0.00  0.00    +0.000 C 
ATOM      7  C   UNL     1       5.181   0.459   0.102  0.00  0.00    +0.000 C 
BRANCH   7   8
ATOM      8  C   UNL     1       6.543   0.005  -0.101  0.00  0.00    +0.000 C 
ATOM      9  C   UNL     1       7.671   0.731   0.024  0.00  0.00    +0.000 C 
ATOM     10  C   UNL     1       7.734   2.175   0.441  0.00  0.00    +0.000 C 
BRANCH   9  12
ATOM     11  O   UNL     1      10.064   0.706  -0.140  0.00  0.00    +0.000 OA
ATOM     12  C   UNL     1       9.003   0.105  -0.235  0.00  0.00    +0.000 C 
BRANCH  12  13
ATOM     13  O   UNL     1       8.919  -1.199  -0.585  0.00  0.00    +0.000 OA
ATOM     14  H   UNL     1       9.802  -1.593  -0.750  0.00  0.00    +0.000 HD
ENDBRANCH  12  13
ENDBRANCH   9  12
ENDBRANCH   7   8
ENDBRANCH   3   6
ENDBRANCH   1   4
BRANCH   2  16
ATOM     15  C   UNL     1      -3.177  -1.897   0.061  0.00  0.00    +0.000 C 
ATOM     16  C   UNL     1      -2.138  -1.055   0.227  0.00  0.00    +0.000 C 
ATOM     17  C   UNL     1      -2.949  -3.333  -0.331  0.00  0.00    +0.000 C 
BRANCH  15  18
ATOM     18  C   UNL     1      -4.580  -1.564   0.262  0.00  0.00    +0.000 C 
ATOM     19  C   UNL     1      -5.145  -0.402  -0.105  0.00  0.00    +0.000 C 
BRANCH  19  20
ATOM     20  C   UNL     1      -6.554  -0.119   0.090  0.00  0.00    +0.000 C 
ATOM     21  C   UNL     1      -7.202   1.013  -0.245  0.00  0.00    +0.000 C 
ATOM     22  C   UNL     1      -6.605   2.223  -0.906  0.00  0.00    +0.000 C 
BRANCH  21  24
ATOM     23  O   UNL     1      -9.292   0.135   0.601  0.00  0.00    +0.000 OA
ATOM     24  C   UNL     1      -8.661   1.038   0.074  0.00  0.00    +0.000 C 
BRANCH  24  25
ATOM     25  O   UNL     1      -9.215   2.216  -0.299  0.00  0.00    +0.000 OA
ATOM     26  H   UNL     1     -10.174   2.251  -0.096  0.00  0.00    +0.000 HD
ENDBRANCH  24  25
ENDBRANCH  21  24
ENDBRANCH  19  20
ENDBRANCH  15  18
ENDBRANCH   2  16
TORSDOF 10
