REMARK  Name = 6419725
REMARK  20 active torsions:
REMARK  status: ('A' for Active; 'I' for Inactive)
REMARK    1  A    between atoms: C_1  and  C_7
REMARK    2  A    between atoms: C_1  and  C_8
REMARK    3  A    between atoms: C_2  and  C_11
REMARK    4  A    between atoms: C_5  and  C_16
REMARK    5  A    between atoms: C_6  and  C_17
REMARK    6  A    between atoms: C_6  and  C_18
REMARK    7  A    between atoms: C_13  and  C_20
REMARK    8  A    between atoms: C_15  and  C_21
REMARK    9  A    between atoms: C_19  and  C_22
REMARK   10  A    between atoms: C_22  and  C_24
REMARK   11  A    between atoms: C_23  and  C_25
REMARK   12  A    between atoms: C_25  and  C_27
REMARK   13  A    between atoms: C_26  and  C_29
REMARK   14  A    between atoms: C_28  and  C_30
REMARK   15  A    between atoms: C_31  and  C_32
REMARK   16  A    between atoms: C_32  and  C_35
REMARK   17  A    between atoms: C_33  and  C_34
REMARK   18  A    between atoms: C_34  and  C_38
REMARK   19  A    between atoms: C_36  and  C_39
REMARK   20  A    between atoms: C_37  and  C_40
REMARK                            x       y       z     vdW  Elec       q    Type
REMARK                         _______ _______ _______ _____ _____    ______ ____
ROOT
ATOM      1  C   UNL     1       0.464  -1.364  -1.016  0.00  0.00    +0.000 C 
ATOM      2  C   UNL     1      -0.350  -0.305  -0.881  0.00  0.00    +0.000 C 
ENDROOT
BRANCH   1   5
ATOM      3  C   UNL     1       2.794  -2.258  -1.223  0.00  0.00    +0.000 C 
ATOM      4  C   UNL     1       2.327  -3.684  -1.340  0.00  0.00    +0.000 C 
ATOM      5  C   UNL     1       1.908  -1.251  -1.089  0.00  0.00    +0.000 C 
BRANCH   3   7
ATOM      6  C   UNL     1       4.953  -1.248  -0.548  0.00  0.00    +0.000 C 
ATOM      7  C   UNL     1       4.241  -2.109  -1.294  0.00  0.00    +0.000 C 
BRANCH   6  10
ATOM      8  C   UNL     1       7.200  -0.310   0.068  0.00  0.00    +0.000 C 
ATOM      9  C   UNL     1       6.718   0.690   1.091  0.00  0.00    +0.000 C 
ATOM     10  C   UNL     1       6.395  -1.137  -0.633  0.00  0.00    +0.000 C 
BRANCH   8  12
ATOM     11  C   UNL     1       9.596   0.364   0.415  0.00  0.00    +0.000 C 
ATOM     12  C   UNL     1       8.643  -0.373  -0.179  0.00  0.00    +0.000 C 
BRANCH  11  14
ATOM     13  C   UNL     1      11.884  -0.259   1.347  0.00  0.00    +0.000 C 
ATOM     14  C   UNL     1      11.063   0.234   0.102  0.00  0.00    +0.000 C 
ATOM     15  C   UNL     1      13.391  -0.185   1.003  0.00  0.00    +0.000 C 
ATOM     16  C   UNL     1      13.841   1.226   0.625  0.00  0.00    +0.000 C 
ATOM     17  C   UNL     1      11.633   1.493  -0.549  0.00  0.00    +0.000 C 
ATOM     18  C   UNL     1      11.537  -1.729   1.669  0.00  0.00    +0.000 C 
ATOM     19  C   UNL     1      11.601   0.582   2.615  0.00  0.00    +0.000 C 
ATOM     20  C   UNL     1      12.881   1.925  -0.287  0.00  0.00    +0.000 C 
ATOM     21  C   UNL     1      10.787   2.211  -1.568  0.00  0.00    +0.000 C 
ENDBRANCH  11  14
ENDBRANCH   8  12
ENDBRANCH   6  10
ENDBRANCH   3   7
ENDBRANCH   1   5
BRANCH   2  23
ATOM     22  C   UNL     1      -2.701   0.545  -0.688  0.00  0.00    +0.000 C 
ATOM     23  C   UNL     1      -1.791  -0.441  -0.821  0.00  0.00    +0.000 C 
ATOM     24  C   UNL     1      -2.391   2.011  -0.534  0.00  0.00    +0.000 C 
BRANCH  22  26
ATOM     25  C   UNL     1      -5.157   1.115  -0.509  0.00  0.00    +0.000 C 
ATOM     26  C   UNL     1      -4.132   0.255  -0.637  0.00  0.00    +0.000 C 
BRANCH  25  29
ATOM     27  C   UNL     1      -7.604   1.681  -0.332  0.00  0.00    +0.000 C 
ATOM     28  C   UNL     1      -7.356   3.159  -0.186  0.00  0.00    +0.000 C 
ATOM     29  C   UNL     1      -6.574   0.821  -0.460  0.00  0.00    +0.000 C 
BRANCH  27  31
ATOM     30  C   UNL     1      -9.501   0.248   0.359  0.00  0.00    +0.000 C 
ATOM     31  C   UNL     1      -9.012   1.315  -0.289  0.00  0.00    +0.000 C 
BRANCH  30  35
ATOM     32  C   UNL     1     -11.476  -0.588   1.720  0.00  0.00    +0.000 C 
ATOM     33  C   UNL     1     -12.889  -1.213   1.561  0.00  0.00    +0.000 C 
ATOM     34  C   UNL     1     -13.786  -0.384   0.659  0.00  0.00    +0.000 C 
ATOM     35  C   UNL     1     -10.912  -0.104   0.363  0.00  0.00    +0.000 C 
ATOM     36  C   UNL     1     -13.175  -0.279  -0.730  0.00  0.00    +0.000 C 
ATOM     37  C   UNL     1     -11.687   0.006  -0.745  0.00  0.00    +0.000 C 
ATOM     38  C   UNL     1     -10.593  -1.687   2.360  0.00  0.00    +0.000 C 
ATOM     39  C   UNL     1     -11.562   0.606   2.699  0.00  0.00    +0.000 C 
ATOM     40  C   UNL     1     -11.210   0.416  -2.119  0.00  0.00    +0.000 C 
ENDBRANCH  30  35
ENDBRANCH  27  31
ENDBRANCH  25  29
ENDBRANCH  22  26
ENDBRANCH   2  23
TORSDOF 10
