REMARK  Name = 5281224
REMARK  22 active torsions:
REMARK  status: ('A' for Active; 'I' for Inactive)
REMARK    1  A    between atoms: O_1  and  C_11
REMARK    2  A    between atoms: O_2  and  C_12
REMARK    3  A    between atoms: C_5  and  C_13
REMARK    4  A    between atoms: C_5  and  C_14
REMARK    5  A    between atoms: C_6  and  C_15
REMARK    6  A    between atoms: C_6  and  C_16
REMARK    7  A    between atoms: C_9  and  C_21
REMARK    8  A    between atoms: C_10  and  C_22
REMARK    9  A    between atoms: C_17  and  C_23
REMARK   10  A    between atoms: C_18  and  C_24
REMARK   11  A    between atoms: C_25  and  C_27
REMARK   12  A    between atoms: C_26  and  C_28
REMARK   13  A    between atoms: C_27  and  C_29
REMARK   14  A    between atoms: C_28  and  C_30
REMARK   15  A    between atoms: C_31  and  C_33
REMARK   16  A    between atoms: C_32  and  C_34
REMARK   17  A    between atoms: C_35  and  C_37
REMARK   18  A    between atoms: C_36  and  C_38
REMARK   19  A    between atoms: C_37  and  C_39
REMARK   20  A    between atoms: C_38  and  C_40
REMARK   21  A    between atoms: C_41  and  C_43
REMARK   22  A    between atoms: C_42  and  C_44
REMARK                            x       y       z     vdW  Elec       q    Type
REMARK                         _______ _______ _______ _____ _____    ______ ____
ROOT
ATOM      1  C   UNL     1      -0.542  -0.778   0.002  0.00  0.00    +0.000 C 
ATOM      2  C   UNL     1       0.494   0.079   0.002  0.00  0.00    +0.000 C 
ENDROOT
BRANCH   1   5
ATOM      3  C   UNL     1      -3.010  -1.263  -0.000  0.00  0.00    +0.000 C 
ATOM      4  C   UNL     1      -2.915  -2.768  -0.015  0.00  0.00    +0.000 C 
ATOM      5  C   UNL     1      -1.949  -0.426  -0.000  0.00  0.00    +0.000 C 
BRANCH   3   7
ATOM      6  C   UNL     1      -5.522  -1.336  -0.009  0.00  0.00    +0.000 C 
ATOM      7  C   UNL     1      -4.353  -0.675  -0.008  0.00  0.00    +0.000 C 
BRANCH   6  10
ATOM      8  C   UNL     1      -8.046  -1.262   0.002  0.00  0.00    +0.000 C 
ATOM      9  C   UNL     1      -8.146  -2.768  -0.047  0.00  0.00    +0.000 C 
ATOM     10  C   UNL     1      -6.821  -0.693   0.002  0.00  0.00    +0.000 C 
BRANCH   8  12
ATOM     11  C   UNL     1     -10.537  -1.004   0.014  0.00  0.00    +0.000 C 
ATOM     12  C   UNL     1      -9.293  -0.498   0.013  0.00  0.00    +0.000 C 
BRANCH  11  16
ATOM     13  O   UNL     1     -13.100   2.869   1.318  0.00  0.00    +0.000 OA
ATOM     14  C   UNL     1     -12.881  -0.676  -0.882  0.00  0.00    +0.000 C 
ATOM     15  C   UNL     1     -13.915   0.448  -1.131  0.00  0.00    +0.000 C 
ATOM     16  C   UNL     1     -11.731  -0.174   0.020  0.00  0.00    +0.000 C 
ATOM     17  C   UNL     1     -14.304   1.161   0.147  0.00  0.00    +0.000 C 
ATOM     18  C   UNL     1     -12.386  -1.117  -2.283  0.00  0.00    +0.000 C 
ATOM     19  C   UNL     1     -13.579  -1.879  -0.210  0.00  0.00    +0.000 C 
ATOM     20  C   UNL     1     -11.802   0.952   0.769  0.00  0.00    +0.000 C 
ATOM     21  C   UNL     1     -13.070   1.763   0.777  0.00  0.00    +0.000 C 
ATOM     22  C   UNL     1     -10.726   1.510   1.666  0.00  0.00    +0.000 C 
BRANCH  17  23
ATOM     23  O   UNL     1     -15.215   2.207  -0.145  0.00  0.00    +0.000 OA
ATOM     24  H   UNL     1     -15.503   2.590   0.701  0.00  0.00    +0.000 HD
ENDBRANCH  17  23
ENDBRANCH  11  16
ENDBRANCH   8  12
ENDBRANCH   6  10
ENDBRANCH   3   7
ENDBRANCH   1   5
BRANCH   2  27
ATOM     25  C   UNL     1       2.956   0.621   0.004  0.00  0.00    +0.000 C 
ATOM     26  C   UNL     1       2.687   2.106   0.035  0.00  0.00    +0.000 C 
ATOM     27  C   UNL     1       1.909  -0.231   0.005  0.00  0.00    +0.000 C 
BRANCH  25  29
ATOM     28  C   UNL     1       5.438   0.972   0.007  0.00  0.00    +0.000 C 
ATOM     29  C   UNL     1       4.351   0.180   0.007  0.00  0.00    +0.000 C 
BRANCH  28  32
ATOM     30  C   UNL     1       7.959   1.116   0.007  0.00  0.00    +0.000 C 
ATOM     31  C   UNL     1       7.917   2.627   0.016  0.00  0.00    +0.000 C 
ATOM     32  C   UNL     1       6.789   0.440   0.007  0.00  0.00    +0.000 C 
BRANCH  30  34
ATOM     33  C   UNL     1      10.463   1.108   0.006  0.00  0.00    +0.000 C 
ATOM     34  C   UNL     1       9.276   0.479   0.006  0.00  0.00    +0.000 C 
BRANCH  33  38
ATOM     35  O   UNL     1      13.410  -2.485   1.301  0.00  0.00    +0.000 OA
ATOM     36  C   UNL     1      12.827   1.022  -0.893  0.00  0.00    +0.000 C 
ATOM     37  C   UNL     1      13.970   0.011  -1.145  0.00  0.00    +0.000 C 
ATOM     38  C   UNL     1      11.736   0.405   0.009  0.00  0.00    +0.000 C 
ATOM     39  C   UNL     1      14.431  -0.661   0.132  0.00  0.00    +0.000 C 
ATOM     40  C   UNL     1      12.288   1.412  -2.292  0.00  0.00    +0.000 C 
ATOM     41  C   UNL     1      13.400   2.289  -0.220  0.00  0.00    +0.000 C 
ATOM     42  C   UNL     1      11.922  -0.710   0.756  0.00  0.00    +0.000 C 
ATOM     43  C   UNL     1      13.267  -1.387   0.762  0.00  0.00    +0.000 C 
ATOM     44  C   UNL     1      10.910  -1.376   1.654  0.00  0.00    +0.000 C 
BRANCH  39  45
ATOM     45  O   UNL     1      15.444  -1.608  -0.163  0.00  0.00    +0.000 OA
ATOM     46  H   UNL     1      15.771  -1.961   0.682  0.00  0.00    +0.000 HD
ENDBRANCH  39  45
ENDBRANCH  33  38
ENDBRANCH  30  34
ENDBRANCH  28  32
ENDBRANCH  25  29
ENDBRANCH   2  27
TORSDOF 12
