REMARK  Name = 15143646
REMARK  7 active torsions:
REMARK  status: ('A' for Active; 'I' for Inactive)
REMARK    1  A    between atoms: C_1  and  C_7
REMARK    2  A    between atoms: C_1  and  C_8
REMARK    3  A    between atoms: C_4  and  C_9
REMARK    4  A    between atoms: C_6  and  C_10
REMARK    5  A    between atoms: C_11  and  C_12
REMARK    6  A    between atoms: C_12  and  C_13
REMARK    7  A    between atoms: C_14  and  C_15
REMARK                            x       y       z     vdW  Elec       q    Type
REMARK                         _______ _______ _______ _____ _____    ______ ____
ROOT
ATOM      1  C   UNL     1      -1.933  -1.083  -0.074  0.00  0.00    +0.000 C 
ATOM      2  C   UNL     1      -3.383  -0.539   0.041  0.00  0.00    +0.000 C 
ATOM      3  C   UNL     1      -3.544   0.814  -0.628  0.00  0.00    +0.000 C 
ATOM      4  C   UNL     1      -0.887   0.016   0.227  0.00  0.00    +0.000 C 
ATOM      5  C   UNL     1      -2.622   1.832   0.026  0.00  0.00    +0.000 C 
ATOM      6  C   UNL     1      -1.217   1.330   0.295  0.00  0.00    +0.000 C 
ATOM      7  C   UNL     1      -1.712  -1.629  -1.504  0.00  0.00    +0.000 C 
ATOM      8  C   UNL     1      -1.840  -2.264   0.923  0.00  0.00    +0.000 C 
ATOM      9  C   UNL     1      -0.274   2.461   0.635  0.00  0.00    +0.000 C 
ENDROOT
BRANCH   4  10
ATOM     10  C   UNL     1       0.479  -0.448   0.406  0.00  0.00    +0.000 C 
ATOM     11  C   UNL     1       1.529   0.201  -0.098  0.00  0.00    +0.000 C 
BRANCH  11  12
ATOM     12  C   UNL     1       2.933  -0.197   0.034  0.00  0.00    +0.000 C 
ATOM     13  C   UNL     1       3.231  -1.452   0.813  0.00  0.00    +0.000 C 
ATOM     14  C   UNL     1       3.879   0.576  -0.540  0.00  0.00    +0.000 C 
ATOM     15  C   UNL     1       5.362   0.384  -0.555  0.00  0.00    +0.000 C 
ENDBRANCH  11  12
ENDBRANCH   4  10
TORSDOF 2
