REMARK  Name = 3085201
REMARK  4 active torsions:
REMARK  status: ('A' for Active; 'I' for Inactive)
REMARK    1  A    between atoms: S_1  and  O_2
REMARK    2  A    between atoms: S_1  and  O_4
REMARK    3  A    between atoms: O_2  and  C_12
REMARK    4  A    between atoms: C_8  and  C_18
REMARK                            x       y       z     vdW  Elec       q    Type
REMARK                         _______ _______ _______ _____ _____    ______ ____
ROOT
ATOM      1  O   UNL     1      -6.809   0.417  -0.893  0.00  0.00    +0.000 OA
ATOM      2  C   UNL     1       0.714  -0.892  -0.225  0.00  0.00    +0.000 C 
ATOM      3  C   UNL     1       1.548   0.290   0.305  0.00  0.00    +0.000 C 
ATOM      4  C   UNL     1      -0.709  -0.903   0.338  0.00  0.00    +0.000 C 
ATOM      5  C   UNL     1      -1.423   0.416  -0.081  0.00  0.00    +0.000 C 
ATOM      6  C   UNL     1       0.881   1.590  -0.162  0.00  0.00    +0.000 C 
ATOM      7  C   UNL     1       2.892  -0.027  -0.378  0.00  0.00    +0.000 C 
ATOM      8  C   UNL     1       1.617  -2.100   0.011  0.00  0.00    +0.000 C 
ATOM      9  C   UNL     1      -0.588   1.670   0.290  0.00  0.00    +0.000 C 
ATOM     10  C   UNL     1      -2.873   0.475   0.489  0.00  0.00    +0.000 C 
ATOM     11  C   UNL     1       3.038  -1.554  -0.225  0.00  0.00    +0.000 C 
ATOM     12  C   UNL     1      -1.513  -2.111  -0.157  0.00  0.00    +0.000 C 
ATOM     13  C   UNL     1       1.720   0.324   1.845  0.00  0.00    +0.000 C 
ATOM     14  C   UNL     1      -2.919  -2.099   0.432  0.00  0.00    +0.000 C 
ATOM     15  C   UNL     1      -3.641  -0.801   0.168  0.00  0.00    +0.000 C 
ATOM     16  C   UNL     1      -3.606   1.730  -0.030  0.00  0.00    +0.000 C 
ATOM     17  C   UNL     1      -5.102   1.678   0.221  0.00  0.00    +0.000 C 
ATOM     18  C   UNL     1      -4.905  -0.820  -0.284  0.00  0.00    +0.000 C 
ATOM     19  C   UNL     1      -5.688   0.432  -0.391  0.00  0.00    +0.000 C 
ENDROOT
BRANCH   7  20
ATOM     20  O   UNL     1       3.983   0.664   0.199  0.00  0.00    +0.000 OA
BRANCH  20  21
ATOM     21  S   UNL     1       5.504   0.395  -0.347  0.00  0.00    +0.000 S 
ATOM     22  O   UNL     1       5.802  -1.012  -0.151  0.00  0.00    +0.000 OA
ATOM     23  O   UNL     1       5.640   0.993  -1.662  0.00  0.00    +0.000 OA
BRANCH  21  24
ATOM     24  O   UNL     1       6.436   1.243   0.689  0.00  0.00    +0.000 OA
ATOM     25  H   UNL     1       6.136   2.166   0.867  0.00  0.00    +0.000 HD
ENDBRANCH  21  24
ENDBRANCH  20  21
ENDBRANCH   7  20
TORSDOF 3
