REMARK  Name = 5280899
REMARK  22 active torsions:
REMARK  status: ('A' for Active; 'I' for Inactive)
REMARK    1  A    between atoms: O_1  and  C_7
REMARK    2  A    between atoms: O_2  and  C_8
REMARK    3  A    between atoms: C_3  and  C_15
REMARK    4  A    between atoms: C_3  and  C_16
REMARK    5  A    between atoms: C_4  and  C_17
REMARK    6  A    between atoms: C_4  and  C_18
REMARK    7  A    between atoms: C_9  and  C_19
REMARK    8  A    between atoms: C_10  and  C_20
REMARK    9  A    between atoms: C_13  and  C_21
REMARK   10  A    between atoms: C_14  and  C_22
REMARK   11  A    between atoms: C_23  and  C_25
REMARK   12  A    between atoms: C_24  and  C_26
REMARK   13  A    between atoms: C_25  and  C_27
REMARK   14  A    between atoms: C_26  and  C_28
REMARK   15  A    between atoms: C_29  and  C_31
REMARK   16  A    between atoms: C_30  and  C_32
REMARK   17  A    between atoms: C_33  and  C_35
REMARK   18  A    between atoms: C_34  and  C_36
REMARK   19  A    between atoms: C_35  and  C_37
REMARK   20  A    between atoms: C_36  and  C_38
REMARK   21  A    between atoms: C_39  and  C_41
REMARK   22  A    between atoms: C_40  and  C_42
REMARK                            x       y       z     vdW  Elec       q    Type
REMARK                         _______ _______ _______ _____ _____    ______ ____
ROOT
ATOM      1  C   UNL     1       0.755   1.254   0.136  0.00  0.00    +0.000 C 
ATOM      2  C   UNL     1      -0.243   0.355   0.102  0.00  0.00    +0.000 C 
ENDROOT
BRANCH   1   5
ATOM      3  C   UNL     1       3.199   1.844   0.208  0.00  0.00    +0.000 C 
ATOM      4  C   UNL     1       3.041   3.344   0.194  0.00  0.00    +0.000 C 
ATOM      5  C   UNL     1       2.175   0.963   0.174  0.00  0.00    +0.000 C 
BRANCH   3   7
ATOM      6  C   UNL     1       5.705   2.023   0.274  0.00  0.00    +0.000 C 
ATOM      7  C   UNL     1       4.565   1.313   0.238  0.00  0.00    +0.000 C 
BRANCH   6  10
ATOM      8  C   UNL     1       8.228   2.055   0.358  0.00  0.00    +0.000 C 
ATOM      9  C   UNL     1       8.267   3.564   0.317  0.00  0.00    +0.000 C 
ATOM     10  C   UNL     1       7.029   1.435   0.320  0.00  0.00    +0.000 C 
BRANCH   8  12
ATOM     11  C   UNL     1       9.822   0.231  -0.276  0.00  0.00    +0.000 C 
ATOM     12  C   UNL     1       9.506   1.344   0.404  0.00  0.00    +0.000 C 
BRANCH  11  16
ATOM     13  C   UNL     1      11.085  -1.969  -0.171  0.00  0.00    +0.000 C 
ATOM     14  C   UNL     1      12.458  -2.567   0.236  0.00  0.00    +0.000 C 
ATOM     15  C   UNL     1      13.619  -1.869  -0.455  0.00  0.00    +0.000 C 
ATOM     16  C   UNL     1      11.116  -0.423  -0.172  0.00  0.00    +0.000 C 
ATOM     17  C   UNL     1      13.633  -0.393  -0.081  0.00  0.00    +0.000 C 
ATOM     18  C   UNL     1      12.275   0.279  -0.104  0.00  0.00    +0.000 C 
ATOM     19  C   UNL     1      10.058  -2.531   0.842  0.00  0.00    +0.000 C 
ATOM     20  C   UNL     1      10.715  -2.481  -1.581  0.00  0.00    +0.000 C 
ATOM     21  C   UNL     1      12.395   1.784  -0.048  0.00  0.00    +0.000 C 
BRANCH  15  22
ATOM     22  O   UNL     1      14.848  -2.454  -0.036  0.00  0.00    +0.000 OA
ATOM     23  H   UNL     1      14.823  -3.395  -0.282  0.00  0.00    +0.000 HD
ENDBRANCH  15  22
ENDBRANCH  11  16
ENDBRANCH   8  12
ENDBRANCH   6  10
ENDBRANCH   3   7
ENDBRANCH   1   5
BRANCH   2  26
ATOM     24  C   UNL     1      -2.679  -0.291   0.030  0.00  0.00    +0.000 C 
ATOM     25  C   UNL     1      -2.348  -1.764   0.064  0.00  0.00    +0.000 C 
ATOM     26  C   UNL     1      -1.670   0.604   0.064  0.00  0.00    +0.000 C 
BRANCH  24  28
ATOM     27  C   UNL     1      -5.143  -0.747  -0.042  0.00  0.00    +0.000 C 
ATOM     28  C   UNL     1      -4.092   0.090  -0.007  0.00  0.00    +0.000 C 
BRANCH  27  31
ATOM     29  C   UNL     1      -7.654  -0.998  -0.117  0.00  0.00    +0.000 C 
ATOM     30  C   UNL     1      -7.549  -2.506  -0.111  0.00  0.00    +0.000 C 
ATOM     31  C   UNL     1      -6.515  -0.273  -0.080  0.00  0.00    +0.000 C 
BRANCH  29  33
ATOM     32  C   UNL     1     -10.155  -1.096  -0.192  0.00  0.00    +0.000 C 
ATOM     33  C   UNL     1      -8.997  -0.417  -0.155  0.00  0.00    +0.000 C 
BRANCH  32  37
ATOM     34  C   UNL     1     -12.548  -1.097   0.659  0.00  0.00    +0.000 C 
ATOM     35  C   UNL     1     -13.954  -0.527   0.338  0.00  0.00    +0.000 C 
ATOM     36  C   UNL     1     -13.946   0.986   0.198  0.00  0.00    +0.000 C 
ATOM     37  C   UNL     1     -11.456  -0.448  -0.224  0.00  0.00    +0.000 C 
ATOM     38  C   UNL     1     -13.017   1.396  -0.936  0.00  0.00    +0.000 C 
ATOM     39  C   UNL     1     -11.690   0.666  -0.962  0.00  0.00    +0.000 C 
ATOM     40  C   UNL     1     -12.230  -0.837   2.150  0.00  0.00    +0.000 C 
ATOM     41  C   UNL     1     -12.645  -2.626   0.436  0.00  0.00    +0.000 C 
ATOM     42  C   UNL     1     -10.701   1.335  -1.890  0.00  0.00    +0.000 C 
BRANCH  36  43
ATOM     43  O   UNL     1     -15.260   1.447  -0.104  0.00  0.00    +0.000 OA
ATOM     44  H   UNL     1     -15.840   1.178   0.629  0.00  0.00    +0.000 HD
ENDBRANCH  36  43
ENDBRANCH  32  37
ENDBRANCH  29  33
ENDBRANCH  27  31
ENDBRANCH  24  28
ENDBRANCH   2  26
TORSDOF 12
