REMARK  Name = 65781
REMARK  9 active torsions:
REMARK  status: ('A' for Active; 'I' for Inactive)
REMARK    1  A    between atoms: S_1  and  O_4
REMARK    2  A    between atoms: S_1  and  C_22
REMARK    3  A    between atoms: O_2  and  C_19
REMARK    4  A    between atoms: C_8  and  C_16
REMARK    5  A    between atoms: C_9  and  C_18
REMARK    6  A    between atoms: C_9  and  C_19
REMARK    7  A    between atoms: C_23  and  C_24
REMARK    8  A    between atoms: C_24  and  C_25
REMARK    9  A    between atoms: C_24  and  C_26
REMARK                            x       y       z     vdW  Elec       q    Type
REMARK                         _______ _______ _______ _____ _____    ______ ____
ROOT
ATOM      1  C   UNL     1       2.294  -0.323  -0.067  0.00  0.00    +0.000 C 
ATOM      2  C   UNL     1       1.241   0.753  -0.520  0.00  0.00    +0.000 C 
ATOM      3  C   UNL     1       3.786   0.135  -0.021  0.00  0.00    +0.000 C 
ATOM      4  C   UNL     1       1.487   2.040   0.316  0.00  0.00    +0.000 C 
ATOM      5  C   UNL     1       2.068  -1.638  -0.831  0.00  0.00    +0.000 C 
ATOM      6  C   UNL     1       3.911   1.471   0.741  0.00  0.00    +0.000 C 
ATOM      7  C   UNL     1       2.931   2.535   0.266  0.00  0.00    +0.000 C 
ATOM      8  C   UNL     1      -0.178   0.178  -0.302  0.00  0.00    +0.000 A 
ATOM      9  C   UNL     1       0.705  -2.225  -0.477  0.00  0.00    +0.000 C 
ATOM     10  C   UNL     1       1.296   1.117  -2.025  0.00  0.00    +0.000 C 
ATOM     11  C   UNL     1      -0.407  -1.216  -0.333  0.00  0.00    +0.000 A 
ATOM     12  C   UNL     1       4.502   0.213  -1.376  0.00  0.00    +0.000 C 
ATOM     13  C   UNL     1      -1.290   1.029  -0.142  0.00  0.00    +0.000 A 
ATOM     14  C   UNL     1      -1.713  -1.714  -0.171  0.00  0.00    +0.000 A 
ATOM     15  C   UNL     1      -2.581   0.520   0.011  0.00  0.00    +0.000 A 
ATOM     16  C   UNL     1      -2.792  -0.852  -0.000  0.00  0.00    +0.000 A 
ENDROOT
BRANCH  15  17
ATOM     17  S   UNL     1      -3.911   1.640   0.208  0.00  0.00    +0.000 S 
ATOM     18  O   UNL     1      -3.381   2.988   0.075  0.00  0.00    +0.000 OA
ATOM     19  O   UNL     1      -4.984   1.173  -0.653  0.00  0.00    +0.000 OA
BRANCH  17  20
ATOM     20  O   UNL     1      -4.389   1.464   1.761  0.00  0.00    +0.000 OA
ATOM     21  H   UNL     1      -3.706   1.674   2.440  0.00  0.00    +0.000 HD
ENDBRANCH  17  20
ENDBRANCH  15  17
BRANCH  16  22
ATOM     22  C   UNL     1      -4.158  -1.433   0.164  0.00  0.00    +0.000 C 
ATOM     23  C   UNL     1      -4.276  -2.310   1.425  0.00  0.00    +0.000 C 
ATOM     24  C   UNL     1      -4.609  -2.232  -1.073  0.00  0.00    +0.000 C 
ENDBRANCH  16  22
BRANCH   3  26
ATOM     25  O   UNL     1       4.058  -1.897   1.290  0.00  0.00    +0.000 OA
ATOM     26  C   UNL     1       4.545  -0.887   0.803  0.00  0.00    +0.000 C 
BRANCH  26  27
ATOM     27  O   UNL     1       5.845  -0.528   0.933  0.00  0.00    +0.000 OA
ATOM     28  H   UNL     1       6.353  -1.177   1.464  0.00  0.00    +0.000 HD
ENDBRANCH  26  27
ENDBRANCH   3  26
TORSDOF 5
